#------------------------------------------------------------------------------
#$Date: 2015-10-07 22:46:10 +0300 (Wed, 07 Oct 2015) $
#$Revision: 160847 $
#$URL: svn://www.crystallography.net/cod/cif/7/03/67/7036761.cif $
#------------------------------------------------------------------------------
#
# This file is available in the Crystallography Open Database (COD),
# http://www.crystallography.net/
#
# All data on this site have been placed in the public domain by the
# contributors.
#
data_7036761
loop_
_publ_author_name
'Zimmermann, Iwan'
'Corgnet, Alexis'
'Johnsson, Mats'
'Lidin, Sven'
_publ_section_title
;
 Synthesis and crystal structure of a series of incommensurately modulated
 composite oxohalide compounds.
;
_journal_name_full
'Dalton transactions (Cambridge, England : 2003)'
_journal_paper_doi               10.1039/c4dt02084g
_journal_year                    2014
_chemical_formula_sum            'Cl4 O7.61 Sb4 Zn3.61'
_chemical_formula_weight         986.6
_chemical_name_systematic        ' ?'
_space_group_IT_number           4
_space_group_ssg_name            P21(\a0\g)0
_symmetry_cell_setting           monoclinic
_symmetry_space_group_name_Hall  'P 2yb (x+1/4,y,z)'
_symmetry_space_group_name_H-M   'P 1 21 1 (a-1/4,b,c)'
_cell_angle_alpha                90
_cell_angle_beta                 91.024(11)
_cell_angle_gamma                90
_cell_formula_units_Z            2
_cell_length_a                   4.0634(6)
_cell_length_b                   17.163(2)
_cell_length_c                   10.4699(13)
_cell_measurement_reflns_used    1865
_cell_measurement_temperature    293
_cell_measurement_theta_max      33.56
_cell_measurement_theta_min      3.25
_cell_modulation_dimension       1
_cell_subsystems_number          2
_cell_volume                     730.06(16)
_computing_cell_refinement
;
CrysAlisPro, Agilent Technologies,
Version 1.171.34.49 (release 20-01-2011 CrysAlis171 .NET)
(compiled Jan 20 2011,15:58:25)
;
_computing_data_collection
;
CrysAlisPro, Agilent Technologies,
Version 1.171.34.49 (release 20-01-2011 CrysAlis171 .NET)
(compiled Jan 20 2011,15:58:25)
;
_computing_data_reduction
;
CrysAlisPro, Agilent Technologies,
Version 1.171.34.49 (release 20-01-2011 CrysAlis171 .NET)
(compiled Jan 20 2011,15:58:25)
;
_diffrn_ambient_temperature      293
_diffrn_detector_area_resol_mean 16.5467
_diffrn_measured_fraction_theta_full 0.88
_diffrn_measured_fraction_theta_max 0.71
_diffrn_measurement_device       'four-cycle diffractometer'
_diffrn_measurement_device_type  'Xcalibur, Sapphire3'
_diffrn_measurement_method       '\w scans'
_diffrn_radiation_monochromator  graphite
_diffrn_radiation_source         'Enhance (Mo) X-ray Source'
_diffrn_radiation_type           'Mo K\a'
_diffrn_radiation_wavelength     0.7107
_diffrn_reflns_av_R_equivalents  0.1486
_diffrn_reflns_av_sigmaI/netI    0.3211
_diffrn_reflns_limit_h_max       6
_diffrn_reflns_limit_h_min       -6
_diffrn_reflns_limit_index_m_1_max 2
_diffrn_reflns_limit_index_m_1_min -2
_diffrn_reflns_limit_k_max       25
_diffrn_reflns_limit_k_min       -25
_diffrn_reflns_limit_l_max       14
_diffrn_reflns_limit_l_min       -16
_diffrn_reflns_number            39655
_diffrn_reflns_theta_full        15.85
_diffrn_reflns_theta_max         33.64
_diffrn_reflns_theta_min         3.26
_exptl_absorpt_coefficient_mu    13.86
_exptl_absorpt_correction_T_max  1
_exptl_absorpt_correction_T_min  0.555
_exptl_absorpt_correction_type   multi-scan
_exptl_absorpt_process_details
;
CrysAlisPro, Agilent Technologies,
Version 1.171.34.49 (release 20-01-2011 CrysAlis171 .NET)
(compiled Jan 20 2011,15:58:25)
Empirical absorption correction using spherical harmonics,
 implemented in SCALE3 ABSPACK scaling algorithm.
;
_exptl_crystal_density_diffrn    4.4866
_exptl_crystal_F_000             882
_refine_diff_density_max         9.13
_refine_diff_density_min         -9.04
_refine_ls_extinction_method     none
_refine_ls_goodness_of_fit_gt    1.39
_refine_ls_goodness_of_fit_ref   1.13
_refine_ls_number_constraints    9
_refine_ls_number_parameters     362
_refine_ls_number_reflns         22220
_refine_ls_number_restraints     0
_refine_ls_R_factor_all          0.3403
_refine_ls_R_factor_gt           0.0714
_refine_ls_shift/su_max          0.0480
_refine_ls_shift/su_mean         0.0091
_refine_ls_structure_factor_coef F
_refine_ls_weighting_details     w=1/(\s^2^(F)+0.0001F^2^)
_refine_ls_weighting_scheme      sigma
_refine_ls_wR_factor_gt          0.0690
_refine_ls_wR_factor_ref         0.1404
_reflns_number_gt                3537
_reflns_number_total             22220
_reflns_threshold_expression     I>3\s(I)
_cod_data_source_file            c4dt02084g5.cif
_cod_data_source_block           I
_cod_database_code               7036761
loop_
_space_group_symop_id
_space_group_symop_operation_xyz
1 x,y,z
2 -x+0.5,y+0.5,-z
loop_
_space_group_symop_ssg_id
_space_group_symop_ssg_operation_algebraic
1 x1,x2,x3,x4
2 -x1+1/2,x2+1/2,-x3,-x4
loop_
_atom_site_label
_atom_site_type_symbol
_atom_site_fract_x
_atom_site_fract_y
_atom_site_fract_z
_atom_site_adp_type
_atom_site_U_iso_or_equiv
_atom_site_symmetry_multiplicity
_atom_site_occupancy
_atom_site_calc_flag
_atom_site_subsystem_code
Cl1 Cl 0.0460(15) 0.2103(6) 0.1204(7) Uani 0.050(3) 2 1 d 1
Cl2 Cl 0.4936(16) -0.1164(3) -0.3890(7) Uani 0.026(2) 2 1 d 1
Cl3 Cl 0.5007(19) 0.3346(5) -0.1138(7) Uani 0.039(2) 2 1 d 1
Cl4 Cl 0.0111(17) 0.0035(5) -0.6193(6) Uani 0.035(2) 2 1 d 1
Sb1 Sb 0.5152(4) 0.047105 0.04790(13) Uani 0.0181(4) 2 1 d 1
Sb2 Sb 0.0103(4) -0.07013(15) -0.14630(18) Uani 0.0233(5) 2 1 d 1
Sb3 Sb 0.4838(5) 0.17714(10) -0.54292(14) Uani 0.0185(4) 2 1 d 1
Sb4 Sb -0.0023(5) 0.28686(14) -0.35697(16) Uani 0.0213(5) 2 1 d 1
O1 O 0.987(3) 0.0107(8) -0.2625(11) Uiso 0.0049(9) 2 1 d 1
O2 O 0.495(3) 0.0885(7) -0.4148(11) Uiso 0.0049(9) 2 1 d 1
O3 O -0.023(3) 0.2007(7) -0.2165(11) Uiso 0.0049(9) 2 1 d 1
O4 O 0.014(3) 0.0176(7) -0.0103(11) Uiso 0.0049(9) 2 1 d 1
O5 O 0.379(7) -0.0579(13) -0.107(2) Uiso 0.0049(9) 2 0.90(2) d 1
O6 O -0.001(5) 0.2107(11) -0.4986(17) Uiso 0.0049(9) 2 0.71(2) d 1
O7 O 0.495(3) 0.2593(7) -0.4093(11) Uiso 0.0049(9) 2 1 d 1
O8 O 0.514(3) 0.1188(8) -0.0905(12) Uiso 0.0049(9) 2 1 d 1
Zn1 Zn 0.0894(12) 0.2190(2) -0.0627(3) Uani 0.0272(11) 2 1 d 2
Zn2 Zn 0.4970(15) 0.1075(3) -0.2484(4) Uani 0.0205(6) 2 1 d 2
Zn3 Zn 0.9145(11) -0.0043(2) -0.4349(3) Uani 0.0210(9) 2 1 d 2
loop_
_atom_site_aniso_label
_atom_site_aniso_type_symbol
_atom_site_aniso_U_11
_atom_site_aniso_U_22
_atom_site_aniso_U_33
_atom_site_aniso_U_12
_atom_site_aniso_U_13
_atom_site_aniso_U_23
Cl1 Cl 0.008(3) 0.117(8) 0.026(4) 0.014(4) -0.020(2) 0.011(4)
Cl2 Cl 0.022(3) -0.003(2) 0.058(4) 0.011(2) -0.004(3) -0.011(2)
Cl3 Cl 0.038(4) 0.054(5) 0.026(3) 0.000(4) 0.000(3) -0.017(3)
Cl4 Cl 0.025(3) 0.064(5) 0.016(3) 0.012(3) 0.000(2) -0.023(3)
Sb1 Sb 0.0078(6) 0.0434(10) 0.0031(6) -0.0014(7) 0.0021(5) -0.0038(6)
Sb2 Sb 0.0024(6) 0.0318(10) 0.0353(10) -0.0118(7) -0.0082(6) 0.0131(7)
Sb3 Sb 0.0340(9) 0.0127(6) 0.0088(6) 0.0040(7) -0.0021(6) 0.0139(5)
Sb4 Sb 0.0385(10) 0.0066(6) 0.0192(7) 0.0076(7) 0.0099(7) -0.0085(5)
Zn1 Zn 0.032(2) 0.0278(17) 0.0238(15) 0.0022(15) 0.0106(15) -0.0030(12)
Zn2 Zn 0.0193(12) 0.0244(10) 0.0178(8) -0.0005(9) 0.0030(8) -0.0037(7)
Zn3 Zn 0.0095(18) 0.0306(16) 0.0218(14) -0.0046(13) -0.0019(12) -0.0126(12)
loop_
_atom_site_displace_Fourier_atom_site_label
_atom_site_displace_Fourier_axis
_atom_site_displace_Fourier_wave_vector_seq_id
_atom_site_displace_Fourier_param_cos
_atom_site_displace_Fourier_param_sin
Cl1 x 1 -0.051(2) 0.056(2)
Cl1 y 1 -0.0047(8) -0.0104(8)
Cl1 z 1 0.0263(10) 0.0217(10)
Cl1 x 2 0.011(3) -0.002(3)
Cl1 y 2 0.0017(9) 0.0005(9)
Cl1 z 2 -0.0080(11) 0.0046(11)
Cl2 x 1 -0.046(2) -0.092(2)
Cl2 y 1 0.0180(5) -0.0033(5)
Cl2 z 1 -0.0163(10) -0.0015(11)
Cl2 x 2 0.004(3) -0.020(3)
Cl2 y 2 -0.0060(5) 0.0073(5)
Cl2 z 2 0.0006(12) -0.0060(12)
Cl3 x 1 0.020(3) -0.055(3)
Cl3 y 1 -0.0119(7) -0.0139(7)
Cl3 z 1 0.0098(10) 0.0118(10)
Cl3 x 2 0.024(3) 0.012(3)
Cl3 y 2 0.0051(8) 0.0018(8)
Cl3 z 2 -0.0022(11) 0.0118(11)
Cl4 x 1 0.068(2) 0.037(2)
Cl4 y 1 0.0012(7) -0.0097(7)
Cl4 z 1 -0.0165(9) 0.0251(8)
Cl4 x 2 -0.024(3) 0.021(3)
Cl4 y 2 0.0001(8) 0.0025(7)
Cl4 z 2 0.0020(10) 0.0085(10)
Sb1 x 1 -0.0010(5) 0.0086(5)
Sb1 y 1 0.01043(15) 0.00765(17)
Sb1 z 1 0.02543(19) 0.01722(19)
Sb1 x 2 0.0170(5) -0.0033(5)
Sb1 y 2 0.00398(17) 0.00785(17)
Sb1 z 2 0.0017(2) 0.0064(2)
Sb2 x 1 0.0041(5) -0.0267(5)
Sb2 y 1 0.01203(16) 0.00088(15)
Sb2 z 1 0.0093(3) 0.0012(3)
Sb2 x 2 0.0079(6) -0.0272(5)
Sb2 y 2 -0.00295(17) -0.00207(17)
Sb2 z 2 -0.0018(3) 0.0019(3)
Sb3 x 1 -0.0034(6) 0.0100(6)
Sb3 y 1 -0.00065(13) 0.00162(13)
Sb3 z 1 -0.0102(2) 0.0068(2)
Sb3 x 2 -0.0017(6) 0.0006(6)
Sb3 y 2 0.00237(14) -0.00559(13)
Sb3 z 2 -0.0020(2) 0.0127(2)
Sb4 x 1 -0.0127(6) -0.0136(7)
Sb4 y 1 -0.00939(13) 0.00374(13)
Sb4 z 1 -0.0082(2) 0.0018(2)
Sb4 x 2 -0.0053(7) -0.0082(7)
Sb4 y 2 0.00263(14) -0.00227(14)
Sb4 z 2 -0.0006(2) 0.0007(2)
O1 x 1 0.008(5) -0.064(5)
O1 y 1 0.0168(11) -0.0069(11)
O1 z 1 0.0175(16) -0.0112(17)
O1 x 2 0.011(6) -0.070(5)
O1 y 2 -0.0012(13) -0.0005(12)
O1 z 2 0.001(2) -0.0054(19)
O2 x 1 -0.037(4) -0.044(4)
O2 y 1 -0.0058(11) -0.0057(10)
O2 z 1 -0.0262(17) 0.0139(16)
O2 x 2 -0.035(5) -0.016(5)
O2 y 2 -0.0005(12) 0.0053(12)
O2 z 2 0.005(2) 0.003(2)
O3 x 1 0.010(5) 0.008(5)
O3 y 1 -0.0164(11) -0.0009(11)
O3 z 1 -0.0174(16) -0.0009(17)
O3 x 2 0.048(5) -0.047(5)
O3 y 2 -0.0040(12) 0.0052(13)
O3 z 2 -0.0019(19) 0.0077(19)
O4 x 1 -0.008(4) 0.002(4)
O4 y 1 -0.0024(10) 0.0058(10)
O4 z 1 0.0195(16) 0.0089(16)
O4 x 2 -0.019(4) 0.022(4)
O4 y 2 -0.0051(11) -0.0001(12)
O4 z 2 0.0015(18) 0.0035(18)
O5 x 1 -0.178(11) -0.117(9)
O5 y 1 -0.005(2) -0.0110(14)
O5 z 1 -0.003(3) -0.013(2)
O5 x 2 -0.104(16) -0.239(9)
O5 y 2 -0.009(2) -0.0199(16)
O5 z 2 -0.013(3) -0.018(3)
O6 x 1 -0.098(8) -0.050(7)
O6 y 1 -0.0047(18) 0.0005(16)
O6 z 1 -0.005(3) -0.002(2)
O6 x 2 -0.064(9) -0.058(9)
O6 y 2 0.0084(18) -0.0065(18)
O6 z 2 -0.003(3) -0.004(3)
O7 x 1 -0.023(4) -0.028(4)
O7 y 1 -0.0030(10) 0.0051(10)
O7 z 1 -0.0070(17) 0.0081(17)
O7 x 2 -0.011(5) -0.008(5)
O7 y 2 0.0055(11) -0.0028(11)
O7 z 2 -0.0094(19) 0.0150(18)
O8 x 1 -0.035(5) 0.024(5)
O8 y 1 0.0133(11) 0.0125(11)
O8 z 1 0.0257(18) -0.0035(18)
O8 x 2 0.034(6) -0.065(5)
O8 y 2 0.0007(13) 0.0021(12)
O8 z 2 0.013(2) -0.003(2)
Zn1 x 1 -0.0025(17) -0.0050(15)
Zn1 y 1 -0.0073(3) -0.0043(3)
Zn1 z 1 0.0092(4) 0.0032(4)
Zn1 x 2 0.0323(18) -0.0233(19)
Zn1 y 2 -0.0005(3) -0.0013(3)
Zn1 z 2 -0.0001(4) -0.0001(5)
Zn2 x 1 -0.008(2) -0.0043(8)
Zn2 y 1 -0.0005(3) -0.00103(17)
Zn2 z 1 0.0001(5) -0.0021(3)
Zn2 x 2 -0.001(2) -0.0664(10)
Zn2 y 2 0.0001(3) 0.0005(2)
Zn2 z 2 0.0008(5) -0.0016(3)
Zn3 x 1 -0.0117(16) -0.0025(14)
Zn3 y 1 0.0058(2) -0.0045(3)
Zn3 z 1 -0.0096(4) 0.0018(4)
Zn3 x 2 -0.0487(16) -0.0251(17)
Zn3 y 2 -0.0003(3) -0.0011(3)
Zn3 z 2 0.0006(4) 0.0010(4)
loop_
_atom_site_Fourier_wave_vector_seq_id
_jana_atom_site_fourier_wave_vector_q1_coeff
1 1
2 2
loop_
_atom_site_occ_Fourier_atom_site_label
_atom_site_occ_Fourier_wave_vector_seq_id
_atom_site_occ_Fourier_param_cos
_atom_site_occ_Fourier_param_sin
O5 1 -0.07(5) 0.17(5)
O5 2 -0.37(6) 0.04(6)
O6 1 0.17(4) 0.08(4)
O6 2 -0.12(5) 0.01(5)
loop_
_atom_type_symbol
_atom_type_scat_dispersion_real
_atom_type_scat_dispersion_imag
_atom_type_scat_source
Cl 0.1484 0.1585 'International Tables Vol C tables 4.2.6.8 and 6.1.1.1'
O 0.0106 0.0060 'International Tables Vol C tables 4.2.6.8 and 6.1.1.1'
Sb -0.5866 1.5461 'International Tables Vol C tables 4.2.6.8 and 6.1.1.1'
Zn 0.2839 1.4301 'International Tables Vol C tables 4.2.6.8 and 6.1.1.1'
loop_
_cell_subsystem_code
_cell_subsystem_description
_cell_subsystem_matrix_W_1_1
_cell_subsystem_matrix_W_1_2
_cell_subsystem_matrix_W_1_3
_cell_subsystem_matrix_W_1_4
_cell_subsystem_matrix_W_2_1
_cell_subsystem_matrix_W_2_2
_cell_subsystem_matrix_W_2_3
_cell_subsystem_matrix_W_2_4
_cell_subsystem_matrix_W_3_1
_cell_subsystem_matrix_W_3_2
_cell_subsystem_matrix_W_3_3
_cell_subsystem_matrix_W_3_4
_cell_subsystem_matrix_W_4_1
_cell_subsystem_matrix_W_4_2
_cell_subsystem_matrix_W_4_3
_cell_subsystem_matrix_W_4_4
1 '1-st subsystem' 1 0 0 0 0 1 0 0 0 0 1 0 0 0 0 1
2 '2-nd subsystem' 1 0 0 1 0 1 0 0 0 0 1 0 0 0 0 1
loop_
_cell_wave_vector_seq_id
_cell_wave_vector_x
_cell_wave_vector_y
_cell_wave_vector_z
1 0.203200 0.000000 0.360200
loop_
_refln_index_h
_refln_index_k
_refln_index_l
_refln_index_m_1
_refln_F_squared_calc
_refln_F_squared_meas
_refln_F_squared_sigma
_refln_observed_status
1 0 0 -2 53.92 -8.00 18.63 <
1 0 0 -1 0.48 63.24 38.65 <
1 0 0 0 136.92 142.92 64.83 <
1 0 0 1 29.66 -9.63 36.59 <
2 0 0 -2 679.15 392.31 89.62 o
2 0 0 -1 536.55 469.95 99.86 o
2 0 0 0 109173.00 116647.00 1565.06 o
2 0 0 1 59.29 234.43 95.64 <
2 0 0 2 8521.79 7974.87 716.46 o
3 0 0 -2 75.44 69.68 59.35 <
3 0 0 -1 101.08 93.92 84.79 <
3 0 0 0 144.74 259.37 124.12 <
3 0 0 1 2.62 -7.41 102.55 <
3 0 0 2 1.90 185.43 158.32 <
4 0 0 -2 373.57 359.89 153.20 <
4 0 0 -1 471.52 16.48 124.38 <
4 0 0 0 23951.90 25521.90 1761.12 o
4 0 0 1 81.51 -58.94 175.19 <
4 0 0 2 19.16 295.48 242.97 <
5 0 0 -2 50.06 344.50 286.37 <
5 0 0 -1 18.54 69.76 169.53 <
5 0 0 0 0.63 -287.67 302.35 <
5 0 0 1 1.15 185.27 282.41 <
5 0 0 2 0.52 430.18 336.52 <
6 0 0 -2 89.37 198.97 154.71 <
6 0 0 -1 265.93 -17.02 139.57 <
6 0 0 0 2796.34 2439.03 519.19 o
1 1 0 -2 35.74 21.18 23.17 <
1 -1 0 -2 36.04 25.74 18.31 <
1 1 0 -1 27.50 10.06 22.17 <
1 -1 0 -1 27.86 11.54 23.89 <
1 1 0 0 2547.49 2552.39 189.32 o
1 -1 0 0 2423.40 2799.97 131.64 o
1 1 0 1 729.40 731.57 110.29 o
1 -1 0 1 752.94 756.48 77.31 o
1 1 0 2 27.90 -6.09 44.33 <
1 -1 0 2 24.75 43.44 39.70 <
2 1 0 -2 51.33 137.21 53.02 <
2 -1 0 -2 50.60 92.75 32.24 <
2 1 0 -1 64.48 87.20 64.87 <
2 -1 0 -1 65.06 55.52 25.11 <
2 1 0 0 421.96 333.39 116.51 <
2 -1 0 0 401.40 267.41 67.03 o
2 1 0 1 203.00 253.39 109.77 <
2 -1 0 1 211.18 135.21 76.01 <
2 1 0 2 1929.70 2267.69 257.67 o
2 -1 0 2 1936.21 2072.85 371.92 o
3 1 0 -2 4.81 46.85 90.77 <
3 -1 0 -2 6.01 48.81 68.87 <
3 1 0 -1 140.26 168.68 77.24 <
3 -1 0 -1 153.95 216.25 90.42 <
3 1 0 0 1997.24 2084.74 275.50 o
3 -1 0 0 1898.75 1955.95 389.44 o
3 1 0 1 116.25 236.80 130.16 <
3 -1 0 1 122.02 212.10 134.27 <
3 1 0 2 96.18 233.25 202.23 <
3 -1 0 2 97.48 340.65 246.82 <
4 1 0 -2 70.08 -38.50 96.42 <
4 -1 0 -2 69.43 51.05 138.42 <
4 1 0 -1 6.72 100.64 102.20 <
4 1 0 0 521.91 521.06 327.82 <
4 -1 0 0 510.14 200.41 200.19 <
4 1 0 1 50.50 10.50 241.69 <
4 -1 0 1 55.47 5.06 128.97 <
4 1 0 2 430.77 195.23 158.55 <
4 -1 0 2 401.75 -59.52 77.27 <
5 1 0 -2 97.18 218.36 245.58 <
5 -1 0 -2 102.19 180.97 139.23 <
5 1 0 -1 378.44 -29.63 132.21 <
5 -1 0 -1 404.57 338.81 254.54 <
5 1 0 0 667.01 405.57 288.73 <
5 -1 0 0 636.05 583.45 326.17 <
5 1 0 1 117.29 -75.94 182.82 <
5 -1 0 1 113.00 339.67 308.67 <
5 1 0 2 228.68 -73.51 215.34 <
5 -1 0 2 234.49 628.06 362.67 <
6 1 0 -2 61.19 -263.95 123.55 <
6 -1 0 -2 59.36 82.53 280.65 <
6 1 0 -1 15.52 -190.68 347.59 <
6 -1 0 -1 17.29 102.20 104.05 <
6 1 0 0 346.32 541.12 275.61 <
6 -1 0 0 352.26 202.51 181.69 <
0 2 0 2 11.20 31.91 27.29 <
0 -2 0 2 11.83 44.03 20.54 <
1 2 0 -2 49.61 -44.89 48.96 <
1 -2 0 -2 48.13 -0.67 18.72 <
1 2 0 -1 58.91 31.29 24.41 <
1 -2 0 -1 66.54 3.07 27.52 <
1 2 0 0 94.90 130.64 48.39 <
1 -2 0 0 94.95 117.46 44.61 <
1 2 0 1 956.77 1078.64 131.07 o
1 -2 0 1 937.44 1113.51 113.55 o
1 2 0 2 92.46 17.22 29.31 <
1 -2 0 2 91.25 9.02 29.13 <
2 2 0 -2 93.00 -27.00 36.66 <
2 -2 0 -2 81.14 77.77 42.70 <
2 2 0 -1 1771.83 1777.96 226.88 o
2 -2 0 -1 1767.22 1718.61 111.46 o
2 2 0 0 87.70 70.24 31.54 <
2 -2 0 0 85.63 58.50 42.98 <
2 2 0 1 183.76 11.43 29.92 <
2 -2 0 1 181.05 86.18 38.61 <
2 2 0 2 1013.41 895.06 180.03 o
2 -2 0 2 1056.74 672.57 236.60 <
3 2 0 -2 22.25 -85.75 50.42 <
3 -2 0 -2 23.81 24.79 56.70 <
3 2 0 -1 273.95 384.00 122.94 o
3 -2 0 -1 277.15 164.01 85.88 <
3 2 0 0 307.17 340.24 137.09 <
3 -2 0 0 324.22 81.63 141.20 <
3 2 0 1 1174.42 1140.68 215.60 o
3 -2 0 1 1177.39 1135.47 313.09 o
3 2 0 2 155.41 326.06 271.37 <
3 -2 0 2 174.48 410.12 224.28 <
4 2 0 -2 259.30 28.33 71.61 <
4 -2 0 -2 245.60 -147.77 142.05 <
4 2 0 -1 1338.69 907.45 224.47 o
4 -2 0 -1 1329.20 605.74 243.49 <
4 2 0 0 566.58 229.97 225.15 <
4 -2 0 0 560.52 395.92 72.27 o
4 2 0 1 103.27 135.51 157.44 <
4 -2 0 1 115.05 150.97 125.03 <
4 2 0 2 570.67 409.39 274.02 <
4 -2 0 2 540.78 216.14 227.41 <
5 2 0 -2 23.15 -20.39 128.59 <
5 -2 0 -2 25.03 367.76 292.60 <
5 2 0 -1 83.48 -9.80 181.80 <
5 -2 0 -1 87.17 478.60 334.13 <
5 2 0 0 148.63 138.64 268.47 <
5 -2 0 0 157.52 628.65 411.76 <
5 2 0 1 55.72 38.44 108.83 <
5 -2 0 1 54.65 646.24 389.90 <
5 2 0 2 170.99 335.76 276.47 <
5 -2 0 2 177.90 544.91 304.46 <
6 2 0 -2 248.26 294.08 303.87 <
6 -2 0 -2 242.13 306.13 355.76 <
6 2 0 -1 482.10 144.86 202.36 <
6 -2 0 -1 481.15 1161.81 554.17 <
6 2 0 0 267.69 473.95 261.71 <
6 -2 0 0 258.18 312.76 274.74 <
0 -3 0 1 13.84 3.52 19.04 <
0 -3 0 2 276.01 82.22 29.65 <
1 3 0 -2 12.99 82.50 61.70 <
1 -3 0 -2 16.06 48.85 31.50 <
1 3 0 -1 129.65 70.77 47.85 <
1 -3 0 -1 122.10 120.96 36.52 o
1 3 0 0 47985.20 52472.80 876.36 o
1 -3 0 0 47856.40 51509.70 610.35 o
1 3 0 1 10286.90 10969.10 394.37 o
1 -3 0 1 10182.00 10811.30 391.42 o
1 3 0 2 69.84 69.39 45.39 <
1 -3 0 2 67.15 5.35 33.78 <
2 3 0 -2 127.07 123.57 77.40 <
2 -3 0 -2 132.86 94.18 36.41 <
2 3 0 -1 263.56 180.10 78.63 <
2 -3 0 -1 263.06 208.32 49.50 o
2 3 0 0 413.56 411.92 112.99 o
2 -3 0 0 415.26 371.26 71.96 o
2 3 0 1 270.63 141.59 48.35 <
2 -3 0 1 283.31 135.59 60.72 <
2 3 0 2 3151.76 2777.83 291.69 o
2 -3 0 2 3219.05 2531.82 245.73 o
3 3 0 -2 301.83 206.95 128.53 <
3 -3 0 -2 304.94 228.93 75.96 o
3 3 0 -1 19.25 -98.79 62.50 <
3 -3 0 -1 18.88 130.94 78.24 <
3 3 0 0 15881.00 15294.10 824.92 o
3 -3 0 0 15803.30 15315.00 1122.46 o
3 3 0 1 324.05 232.54 142.94 <
3 -3 0 1 332.65 318.43 195.58 <
3 3 0 2 93.75 487.45 295.60 <
3 -3 0 2 90.22 145.79 119.68 <
4 3 0 -2 39.34 199.04 136.46 <
4 -3 0 -2 42.88 176.12 245.17 <
4 3 0 -1 91.61 108.70 86.42 <
4 -3 0 -1 95.76 44.72 124.38 <
4 3 0 0 305.83 584.60 193.17 o
4 -3 0 0 306.91 817.58 331.35 <
4 3 0 1 56.68 416.64 302.35 <
4 -3 0 1 61.58 104.22 174.29 <
4 3 0 2 191.57 270.48 282.54 <
4 -3 0 2 179.47 579.38 368.28 <
5 3 0 -2 240.53 371.66 223.34 <
5 -3 0 -2 231.09 129.81 259.37 <
5 3 0 -1 246.30 441.05 310.17 <
5 -3 0 -1 229.88 376.54 329.26 <
5 3 0 0 2978.52 2843.34 727.68 o
5 -3 0 0 2951.33 1799.29 535.14 o
5 3 0 1 183.10 363.55 337.20 <
5 -3 0 1 189.31 266.97 328.35 <
5 3 0 2 164.29 272.87 265.82 <
5 -3 0 2 164.37 181.77 196.64 <
6 3 0 -2 26.80 140.77 347.89 <
6 -3 0 -2 27.32 246.25 312.15 <
6 3 0 -1 36.88 -650.26 376.26 <
6 -3 0 -1 38.16 375.92 254.08 <
6 3 0 0 195.89 89.96 205.54 <
6 -3 0 0 197.04 -0.94 190.34 <
0 -4 0 0 18575.30 19867.00 566.77 o
0 -4 0 1 128.08 -44.29 42.78 <
0 -4 0 2 95.78 165.01 37.26 o
1 4 0 -2 289.20 251.23 126.20 <
1 -4 0 -2 285.50 87.29 38.20 <
1 4 0 -1 128.17 -30.87 35.05 <
1 -4 0 -1 131.64 120.33 38.22 o
1 4 0 0 422.33 271.48 51.26 o
1 -4 0 0 410.34 300.65 56.22 o
1 4 0 1 1013.64 1151.58 134.62 o
1 -4 0 1 1045.34 1132.79 108.96 o
1 4 0 2 444.88 223.52 64.31 o
1 -4 0 2 430.68 256.74 77.01 o
2 4 0 -2 410.21 519.84 127.29 o
2 -4 0 -2 412.94 509.03 69.40 o
2 4 0 -1 256.97 101.40 63.63 <
2 -4 0 -1 269.84 106.81 35.96 <
2 4 0 0 1614.22 1210.17 187.10 o
2 -4 0 0 1564.28 1382.05 128.18 o
2 4 0 1 56.91 54.70 82.68 <
2 -4 0 1 64.42 96.85 48.24 <
2 4 0 2 169.44 60.02 64.48 <
2 -4 0 2 165.32 47.96 59.31 <
3 4 0 -2 131.81 40.09 62.27 <
3 -4 0 -2 121.88 17.59 33.65 <
3 4 0 -1 122.22 -54.03 76.25 <
3 -4 0 -1 116.25 5.83 47.81 <
3 4 0 0 1453.31 1089.48 216.14 o
3 -4 0 0 1422.13 927.98 154.25 o
3 4 0 1 14.54 199.54 123.10 <
3 -4 0 1 20.91 160.43 113.14 <
3 4 0 2 533.98 358.07 146.38 <
3 -4 0 2 544.26 688.78 321.17 <
4 4 0 -2 138.07 202.80 130.35 <
4 -4 0 -2 134.43 215.43 183.06 <
4 4 0 -1 70.78 239.73 136.34 <
4 -4 0 -1 87.26 389.16 257.84 <
4 4 0 0 415.38 540.36 199.67 <
4 -4 0 0 393.24 130.36 176.32 <
4 4 0 1 58.10 241.01 296.21 <
4 -4 0 1 65.54 64.66 269.89 <
4 4 0 2 192.52 281.71 281.02 <
4 -4 0 2 207.97 -27.57 247.10 <
5 4 0 -2 56.73 -136.23 229.60 <
5 -4 0 -2 51.24 71.53 112.94 <
5 4 0 -1 88.48 446.98 332.91 <
5 -4 0 -1 86.96 -22.50 159.71 <
5 4 0 0 811.37 689.44 357.98 <
5 -4 0 0 788.97 472.83 276.32 <
5 4 0 1 31.65 13.85 117.86 <
5 -4 0 1 29.78 277.30 319.83 <
5 4 0 2 430.35 473.53 263.98 <
5 -4 0 2 433.36 395.09 250.86 <
6 4 0 -2 55.40 -144.68 137.86 <
6 -4 0 -2 49.36 468.40 383.87 <
6 4 0 -1 172.60 -433.57 359.30 <
6 -4 0 -1 177.28 -121.83 95.64 <
6 4 0 0 72.36 -257.95 136.18 <
0 -5 0 1 277.52 163.27 45.70 o
0 -5 0 2 347.69 46.94 24.89 <
1 -5 0 -2 66.39 31.59 23.33 <
1 5 0 -1 170.06 167.58 108.24 <
1 -5 0 -1 169.12 133.66 50.03 <
1 5 0 0 4343.81 3577.89 276.95 o
1 -5 0 0 4085.16 3672.87 199.88 o
1 5 0 1 23766.30 26337.00 683.89 o
1 -5 0 1 23854.00 26303.30 545.95 o
1 5 0 2 38.84 16.70 22.41 <
1 -5 0 2 34.08 -2.54 28.54 <
2 5 0 -2 158.36 115.97 84.85 <
2 -5 0 -2 155.95 8.70 27.31 <
2 5 0 -1 254.12 -11.96 32.85 <
2 -5 0 -1 254.29 56.52 49.76 <
2 5 0 0 216.76 163.66 81.00 <
2 -5 0 0 230.59 98.98 52.59 <
2 5 0 1 423.45 249.97 107.20 <
2 -5 0 1 415.29 366.35 75.14 o
2 5 0 2 643.15 630.45 125.49 o
2 -5 0 2 609.71 568.19 106.96 o
3 5 0 -2 40.29 -41.94 87.09 <
3 -5 0 -2 41.25 -3.67 26.98 <
3 5 0 -1 1069.14 1396.94 249.10 o
3 -5 0 -1 1038.09 1283.72 142.49 o
3 5 0 0 6021.54 5171.27 460.36 o
3 -5 0 0 5843.17 4989.98 402.00 o
3 5 0 1 209.41 133.12 57.77 <
3 -5 0 1 190.63 114.20 99.05 <
3 5 0 2 139.82 152.88 92.57 <
3 -5 0 2 127.27 278.67 117.38 <
4 5 0 -2 111.53 124.92 98.09 <
4 -5 0 -2 109.70 320.59 191.06 <
4 5 0 -1 221.81 353.00 173.60 <
4 -5 0 -1 224.93 178.90 228.10 <
4 5 0 0 354.54 132.34 344.05 <
4 -5 0 0 362.41 189.84 188.68 <
4 5 0 1 189.58 526.25 290.46 <
4 -5 0 1 181.90 511.60 296.46 <
4 5 0 2 57.75 444.90 305.98 <
4 -5 0 2 61.67 -22.24 158.68 <
5 5 0 -2 289.83 260.37 280.48 <
5 -5 0 -2 300.47 87.20 232.41 <
5 5 0 -1 360.08 969.84 396.68 <
5 -5 0 -1 354.89 123.81 250.26 <
5 5 0 0 2424.91 1946.91 623.45 o
5 -5 0 0 2393.23 2030.50 606.06 o
5 5 0 1 316.57 118.75 132.96 <
5 -5 0 1 318.89 624.26 380.31 <
5 5 0 2 147.42 87.87 165.08 <
5 -5 0 2 145.36 371.83 264.50 <
6 5 0 -2 83.56 -133.01 259.24 <
6 -5 0 -2 83.04 781.14 418.72 <
6 5 0 -1 102.51 309.83 364.67 <
6 -5 0 -1 106.71 416.90 393.89 <
6 5 0 0 287.74 -82.38 194.79 <
0 -6 0 0 1026.76 965.06 115.97 o
0 -6 0 1 374.52 451.66 67.35 o
0 -6 0 2 49.32 63.42 39.59 <
1 -6 0 -2 225.39 30.00 41.94 <
1 -6 0 -1 255.49 326.43 68.90 o
1 6 0 0 7.19 73.55 99.59 <
1 -6 0 0 5.85 16.46 30.94 <
1 6 0 1 905.23 815.05 137.55 o
1 -6 0 1 919.26 1033.18 119.53 o
1 6 0 2 42.10 32.81 33.54 <
1 -6 0 2 36.64 16.41 34.29 <
2 6 0 -2 139.13 45.37 66.40 <
2 -6 0 -2 145.69 16.61 42.35 <
2 6 0 -1 72.84 -20.87 62.57 <
2 -6 0 -1 69.95 89.70 48.65 <
2 6 0 0 572.90 408.76 117.53 o
2 -6 0 0 615.59 299.67 76.77 o
2 6 0 1 1032.24 1157.88 177.21 o
2 -6 0 1 1032.45 1318.04 152.12 o
2 6 0 2 813.14 461.36 113.46 o
2 -6 0 2 829.03 684.61 116.42 o
3 6 0 -2 181.09 64.70 85.55 <
3 -6 0 -2 182.16 18.63 35.76 <
3 6 0 -1 20.51 72.18 108.38 <
3 -6 0 -1 21.29 57.72 42.68 <
3 6 0 0 104.35 28.15 56.61 <
3 -6 0 0 99.75 144.46 76.29 <
3 6 0 1 379.93 318.87 126.42 <
3 -6 0 1 385.60 223.25 111.70 <
3 -6 0 2 115.17 286.15 121.25 <
4 6 0 -2 237.14 -68.57 82.98 <
4 -6 0 -2 239.99 105.72 165.77 <
4 -6 0 -1 210.62 93.87 148.81 <
4 -6 0 0 168.72 137.70 159.73 <
4 6 0 1 697.53 735.03 369.15 <
4 -6 0 1 711.86 749.85 309.22 <
4 6 0 2 49.22 644.19 412.49 <
4 -6 0 2 39.55 -55.20 114.73 <
5 6 0 -2 91.10 53.26 195.45 <
5 -6 0 -2 89.09 165.45 217.65 <
5 6 0 -1 65.08 447.16 303.69 <
5 -6 0 -1 64.05 201.77 192.19 <
5 6 0 0 134.96 498.58 343.18 <
5 -6 0 0 134.09 253.10 206.99 <
5 6 0 1 10.85 202.58 161.68 <
5 -6 0 1 11.52 390.61 208.36 <
5 6 0 2 103.77 154.68 183.03 <
5 -6 0 2 108.37 399.22 237.36 <
6 6 0 -2 69.83 123.92 315.91 <
6 -6 0 -2 67.50 -63.20 173.38 <
6 6 0 -1 344.55 207.73 302.08 <
6 -6 0 -1 346.15 173.10 164.68 <
6 6 0 0 242.34 674.22 421.24 <
0 -7 0 1 112.84 63.70 41.74 <
0 -7 0 2 25.91 67.85 49.39 <
1 -7 0 -2 251.62 263.39 78.11 o
1 -7 0 -1 529.01 322.22 76.77 o
1 -7 0 0 8514.77 7442.70 333.80 o
1 7 0 1 88.18 41.18 72.90 <
1 -7 0 1 114.56 19.48 33.66 <
1 7 0 2 382.80 315.95 81.37 o
1 -7 0 2 380.40 477.66 99.92 o
2 7 0 -2 109.33 215.65 119.05 <
2 -7 0 -2 109.78 80.44 45.44 <
2 7 0 -1 71.75 23.74 58.03 <
2 -7 0 -1 68.34 130.62 72.16 <
2 7 0 0 316.69 394.81 116.12 o
2 -7 0 0 310.53 163.66 63.35 <
2 7 0 1 58.01 53.83 74.61 <
2 -7 0 1 55.95 11.26 43.72 <
2 7 0 2 3927.67 3658.93 309.32 o
2 -7 0 2 3891.39 3504.80 259.06 o
3 7 0 -2 288.15 201.54 113.81 <
3 -7 0 -2 302.10 89.27 59.16 <
3 7 0 -1 156.78 0.00 76.09 <
3 -7 0 -1 156.98 16.50 63.83 <
3 7 0 0 4187.35 3729.96 384.98 o
3 -7 0 0 4123.07 3687.72 273.39 o
3 7 0 1 601.87 514.84 142.44 o
3 -7 0 1 591.41 377.72 125.12 o
3 -7 0 2 129.42 37.39 78.57 <
4 7 0 -2 81.13 178.47 133.27 <
4 -7 0 -2 83.93 176.42 196.40 <
4 -7 0 -1 26.70 -55.22 148.05 <
4 -7 0 0 520.25 652.69 302.58 <
4 -7 0 1 234.31 158.34 110.25 <
4 -7 0 2 2.94 322.41 266.91 <
5 7 0 -2 194.21 54.57 249.97 <
5 -7 0 -2 189.49 347.59 224.67 <
5 7 0 -1 162.48 443.81 337.96 <
5 -7 0 -1 164.53 13.44 214.62 <
5 7 0 0 599.10 830.07 447.72 <
5 -7 0 0 590.84 719.78 370.54 <
5 7 0 1 10.30 424.35 306.15 <
5 -7 0 1 13.68 332.74 219.75 <
5 7 0 2 86.87 113.36 150.20 <
5 -7 0 2 88.40 -13.55 173.90 <
6 7 0 -2 10.05 -27.63 224.69 <
6 -7 0 -2 10.37 -5.96 317.00 <
6 7 0 -1 37.20 211.78 341.05 <
6 -7 0 -1 35.64 376.57 259.24 <
0 -8 0 0 6322.05 5635.17 297.58 o
0 -8 0 1 341.68 356.89 77.40 o
0 -8 0 2 157.68 74.63 50.00 <
1 -8 0 -2 43.93 28.94 55.61 <
1 -8 0 -1 12.81 -10.70 56.68 <
1 -8 0 0 193.50 -0.93 59.85 <
1 8 0 1 279.64 272.04 147.23 <
1 -8 0 1 258.86 134.55 54.39 <
1 8 0 2 100.63 60.81 84.44 <
1 -8 0 2 99.81 110.09 54.85 <
2 8 0 -2 363.94 466.60 123.20 o
2 -8 0 -2 354.43 499.27 109.31 o
2 8 0 -1 287.18 150.20 120.62 <
2 -8 0 -1 319.34 141.47 74.70 <
2 8 0 0 34557.20 33551.30 1053.07 o
2 -8 0 0 34762.20 34705.00 812.46 o
2 8 0 1 164.45 146.92 59.02 <
2 -8 0 1 182.57 80.48 44.59 <
2 8 0 2 1554.45 1422.09 201.51 o
2 -8 0 2 1583.56 1629.15 189.64 o
3 8 0 -2 159.75 157.05 116.25 <
3 -8 0 -2 158.61 73.92 66.53 <
3 8 0 -1 53.24 29.54 84.38 <
3 -8 0 -1 45.10 68.37 74.61 <
3 8 0 0 252.82 -13.07 58.90 <
3 -8 0 0 253.95 180.56 78.79 <
3 -8 0 1 242.98 144.21 91.12 <
3 -8 0 2 5.07 0.04 109.11 <
4 -8 0 -2 283.57 129.18 108.99 <
4 -8 0 -1 272.42 174.55 121.23 <
4 -8 0 0 5975.56 4298.44 747.87 o
4 -8 0 1 253.21 14.89 130.71 <
4 -8 0 2 674.86 562.80 254.06 <
5 8 0 -2 146.80 228.01 298.28 <
5 -8 0 -2 147.16 149.34 233.80 <
5 8 0 -1 49.02 259.91 252.91 <
5 -8 0 -1 43.84 -127.44 220.06 <
5 8 0 0 60.54 287.95 322.74 <
5 -8 0 0 60.40 -108.24 229.15 <
5 8 0 1 17.59 638.13 386.00 <
5 -8 0 1 21.16 315.74 193.54 <
5 8 0 2 16.88 388.48 253.06 <
5 -8 0 2 14.62 163.81 192.53 <
6 8 0 -2 176.22 -100.12 187.68 <
6 -8 0 -2 183.69 554.86 390.74 <
0 -9 0 1 1560.36 1661.00 152.18 o
0 -9 0 2 135.73 -9.59 46.03 <
1 -9 0 -2 243.92 335.48 95.01 o
1 -9 0 -1 403.87 479.40 89.75 o
1 -9 0 0 610.93 142.81 60.96 <
1 -9 0 1 646.32 1000.98 120.01 o
1 9 0 2 6.78 86.03 92.62 <
1 -9 0 2 8.23 40.07 44.87 <
2 9 0 -2 72.77 -38.96 66.31 <
2 -9 0 -2 78.71 168.88 72.38 <
2 9 0 -1 370.88 338.20 137.84 <
2 -9 0 -1 377.44 476.29 115.18 o
2 9 0 0 177.80 162.70 116.77 <
2 -9 0 0 183.95 141.38 75.51 <
2 9 0 1 624.89 730.70 165.31 o
2 -9 0 1 648.29 624.72 120.96 o
2 9 0 2 200.03 61.72 57.39 <
2 -9 0 2 196.00 100.25 74.18 <
3 9 0 -2 230.57 115.40 84.44 <
3 -9 0 -2 227.14 199.06 89.35 <
3 9 0 -1 199.16 174.49 137.53 <
3 -9 0 -1 211.85 61.29 80.61 <
3 9 0 0 297.39 76.25 105.99 <
3 -9 0 0 309.97 107.46 84.66 <
3 -9 0 1 1786.82 2043.72 301.50 o
3 -9 0 2 101.95 297.67 136.14 <
4 -9 0 -2 14.48 -1.09 132.97 <
4 -9 0 -1 97.39 -123.40 102.51 <
4 -9 0 0 204.75 199.29 141.32 <
4 -9 0 1 206.23 32.42 101.20 <
4 -9 0 2 35.36 69.27 133.46 <
5 -9 0 -2 95.95 -291.48 291.61 <
5 9 0 -1 307.97 388.83 373.57 <
5 -9 0 -1 315.96 157.40 82.87 <
5 9 0 0 169.09 45.50 213.21 <
5 -9 0 0 177.75 -39.70 109.61 <
5 9 0 1 396.47 341.67 359.89 <
5 -9 0 1 388.79 673.92 298.69 <
5 9 0 2 140.71 827.42 564.21 <
5 -9 0 2 135.21 122.12 159.29 <
6 9 0 -2 8.02 982.06 551.04 <
6 -9 0 -2 7.84 360.65 206.90 <
0 -10 0 0 14859.80 12451.60 492.68 o
0 -10 0 1 708.19 728.13 117.64 o
0 -10 0 2 148.67 -20.04 56.87 <
1 -10 0 -2 98.19 140.55 65.14 <
1 -10 0 -1 66.78 23.54 37.24 <
1 -10 0 0 82.44 29.70 42.33 <
1 -10 0 1 950.00 1275.58 141.14 o
1 10 0 2 189.21 69.98 69.51 <
1 -10 0 2 181.18 91.01 68.18 <
2 10 0 -2 233.10 307.02 102.44 <
2 -10 0 -2 251.72 194.97 89.72 <
2 10 0 -1 954.34 225.25 98.48 <
2 -10 0 -1 967.40 361.13 98.98 o
2 10 0 0 1309.84 594.02 191.56 o
2 -10 0 0 1172.86 881.97 143.09 o
2 10 0 1 602.14 709.20 170.38 o
2 -10 0 1 596.84 803.53 147.25 o
2 10 0 2 2350.27 2016.15 248.88 o
2 -10 0 2 2321.23 2365.53 221.49 o
3 10 0 -2 32.83 39.59 48.78 <
3 -10 0 -2 31.11 159.64 93.33 <
3 10 0 -1 68.98 92.74 123.51 <
3 -10 0 -1 67.14 90.29 92.68 <
3 -10 0 0 224.68 8.33 69.74 <
3 -10 0 1 65.28 161.40 105.14 <
3 -10 0 2 187.53 119.96 104.64 <
4 -10 0 -2 430.43 340.42 253.47 <
4 -10 0 -1 355.17 195.88 200.36 <
4 -10 0 0 24.97 41.79 172.95 <
4 -10 0 1 306.61 404.63 213.43 <
4 -10 0 2 176.73 259.02 188.93 <
5 -10 0 -2 29.53 -98.05 170.93 <
5 -10 0 -1 61.24 545.25 355.78 <
5 10 0 0 168.69 363.76 326.95 <
5 -10 0 0 165.96 412.16 163.62 <
5 10 0 1 351.08 324.78 342.41 <
5 -10 0 1 340.47 100.07 207.40 <
5 10 0 2 89.14 330.70 275.54 <
5 -10 0 2 96.57 591.54 281.13 <
6 10 0 -2 334.34 130.68 265.04 <
0 -11 0 1 40.24 30.85 58.00 <
0 -11 0 2 327.92 439.03 90.05 o
1 -11 0 -2 237.11 288.02 82.29 o
1 -11 0 -1 223.56 249.19 84.51 <
1 -11 0 0 25351.50 25404.00 654.70 o
1 -11 0 1 326.91 88.87 49.94 <
1 11 0 2 47.78 -2.87 12.28 <
1 -11 0 2 43.59 4.24 68.13 <
2 11 0 -2 538.13 555.27 172.18 o
2 -11 0 -2 524.66 541.30 140.73 o
2 11 0 -1 13.53 29.00 116.81 <
2 -11 0 -1 13.21 88.61 75.18 <
2 11 0 0 359.08 23.68 90.57 <
2 -11 0 0 353.06 395.48 105.48 o
2 11 0 1 50.43 153.79 139.64 <
2 -11 0 1 50.09 258.89 94.70 <
2 -11 0 2 1957.90 1515.49 188.18 o
3 11 0 -2 162.55 326.18 174.92 <
3 -11 0 -2 155.38 193.71 85.66 <
3 -11 0 -1 200.38 183.82 90.27 <
3 -11 0 0 5253.20 4915.87 381.63 o
3 -11 0 1 990.28 1097.01 214.12 o
3 -11 0 2 110.98 44.96 99.05 <
4 -11 0 -2 226.38 210.15 204.40 <
4 -11 0 -1 5.33 146.68 118.29 <
4 -11 0 0 276.21 578.76 265.71 <
4 -11 0 1 23.91 235.80 147.31 <
4 -11 0 2 14.34 393.14 215.52 <
5 -11 0 -2 32.17 198.51 257.61 <
5 -11 0 -1 110.10 310.83 235.30 <
5 -11 0 0 1125.19 796.66 312.32 <
5 11 0 1 93.63 257.32 360.04 <
5 -11 0 1 106.05 217.71 212.27 <
5 11 0 2 17.35 370.94 351.57 <
5 -11 0 2 17.88 -107.61 223.01 <
0 -12 0 0 9798.07 9107.36 455.33 o
0 -12 0 1 575.11 504.84 118.97 o
0 -12 0 2 38.98 195.43 88.68 <
1 -12 0 -2 629.65 75.14 56.31 <
1 -12 0 -1 3.10 52.81 76.83 <
1 -12 0 0 188.53 192.54 85.46 <
1 -12 0 1 705.59 500.84 103.44 o
1 -12 0 2 592.60 267.69 87.40 o
2 12 0 -2 235.89 250.52 203.38 <
2 -12 0 -2 222.90 172.69 85.66 <
2 12 0 -1 50.12 -74.87 105.64 <
2 -12 0 -1 52.80 136.36 82.40 <
2 12 0 0 5306.96 4836.95 530.21 o
2 -12 0 0 5436.77 5553.86 342.87 o
2 12 0 1 350.87 730.90 211.64 o
2 -12 0 1 357.18 375.90 106.20 o
2 -12 0 2 111.74 325.69 116.55 <
3 12 0 -2 275.98 47.03 91.85 <
3 -12 0 -2 279.84 271.54 113.96 <
3 -12 0 -1 74.08 188.58 109.35 <
3 -12 0 0 403.53 450.46 156.88 <
3 -12 0 1 187.86 244.97 134.44 <
3 -12 0 2 68.63 188.40 120.40 <
4 -12 0 -2 259.18 111.77 119.60 <
4 -12 0 -1 55.63 -156.62 115.81 <
4 -12 0 0 1592.74 1716.77 391.92 o
4 -12 0 1 112.92 334.04 215.58 <
4 -12 0 2 1.69 149.77 165.14 <
5 -12 0 -2 66.12 52.76 200.15 <
5 -12 0 -1 50.95 127.35 186.93 <
5 -12 0 0 304.15 142.86 140.90 <
5 -12 0 1 250.58 321.28 242.38 <
0 -13 0 1 366.69 202.34 86.98 <
0 -13 0 2 289.23 160.18 67.89 <
1 -13 0 -2 37.14 184.06 94.66 <
1 -13 0 -1 3774.29 3906.13 274.15 o
1 -13 0 0 8677.17 7568.98 392.98 o
1 -13 0 1 241.92 247.01 79.37 o
1 -13 0 2 53.72 229.82 89.33 <
2 -13 0 -2 265.04 59.29 70.37 <
2 13 0 -1 155.84 -9.85 99.46 <
2 -13 0 -1 166.30 28.26 84.18 <
2 13 0 0 64.54 56.31 61.83 <
2 -13 0 0 72.88 86.50 73.16 <
2 -13 0 1 432.04 221.91 87.88 <
2 -13 0 2 103.78 188.12 82.46 <
3 -13 0 -2 39.18 134.64 119.90 <
3 -13 0 -1 716.52 358.22 119.16 o
3 -13 0 0 3400.81 4109.49 393.64 o
3 -13 0 1 2648.37 3075.44 350.17 o
3 -13 0 2 94.70 308.02 141.57 <
4 -13 0 -2 89.15 440.16 370.11 <
4 -13 0 -1 65.89 166.58 176.75 <
4 -13 0 0 180.27 128.83 188.25 <
4 -13 0 1 292.04 61.22 166.14 <
4 -13 0 2 170.73 212.38 146.49 <
5 -13 0 -2 71.49 59.55 166.42 <
5 -13 0 -1 298.41 367.57 276.28 <
5 -13 0 0 713.89 922.26 311.28 <
5 -13 0 1 112.35 155.77 183.80 <
0 -14 0 0 802.60 708.96 271.97 <
0 -14 0 1 177.22 154.36 100.05 <
0 -14 0 2 71.58 35.07 57.83 <
1 -14 0 -2 249.75 253.86 120.33 <
1 -14 0 -1 94.46 105.22 76.77 <
1 -14 0 0 84.66 -8.87 52.20 <
1 -14 0 1 682.80 473.68 114.86 o
1 -14 0 2 884.33 834.95 149.12 o
2 14 0 -2 61.09 291.30 210.32 <
2 -14 0 -2 52.51 100.03 80.75 <
2 14 0 -1 53.71 310.59 180.82 <
2 -14 0 -1 55.24 98.99 71.83 <
2 14 0 0 84.07 79.07 121.29 <
2 -14 0 0 79.39 79.16 76.72 <
2 -14 0 1 78.55 203.12 98.11 <
2 -14 0 2 58.58 44.65 70.68 <
3 -14 0 -2 149.72 158.45 95.85 <
3 -14 0 -1 54.69 235.58 107.29 <
3 -14 0 0 78.98 151.44 107.47 <
3 -14 0 1 179.04 21.31 106.20 <
3 -14 0 2 91.05 116.92 120.83 <
4 -14 0 -2 61.17 94.51 187.84 <
4 -14 0 -1 35.75 -12.18 166.01 <
4 -14 0 0 122.05 263.41 193.88 <
4 -14 0 1 143.55 59.42 251.47 <
4 -14 0 2 41.85 256.06 232.80 <
5 -14 0 -2 39.29 260.98 239.02 <
5 -14 0 -1 22.74 178.38 167.51 <
5 -14 0 0 31.20 -79.55 142.31 <
5 -14 0 1 110.49 -56.18 166.86 <
0 -15 0 1 454.26 735.48 181.69 o
0 -15 0 2 73.07 166.95 115.59 <
1 -15 0 -2 676.51 745.87 170.57 o
1 -15 0 -1 337.48 153.53 108.01 <
1 -15 0 0 11325.30 9391.35 591.28 o
1 -15 0 1 4001.02 2959.09 272.95 o
1 -15 0 2 17.81 135.40 84.40 <
2 15 0 -2 150.31 405.94 235.69 <
2 -15 0 -2 142.24 37.76 73.85 <
2 15 0 -1 90.43 239.80 242.51 <
2 -15 0 -1 87.06 20.35 63.00 <
2 -15 0 0 9.40 36.81 69.42 <
2 -15 0 1 599.38 719.24 160.43 o
2 -15 0 2 630.66 808.14 147.64 o
3 -15 0 -2 680.35 601.43 154.77 o
3 -15 0 -1 162.75 416.49 130.14 o
3 -15 0 0 2759.79 2799.10 364.68 o
3 -15 0 1 98.38 -41.91 65.63 <
3 -15 0 2 13.73 4.83 81.18 <
4 -15 0 -2 11.99 213.10 179.99 <
4 -15 0 -1 81.23 206.54 173.82 <
4 -15 0 0 19.56 253.30 201.15 <
4 -15 0 1 162.88 148.96 198.19 <
4 -15 0 2 145.99 213.10 208.49 <
5 -15 0 -2 269.93 318.67 262.37 <
5 -15 0 -1 40.48 222.38 195.41 <
5 -15 0 0 506.91 93.77 221.78 <
0 -16 0 0 7928.00 9852.67 1007.35 o
0 -16 0 1 2693.65 3423.98 424.99 o
0 -16 0 2 15.40 180.32 109.46 <
1 -16 0 -2 9.88 135.34 109.70 <
1 -16 0 -1 150.50 -53.22 103.20 <
1 -16 0 0 29.54 26.81 49.15 <
1 -16 0 1 376.17 300.56 117.51 <
1 -16 0 2 75.63 21.70 75.64 <
2 16 0 -2 74.50 351.20 300.13 <
2 -16 0 -2 83.00 137.46 138.86 <
2 16 0 -1 443.77 757.64 328.35 <
2 -16 0 -1 449.83 631.09 192.95 o
2 -16 0 0 1625.50 1889.99 242.23 o
2 -16 0 1 1928.95 2191.51 253.54 o
2 -16 0 2 231.59 146.29 85.03 <
3 -16 0 -2 30.07 184.88 106.74 <
3 -16 0 -1 83.49 279.48 120.03 <
3 -16 0 0 151.15 230.52 126.81 <
3 -16 0 1 221.26 405.42 187.06 <
3 -16 0 2 52.55 88.29 129.20 <
4 -16 0 -2 17.27 201.15 190.43 <
4 -16 0 -1 167.11 159.82 191.45 <
4 -16 0 0 1497.49 1665.15 423.33 o
4 -16 0 1 432.03 192.53 151.49 <
4 -16 0 2 101.79 242.78 207.36 <
5 -16 0 -2 61.64 164.92 215.91 <
5 -16 0 -1 53.44 122.25 214.65 <
5 -16 0 0 69.87 175.69 270.10 <
0 -17 0 1 65.46 405.27 181.49 <
0 -17 0 2 90.16 339.46 174.86 <
1 -17 0 -2 37.29 71.66 107.85 <
1 -17 0 -1 362.67 361.65 152.82 <
1 -17 0 0 605.15 250.08 125.62 <
1 -17 0 1 776.13 1085.92 232.71 o
1 -17 0 2 40.28 364.85 162.92 <
2 17 0 -2 45.31 490.60 359.11 <
2 -17 0 -2 45.93 71.42 117.33 <
2 -17 0 -1 124.18 131.79 143.84 <
2 -17 0 0 9.23 105.22 129.79 <
2 -17 0 1 103.30 121.71 126.40 <
2 -17 0 2 297.31 -30.00 96.07 <
3 -17 0 -2 78.20 -54.83 86.79 <
3 -17 0 -1 96.18 170.10 133.21 <
3 -17 0 0 305.62 399.89 216.45 <
3 -17 0 1 300.65 422.74 193.17 <
3 -17 0 2 40.93 -12.30 85.96 <
4 -17 0 -2 25.02 28.13 148.79 <
4 -17 0 -1 29.28 369.68 252.12 <
4 -17 0 0 13.95 -205.73 181.06 <
4 -17 0 1 178.67 -214.17 176.42 <
4 -17 0 2 107.57 103.66 117.46 <
5 -17 0 -1 105.89 -132.14 186.79 <
0 -18 0 0 6453.27 5173.08 788.20 o
0 -18 0 1 1094.14 452.27 183.88 <
0 -18 0 2 163.43 275.87 135.66 <
1 -18 0 -2 62.24 105.81 114.81 <
1 -18 0 -1 78.34 352.52 167.12 <
1 -18 0 0 12.36 173.05 142.47 <
1 -18 0 1 37.07 212.60 157.55 <
1 -18 0 2 158.94 230.13 139.94 <
2 -18 0 -2 248.81 44.29 151.23 <
2 -18 0 -1 613.28 374.50 172.47 <
2 -18 0 0 963.55 100.75 111.46 <
2 -18 0 1 896.21 481.16 196.90 <
2 -18 0 2 231.54 135.14 171.21 <
3 -18 0 -2 35.77 207.84 151.90 <
3 -18 0 -1 12.05 -136.75 164.12 <
3 -18 0 0 102.34 182.73 183.47 <
3 -18 0 1 136.11 -204.21 143.62 <
3 -18 0 2 24.19 130.16 185.66 <
4 -18 0 -2 213.12 -13.78 256.10 <
4 -18 0 -1 187.20 -25.92 299.76 <
4 -18 0 0 115.64 98.70 306.65 <
4 -18 0 1 501.21 529.58 530.14 <
0 -19 0 1 175.97 260.43 183.68 <
0 -19 0 2 145.46 205.53 129.51 <
1 -19 0 -2 57.32 270.63 179.05 <
1 -19 0 -1 42.03 -107.83 131.38 <
1 -19 0 0 153.73 138.29 118.36 <
1 -19 0 1 6.93 -76.05 92.62 <
1 -19 0 2 42.75 23.94 64.50 <
2 -19 0 -2 191.24 210.95 160.70 <
2 -19 0 -1 13.89 149.12 114.42 <
2 -19 0 0 113.22 146.57 126.60 <
2 -19 0 1 108.13 14.46 106.40 <
2 -19 0 2 355.29 675.22 217.60 o
3 -19 0 -2 46.62 -143.36 152.73 <
3 -19 0 -1 107.00 89.57 93.72 <
3 -19 0 0 164.75 30.37 157.01 <
3 -19 0 1 15.17 263.71 289.78 <
3 -19 0 2 0.51 351.28 246.21 <
4 -19 0 -2 85.99 464.77 463.64 <
4 -19 0 -1 46.90 -225.17 178.68 <
4 -19 0 0 116.17 164.05 395.11 <
0 -20 0 0 1000.75 1991.17 559.49 o
0 -20 0 1 75.24 335.33 177.60 <
0 -20 0 2 171.02 291.67 170.45 <
1 -20 0 -2 192.59 239.12 177.56 <
1 -20 0 -1 148.66 143.97 129.09 <
1 -20 0 0 0.68 346.44 177.90 <
1 -20 0 1 19.90 57.50 123.36 <
1 -20 0 2 253.02 549.04 200.17 <
2 -20 0 -2 122.18 423.01 186.18 <
2 -20 0 -1 256.51 239.80 138.44 <
2 -20 0 0 2015.47 1843.86 338.52 o
2 -20 0 1 199.07 264.82 141.36 <
2 -20 0 2 377.86 253.08 173.69 <
3 -20 0 -2 140.00 194.01 137.90 <
3 -20 0 -1 19.47 316.45 239.60 <
3 -20 0 0 37.31 382.27 229.80 <
3 -20 0 1 253.13 179.12 152.21 <
3 -20 0 2 258.60 282.41 256.74 <
4 -20 0 -2 94.43 742.09 498.36 <
4 -20 0 -1 77.67 324.83 415.85 <
0 -21 0 1 38.26 268.30 190.36 <
0 -21 0 2 85.73 32.20 155.01 <
1 -21 0 -2 55.01 185.58 140.60 <
1 -21 0 -1 366.02 331.37 186.21 <
1 -21 0 0 1873.02 1737.01 309.08 o
1 -21 0 1 1730.26 1831.95 339.54 o
1 -21 0 2 118.41 111.09 123.64 <
2 -21 0 -2 38.47 52.85 119.59 <
2 -21 0 -1 23.01 -7.13 76.98 <
2 -21 0 0 127.12 10.81 84.92 <
2 -21 0 1 68.61 54.35 163.95 <
2 -21 0 2 330.77 -11.59 131.71 <
3 -21 0 -2 48.59 -83.01 152.31 <
3 -21 0 -1 408.35 -1.93 174.27 <
3 -21 0 0 331.39 509.71 271.17 <
3 -21 0 1 250.92 173.38 148.07 <
3 -21 0 2 38.20 144.05 245.26 <
0 -22 0 0 186.66 369.05 265.98 <
0 -22 0 1 10.47 437.86 250.80 <
0 -22 0 2 83.46 432.23 256.02 <
1 -22 0 -2 285.24 624.76 260.78 <
1 -22 0 -1 161.09 218.75 202.01 <
1 -22 0 0 12.24 116.79 166.08 <
1 -22 0 1 283.20 352.20 184.23 <
1 -22 0 2 3.52 -15.43 169.10 <
2 -22 0 -2 96.39 161.60 166.34 <
2 -22 0 -1 66.29 17.02 125.60 <
2 -22 0 0 64.44 -0.06 144.20 <
2 -22 0 1 22.99 73.03 134.34 <
2 -22 0 2 34.88 -53.15 174.21 <
3 -22 0 -2 123.28 -55.65 273.00 <
3 -22 0 -1 85.15 546.88 347.92 <
3 -22 0 0 64.08 638.56 249.80 <
3 -22 0 1 153.64 -121.51 283.24 <
3 -22 0 2 4.84 40.02 326.59 <
0 -23 0 1 65.61 41.33 141.18 <
0 -23 0 2 53.73 65.13 173.03 <
1 -23 0 -2 186.11 395.92 208.69 <
1 -23 0 -1 362.45 417.40 168.42 <
1 -23 0 0 1648.15 2445.07 465.75 o
1 -23 0 1 6.21 264.34 203.79 <
1 -23 0 2 151.02 -33.66 82.44 <
2 -23 0 -2 18.42 391.98 223.56 <
2 -23 0 -1 70.13 95.29 120.94 <
2 -23 0 0 5.15 21.00 166.86 <
2 -23 0 1 30.91 107.12 150.70 <
2 -23 0 2 6.23 -53.11 165.68 <
3 -23 0 -2 259.71 452.09 339.50 <
3 -23 0 -1 28.24 -179.99 195.86 <
3 -23 0 0 981.73 1551.49 715.52 <
0 -24 0 0 101.70 86.24 204.47 <
0 -24 0 1 233.02 286.76 201.54 <
0 -24 0 2 47.10 188.36 185.90 <
1 -24 0 -2 34.04 326.41 209.25 <
1 -24 0 -1 48.76 71.33 153.32 <
1 -24 0 0 29.15 -40.83 154.73 <
1 -24 0 1 105.05 -55.87 190.06 <
1 -24 0 2 57.17 60.29 167.18 <
2 -24 0 -2 21.80 -60.66 150.94 <
2 -24 0 -1 198.43 310.26 225.58 <
2 -24 0 0 157.25 42.35 212.86 <
2 -24 0 1 275.78 315.78 242.41 <
2 -24 0 2 169.36 -9.54 168.23 <
0 -25 0 1 62.97 145.12 180.12 <
0 -25 0 2 116.77 190.73 136.49 <
1 -25 0 -2 4.04 152.68 97.51 <
1 -25 0 -1 160.82 192.38 186.12 <
1 -25 0 0 855.03 892.69 329.54 <
1 -25 0 1 221.89 -120.40 172.21 <
1 -25 0 2 3.73 -208.49 213.75 <
2 -25 0 -2 121.16 -125.21 192.41 <
2 -25 0 -1 66.97 376.46 334.87 <
2 -25 0 0 1.62 100.09 131.96 <
-6 0 1 0 392.51 777.18 460.12 <
-6 0 1 1 44.09 593.21 439.99 <
-6 0 1 2 37.65 270.60 366.81 <
-5 0 1 -2 93.31 136.09 259.47 <
-5 0 1 -1 8.57 92.77 106.38 <
-5 0 1 0 1026.79 184.27 208.43 <
-5 0 1 1 338.27 314.45 211.77 <
-5 0 1 2 398.71 295.56 155.70 <
-4 0 1 -2 4.55 105.07 187.21 <
-4 0 1 -1 21.66 183.19 227.43 <
-4 0 1 0 374.04 34.11 123.21 <
-4 0 1 1 255.13 94.59 100.98 <
-4 0 1 2 130.21 25.67 95.96 <
-3 0 1 -2 80.01 113.09 83.05 <
-3 0 1 -1 29.32 -89.81 59.59 <
-3 0 1 0 5017.01 4508.14 401.46 o
-3 0 1 1 627.26 826.68 175.51 o
-3 0 1 2 381.78 360.30 110.74 o
-2 0 1 -2 19.44 61.31 72.44 <
-2 0 1 -1 126.76 3.11 46.26 <
-2 0 1 0 362.91 65.79 48.61 <
-2 0 1 1 235.97 81.07 53.42 <
-2 0 1 2 156.28 -33.92 35.57 <
-1 0 1 -2 133.91 189.68 69.68 <
-1 0 1 -1 1509.74 1527.49 146.14 o
-1 0 1 0 11854.20 12324.20 374.83 o
-1 0 1 1 95.44 112.68 38.83 <
-1 0 1 2 20.27 40.57 24.67 <
0 0 1 2 31.89 19.87 52.66 <
1 0 1 2 40.80 235.36 144.51 <
2 0 1 -2 0.74 7.57 65.00 <
2 0 1 -1 14.95 71.74 76.81 <
2 0 1 0 223.48 13.85 94.20 <
2 0 1 1 26.00 88.55 129.18 <
2 0 1 2 23.79 200.01 177.62 <
3 0 1 -2 61.17 198.30 110.77 <
3 0 1 -1 16.18 94.31 125.57 <
3 0 1 0 9489.11 10314.30 929.15 o
3 0 1 1 940.18 741.33 275.06 <
3 0 1 2 566.56 302.39 202.54 <
4 0 1 -2 44.74 18.24 147.77 <
4 0 1 -1 37.15 286.37 226.90 <
4 0 1 0 638.71 67.18 108.96 <
4 0 1 1 7.90 6.06 223.78 <
4 0 1 2 157.54 183.47 137.97 <
5 0 1 -2 70.14 158.79 151.12 <
5 0 1 -1 71.57 114.97 123.12 <
5 0 1 0 2863.37 2758.42 698.87 o
5 0 1 1 57.09 438.29 243.12 <
5 0 1 2 234.37 296.50 228.45 <
6 0 1 -2 74.02 571.12 365.67 <
6 0 1 -1 165.52 821.57 319.00 <
6 0 1 0 809.63 91.88 209.19 <
-6 1 1 0 410.35 326.91 308.63 <
-6 -1 1 0 403.42 599.65 385.61 <
-6 1 1 1 372.92 188.64 377.94 <
-6 -1 1 1 369.28 -100.90 113.35 <
-6 1 1 2 3.18 84.70 220.28 <
-6 -1 1 2 3.57 327.00 333.76 <
-5 1 1 -2 9.80 -95.53 278.04 <
-5 -1 1 -2 9.64 266.71 337.00 <
-5 1 1 -1 19.30 88.88 131.68 <
-5 -1 1 -1 17.16 250.74 388.03 <
-5 1 1 0 153.32 -58.77 240.39 <
-5 -1 1 0 155.98 702.85 427.22 <
-5 1 1 1 279.28 453.70 229.97 <
-5 -1 1 1 281.22 182.34 315.83 <
-5 1 1 2 14.40 33.78 82.79 <
-5 -1 1 2 17.76 232.25 247.56 <
-4 1 1 -2 128.16 109.27 165.40 <
-4 -1 1 -2 69.72 -105.59 226.49 <
-4 1 1 -1 34.02 59.64 133.01 <
-4 -1 1 -1 35.45 46.68 120.47 <
-4 1 1 0 1490.83 1436.88 294.43 o
-4 -1 1 0 1459.27 1799.57 441.88 o
-4 1 1 1 782.95 413.77 187.91 <
-4 -1 1 1 774.73 294.06 128.96 <
-4 1 1 2 8.83 87.48 97.01 <
-4 -1 1 2 7.96 120.47 99.75 <
-3 1 1 -2 4.70 16.70 84.48 <
-3 -1 1 -2 4.72 -150.46 167.32 <
-3 1 1 -1 567.65 508.06 146.92 o
-3 -1 1 -1 587.65 566.62 143.29 o
-3 1 1 0 132.89 36.68 83.22 <
-3 -1 1 0 121.08 85.68 74.22 <
-3 1 1 1 839.71 729.63 151.49 o
-3 -1 1 1 842.39 706.96 150.47 o
-3 1 1 2 6.39 65.37 90.57 <
-3 -1 1 2 4.07 40.66 78.38 <
-2 1 1 -2 16242.10 15905.90 641.54 o
-2 -1 1 -2 16303.80 16231.90 665.04 o
-2 1 1 -1 70.11 132.73 50.66 <
-2 -1 1 -1 69.89 121.55 66.18 <
-2 1 1 0 833.94 652.76 129.73 o
-2 -1 1 0 814.94 716.87 131.25 o
-2 1 1 1 888.27 753.83 126.92 o
-2 -1 1 1 880.95 622.50 83.75 o
-2 1 1 2 10.41 16.39 24.91 <
-2 -1 1 2 8.68 26.63 23.72 <
-1 1 1 -2 24.11 70.79 63.89 <
-1 -1 1 -2 24.20 -2.87 21.80 <
-1 1 1 -1 293.11 328.91 46.35 o
-1 -1 1 -1 284.62 323.11 47.28 o
-1 1 1 0 1666.65 1492.86 187.49 o
-1 -1 1 0 1608.01 1547.56 96.18 o
-1 1 1 1 77.09 28.89 30.59 <
-1 -1 1 1 77.60 90.33 48.13 <
-1 1 1 2 15.15 99.29 49.83 <
-1 -1 1 2 12.98 8.52 28.55 <
0 1 1 2 150.76 81.42 55.85 <
0 -1 1 2 153.19 1.41 18.11 <
1 1 1 -2 24.56 9.13 19.00 <
1 -1 1 -2 25.21 -18.70 27.74 <
1 1 1 -1 0.90 -19.33 19.92 <
1 -1 1 -1 1.16 6.93 17.41 <
1 -1 1 0 3009.85 3185.21 186.36 o
1 -1 1 1 1142.45 1233.67 131.70 o
1 1 1 2 363.49 315.58 119.97 <
1 -1 1 2 369.95 336.67 93.35 o
2 1 1 -2 495.89 119.60 71.76 <
2 -1 1 -2 481.87 333.22 65.13 o
2 1 1 -1 502.14 219.41 90.72 <
2 -1 1 -1 498.27 263.78 94.99 <
2 -1 1 0 1208.09 1192.64 261.65 o
2 -1 1 1 46.22 93.92 141.84 <
2 -1 1 2 151.85 208.30 173.97 <
3 1 1 -2 119.11 1.06 81.00 <
3 -1 1 -2 124.77 28.17 107.61 <
3 1 1 -1 697.23 585.06 151.92 o
3 -1 1 -1 700.28 404.42 187.82 <
3 1 1 0 849.59 789.83 298.98 <
3 -1 1 0 825.47 572.60 238.43 <
3 1 1 1 1958.15 2327.00 479.10 o
3 -1 1 1 1916.64 1482.99 388.57 o
3 1 1 2 858.03 1191.51 401.48 <
3 -1 1 2 879.22 511.82 238.65 <
4 1 1 -2 306.08 391.24 217.84 <
4 -1 1 -2 288.71 55.37 100.77 <
4 1 1 -1 584.46 384.70 275.36 <
4 -1 1 -1 558.30 338.17 247.15 <
4 1 1 0 394.67 47.46 171.34 <
4 -1 1 0 402.79 -36.13 104.35 <
4 1 1 1 64.26 21.44 255.60 <
4 -1 1 1 59.20 78.57 236.56 <
4 1 1 2 41.87 194.40 125.16 <
4 -1 1 2 43.37 515.17 244.13 <
5 1 1 -2 81.30 -180.75 186.47 <
5 -1 1 -2 84.86 -13.52 188.91 <
5 1 1 -1 439.99 -78.18 174.08 <
5 -1 1 -1 427.96 -56.57 242.52 <
5 1 1 0 212.03 427.51 324.54 <
5 -1 1 0 203.99 -46.13 119.79 <
5 1 1 1 131.15 28.76 158.79 <
5 -1 1 1 127.48 -343.70 323.67 <
5 1 1 2 445.30 504.90 222.54 <
5 -1 1 2 456.63 416.37 236.82 <
6 1 1 -2 86.80 -311.24 264.91 <
6 -1 1 -2 76.12 341.85 388.09 <
6 1 1 -1 296.06 340.92 303.65 <
6 -1 1 -1 273.39 475.64 294.63 <
6 1 1 0 309.35 184.25 195.99 <
6 -1 1 0 308.95 423.11 326.22 <
-6 2 1 0 1384.87 1458.01 580.60 <
-6 -2 1 0 1384.13 896.78 521.45 <
-6 2 1 1 91.63 -358.87 325.69 <
-6 -2 1 1 93.24 -170.60 183.38 <
-6 2 1 2 62.36 -151.82 143.71 <
-6 -2 1 2 64.67 35.78 109.40 <
-5 2 1 -2 307.53 -89.57 126.70 <
-5 -2 1 -2 315.69 681.98 392.96 <
-5 2 1 -1 151.08 131.99 129.47 <
-5 -2 1 -1 141.61 257.52 223.23 <
-5 2 1 0 970.16 678.63 307.80 <
-5 -2 1 0 941.98 704.22 349.11 <
-5 2 1 1 310.71 -105.40 192.21 <
-5 -2 1 1 285.05 401.11 296.96 <
-5 2 1 2 105.25 283.48 137.99 <
-5 -2 1 2 107.07 407.62 375.61 <
-4 2 1 -2 10.55 39.42 167.75 <
-4 -2 1 -2 10.17 169.08 266.13 <
-4 2 1 -1 6.12 161.25 153.64 <
-4 -2 1 -1 5.28 253.86 133.79 <
-4 2 1 0 4744.37 4253.69 470.16 o
-4 -2 1 0 4724.93 3924.15 688.33 o
-4 2 1 1 151.19 212.34 146.29 <
-4 -2 1 1 156.28 91.07 108.96 <
-4 2 1 2 100.85 161.93 94.90 <
-4 -2 1 2 103.83 156.94 140.12 <
-3 2 1 -2 166.30 312.67 150.77 <
-3 -2 1 -2 170.45 203.29 177.29 <
-3 2 1 -1 323.79 237.10 134.10 <
-3 -2 1 -1 338.41 190.51 111.36 <
-3 2 1 0 1932.80 2070.83 277.15 o
-3 -2 1 0 1907.31 1874.30 254.89 o
-3 2 1 1 186.63 206.01 110.49 <
-3 -2 1 1 168.64 -74.01 91.92 <
-3 2 1 2 146.68 38.07 73.51 <
-3 -2 1 2 146.48 -35.59 58.74 <
-2 2 1 -2 33.39 25.42 78.40 <
-2 -2 1 -2 36.85 83.75 43.48 <
-2 2 1 -1 55.88 84.62 57.20 <
-2 -2 1 -1 60.01 33.70 54.63 <
-2 2 1 0 25161.20 25618.20 952.71 o
-2 -2 1 0 25009.10 25057.80 552.36 o
-2 2 1 1 94.64 164.97 94.40 <
-2 -2 1 1 101.26 123.23 52.42 <
-2 2 1 2 307.71 463.12 149.44 o
-2 -2 1 2 306.63 389.68 72.79 o
-1 2 1 -2 49.55 -2.57 39.29 <
-1 -2 1 -2 52.27 23.09 34.16 <
-1 2 1 -1 678.72 593.93 123.31 o
-1 -2 1 -1 632.81 642.19 61.68 o
-1 2 1 0 1482.10 1603.39 183.21 o
-1 -2 1 0 1481.11 1569.75 88.01 o
-1 2 1 1 470.95 446.53 119.81 o
-1 -2 1 1 446.44 418.99 56.44 o
-1 -2 1 2 154.16 8.85 24.52 <
0 2 1 1 6.41 23.63 20.44 <
0 -2 1 1 6.15 11.35 11.96 <
0 2 1 2 132.51 103.99 63.01 <
0 -2 1 2 136.97 195.27 45.79 o
1 2 1 -2 82.16 24.54 27.31 <
1 -2 1 -2 83.98 3.67 22.65 <
1 -2 1 -1 289.89 270.61 58.44 o
1 2 1 0 433.87 267.82 47.28 o
1 -2 1 0 407.06 331.18 49.28 o
1 -2 1 1 1475.72 1563.23 103.31 o
1 2 1 2 31.78 356.63 138.27 <
1 -2 1 2 28.31 60.02 42.24 <
2 2 1 -2 172.52 75.92 56.22 <
2 -2 1 -2 170.30 135.03 49.59 <
2 2 1 -1 299.12 272.91 91.83 <
2 -2 1 -1 287.70 333.85 90.77 o
2 2 1 0 28170.80 26940.70 809.03 o
2 -2 1 0 28127.80 27902.50 738.96 o
2 -2 1 1 4.69 -56.96 84.18 <
2 -2 1 2 2102.46 2187.23 397.96 o
3 2 1 -2 270.47 227.38 125.97 <
3 -2 1 -2 274.70 39.48 72.00 <
3 2 1 -1 52.02 83.07 104.86 <
3 -2 1 -1 60.85 47.53 109.68 <
3 2 1 0 473.78 406.57 223.84 <
3 -2 1 0 464.79 -46.44 129.64 <
3 2 1 1 613.90 1014.24 361.61 <
3 -2 1 1 613.37 522.67 261.56 <
3 2 1 2 88.32 233.02 198.97 <
3 -2 1 2 88.52 -111.77 148.36 <
4 2 1 -2 255.34 126.53 112.36 <
4 -2 1 -2 255.66 130.79 153.81 <
4 2 1 -1 313.36 225.78 180.03 <
4 -2 1 -1 307.27 30.28 145.14 <
4 2 1 0 5302.96 4247.84 731.46 o
4 -2 1 0 5307.74 4890.19 775.97 o
4 2 1 1 16.75 234.38 216.28 <
4 -2 1 1 18.43 -36.53 144.97 <
4 2 1 2 782.34 539.23 217.14 <
4 -2 1 2 790.51 580.99 217.84 <
5 2 1 -2 181.56 161.58 226.69 <
5 -2 1 -2 189.47 303.65 216.86 <
5 2 1 -1 141.68 157.12 119.18 <
5 -2 1 -1 154.93 344.20 309.48 <
5 2 1 0 273.60 -81.98 185.73 <
5 -2 1 0 271.97 432.44 382.79 <
5 2 1 1 5.45 365.37 245.56 <
5 -2 1 1 9.04 358.05 236.13 <
5 2 1 2 27.36 218.58 155.34 <
5 -2 1 2 24.67 160.95 161.66 <
6 2 1 -2 169.40 17.67 138.71 <
6 -2 1 -2 175.15 378.16 337.94 <
6 2 1 -1 277.58 -179.14 99.99 <
6 -2 1 -1 280.14 173.47 201.06 <
6 2 1 0 1254.20 1635.61 539.34 o
6 -2 1 0 1262.73 1376.35 632.00 <
-6 3 1 0 464.90 234.71 145.57 <
-6 3 1 1 248.59 17.98 190.88 <
-6 -3 1 1 238.04 73.03 257.89 <
-6 3 1 2 181.28 -210.52 353.68 <
-6 -3 1 2 187.07 -14.24 129.25 <
-5 3 1 -2 9.76 -136.73 143.64 <
-5 -3 1 -2 10.03 -23.74 287.54 <
-5 3 1 -1 31.22 55.40 128.38 <
-5 -3 1 -1 30.86 150.21 232.69 <
-5 3 1 0 2113.14 1934.23 580.01 o
-5 -3 1 0 2088.17 2044.44 569.69 o
-5 3 1 1 4.16 -174.66 129.21 <
-5 -3 1 1 4.49 880.06 409.14 <
-5 3 1 2 33.88 208.62 137.66 <
-5 -3 1 2 34.54 62.94 134.79 <
-4 3 1 -2 408.19 41.26 156.12 <
-4 -3 1 -2 402.18 531.53 343.44 <
-4 3 1 -1 130.63 136.57 154.90 <
-4 -3 1 -1 130.90 48.81 262.45 <
-4 3 1 0 2069.45 1800.92 313.48 o
-4 -3 1 0 2046.92 1755.22 484.84 o
-4 3 1 1 290.88 224.54 113.05 <
-4 -3 1 1 281.46 -120.55 120.22 <
-4 3 1 2 293.39 148.40 128.83 <
-4 -3 1 2 293.77 313.91 160.58 <
-3 3 1 -2 70.47 192.45 139.14 <
-3 -3 1 -2 69.75 117.01 171.99 <
-3 3 1 -1 780.09 659.52 180.34 o
-3 -3 1 -1 792.27 758.92 288.82 <
-3 3 1 0 12081.50 12413.80 650.45 o
-3 -3 1 0 11970.70 11784.20 474.34 o
-3 3 1 1 107.75 244.04 142.73 <
-3 -3 1 1 110.61 228.13 87.85 <
-3 3 1 2 26.70 141.07 94.16 <
-3 -3 1 2 27.20 27.24 32.76 <
-2 3 1 -2 500.60 408.27 139.03 <
-2 -3 1 -2 514.18 484.08 78.37 o
-2 3 1 -1 297.72 221.80 97.90 <
-2 -3 1 -1 300.75 237.06 55.70 o
-2 3 1 0 14356.70 14573.50 723.66 o
-2 -3 1 0 14358.20 14285.70 342.57 o
-2 3 1 1 50.02 26.50 53.35 <
-2 -3 1 1 46.98 109.94 33.46 o
-2 3 1 2 239.01 255.47 106.57 <
-2 -3 1 2 238.51 220.41 38.33 o
-1 3 1 -2 188.84 30.74 43.39 <
-1 -3 1 -2 190.27 38.00 32.29 <
-1 3 1 -1 1415.94 1322.74 178.23 o
-1 -3 1 -1 1329.15 1309.96 92.25 o
-1 3 1 0 48091.90 52753.30 1102.86 o
-1 -3 1 0 47978.50 52782.00 555.04 o
-1 3 1 1 2150.59 2355.50 235.15 o
-1 -3 1 1 2176.35 2276.65 116.92 o
-1 3 1 2 43.14 -89.37 85.11 <
-1 -3 1 2 46.48 33.66 21.15 <
0 3 1 -2 16.71 23.70 30.41 <
0 -3 1 -2 15.81 8.57 27.68 <
0 -3 1 -1 62.89 68.79 17.02 o
0 -3 1 0 16519.40 16639.60 266.97 o
0 3 1 1 288.71 258.84 51.50 o
0 -3 1 1 286.09 255.28 32.28 o
0 3 1 2 45.08 44.83 23.04 <
0 -3 1 2 48.02 45.87 25.05 <
1 3 1 -2 30.75 117.88 61.83 <
1 -3 1 -2 33.24 -1.80 30.57 <
1 3 1 -1 128.96 139.14 44.57 o
1 -3 1 -1 137.28 162.20 53.61 o
1 -3 1 0 42854.80 45887.70 778.90 o
1 -3 1 1 3787.16 4330.81 219.80 o
1 3 1 2 62.58 3.54 79.01 <
1 -3 1 2 60.90 28.17 32.26 <
2 3 1 -2 271.52 195.45 72.96 <
2 -3 1 -2 268.78 357.05 94.09 o
2 3 1 -1 412.99 653.80 116.90 o
2 -3 1 -1 412.14 591.76 103.62 o
2 3 1 0 14983.40 14768.20 560.17 o
2 -3 1 0 14975.30 14345.20 552.93 o
2 3 1 1 400.75 453.01 111.22 o
2 -3 1 1 392.14 282.69 105.46 <
2 -3 1 2 2391.99 2280.67 247.17 o
3 3 1 -2 18.30 -33.72 41.81 <
3 -3 1 -2 14.97 61.96 39.13 <
3 3 1 -1 61.42 33.24 43.52 <
3 -3 1 -1 59.19 50.35 84.24 <
3 3 1 0 9510.25 9607.06 615.34 o
3 -3 1 0 9476.79 9122.69 868.17 o
3 -3 1 1 1044.62 955.11 310.32 o
3 -3 1 2 149.57 35.52 100.96 <
4 3 1 -2 85.47 287.00 127.79 <
4 -3 1 -2 86.67 272.65 201.40 <
4 3 1 -1 458.27 559.06 272.19 <
4 -3 1 -1 474.71 193.38 212.69 <
4 3 1 0 2628.80 2375.37 595.69 o
4 -3 1 0 2671.13 1736.70 453.09 o
4 3 1 1 68.10 189.93 215.36 <
4 -3 1 1 73.14 -30.59 226.63 <
4 3 1 2 564.40 457.53 211.54 <
4 -3 1 2 586.55 602.54 241.25 <
5 3 1 -2 58.12 162.84 211.04 <
5 -3 1 -2 52.19 15.98 162.90 <
5 3 1 -1 115.42 500.36 375.09 <
5 -3 1 -1 112.88 194.30 345.68 <
5 3 1 0 1685.48 1616.17 493.64 o
5 -3 1 0 1665.08 1632.17 361.39 o
5 3 1 1 24.92 233.97 205.79 <
5 -3 1 1 29.28 369.07 225.40 <
5 3 1 2 90.59 224.01 224.80 <
5 -3 1 2 83.42 118.46 178.19 <
6 3 1 -2 27.90 -160.92 174.21 <
6 -3 1 -2 34.41 315.28 299.24 <
6 3 1 -1 188.66 274.74 201.91 <
6 -3 1 -1 201.59 307.59 245.69 <
6 3 1 0 803.23 955.61 454.27 <
-6 4 1 1 181.26 112.68 165.88 <
-6 -4 1 1 190.87 147.75 293.46 <
-6 4 1 2 4.97 13.48 131.60 <
-6 -4 1 2 7.04 756.49 418.12 <
-5 4 1 -2 712.77 920.23 455.12 <
-5 -4 1 -2 705.08 719.33 419.46 <
-5 4 1 -1 364.35 564.69 428.79 <
-5 -4 1 -1 368.37 912.74 403.92 <
-5 4 1 0 300.84 124.09 150.32 <
-5 -4 1 0 304.76 183.34 120.68 <
-5 4 1 1 287.44 457.18 292.72 <
-5 -4 1 1 273.53 -3.50 200.62 <
-5 4 1 2 41.33 25.42 80.40 <
-5 -4 1 2 44.36 95.55 251.34 <
-4 4 1 -2 3.72 121.44 226.90 <
-4 -4 1 -2 6.08 -23.80 79.53 <
-4 4 1 -1 42.38 -11.91 165.88 <
-4 -4 1 -1 44.58 107.57 211.21 <
-4 4 1 0 1068.70 1153.08 252.39 o
-4 -4 1 0 1100.16 903.43 351.42 <
-4 4 1 1 167.21 285.13 123.66 <
-4 -4 1 1 175.55 204.51 155.47 <
-4 4 1 2 55.38 282.21 164.66 <
-4 -4 1 2 60.80 37.35 69.33 <
-3 4 1 -2 647.85 188.66 97.09 <
-3 -4 1 -2 592.10 561.08 274.08 <
-3 4 1 -1 192.26 279.11 144.34 <
-3 -4 1 -1 209.90 135.27 75.18 <
-3 4 1 0 745.61 516.73 169.29 o
-3 -4 1 0 753.22 686.55 154.79 o
-3 4 1 1 297.45 455.48 140.12 o
-3 -4 1 1 265.00 288.06 130.77 <
-3 4 1 2 58.66 127.49 105.33 <
-3 -4 1 2 55.61 81.07 66.92 <
-2 4 1 -2 93.27 -24.28 41.68 <
-2 -4 1 -2 89.34 105.72 52.85 <
-2 4 1 -1 50.69 118.09 69.87 <
-2 -4 1 -1 59.12 3.93 25.20 <
-2 4 1 0 3193.67 3263.35 338.33 o
-2 -4 1 0 3203.60 3405.35 182.47 o
-2 4 1 1 124.39 138.33 68.61 <
-2 -4 1 1 120.74 27.52 33.46 <
-2 4 1 2 8.38 53.79 63.31 <
-2 -4 1 2 8.64 26.37 36.65 <
-1 4 1 -2 325.20 210.91 76.81 <
-1 -4 1 -2 302.48 216.19 53.07 o
-1 4 1 -1 22757.70 24409.60 762.59 o
-1 -4 1 -1 22697.20 24875.50 481.66 o
-1 4 1 0 1976.68 2031.42 215.28 o
-1 -4 1 0 1989.57 1987.67 121.79 o
-1 4 1 1 370.27 312.85 90.11 o
-1 -4 1 1 355.52 437.96 61.05 o
-1 4 1 2 36.70 123.46 77.48 <
-1 -4 1 2 34.70 53.74 32.22 <
0 4 1 -2 133.86 22.72 31.68 <
0 -4 1 -2 129.40 29.55 44.85 <
0 -4 1 -1 256.40 57.46 35.57 <
0 -4 1 0 703.87 575.67 65.92 o
0 4 1 1 183.75 185.30 48.98 o
0 -4 1 1 195.99 74.77 21.78 o
0 4 1 2 378.23 289.13 82.64 o
0 -4 1 2 375.42 256.58 54.26 o
1 -4 1 -2 84.18 57.87 32.31 <
1 4 1 -1 407.46 432.77 89.64 o
1 -4 1 -1 408.33 374.24 62.64 o
1 4 1 0 1233.94 979.24 95.05 o
1 -4 1 0 1244.68 1138.83 111.92 o
1 4 1 1 1888.60 2148.08 239.01 o
1 -4 1 1 1877.09 2162.66 163.79 o
1 4 1 2 114.80 46.29 50.77 <
1 -4 1 2 121.55 195.56 64.44 o
2 4 1 -2 113.93 39.66 27.59 <
2 -4 1 -2 110.85 11.96 37.55 <
2 4 1 -1 156.70 -13.78 22.78 <
2 -4 1 -1 138.74 -11.83 47.50 <
2 4 1 0 1816.00 1341.70 162.49 o
2 -4 1 0 1752.52 1368.31 181.60 o
2 4 1 1 680.22 718.33 117.35 o
2 -4 1 1 645.34 574.56 130.55 o
2 -4 1 2 1254.56 1200.82 190.56 o
3 4 1 -2 183.64 84.85 52.16 <
3 -4 1 -2 181.10 140.12 70.96 <
3 4 1 -1 219.01 195.36 101.72 <
3 -4 1 -1 186.74 148.10 70.14 <
3 4 1 0 392.59 401.09 144.23 <
3 -4 1 0 407.75 451.07 116.07 o
3 -4 1 1 22.26 -43.29 63.94 <
3 -4 1 2 25.66 313.67 270.50 <
4 4 1 -2 24.96 92.75 133.23 <
4 -4 1 -2 24.71 283.78 234.32 <
4 4 1 -1 211.70 371.54 273.28 <
4 -4 1 -1 195.16 388.37 306.43 <
4 4 1 0 302.02 412.76 280.08 <
4 -4 1 0 305.09 115.68 87.81 <
4 4 1 1 523.33 596.61 347.67 <
4 -4 1 1 499.34 623.26 335.02 <
4 4 1 2 241.72 416.74 220.06 <
4 -4 1 2 265.26 418.70 197.84 <
5 4 1 -2 204.88 40.28 147.49 <
5 -4 1 -2 211.84 206.06 244.39 <
5 4 1 -1 440.86 473.60 330.04 <
5 -4 1 -1 443.45 355.00 250.60 <
5 4 1 0 58.24 221.54 276.23 <
5 -4 1 0 62.12 185.56 208.47 <
5 4 1 1 13.64 510.73 246.39 <
5 -4 1 1 15.44 285.97 230.82 <
5 4 1 2 16.11 645.24 262.93 <
5 -4 1 2 16.80 558.14 268.97 <
6 4 1 -2 5.82 364.50 290.46 <
6 -4 1 -2 5.56 493.64 276.84 <
6 4 1 -1 395.99 248.62 237.84 <
6 -4 1 -1 386.53 -79.29 183.80 <
6 4 1 0 63.67 -127.53 192.45 <
-6 5 1 1 165.31 -93.70 202.71 <
-6 -5 1 1 160.86 390.35 331.85 <
-6 5 1 2 182.74 -4.96 173.43 <
-6 -5 1 2 182.33 39.00 262.13 <
-5 5 1 -2 16.60 101.59 132.16 <
-5 -5 1 -2 16.73 95.79 151.86 <
-5 5 1 -1 23.85 466.66 351.57 <
-5 -5 1 -1 25.17 278.58 279.76 <
-5 5 1 0 2156.52 2313.96 657.45 o
-5 -5 1 0 2119.81 1853.95 568.23 o
-5 5 1 1 167.16 241.41 255.30 <
-5 -5 1 1 173.96 313.06 250.26 <
-5 5 1 2 345.82 308.74 254.02 <
-5 -5 1 2 337.33 76.59 265.15 <
-4 5 1 -2 312.56 565.28 356.11 <
-4 -5 1 -2 313.86 265.78 264.60 <
-4 5 1 -1 303.66 641.59 380.81 <
-4 -5 1 -1 317.16 317.43 235.26 <
-4 5 1 0 1700.14 2358.05 355.48 o
-4 -5 1 0 1698.25 2249.67 536.08 o
-4 5 1 1 87.76 49.09 76.24 <
-4 -5 1 1 88.04 61.77 167.07 <
-4 5 1 2 221.92 261.95 137.68 <
-4 -5 1 2 212.63 48.89 58.89 <
-3 5 1 -2 54.85 65.98 106.18 <
-3 -5 1 -2 59.15 84.24 154.20 <
-3 5 1 -1 195.67 39.89 49.35 <
-3 -5 1 -1 187.30 166.47 73.46 <
-3 5 1 0 8464.70 7720.59 620.61 o
-3 -5 1 0 8264.88 8227.89 494.75 o
-3 5 1 1 499.17 59.94 90.11 <
-3 -5 1 1 507.55 234.54 97.46 <
-3 5 1 2 504.70 386.02 173.12 <
-3 -5 1 2 485.85 438.75 89.24 o
-2 5 1 -2 429.22 360.28 116.66 o
-2 -5 1 -2 415.42 356.18 66.31 o
-2 5 1 -1 446.45 483.18 147.92 o
-2 -5 1 -1 465.06 668.91 97.51 o
-2 5 1 0 8012.08 8776.82 560.23 o
-2 -5 1 0 8053.98 8616.80 335.15 o
-2 5 1 1 144.15 -27.29 47.42 <
-2 -5 1 1 155.52 62.76 36.79 <
-2 5 1 2 36.16 89.51 60.33 <
-2 -5 1 2 36.43 5.65 34.55 <
-1 5 1 -2 47.56 13.63 31.98 <
-1 -5 1 -2 48.22 -32.70 31.57 <
-1 5 1 -1 94.02 45.81 36.98 <
-1 -5 1 -1 100.57 13.94 33.15 <
-1 5 1 0 22171.80 22165.10 799.86 o
-1 -5 1 0 21783.70 22213.60 493.08 o
-1 5 1 1 769.21 852.64 192.93 o
-1 -5 1 1 770.01 597.43 89.77 o
-1 5 1 2 307.91 335.55 165.53 <
-1 -5 1 2 301.71 119.97 37.33 o
0 5 1 -2 70.08 116.47 39.37 <
0 -5 1 -2 72.06 24.87 39.00 <
0 -5 1 -1 27.54 0.98 36.41 <
0 -5 1 0 31114.60 32359.20 488.36 o
0 -5 1 1 534.81 497.77 66.68 o
0 5 1 2 152.00 23.31 34.07 <
0 -5 1 2 140.61 28.04 37.98 <
1 -5 1 -2 277.99 27.92 36.18 <
1 -5 1 -1 967.25 694.22 76.81 o
1 5 1 0 19478.00 19053.60 492.07 o
1 -5 1 0 19415.90 20012.20 479.86 o
1 5 1 1 778.29 671.37 83.24 o
1 -5 1 1 743.59 844.40 112.11 o
1 5 1 2 32.46 103.48 61.85 <
1 -5 1 2 34.81 116.36 58.79 <
2 5 1 -2 46.02 -7.89 49.66 <
2 -5 1 -2 45.72 97.05 53.29 <
2 5 1 -1 190.23 171.18 80.77 <
2 -5 1 -1 200.59 205.30 66.83 o
2 5 1 0 9862.74 9511.84 420.81 o
2 -5 1 0 9907.60 9973.48 497.75 o
2 5 1 1 853.64 694.59 116.40 o
2 -5 1 1 866.76 972.78 166.29 o
2 -5 1 2 4984.69 4890.36 323.54 o
3 5 1 -2 504.97 61.92 70.33 <
3 -5 1 -2 526.61 79.29 50.00 <
3 5 1 -1 620.17 -30.22 61.22 <
3 -5 1 -1 626.01 212.49 84.27 <
3 5 1 0 6976.22 6503.91 465.16 o
3 -5 1 0 6951.95 6625.56 343.91 o
3 -5 1 1 188.77 180.69 78.00 <
3 -5 1 2 158.37 -46.02 86.33 <
4 5 1 -2 26.53 -11.55 92.68 <
4 -5 1 -2 26.05 39.79 146.20 <
4 -5 1 -1 220.98 51.26 126.55 <
4 -5 1 0 2676.47 3449.18 650.13 o
4 5 1 1 343.53 944.34 403.66 <
4 -5 1 1 349.62 507.49 217.06 <
4 5 1 2 643.34 295.28 181.38 <
4 -5 1 2 673.36 369.29 286.24 <
5 5 1 -2 380.80 303.43 286.28 <
5 -5 1 -2 393.90 278.00 265.17 <
5 5 1 -1 229.41 -85.72 167.73 <
5 -5 1 -1 238.37 89.00 175.77 <
5 5 1 0 1715.52 1670.35 559.77 <
5 -5 1 0 1686.05 1561.58 368.85 o
5 5 1 1 14.05 329.04 262.95 <
5 -5 1 1 14.50 387.26 252.97 <
5 5 1 2 285.61 496.42 239.17 <
5 -5 1 2 282.66 466.08 277.52 <
6 5 1 -2 17.71 560.49 408.03 <
6 -5 1 -2 16.64 33.54 172.05 <
6 5 1 -1 91.95 191.95 202.65 <
6 -5 1 -1 95.48 524.84 283.93 <
6 5 1 0 524.12 837.95 448.01 <
-6 6 1 1 76.94 -452.94 154.88 <
-6 -6 1 1 71.06 233.26 250.10 <
-6 6 1 2 6.71 -10.37 136.62 <
-6 -6 1 2 6.01 76.77 191.41 <
-5 6 1 -2 201.74 130.03 248.91 <
-5 -6 1 -2 194.79 -16.80 159.95 <
-5 6 1 -1 88.42 148.01 276.84 <
-5 -6 1 -1 104.94 337.37 347.37 <
-5 6 1 0 1012.69 513.03 301.82 <
-5 -6 1 0 1002.94 1065.42 452.21 <
-5 6 1 1 60.76 423.83 292.00 <
-5 -6 1 1 54.41 -120.88 253.67 <
-5 6 1 2 6.93 -119.40 192.82 <
-5 -6 1 2 8.21 88.94 80.48 <
-4 6 1 -2 20.46 286.10 289.87 <
-4 -6 1 -2 21.91 222.28 266.73 <
-4 6 1 -1 112.16 636.50 367.05 <
-4 -6 1 -1 105.51 21.85 65.83 <
-4 6 1 0 2518.15 3060.37 635.37 o
-4 -6 1 0 2607.53 2890.71 600.48 o
-4 6 1 1 54.20 29.65 52.20 <
-4 -6 1 1 51.55 109.03 180.34 <
-4 6 1 2 4.72 -6.98 103.70 <
-4 -6 1 2 5.12 3.19 69.59 <
-3 6 1 -2 118.47 -17.80 76.57 <
-3 -6 1 -2 99.89 86.77 84.24 <
-3 6 1 -1 1346.39 1137.27 244.67 o
-3 -6 1 -1 1287.05 1260.39 223.60 o
-3 6 1 0 3519.28 3477.90 423.46 o
-3 -6 1 0 3504.05 2977.50 314.76 o
-3 6 1 1 34.27 160.68 124.07 <
-3 -6 1 1 25.69 59.72 55.66 <
-3 6 1 2 18.96 -20.55 75.63 <
-3 -6 1 2 17.37 31.28 51.13 <
-2 6 1 -2 135.45 51.29 33.13 <
-2 -6 1 -2 129.62 117.05 72.29 <
-2 6 1 -1 532.32 567.06 149.47 o
-2 -6 1 -1 508.25 486.14 89.46 o
-2 6 1 0 4201.44 4312.57 401.33 o
-2 -6 1 0 4335.38 4638.28 263.50 o
-2 6 1 1 28.85 8.93 77.64 <
-2 -6 1 1 30.84 37.92 35.76 <
-2 6 1 2 102.86 47.63 103.77 <
-2 -6 1 2 102.46 113.38 49.33 <
-1 6 1 -2 495.00 332.57 106.66 o
-1 -6 1 -2 494.33 382.68 81.13 o
-1 6 1 -1 5399.72 6242.24 422.74 o
-1 -6 1 -1 5408.90 6275.32 288.30 o
-1 6 1 0 6007.55 6148.25 454.49 o
-1 -6 1 0 5992.96 5916.91 278.82 o
-1 6 1 1 451.59 693.96 209.75 o
-1 -6 1 1 454.90 487.66 88.09 o
-1 -6 1 2 146.06 63.05 41.44 <
0 6 1 -2 60.13 50.11 23.17 <
0 -6 1 -2 57.24 147.84 49.53 <
0 -6 1 -1 419.09 421.48 69.85 o
0 -6 1 0 34440.50 34092.70 544.27 o
0 -6 1 1 2062.88 2515.99 154.68 o
0 6 1 2 50.92 53.83 28.63 <
0 -6 1 2 48.97 39.61 26.09 <
1 -6 1 -2 59.13 19.44 26.72 <
1 -6 1 -1 134.71 28.52 32.00 <
1 6 1 0 3961.64 4286.00 261.80 o
1 -6 1 0 3909.09 3933.19 195.19 o
1 6 1 1 503.72 581.67 78.51 o
1 -6 1 1 511.65 659.06 92.25 o
1 6 1 2 315.32 131.31 49.61 <
1 -6 1 2 332.26 255.78 79.50 o
2 6 1 -2 11.87 90.03 84.03 <
2 -6 1 -2 10.49 -2.70 36.16 <
2 6 1 -1 95.70 83.33 58.02 <
2 -6 1 -1 102.19 128.97 55.16 <
2 6 1 0 3366.41 3438.79 258.52 o
2 -6 1 0 3435.89 3783.14 246.63 o
2 6 1 1 1893.03 1871.47 178.30 o
2 -6 1 1 1878.25 2373.57 202.56 o
2 6 1 2 1162.43 841.95 119.77 o
2 -6 1 2 1146.53 1207.23 178.79 o
3 6 1 -2 130.91 53.24 52.20 <
3 -6 1 -2 136.06 136.71 56.24 <
3 6 1 -1 502.40 610.21 138.55 o
3 -6 1 -1 485.73 670.76 117.88 o
3 6 1 0 981.12 504.06 135.60 o
3 -6 1 0 976.83 443.70 97.35 o
3 -6 1 1 529.16 627.28 178.64 o
3 -6 1 2 181.58 94.88 97.79 <
4 -6 1 -2 26.15 -27.61 195.66 <
4 -6 1 -1 6.26 160.05 140.77 <
4 -6 1 0 2433.85 2627.80 576.43 o
4 -6 1 1 257.19 302.89 176.18 <
4 6 1 2 377.99 436.31 193.12 <
4 -6 1 2 388.40 815.71 264.91 o
5 6 1 -2 145.17 436.53 351.39 <
5 -6 1 -2 155.26 5.06 93.61 <
5 6 1 -1 134.93 365.63 388.76 <
5 -6 1 -1 139.10 453.05 320.83 <
5 6 1 0 213.65 150.71 163.70 <
5 -6 1 0 212.55 246.36 180.56 <
5 6 1 1 54.54 406.20 199.90 <
5 -6 1 1 55.99 -18.98 168.51 <
5 6 1 2 75.84 320.46 190.06 <
5 -6 1 2 77.29 327.57 250.41 <
6 6 1 -2 40.51 13.15 163.81 <
6 -6 1 -2 35.21 76.03 143.55 <
6 6 1 -1 46.97 314.15 212.28 <
6 -6 1 -1 51.83 168.16 209.23 <
6 6 1 0 478.16 -88.33 212.12 <
-6 7 1 1 162.00 -415.35 272.52 <
-6 7 1 2 159.56 -197.60 202.69 <
-6 -7 1 2 162.33 464.86 352.11 <
-5 7 1 -2 22.59 247.60 273.84 <
-5 -7 1 -2 21.92 85.61 207.77 <
-5 7 1 -1 10.09 118.36 237.01 <
-5 -7 1 -1 11.96 -139.40 215.93 <
-5 7 1 0 243.73 250.39 267.24 <
-5 -7 1 0 237.21 121.05 246.80 <
-5 7 1 1 316.29 -125.23 171.92 <
-5 -7 1 1 288.95 55.26 114.96 <
-5 7 1 2 247.56 -5.74 131.84 <
-5 -7 1 2 256.03 307.06 241.15 <
-4 7 1 -2 1007.49 608.97 360.11 <
-4 -7 1 -2 958.92 462.07 258.60 <
-4 -7 1 -1 361.87 406.90 291.82 <
-4 -7 1 0 240.74 393.59 261.41 <
-4 7 1 1 231.53 265.78 149.05 <
-4 -7 1 1 252.88 73.29 119.68 <
-4 7 1 2 374.14 238.89 164.32 <
-4 -7 1 2 376.52 -142.27 182.14 <
-3 7 1 -2 17.99 -20.42 57.48 <
-3 -7 1 -2 18.99 100.46 94.81 <
-3 7 1 -1 419.98 260.17 96.25 <
-3 -7 1 -1 418.72 410.03 123.92 o
-3 7 1 0 598.35 518.86 170.71 o
-3 -7 1 0 591.06 441.79 133.94 o
-3 7 1 1 372.01 13.22 81.85 <
-3 -7 1 1 350.40 27.57 80.63 <
-3 7 1 2 305.58 304.46 162.40 <
-3 -7 1 2 311.76 71.77 60.13 <
-2 7 1 -2 1638.81 1321.67 228.69 o
-2 -7 1 -2 1748.60 1315.22 161.97 o
-2 7 1 -1 26.69 148.21 77.38 <
-2 -7 1 -1 34.06 38.39 51.40 <
-2 7 1 0 173.16 29.09 68.81 <
-2 -7 1 0 163.02 68.44 44.72 <
-2 7 1 1 426.06 532.99 155.07 o
-2 -7 1 1 456.86 405.83 92.01 o
-2 7 1 2 406.25 248.73 127.99 <
-2 -7 1 2 400.46 276.60 85.74 o
-1 7 1 -2 42.52 -42.00 34.33 <
-1 -7 1 -2 44.42 23.00 46.42 <
-1 7 1 -1 1383.77 1552.58 241.25 o
-1 -7 1 -1 1415.40 1287.22 145.29 o
-1 7 1 0 3152.12 3042.27 357.33 o
-1 -7 1 0 3172.72 2846.40 209.77 o
-1 -7 1 1 233.38 38.16 33.22 <
-1 -7 1 2 117.82 77.14 39.96 <
0 -7 1 -2 201.05 58.68 33.59 <
0 -7 1 -1 0.97 -16.78 30.98 <
0 -7 1 0 7727.74 8468.86 293.24 o
0 -7 1 1 377.60 276.80 60.29 o
0 -7 1 2 344.48 247.39 64.03 o
1 -7 1 -2 82.29 -1.04 29.31 <
1 -7 1 -1 165.98 114.75 38.05 o
1 7 1 0 4247.83 3261.24 207.90 o
1 -7 1 0 4289.60 3487.10 195.43 o
1 7 1 1 10304.40 10852.60 322.06 o
1 -7 1 1 10254.60 11261.10 358.74 o
1 7 1 2 69.23 53.52 37.68 <
1 -7 1 2 75.21 89.20 49.72 <
2 7 1 -2 11.11 89.29 80.51 <
2 -7 1 -2 12.30 58.31 59.81 <
2 7 1 -1 865.59 645.83 124.27 o
2 -7 1 -1 835.67 710.57 111.90 o
2 7 1 0 477.94 515.10 114.79 o
2 -7 1 0 478.14 556.32 110.88 o
2 7 1 1 86.24 55.39 38.76 <
2 -7 1 1 78.66 65.01 63.90 <
2 7 1 2 472.50 195.69 85.42 <
2 -7 1 2 427.46 347.87 91.29 o
3 7 1 -2 162.29 24.28 42.98 <
3 -7 1 -2 165.28 46.22 58.66 <
3 7 1 -1 40.02 24.83 61.07 <
3 -7 1 -1 34.90 51.42 58.81 <
3 7 1 0 1225.05 1297.72 198.79 o
3 -7 1 0 1205.56 1345.74 169.21 o
3 -7 1 1 39.43 130.49 100.51 <
3 7 1 2 163.66 427.35 222.52 <
3 -7 1 2 174.87 350.35 124.36 <
4 -7 1 -2 113.15 124.94 127.46 <
4 -7 1 -1 370.38 299.08 272.76 <
4 -7 1 0 1257.94 1703.50 483.79 o
4 -7 1 1 48.24 148.32 142.84 <
4 7 1 2 52.99 143.62 264.23 <
4 -7 1 2 56.67 105.11 156.95 <
5 7 1 -2 247.26 801.21 415.22 <
5 -7 1 -2 246.24 139.07 266.43 <
5 7 1 -1 284.77 208.32 176.99 <
5 -7 1 -1 274.19 548.14 282.67 <
5 7 1 0 312.86 630.95 297.06 <
5 -7 1 0 296.44 369.39 242.47 <
5 7 1 1 367.01 583.00 207.34 <
5 -7 1 1 352.43 321.91 274.50 <
5 7 1 2 242.28 389.85 254.39 <
5 -7 1 2 236.52 69.79 220.84 <
6 7 1 -2 104.43 610.00 254.10 <
6 -7 1 -2 103.34 411.51 255.50 <
6 7 1 -1 189.15 494.36 372.46 <
-6 8 1 2 45.67 564.21 478.71 <
-6 -8 1 2 43.80 156.44 137.25 <
-5 8 1 -2 23.58 643.74 350.76 <
-5 -8 1 -2 19.87 163.88 186.99 <
-5 8 1 -1 72.88 71.59 190.51 <
-5 -8 1 -1 68.34 446.33 256.38 <
-5 8 1 0 699.11 531.36 360.72 <
-5 -8 1 0 708.32 243.60 164.95 <
-5 8 1 1 202.63 191.62 374.79 <
-5 -8 1 1 209.80 -224.80 289.23 <
-5 8 1 2 202.89 581.65 389.27 <
-5 -8 1 2 198.42 356.65 266.86 <
-4 -8 1 -2 9.72 -27.63 88.09 <
-4 -8 1 -1 163.43 267.91 201.91 <
-4 -8 1 0 167.42 18.83 65.63 <
-4 -8 1 1 46.26 -96.70 85.96 <
-4 8 1 2 168.47 69.14 121.40 <
-4 -8 1 2 164.84 -52.42 143.46 <
-3 -8 1 -2 46.26 236.26 117.88 <
-3 8 1 -1 123.16 135.33 111.11 <
-3 -8 1 -1 124.37 236.47 121.85 <
-3 8 1 0 4307.85 3355.18 419.79 o
-3 -8 1 0 4301.90 3983.52 396.64 o
-3 8 1 1 139.46 127.60 159.16 <
-3 -8 1 1 138.30 80.31 65.44 <
-3 8 1 2 297.24 410.48 168.66 <
-3 -8 1 2 294.10 240.84 98.29 <
-2 8 1 -2 62.92 233.88 102.99 <
-2 -8 1 -2 60.43 120.20 73.05 <
-2 8 1 -1 985.76 1182.12 227.34 o
-2 -8 1 -1 956.77 1052.85 146.90 o
-2 8 1 0 325.48 268.86 135.57 <
-2 -8 1 0 364.54 182.34 75.59 <
-2 8 1 1 131.62 218.15 135.77 <
-2 -8 1 1 123.47 207.01 65.51 o
-2 8 1 2 403.57 60.09 89.68 <
-2 -8 1 2 400.95 145.49 68.40 <
-1 8 1 -2 384.20 314.04 134.34 <
-1 -8 1 -2 402.87 195.64 76.07 <
-1 8 1 -1 60.82 213.49 133.62 <
-1 -8 1 -1 73.32 159.08 72.13 <
-1 8 1 0 18318.50 19212.10 918.54 o
-1 -8 1 0 18277.40 19150.70 584.32 o
-1 -8 1 1 634.41 503.01 97.01 o
-1 -8 1 2 280.82 85.85 51.50 <
0 -8 1 -2 23.30 47.37 39.05 <
0 -8 1 -1 1713.78 1408.92 117.09 o
0 -8 1 0 10069.30 10722.10 349.68 o
0 -8 1 1 2422.03 2185.86 171.36 o
0 -8 1 2 172.95 157.05 59.53 <
1 -8 1 -2 265.27 23.20 42.22 <
1 -8 1 -1 96.75 159.99 64.26 <
1 8 1 0 21130.60 19244.10 441.68 o
1 -8 1 0 21116.10 22729.90 520.16 o
1 8 1 1 1655.25 1211.02 140.88 o
1 -8 1 1 1598.52 1299.21 135.66 o
1 8 1 2 218.84 86.96 31.24 <
1 -8 1 2 239.00 1.65 43.76 <
2 8 1 -2 30.36 -73.88 86.50 <
2 -8 1 -2 33.98 13.61 61.02 <
2 8 1 -1 854.99 822.53 147.34 o
2 -8 1 -1 861.06 699.46 112.62 o
2 8 1 0 222.61 174.36 47.39 o
2 -8 1 0 234.77 206.43 69.31 <
2 8 1 1 2212.03 2088.75 205.84 o
2 -8 1 1 2221.34 2738.66 215.14 o
2 8 1 2 820.00 544.93 127.23 o
2 -8 1 2 794.86 650.91 116.53 o
3 8 1 -2 168.47 48.72 86.61 <
3 -8 1 -2 163.71 105.07 76.75 <
3 8 1 -1 302.03 132.81 83.96 <
3 -8 1 -1 297.48 84.57 56.96 <
3 -8 1 0 7668.10 8005.81 426.61 o
3 -8 1 1 937.83 870.14 166.93 o
3 8 1 2 98.41 363.18 234.69 <
3 -8 1 2 104.93 165.90 105.81 <
4 -8 1 -2 80.10 -28.94 97.36 <
4 -8 1 -1 243.59 225.78 118.23 <
4 -8 1 0 378.19 402.53 239.69 <
4 8 1 1 782.51 1015.30 345.65 <
4 -8 1 1 779.29 738.74 242.78 o
4 8 1 2 11.56 262.98 236.23 <
4 -8 1 2 7.05 77.40 113.85 <
5 -8 1 -2 126.90 281.15 237.97 <
5 8 1 -1 218.69 798.64 392.31 <
5 -8 1 -1 209.88 529.53 270.50 <
5 8 1 0 2098.67 1347.31 326.33 o
5 -8 1 0 2065.02 1725.66 401.96 o
5 8 1 1 259.52 183.62 320.43 <
5 -8 1 1 249.55 576.91 306.65 <
5 8 1 2 81.79 357.61 277.80 <
5 -8 1 2 74.18 20.89 144.82 <
6 8 1 -2 99.80 241.30 157.44 <
6 -8 1 -2 105.12 278.58 276.06 <
-6 9 1 2 51.50 -47.24 228.21 <
-6 -9 1 2 52.55 125.88 220.56 <
-5 9 1 -2 34.35 286.91 309.61 <
-5 -9 1 -2 33.06 504.30 241.86 <
-5 9 1 -1 21.81 417.33 263.71 <
-5 -9 1 -1 24.26 109.57 176.06 <
-5 9 1 0 90.94 442.61 350.24 <
-5 -9 1 0 87.80 731.42 487.12 <
-5 9 1 1 122.04 71.98 208.40 <
-5 -9 1 1 117.14 342.28 359.31 <
-5 9 1 2 103.58 264.97 264.58 <
-5 -9 1 2 104.90 -159.64 120.40 <
-4 -9 1 -2 748.88 371.33 228.25 <
-4 -9 1 -1 536.85 327.80 221.25 <
-4 -9 1 0 1014.33 606.34 306.93 <
-4 -9 1 1 82.07 60.24 155.51 <
-4 -9 1 2 89.08 -59.76 153.14 <
-3 -9 1 -2 10.85 119.94 100.31 <
-3 9 1 -1 94.93 192.17 131.25 <
-3 -9 1 -1 89.54 -42.87 87.75 <
-3 9 1 0 209.63 417.44 167.97 <
-3 -9 1 0 204.60 502.05 174.40 <
-3 9 1 1 56.70 -66.33 88.85 <
-3 -9 1 1 53.19 85.35 99.53 <
-3 9 1 2 45.02 -11.28 96.22 <
-3 -9 1 2 46.11 -21.18 64.35 <
-2 9 1 -2 6989.89 7328.81 544.73 o
-2 -9 1 -2 7085.60 7877.74 422.72 o
-2 9 1 -1 921.62 1165.01 243.13 o
-2 -9 1 -1 945.27 1257.37 166.21 o
-2 9 1 0 3990.21 4001.79 443.51 o
-2 -9 1 0 4012.53 3861.47 290.58 o
-2 9 1 1 55.82 -106.81 163.64 <
-2 -9 1 1 49.44 26.35 59.24 <
-2 9 1 2 170.08 162.16 90.49 <
-2 -9 1 2 171.51 42.94 51.87 <
-1 9 1 -2 2.99 107.75 123.20 <
-1 -9 1 -2 3.46 -12.04 47.52 <
-1 9 1 -1 198.83 476.86 190.64 <
-1 -9 1 -1 200.29 335.91 86.07 o
-1 -9 1 0 1039.20 1259.15 170.95 o
-1 -9 1 1 13.98 -0.33 62.81 <
-1 -9 1 2 17.26 118.12 65.63 <
0 -9 1 -2 454.02 228.65 61.70 o
0 -9 1 -1 913.18 1268.17 120.94 o
0 -9 1 0 1968.90 2141.27 163.43 o
0 -9 1 1 285.02 201.91 67.50 <
0 -9 1 2 299.51 -29.94 42.90 <
1 -9 1 -2 15.61 104.77 56.16 <
1 -9 1 -1 95.04 95.66 40.07 <
1 -9 1 0 869.10 774.46 104.68 o
1 9 1 1 243.22 397.16 72.05 o
1 -9 1 1 256.55 322.33 73.31 o
1 9 1 2 109.58 151.44 56.66 <
1 -9 1 2 105.01 123.85 58.68 <
2 9 1 -2 569.97 477.31 127.62 o
2 -9 1 -2 595.55 568.15 109.90 o
2 9 1 -1 262.34 215.21 107.53 <
2 -9 1 -1 260.30 177.55 74.01 <
2 9 1 0 1272.33 1082.88 173.69 o
2 -9 1 0 1277.62 1172.27 146.60 o
2 9 1 1 226.49 50.03 59.52 <
2 -9 1 1 236.81 123.73 74.70 <
2 9 1 2 441.86 407.14 171.64 <
2 -9 1 2 459.68 291.04 82.70 o
3 9 1 -2 61.56 237.47 144.81 <
3 -9 1 -2 65.31 46.63 79.61 <
3 -9 1 -1 112.24 87.18 70.16 <
3 -9 1 0 64.38 193.97 93.38 <
3 -9 1 1 29.45 1.46 50.55 <
3 9 1 2 12.61 4.18 136.79 <
3 -9 1 2 13.71 37.65 96.51 <
4 -9 1 -2 378.88 362.98 148.07 <
4 -9 1 -1 78.25 9.44 107.68 <
4 -9 1 0 221.66 376.40 239.01 <
4 9 1 1 22.66 255.88 198.06 <
4 -9 1 1 23.58 165.60 129.79 <
4 9 1 2 53.22 411.99 239.47 <
4 -9 1 2 51.31 294.08 201.41 <
5 -9 1 -2 59.50 -7.52 172.49 <
5 -9 1 -1 56.40 429.57 235.91 <
5 9 1 0 22.55 535.80 368.48 <
5 -9 1 0 19.41 114.81 181.19 <
5 9 1 1 145.58 -10.54 143.77 <
5 -9 1 1 143.73 171.19 162.51 <
5 9 1 2 241.70 551.38 452.96 <
5 -9 1 2 231.21 27.41 214.84 <
6 9 1 -2 172.49 -32.85 180.80 <
6 -9 1 -2 167.89 140.68 265.97 <
-6 10 1 2 70.03 -80.96 234.08 <
-5 10 1 -2 89.19 109.83 257.30 <
-5 -10 1 -2 89.57 115.64 258.34 <
-5 10 1 -1 250.77 8.78 345.42 <
-5 -10 1 -1 248.65 453.75 244.23 <
-5 10 1 0 267.17 126.01 297.72 <
-5 -10 1 0 280.22 554.84 340.55 <
-5 10 1 1 300.89 395.24 297.26 <
-5 -10 1 1 313.65 541.64 388.46 <
-5 -10 1 2 225.49 241.30 355.24 <
-4 -10 1 -2 65.69 256.32 288.95 <
-4 -10 1 -1 127.88 285.98 342.15 <
-4 -10 1 0 4045.74 4129.21 779.01 o
-4 -10 1 1 380.93 207.25 244.49 <
-4 -10 1 2 132.67 169.03 212.23 <
-3 -10 1 -2 214.98 136.62 160.03 <
-3 -10 1 -1 796.66 784.77 205.69 o
-3 10 1 0 309.64 260.71 108.47 <
-3 -10 1 0 311.76 280.58 113.46 <
-3 10 1 1 1258.74 989.22 270.23 o
-3 -10 1 1 1260.41 1173.77 178.62 o
-3 10 1 2 497.45 294.67 200.32 <
-3 -10 1 2 513.67 142.14 70.76 <
-2 10 1 -2 82.93 118.83 146.57 <
-2 -10 1 -2 80.59 -4.41 67.01 <
-2 10 1 -1 411.46 413.37 169.12 <
-2 -10 1 -1 429.99 369.90 100.09 o
-2 10 1 0 14099.90 14290.20 876.41 o
-2 -10 1 0 14353.70 14358.10 588.34 o
-2 10 1 1 282.75 127.44 85.01 <
-2 -10 1 1 283.31 334.32 103.53 o
-2 10 1 2 256.57 482.75 198.47 <
-2 -10 1 2 244.27 414.35 88.44 o
-1 10 1 -2 505.20 255.28 159.40 <
-1 -10 1 -2 486.33 374.83 103.36 o
-1 10 1 -1 1432.85 1515.43 308.93 o
-1 -10 1 -1 1434.71 1443.14 179.14 o
-1 -10 1 0 297.19 161.40 93.75 <
-1 -10 1 1 1411.18 1010.30 164.90 o
-1 -10 1 2 580.76 188.40 63.07 <
0 -10 1 -2 177.77 99.16 61.31 <
0 -10 1 -1 533.06 718.52 90.62 o
0 -10 1 0 53897.00 55776.50 860.91 o
0 -10 1 1 77.23 243.56 73.37 o
0 -10 1 2 98.21 250.43 67.01 o
1 -10 1 -2 150.19 76.74 45.44 <
1 -10 1 -1 1529.70 1066.92 123.20 o
1 -10 1 0 285.02 70.72 60.87 <
1 -10 1 1 5835.15 5992.65 311.69 o
1 10 1 2 91.27 45.83 27.24 <
1 -10 1 2 80.39 52.90 70.55 <
2 10 1 -2 195.90 305.06 126.14 <
2 -10 1 -2 183.72 252.02 79.42 o
2 10 1 -1 222.76 171.64 65.70 <
2 -10 1 -1 215.20 292.50 79.38 o
2 10 1 0 14868.60 14442.80 474.34 o
2 -10 1 0 14924.90 15129.30 517.66 o
2 10 1 1 153.13 41.20 61.92 <
2 -10 1 1 155.46 90.12 83.42 <
2 10 1 2 757.17 690.28 179.40 o
2 -10 1 2 764.90 627.41 119.77 o
3 10 1 -2 141.87 27.37 59.50 <
3 -10 1 -2 140.91 149.97 80.98 <
3 -10 1 -1 780.37 401.11 99.90 o
3 -10 1 0 220.65 80.90 71.94 <
3 10 1 1 194.19 5.91 121.81 <
3 -10 1 1 212.35 155.38 96.22 <
3 10 1 2 15.47 436.72 208.77 <
3 -10 1 2 16.52 2.35 84.07 <
4 -10 1 -2 248.95 447.33 197.17 <
4 -10 1 -1 254.13 150.79 121.10 <
4 -10 1 0 4358.69 4599.43 575.15 o
4 -10 1 1 267.29 207.04 176.73 <
4 -10 1 2 18.69 -86.85 116.03 <
5 -10 1 -2 36.39 201.17 165.27 <
5 -10 1 -1 196.43 231.91 216.19 <
5 -10 1 0 82.97 -405.98 252.00 <
5 10 1 1 409.11 1241.89 618.35 <
5 -10 1 1 392.96 612.43 281.93 <
5 10 1 2 8.39 41.16 232.69 <
5 -10 1 2 10.00 86.81 113.38 <
-5 11 1 -2 7.26 740.50 468.75 <
-5 -11 1 -2 7.30 368.29 217.34 <
-5 11 1 -1 132.55 462.90 413.14 <
-5 -11 1 -1 127.01 437.09 221.41 <
-5 11 1 0 584.13 1156.55 524.30 <
-5 -11 1 0 571.50 1288.41 538.01 <
-5 -11 1 1 16.46 126.49 134.31 <
-5 -11 1 2 34.62 294.33 143.79 <
-4 -11 1 -2 9.41 117.73 125.03 <
-4 -11 1 -1 52.83 112.96 172.01 <
-4 -11 1 0 1502.58 1522.51 505.95 o
-4 -11 1 1 169.63 283.47 255.60 <
-4 -11 1 2 133.11 418.75 276.39 <
-3 -11 1 -2 46.69 172.38 106.81 <
-3 -11 1 -1 8.96 187.60 134.23 <
-3 -11 1 0 2244.02 2749.55 369.44 o
-3 11 1 1 293.06 237.65 130.36 <
-3 -11 1 1 306.85 394.18 115.05 o
-3 11 1 2 29.88 -61.50 59.50 <
-3 -11 1 2 23.71 -7.15 58.20 <
-2 11 1 -2 1414.67 997.02 215.75 o
-2 -11 1 -2 1449.85 1168.10 189.12 o
-2 11 1 -1 54.35 155.97 160.84 <
-2 -11 1 -1 67.22 13.54 56.00 <
-2 11 1 0 2274.78 2411.03 359.61 o
-2 -11 1 0 2314.59 2454.64 265.54 o
-2 11 1 1 85.58 117.83 103.83 <
-2 -11 1 1 80.74 73.09 78.59 <
-2 11 1 2 108.07 254.19 165.64 <
-2 -11 1 2 107.48 77.59 93.57 <
-1 11 1 -2 154.35 198.75 145.16 <
-1 -11 1 -2 161.07 26.79 56.13 <
-1 -11 1 -1 2283.09 2873.32 282.19 o
-1 -11 1 0 6379.87 6451.23 409.74 o
-1 -11 1 1 175.79 123.92 105.81 <
-1 -11 1 2 22.40 5.35 48.35 <
0 -11 1 -2 105.03 52.90 67.05 <
0 -11 1 -1 60.95 -18.91 35.31 <
0 -11 1 0 13243.10 13363.70 439.57 o
0 -11 1 1 23.20 -20.02 50.87 <
0 -11 1 2 66.63 -56.59 55.16 <
1 -11 1 -2 331.71 92.90 67.46 <
1 -11 1 -1 259.84 225.38 79.61 <
1 -11 1 0 6234.97 6553.86 333.13 o
1 -11 1 1 7171.95 7883.97 371.07 o
1 -11 1 2 132.57 193.06 67.96 <
2 11 1 -2 85.39 154.66 118.09 <
2 -11 1 -2 89.45 30.65 52.70 <
2 11 1 -1 202.82 99.42 66.90 <
2 -11 1 -1 217.39 158.84 76.66 <
2 11 1 0 2547.03 2455.79 210.27 o
2 -11 1 0 2598.78 2467.44 226.17 o
2 11 1 1 199.21 148.31 106.40 <
2 -11 1 1 211.34 170.47 79.75 <
2 11 1 2 379.76 211.34 119.22 <
2 -11 1 2 366.00 385.05 106.09 o
3 -11 1 -2 192.78 189.56 94.20 <
3 -11 1 -1 276.14 324.98 102.72 o
3 -11 1 0 1653.83 1326.06 181.25 o
3 -11 1 1 196.65 278.34 127.10 <
3 -11 1 2 175.01 286.60 126.07 <
4 -11 1 -2 140.64 189.21 117.90 <
4 -11 1 -1 117.83 173.01 115.20 <
4 -11 1 0 1351.97 1841.42 387.79 o
4 -11 1 1 194.39 274.08 170.84 <
4 -11 1 2 35.01 283.80 162.64 <
5 -11 1 -2 31.27 199.90 141.44 <
5 -11 1 -1 71.01 275.13 177.80 <
5 -11 1 0 609.54 299.87 202.25 <
5 -11 1 1 692.91 225.67 208.88 <
5 -11 1 2 4.57 255.02 192.66 <
-5 -12 1 -2 69.04 469.64 384.77 <
-5 12 1 -1 438.39 220.14 319.56 <
-5 -12 1 -1 438.23 243.23 190.91 <
-5 -12 1 0 99.06 96.20 195.62 <
-5 -12 1 1 148.33 -173.27 197.66 <
-5 -12 1 2 116.58 -155.70 194.84 <
-4 -12 1 -2 11.92 260.24 181.68 <
-4 -12 1 -1 37.81 -64.98 205.01 <
-4 -12 1 0 523.12 261.32 207.49 <
-4 -12 1 1 208.91 -88.62 157.44 <
-4 -12 1 2 204.75 -74.61 96.16 <
-3 -12 1 -2 162.56 251.73 179.84 <
-3 -12 1 -1 4393.62 4911.10 538.41 o
-3 -12 1 0 527.61 314.04 133.38 <
-3 12 1 1 163.42 117.38 157.88 <
-3 -12 1 1 166.76 367.57 128.12 <
-3 12 1 2 188.81 568.93 241.78 <
-3 -12 1 2 192.74 303.58 135.71 <
-2 12 1 -2 17.75 18.52 69.24 <
-2 -12 1 -2 15.08 -22.55 82.01 <
-2 12 1 -1 68.44 189.62 172.18 <
-2 -12 1 -1 63.33 178.05 102.01 <
-2 12 1 0 833.28 489.27 213.52 <
-2 -12 1 0 885.80 609.45 141.57 o
-2 12 1 1 314.69 222.60 76.40 <
-2 -12 1 1 327.82 118.92 80.29 <
-2 12 1 2 156.52 45.26 138.38 <
-2 -12 1 2 155.74 86.46 75.98 <
-1 12 1 -2 49.37 195.16 217.75 <
-1 -12 1 -2 46.00 64.77 60.59 <
-1 -12 1 -1 211.50 80.77 58.87 <
-1 -12 1 0 2686.37 3254.74 257.32 o
-1 -12 1 1 39.82 136.38 64.40 <
-1 -12 1 2 66.99 184.99 64.66 <
0 -12 1 -2 219.28 198.77 69.74 <
0 -12 1 -1 125.99 38.63 37.50 <
0 -12 1 0 8171.92 8103.21 358.33 o
0 -12 1 1 196.65 -13.33 57.27 <
0 -12 1 2 21.93 39.63 64.20 <
1 -12 1 -2 677.18 761.48 121.96 o
1 -12 1 -1 3057.40 3040.90 239.41 o
1 -12 1 0 2459.68 2695.98 228.15 o
1 -12 1 1 382.90 384.35 87.18 o
1 -12 1 2 120.88 229.30 95.59 <
2 12 1 -2 439.41 319.28 180.53 <
2 -12 1 -2 430.91 156.03 82.22 <
2 12 1 -1 145.54 -22.68 89.42 <
2 -12 1 -1 156.22 65.40 72.31 <
2 12 1 0 520.49 84.90 48.94 <
2 -12 1 0 582.41 67.00 75.79 <
2 -12 1 1 4.59 109.44 77.40 <
2 -12 1 2 646.47 461.12 115.38 o
3 -12 1 -2 411.52 297.33 102.33 <
3 -12 1 -1 125.49 46.22 88.44 <
3 -12 1 0 360.08 562.25 141.05 o
3 -12 1 1 131.63 18.13 60.77 <
3 -12 1 2 13.01 45.37 80.11 <
4 -12 1 -2 245.59 -56.96 75.64 <
4 -12 1 -1 141.81 362.17 197.01 <
4 -12 1 0 267.57 219.47 186.69 <
4 -12 1 1 103.21 200.88 210.90 <
4 -12 1 2 208.16 75.33 127.27 <
5 -12 1 -2 160.01 422.98 229.93 <
5 -12 1 -1 29.29 135.10 178.56 <
5 -12 1 0 68.95 192.71 150.49 <
5 -12 1 1 22.35 50.39 215.78 <
-5 -13 1 -1 205.33 -112.86 245.71 <
-5 -13 1 0 1070.36 628.28 260.82 <
-5 -13 1 1 56.69 339.22 226.34 <
-5 -13 1 2 66.51 349.33 358.37 <
-4 -13 1 -2 17.03 47.50 172.55 <
-4 -13 1 -1 214.11 135.20 177.53 <
-4 -13 1 0 122.80 190.29 230.23 <
-4 -13 1 1 330.39 856.36 416.66 <
-4 -13 1 2 39.76 171.23 193.88 <
-3 -13 1 -2 22.06 172.79 121.20 <
-3 -13 1 -1 154.32 -72.29 145.86 <
-3 -13 1 0 4863.20 3872.30 494.49 o
-3 -13 1 1 10.52 184.97 96.99 <
-3 13 1 2 174.77 163.25 141.75 <
-3 -13 1 2 185.38 77.09 77.92 <
-2 -13 1 -2 640.40 790.53 147.08 o
-2 13 1 -1 700.33 818.79 255.56 o
-2 -13 1 -1 694.48 749.33 146.16 o
-2 13 1 0 416.11 363.39 133.59 <
-2 -13 1 0 437.42 353.54 128.05 <
-2 13 1 1 648.47 441.40 206.88 <
-2 -13 1 1 638.84 455.29 141.88 o
-2 13 1 2 25.34 39.96 106.85 <
-2 -13 1 2 26.18 128.36 80.50 <
-1 13 1 -2 46.25 556.60 253.80 <
-1 -13 1 -2 45.96 125.31 83.87 <
-1 -13 1 -1 253.97 5.37 74.81 <
-1 -13 1 0 7654.36 5460.71 330.80 o
-1 -13 1 1 57.17 102.68 70.76 <
-1 -13 1 2 118.72 268.43 99.77 <
0 -13 1 -2 110.53 241.39 101.92 <
0 -13 1 -1 995.12 1282.35 209.34 o
0 -13 1 0 278.83 79.79 64.40 <
0 -13 1 1 1063.96 1029.50 153.55 o
0 -13 1 2 67.77 96.88 82.83 <
1 -13 1 -2 265.53 96.03 78.87 <
1 -13 1 -1 250.94 188.58 91.85 <
1 -13 1 0 8010.48 6806.69 373.15 o
1 -13 1 1 83.21 112.27 80.57 <
1 -13 1 2 494.13 401.46 114.97 o
2 13 1 -2 149.24 167.64 151.20 <
2 -13 1 -2 143.99 105.20 68.09 <
2 13 1 -1 272.71 390.72 219.69 <
2 -13 1 -1 272.64 93.37 80.09 <
2 -13 1 0 883.19 871.08 158.92 o
2 -13 1 1 858.90 870.71 151.10 o
2 -13 1 2 1909.78 2281.50 241.86 o
3 -13 1 -2 482.31 338.85 111.59 o
3 -13 1 -1 160.95 128.07 83.44 <
3 -13 1 0 4431.56 3993.72 329.72 o
3 -13 1 1 196.07 91.03 67.11 <
3 -13 1 2 86.98 182.03 129.14 <
4 -13 1 -2 67.92 302.93 123.85 <
4 -13 1 -1 59.00 229.01 172.47 <
4 -13 1 0 319.42 453.81 222.45 <
4 -13 1 1 570.92 620.69 233.60 <
4 -13 1 2 276.62 176.77 183.06 <
5 -13 1 -2 359.24 283.34 180.56 <
5 -13 1 -1 129.80 229.80 199.62 <
5 -13 1 0 925.03 793.96 325.26 <
5 -13 1 1 214.61 425.68 254.10 <
-5 -14 1 -1 112.35 201.69 345.07 <
-5 -14 1 0 326.19 579.10 315.48 <
-5 -14 1 1 91.23 -134.68 108.40 <
-5 -14 1 2 4.84 99.29 128.25 <
-4 -14 1 -2 4.19 139.57 221.08 <
-4 -14 1 -1 37.81 122.31 155.07 <
-4 -14 1 0 167.69 506.42 282.89 <
-4 -14 1 1 45.79 186.62 260.97 <
-4 -14 1 2 56.37 -2.46 88.92 <
-3 -14 1 -2 184.27 -4.81 62.40 <
-3 -14 1 -1 128.53 269.82 146.75 <
-3 -14 1 0 1250.31 1640.78 269.74 o
-3 -14 1 1 45.50 112.88 103.33 <
-3 14 1 2 59.99 216.32 201.97 <
-3 -14 1 2 59.17 38.79 91.48 <
-2 -14 1 -2 10.19 77.96 73.01 <
-2 14 1 -1 110.00 65.39 73.76 <
-2 -14 1 -1 105.75 91.38 67.85 <
-2 14 1 0 1058.30 442.81 194.34 <
-2 -14 1 0 1030.92 791.40 158.44 o
-2 14 1 1 429.90 333.24 189.03 <
-2 -14 1 1 443.02 176.75 75.83 <
-2 14 1 2 66.33 -67.68 92.61 <
-2 -14 1 2 66.96 244.60 123.79 <
-1 14 1 -2 128.02 427.81 266.02 <
-1 -14 1 -2 117.14 223.28 90.74 <
-1 -14 1 -1 4414.70 4153.30 315.98 o
-1 -14 1 0 2664.29 1888.86 202.97 o
-1 -14 1 1 27.44 81.90 117.68 <
-1 -14 1 2 125.68 77.20 85.66 <
0 -14 1 -2 34.83 -16.48 68.22 <
0 -14 1 -1 148.44 70.03 90.01 <
0 -14 1 0 408.74 187.51 134.16 <
0 -14 1 1 341.18 255.95 91.49 <
0 -14 1 2 43.11 37.98 75.96 <
1 -14 1 -2 908.65 905.19 155.77 o
1 -14 1 -1 189.38 285.34 93.05 o
1 -14 1 0 1451.50 1269.91 176.68 o
1 -14 1 1 1022.54 1599.74 193.82 o
1 -14 1 2 85.39 151.64 89.01 <
2 14 1 -2 24.81 233.08 181.53 <
2 -14 1 -2 26.58 -14.94 55.40 <
2 14 1 -1 81.22 116.55 147.84 <
2 -14 1 -1 78.40 106.85 96.05 <
2 -14 1 0 503.20 330.68 117.81 <
2 -14 1 1 507.34 179.08 99.53 <
2 -14 1 2 125.36 302.15 126.03 <
3 -14 1 -2 521.31 583.02 143.42 o
3 -14 1 -1 100.98 219.23 100.24 <
3 -14 1 0 332.70 185.30 97.01 <
3 -14 1 1 92.89 36.39 87.53 <
3 -14 1 2 13.66 173.62 139.25 <
4 -14 1 -2 20.00 413.66 188.60 <
4 -14 1 -1 18.19 54.92 86.92 <
4 -14 1 0 48.41 336.55 232.12 <
4 -14 1 1 563.98 471.20 232.25 <
4 -14 1 2 14.69 47.31 113.51 <
5 -14 1 -2 140.20 412.90 255.74 <
5 -14 1 -1 131.51 296.02 215.27 <
5 -14 1 0 78.68 -153.51 183.16 <
-5 -15 1 0 193.69 206.04 148.23 <
-5 -15 1 1 154.53 109.35 135.29 <
-5 -15 1 2 7.74 154.27 209.90 <
-4 -15 1 -2 61.52 309.65 238.45 <
-4 -15 1 -1 675.89 519.86 232.36 <
-4 -15 1 0 98.44 231.25 235.91 <
-4 -15 1 1 8.44 350.57 192.45 <
-4 -15 1 2 400.10 325.63 134.55 <
-3 -15 1 -2 10.50 -26.20 93.51 <
-3 -15 1 -1 82.14 192.79 131.51 <
-3 -15 1 0 364.76 661.96 198.51 o
-3 -15 1 1 379.74 148.18 105.75 <
-3 -15 1 2 20.05 52.07 85.87 <
-2 -15 1 -2 108.97 -21.30 82.14 <
-2 -15 1 -1 1581.49 1560.28 222.10 o
-2 15 1 0 966.58 877.25 284.48 o
-2 -15 1 0 964.72 837.43 166.45 o
-2 15 1 1 45.91 78.68 148.99 <
-2 -15 1 1 46.54 40.83 75.68 <
-2 15 1 2 654.36 668.52 303.45 <
-2 -15 1 2 634.32 615.61 170.12 o
-1 15 1 -2 17.61 -26.28 116.46 <
-1 -15 1 -2 18.34 42.55 81.16 <
-1 -15 1 -1 1211.82 969.37 186.56 o
-1 -15 1 0 1572.30 1394.27 237.82 o
-1 -15 1 1 456.68 11.76 71.29 <
-1 -15 1 2 104.32 40.55 85.55 <
0 -15 1 -2 264.54 230.75 130.70 <
0 -15 1 -1 1675.83 1659.81 257.08 o
0 -15 1 0 638.28 414.68 178.99 <
0 -15 1 1 124.86 352.87 167.16 <
0 -15 1 2 782.13 638.45 166.53 o
1 -15 1 -2 81.65 95.81 125.46 <
1 -15 1 -1 251.56 37.35 108.03 <
1 -15 1 0 1884.45 1561.71 197.97 o
1 -15 1 1 2812.14 2800.73 264.91 o
1 -15 1 2 122.12 134.83 87.98 <
2 15 1 -2 187.41 211.71 226.36 <
2 -15 1 -2 182.18 101.40 71.83 <
2 -15 1 -1 126.15 208.73 99.64 <
2 -15 1 0 1919.86 1661.72 218.34 o
2 -15 1 1 258.64 283.74 113.99 <
2 -15 1 2 1349.32 1139.94 190.08 o
3 -15 1 -2 50.02 222.41 108.88 <
3 -15 1 -1 185.46 90.72 94.75 <
3 -15 1 0 785.29 959.28 185.18 o
3 -15 1 1 4.33 55.33 66.13 <
3 -15 1 2 42.75 -4.91 124.97 <
4 -15 1 -2 35.77 157.49 121.47 <
4 -15 1 -1 21.95 47.76 141.14 <
4 -15 1 0 381.43 321.24 174.45 <
4 -15 1 1 145.76 103.94 82.48 <
4 -15 1 2 67.57 -70.09 158.92 <
5 -15 1 -2 74.26 234.01 239.69 <
5 -15 1 -1 88.35 392.57 279.95 <
5 -15 1 0 295.13 813.75 345.63 <
-5 -16 1 0 94.81 447.92 302.74 <
-5 -16 1 1 54.98 1.24 236.01 <
-5 -16 1 2 74.40 212.99 149.51 <
-4 -16 1 -2 12.08 -100.33 126.35 <
-4 -16 1 -1 269.38 240.19 185.47 <
-4 -16 1 0 213.19 477.73 266.67 <
-4 -16 1 1 14.71 90.66 143.14 <
-4 -16 1 2 162.77 115.46 160.31 <
-3 -16 1 -2 40.50 45.85 99.86 <
-3 -16 1 -1 25.72 138.66 101.81 <
-3 -16 1 0 411.25 457.66 173.60 <
-3 -16 1 1 143.28 142.23 139.21 <
-3 -16 1 2 131.79 167.69 145.29 <
-2 -16 1 -2 7.14 68.22 86.61 <
-2 -16 1 -1 505.94 684.79 149.94 o
-2 16 1 0 643.62 37.61 128.47 <
-2 -16 1 0 601.66 127.23 87.14 <
-2 16 1 1 399.68 -63.46 160.57 <
-2 -16 1 1 384.46 122.53 151.42 <
-2 16 1 2 346.35 382.96 279.61 <
-2 -16 1 2 358.42 488.51 184.29 <
-1 16 1 -2 38.48 274.17 257.32 <
-1 -16 1 -2 28.22 102.77 125.62 <
-1 -16 1 -1 463.53 274.78 122.77 <
-1 -16 1 0 1073.40 822.47 194.19 o
-1 -16 1 1 147.65 -5.98 109.42 <
-1 -16 1 2 402.73 320.02 135.10 <
0 -16 1 -2 12.65 205.27 118.90 <
0 -16 1 -1 623.43 934.28 229.17 o
0 -16 1 0 1537.48 1042.16 233.99 o
0 -16 1 1 947.44 1139.88 248.65 o
0 -16 1 2 29.13 58.68 111.57 <
1 -16 1 -2 234.70 -47.94 79.22 <
1 -16 1 -1 219.19 75.81 93.18 <
1 -16 1 0 1481.21 1174.25 229.95 o
1 -16 1 1 1269.42 985.02 218.10 o
1 -16 1 2 210.76 261.37 145.49 <
2 16 1 -2 64.56 453.03 268.00 <
2 -16 1 -2 70.48 110.96 90.59 <
2 -16 1 -1 258.22 197.97 90.83 <
2 -16 1 0 221.36 146.92 91.75 <
2 -16 1 1 1216.83 1231.17 192.21 o
2 -16 1 2 116.75 210.19 122.70 <
3 -16 1 -2 115.11 127.90 94.40 <
3 -16 1 -1 180.83 110.12 84.57 <
3 -16 1 0 1151.72 498.90 196.75 <
3 -16 1 1 135.36 46.68 112.20 <
3 -16 1 2 96.32 48.39 128.85 <
4 -16 1 -2 89.96 -80.85 145.42 <
4 -16 1 -1 108.22 -84.74 161.70 <
4 -16 1 0 33.92 -104.01 149.77 <
4 -16 1 1 410.74 303.56 199.71 <
4 -16 1 2 269.43 92.57 193.88 <
5 -16 1 -2 57.67 301.26 206.93 <
5 -16 1 -1 41.29 -111.55 142.49 <
-4 -17 1 -2 314.06 559.90 315.24 <
-4 -17 1 -1 301.12 271.10 245.52 <
-4 -17 1 0 594.84 578.93 410.98 <
-4 -17 1 1 11.65 453.48 375.94 <
-4 -17 1 2 34.18 9.78 197.06 <
-3 -17 1 -2 15.67 29.57 182.54 <
-3 -17 1 -1 39.18 275.21 239.89 <
-3 -17 1 0 374.20 307.67 220.28 <
-3 -17 1 1 68.18 119.10 163.58 <
-3 -17 1 2 142.59 25.78 79.57 <
-2 -17 1 -2 275.39 217.99 133.47 <
-2 -17 1 -1 31.82 18.18 144.20 <
-2 -17 1 0 402.89 506.38 187.34 <
-2 17 1 1 58.88 183.97 250.99 <
-2 -17 1 1 57.13 369.59 168.32 <
-2 17 1 2 178.52 263.39 245.97 <
-2 -17 1 2 173.83 43.63 111.57 <
-1 17 1 -2 91.75 460.77 308.35 <
-1 -17 1 -2 89.79 -35.05 105.61 <
-1 -17 1 -1 63.66 172.14 140.62 <
-1 -17 1 0 640.71 832.47 198.54 o
-1 -17 1 1 516.62 822.07 210.17 o
-1 -17 1 2 138.17 270.34 128.42 <
0 -17 1 -2 396.89 495.32 161.73 o
0 -17 1 -1 35.83 276.06 175.95 <
0 -17 1 0 3778.17 4280.74 497.19 o
0 -17 1 1 60.26 179.62 127.75 <
0 -17 1 2 282.82 65.33 126.42 <
1 -17 1 -2 121.76 82.14 100.99 <
1 -17 1 -1 42.08 292.02 152.70 <
1 -17 1 0 627.68 719.11 199.04 o
1 -17 1 1 159.43 94.07 96.03 <
1 -17 1 2 230.64 135.36 108.12 <
2 -17 1 -2 233.28 247.15 141.92 <
2 -17 1 -1 20.71 -20.09 87.42 <
2 -17 1 0 130.18 80.96 78.92 <
2 -17 1 1 6.69 -64.77 115.42 <
2 -17 1 2 181.50 68.35 72.76 <
3 -17 1 -2 107.39 204.40 147.29 <
3 -17 1 -1 7.31 11.05 79.42 <
3 -17 1 0 388.24 387.77 161.95 <
3 -17 1 1 618.21 504.93 181.90 <
3 -17 1 2 12.00 109.22 147.47 <
4 -17 1 -2 205.49 218.34 183.75 <
4 -17 1 -1 20.50 -25.42 180.53 <
4 -17 1 0 206.49 219.51 256.08 <
4 -17 1 1 15.48 86.66 138.83 <
4 -17 1 2 12.13 -9.44 182.90 <
5 -17 1 -2 67.16 12.81 139.09 <
5 -17 1 -1 19.06 -208.08 375.13 <
-4 -18 1 -1 170.91 -364.17 346.59 <
-4 -18 1 0 712.42 925.08 466.75 <
-4 -18 1 1 96.45 50.83 184.12 <
-4 -18 1 2 93.69 99.42 145.71 <
-3 -18 1 -2 114.26 24.17 187.41 <
-3 -18 1 -1 321.10 150.18 209.90 <
-3 -18 1 0 95.07 278.60 182.21 <
-3 -18 1 1 113.43 -35.15 146.94 <
-3 -18 1 2 339.23 118.31 164.29 <
-2 -18 1 -2 56.72 138.73 121.21 <
-2 -18 1 -1 9.97 293.04 130.10 <
-2 -18 1 0 2602.48 2377.16 353.26 o
-2 -18 1 1 209.76 215.01 162.05 <
-2 18 1 2 182.47 517.73 319.83 <
-2 -18 1 2 176.78 219.30 169.01 <
-1 18 1 -2 98.34 590.60 324.93 <
-1 -18 1 -2 95.38 291.35 122.83 <
-1 -18 1 -1 553.27 492.42 173.29 <
-1 -18 1 0 245.02 290.76 151.25 <
-1 -18 1 1 568.65 590.65 189.80 o
-1 -18 1 2 290.58 442.53 171.97 <
0 -18 1 -2 89.04 122.81 97.31 <
0 -18 1 -1 2.73 42.48 101.20 <
0 -18 1 0 3706.23 2993.87 439.48 o
0 -18 1 1 479.22 196.43 154.68 <
0 -18 1 2 94.80 234.19 149.84 <
1 -18 1 -2 0.43 145.51 122.27 <
1 -18 1 -1 181.60 147.29 138.29 <
1 -18 1 0 586.03 301.46 118.12 <
1 -18 1 1 96.68 105.11 125.03 <
1 -18 1 2 261.76 348.78 169.71 <
2 -18 1 -2 79.11 14.31 154.31 <
2 -18 1 -1 60.56 206.86 141.07 <
2 -18 1 0 2428.38 2356.35 349.22 o
2 -18 1 1 120.76 194.16 114.94 <
2 -18 1 2 8.96 207.08 158.40 <
3 -18 1 -2 34.92 -115.83 112.99 <
3 -18 1 -1 64.83 -22.37 112.49 <
3 -18 1 0 320.79 225.23 117.53 <
3 -18 1 1 541.30 218.28 148.73 <
3 -18 1 2 43.20 315.19 252.13 <
4 -18 1 -2 51.35 -17.15 150.01 <
4 -18 1 -1 88.58 251.47 345.04 <
4 -18 1 0 557.04 1182.08 603.06 <
4 -18 1 1 21.60 129.36 325.46 <
-4 -19 1 0 203.85 352.07 250.52 <
-4 -19 1 1 17.86 145.42 334.83 <
-4 -19 1 2 33.31 -340.35 489.70 <
-3 -19 1 -2 0.49 -238.47 261.87 <
-3 -19 1 -1 374.04 483.60 238.76 <
-3 -19 1 0 256.36 290.15 230.43 <
-3 -19 1 1 93.21 85.11 151.05 <
-3 -19 1 2 253.52 219.40 208.25 <
-2 -19 1 -2 698.30 475.90 155.97 o
-2 -19 1 -1 212.36 235.36 198.16 <
-2 -19 1 0 619.03 765.27 221.75 o
-2 -19 1 1 13.27 -239.63 130.86 <
-2 19 1 2 99.00 135.77 138.10 <
-2 -19 1 2 99.19 201.27 182.21 <
-1 -19 1 -2 29.39 105.22 135.59 <
-1 -19 1 -1 129.95 219.88 136.57 <
-1 -19 1 0 123.05 65.31 86.55 <
-1 -19 1 1 946.73 571.49 182.62 o
-1 -19 1 2 311.92 656.61 236.54 <
0 -19 1 -2 28.45 221.62 148.03 <
0 -19 1 -1 520.78 341.22 222.25 <
0 -19 1 0 63.20 169.58 155.57 <
0 -19 1 1 12.31 76.61 157.34 <
0 -19 1 2 159.38 39.42 107.35 <
1 -19 1 -2 63.70 27.48 92.31 <
1 -19 1 -1 214.01 331.33 142.10 <
1 -19 1 0 57.24 163.42 152.70 <
1 -19 1 1 426.48 340.61 127.51 <
1 -19 1 2 34.16 138.99 126.16 <
2 -19 1 -2 58.19 294.72 157.79 <
2 -19 1 -1 157.32 70.13 97.44 <
2 -19 1 0 616.61 503.64 163.36 o
2 -19 1 1 17.15 26.96 168.99 <
2 -19 1 2 89.13 27.50 106.05 <
3 -19 1 -2 11.75 -64.83 98.25 <
3 -19 1 -1 36.33 347.44 267.36 <
3 -19 1 0 207.72 169.01 164.07 <
3 -19 1 1 1368.05 974.76 375.96 <
3 -19 1 2 86.45 -146.51 188.36 <
4 -19 1 -2 21.62 16.22 195.49 <
4 -19 1 -1 77.34 -445.92 373.57 <
4 -19 1 0 246.04 194.19 360.59 <
-4 -20 1 2 66.38 909.41 502.77 <
-3 -20 1 -2 85.83 247.41 133.49 <
-3 -20 1 -1 242.41 105.20 160.29 <
-3 -20 1 0 471.71 504.01 309.50 <
-3 -20 1 1 4.51 -106.99 168.68 <
-3 -20 1 2 36.72 12.74 110.86 <
-2 -20 1 -2 11.93 -91.31 130.90 <
-2 -20 1 -1 122.83 -74.05 110.05 <
-2 -20 1 0 603.90 378.63 168.90 <
-2 -20 1 1 289.46 196.75 151.81 <
-2 -20 1 2 23.17 -182.03 161.29 <
-1 -20 1 -2 465.54 355.24 180.95 <
-1 -20 1 -1 1235.07 1439.90 282.47 o
-1 -20 1 0 716.31 942.65 234.02 o
-1 -20 1 1 54.71 -153.29 150.94 <
-1 -20 1 2 77.21 211.75 176.51 <
0 -20 1 -2 52.87 105.68 139.47 <
0 -20 1 -1 47.24 -162.21 193.47 <
0 -20 1 0 822.73 205.21 165.18 <
0 -20 1 1 191.83 379.16 197.19 <
0 -20 1 2 26.41 470.75 246.36 <
1 -20 1 -2 130.61 223.86 184.69 <
1 -20 1 -1 259.39 269.26 180.42 <
1 -20 1 0 575.63 345.48 163.14 <
1 -20 1 1 437.85 371.50 160.93 <
1 -20 1 2 219.26 253.63 179.69 <
2 -20 1 -2 153.57 173.43 140.05 <
2 -20 1 -1 70.39 106.40 162.62 <
2 -20 1 0 586.55 335.98 196.88 <
2 -20 1 1 40.58 -185.99 145.36 <
2 -20 1 2 170.20 -29.31 114.83 <
3 -20 1 -2 148.39 62.33 125.83 <
3 -20 1 -1 69.05 171.43 149.86 <
3 -20 1 0 388.74 339.39 219.71 <
3 -20 1 1 28.27 345.52 279.98 <
3 -20 1 2 42.25 -76.11 216.62 <
4 -20 1 -2 188.94 -522.40 448.42 <
4 -20 1 -1 52.04 -83.79 426.86 <
-3 -21 1 -2 29.26 -34.05 170.69 <
-3 -21 1 -1 91.49 -36.83 171.08 <
-3 -21 1 0 501.91 298.02 171.92 <
-3 -21 1 1 62.32 115.83 182.54 <
-3 -21 1 2 108.75 -80.70 172.27 <
-2 -21 1 -2 94.55 85.09 161.07 <
-2 -21 1 -1 589.45 171.93 153.03 <
-2 -21 1 0 93.80 193.38 145.01 <
-2 -21 1 1 247.86 228.26 145.16 <
-2 -21 1 2 25.86 158.27 118.42 <
-1 -21 1 -2 107.01 368.61 178.08 <
-1 -21 1 -1 176.11 -37.61 104.42 <
-1 -21 1 0 1570.58 990.50 307.58 o
-1 -21 1 1 46.07 94.01 172.55 <
-1 -21 1 2 209.03 23.31 126.77 <
0 -21 1 -2 44.66 -102.59 115.66 <
0 -21 1 -1 420.73 179.73 188.79 <
0 -21 1 0 274.35 64.01 148.60 <
0 -21 1 1 568.55 626.69 247.93 <
0 -21 1 2 31.93 161.66 203.49 <
1 -21 1 -2 105.69 301.11 195.01 <
1 -21 1 -1 69.44 303.89 206.12 <
1 -21 1 0 1389.21 1112.44 296.91 o
1 -21 1 1 379.61 411.76 168.58 <
1 -21 1 2 41.73 -143.12 136.29 <
2 -21 1 -2 91.69 301.83 197.29 <
2 -21 1 -1 295.85 152.75 122.40 <
2 -21 1 0 183.19 278.15 163.23 <
2 -21 1 1 431.52 431.05 173.25 <
2 -21 1 2 273.09 190.80 138.01 <
3 -21 1 -2 76.19 252.76 154.70 <
3 -21 1 -1 14.82 165.31 168.80 <
3 -21 1 0 413.83 771.77 342.78 <
3 -21 1 1 21.94 -196.88 247.01 <
3 -21 1 2 31.65 -184.99 376.04 <
-3 -22 1 -2 18.70 -235.86 220.15 <
-3 -22 1 -1 43.58 -201.15 312.91 <
-3 -22 1 0 292.07 -122.64 125.51 <
-3 -22 1 1 40.89 283.80 232.17 <
-3 -22 1 2 29.82 47.59 212.52 <
-2 -22 1 -2 49.55 286.89 193.56 <
-2 -22 1 -1 11.37 -104.64 148.07 <
-2 -22 1 0 170.96 138.83 119.72 <
-2 -22 1 1 70.47 209.45 156.38 <
-2 -22 1 2 72.72 -32.26 91.66 <
-1 -22 1 -2 111.92 186.95 133.12 <
-1 -22 1 -1 830.61 787.83 220.97 o
-1 -22 1 0 330.25 552.64 223.64 <
-1 -22 1 1 8.30 195.36 196.91 <
-1 -22 1 2 53.97 251.99 199.21 <
0 -22 1 -2 58.70 276.32 186.03 <
0 -22 1 -1 141.59 -12.41 93.55 <
0 -22 1 0 496.37 471.34 252.13 <
0 -22 1 1 420.77 256.99 172.64 <
0 -22 1 2 102.88 477.07 243.34 <
1 -22 1 -2 224.00 376.09 202.43 <
1 -22 1 -1 206.27 -134.59 97.70 <
1 -22 1 0 148.38 296.69 183.71 <
1 -22 1 1 70.02 162.03 129.49 <
1 -22 1 2 49.34 -95.01 142.84 <
2 -22 1 -2 67.45 -118.66 127.20 <
2 -22 1 -1 90.77 12.31 141.40 <
2 -22 1 0 306.15 47.33 125.81 <
2 -22 1 1 369.47 249.62 149.49 <
2 -22 1 2 80.90 -9.57 148.70 <
3 -22 1 -2 86.69 94.87 184.84 <
3 -22 1 -1 204.69 526.04 312.80 <
3 -22 1 0 48.03 -13.91 223.17 <
3 -22 1 1 36.62 222.26 179.66 <
3 -22 1 2 21.49 307.39 301.74 <
-3 -23 1 0 388.93 413.29 274.04 <
-3 -23 1 1 103.66 76.63 210.08 <
-3 -23 1 2 54.18 433.27 323.43 <
-2 -23 1 -2 1.60 200.40 160.47 <
-2 -23 1 -1 640.69 948.19 287.73 o
-2 -23 1 0 195.76 114.46 128.40 <
-2 -23 1 1 28.11 -41.35 90.74 <
-2 -23 1 2 287.62 320.78 161.75 <
-1 -23 1 -2 4.13 280.00 204.29 <
-1 -23 1 -1 125.96 259.67 218.77 <
-1 -23 1 0 371.79 271.41 192.40 <
-1 -23 1 1 238.86 438.79 239.97 <
-1 -23 1 2 45.88 96.44 129.73 <
0 -23 1 -2 45.11 -88.42 150.51 <
0 -23 1 -1 518.50 416.12 217.60 <
0 -23 1 0 922.72 1041.89 336.32 o
0 -23 1 1 130.54 523.79 218.01 <
0 -23 1 2 344.33 409.77 217.71 <
1 -23 1 -2 30.92 108.62 136.53 <
1 -23 1 -1 200.43 199.01 118.22 <
1 -23 1 0 369.31 358.92 212.91 <
1 -23 1 1 118.19 186.54 151.20 <
1 -23 1 2 299.64 199.08 175.14 <
2 -23 1 -2 135.87 27.98 120.83 <
2 -23 1 -1 237.97 212.43 120.46 <
2 -23 1 0 324.91 534.69 218.88 <
2 -23 1 1 92.29 326.70 248.78 <
2 -23 1 2 66.46 44.76 143.20 <
3 -23 1 -2 53.47 37.87 195.49 <
3 -23 1 -1 64.71 80.46 263.89 <
-2 -24 1 -1 50.88 268.58 195.03 <
-2 -24 1 0 277.79 186.06 171.05 <
-2 -24 1 1 20.83 102.81 126.66 <
-2 -24 1 2 53.77 174.43 260.30 <
-1 -24 1 -2 432.48 465.51 218.93 <
-1 -24 1 -1 235.43 170.84 180.18 <
-1 -24 1 0 105.00 27.74 179.88 <
-1 -24 1 1 168.39 360.94 206.54 <
-1 -24 1 2 67.13 309.91 253.15 <
0 -24 1 -2 71.11 407.53 272.87 <
0 -24 1 -1 18.56 249.39 196.80 <
0 -24 1 0 81.79 84.42 148.73 <
0 -24 1 1 82.43 174.01 240.04 <
0 -24 1 2 75.17 124.60 186.36 <
1 -24 1 -2 121.84 126.25 132.77 <
1 -24 1 -1 544.53 480.20 236.32 <
1 -24 1 0 168.07 383.14 254.76 <
1 -24 1 1 34.34 152.60 236.30 <
1 -24 1 2 237.20 1.65 163.99 <
2 -24 1 -2 48.77 168.32 181.04 <
2 -24 1 -1 36.91 211.75 157.84 <
2 -24 1 0 117.02 117.88 171.10 <
2 -24 1 1 79.57 350.13 196.88 <
2 -24 1 2 75.45 38.13 196.77 <
-2 -25 1 -1 109.42 -205.88 315.72 <
-2 -25 1 0 192.68 485.81 336.04 <
-2 -25 1 1 70.22 -149.94 185.29 <
-2 -25 1 2 23.15 3.43 104.77 <
-1 -25 1 -2 90.49 34.31 130.36 <
-1 -25 1 -1 151.40 251.63 349.31 <
-1 -25 1 0 905.34 958.13 287.37 o
-1 -25 1 1 129.87 87.18 115.70 <
-1 -25 1 2 83.39 231.71 228.47 <
0 -25 1 -2 370.72 428.46 272.00 <
0 -25 1 -1 225.90 58.05 121.55 <
0 -25 1 0 2.04 158.86 174.95 <
0 -25 1 1 46.07 2.02 164.62 <
0 -25 1 2 2.81 207.41 241.45 <
1 -25 1 -2 102.26 310.41 218.25 <
1 -25 1 -1 16.44 116.33 157.47 <
1 -25 1 0 1157.18 675.35 267.39 <
1 -25 1 1 682.22 -80.00 234.62 <
1 -25 1 2 9.68 65.64 310.78 <
2 -25 1 -2 266.14 297.98 325.76 <
2 -25 1 -1 136.25 -35.24 222.99 <
2 -25 1 0 123.67 -19.59 264.47 <
-6 0 2 0 469.92 608.98 423.74 <
-6 0 2 1 91.09 329.32 208.56 <
-6 0 2 2 0.67 224.49 248.67 <
-5 0 2 -2 13.88 517.25 343.18 <
-5 0 2 -1 2.32 -116.31 208.97 <
-5 0 2 0 250.43 684.29 391.35 <
-5 0 2 1 190.49 502.57 235.93 <
-5 0 2 2 478.27 109.99 120.64 <
-4 0 2 -2 18.35 27.50 102.03 <
-4 0 2 -1 223.11 262.78 152.70 <
-4 0 2 0 1997.46 1537.49 276.37 o
-4 0 2 1 2.21 146.55 109.27 <
-4 0 2 2 22.38 240.01 121.90 <
-3 0 2 -2 26.25 6.70 95.81 <
-3 0 2 -1 238.57 70.24 99.62 <
-3 0 2 0 495.34 60.81 89.12 <
-3 0 2 1 312.28 11.04 57.00 <
-3 0 2 2 319.08 -33.50 78.51 <
-2 0 2 -2 4891.56 5006.72 369.04 o
-2 0 2 -1 335.31 316.56 92.46 o
-2 0 2 0 8713.44 8822.16 454.53 o
-2 0 2 1 488.19 495.77 60.74 o
-2 0 2 2 155.75 246.51 93.96 <
-1 0 2 -2 23.68 9.54 40.72 <
-1 0 2 -1 255.16 11.09 28.55 <
-1 0 2 0 240.35 -40.59 41.35 <
-1 0 2 1 27.06 26.57 51.59 <
-1 0 2 2 14.04 8.61 24.09 <
0 0 2 -1 147.81 161.47 39.11 o
0 0 2 0 27632.00 31842.80 581.21 o
0 0 2 1 74.60 78.25 50.94 <
0 0 2 2 109.71 101.25 49.22 <
1 0 2 -2 54.73 20.85 49.11 <
1 0 2 -1 7.00 -8.33 49.07 <
1 0 2 0 277.93 194.19 86.62 <
1 0 2 1 59.52 -15.15 93.55 <
1 0 2 2 287.62 -65.61 61.40 <
2 0 2 0 6274.34 6493.38 600.13 o
2 0 2 1 11.51 116.18 85.77 <
2 0 2 2 850.52 810.53 190.29 o
3 0 2 -2 0.65 121.90 138.55 <
3 0 2 -1 660.47 52.92 181.27 <
3 0 2 0 532.45 226.56 236.39 <
3 0 2 1 34.91 122.29 125.33 <
3 0 2 2 464.08 281.78 175.27 <
4 0 2 -2 1.38 -4.13 137.84 <
4 0 2 -1 323.85 406.77 214.78 <
4 0 2 0 985.43 659.76 203.73 o
4 0 2 1 20.50 154.95 142.07 <
4 0 2 2 69.67 229.63 148.27 <
5 0 2 -2 68.23 120.77 145.16 <
5 0 2 -1 467.03 243.78 210.86 <
5 0 2 0 920.10 101.22 171.68 <
5 0 2 1 6.48 303.39 231.34 <
5 0 2 2 428.40 69.89 128.07 <
6 0 2 -2 64.29 405.70 234.23 <
6 0 2 -1 22.34 437.18 237.23 <
6 0 2 0 241.18 1010.83 541.47 <
-6 1 2 0 476.83 1171.43 479.58 <
-6 -1 2 0 483.64 406.24 314.52 <
-6 1 2 1 330.52 -22.83 126.16 <
-6 -1 2 1 328.42 -2.31 322.00 <
-6 1 2 2 36.08 -372.15 195.38 <
-6 -1 2 2 29.76 -159.08 143.66 <
-5 1 2 -2 125.18 -313.09 275.23 <
-5 -1 2 -2 125.45 246.19 342.22 <
-5 1 2 -1 22.52 -208.06 108.53 <
-5 -1 2 -1 28.18 3.57 89.50 <
-5 1 2 0 2742.98 2127.79 378.66 o
-5 -1 2 0 2731.90 2648.67 673.31 o
-5 1 2 1 16.78 108.96 142.62 <
-5 -1 2 1 11.01 407.01 230.41 <
-5 1 2 2 25.18 337.91 207.01 <
-5 -1 2 2 24.84 106.92 140.25 <
-4 1 2 -2 618.45 486.60 183.06 <
-4 -1 2 -2 578.63 157.51 114.25 <
-4 1 2 -1 55.60 198.45 137.33 <
-4 -1 2 -1 57.31 -41.81 137.60 <
-4 1 2 0 1639.40 1674.80 293.60 o
-4 -1 2 0 1629.93 1582.93 293.17 o
-4 1 2 1 234.42 73.96 71.88 <
-4 -1 2 1 214.93 -98.07 70.76 <
-4 1 2 2 167.41 23.91 140.75 <
-4 -1 2 2 153.96 238.89 135.05 <
-3 1 2 -2 105.29 228.43 120.46 <
-3 -1 2 -2 104.05 95.46 72.94 <
-3 1 2 -1 890.24 809.18 183.93 o
-3 -1 2 -1 858.55 865.51 192.25 o
-3 1 2 0 9476.82 9252.98 571.84 o
-3 -1 2 0 9450.86 9618.76 595.98 o
-3 1 2 1 132.97 219.56 95.40 <
-3 -1 2 1 138.75 449.96 136.71 o
-3 1 2 2 101.42 203.82 98.38 <
-3 -1 2 2 104.41 60.27 83.64 <
-2 1 2 -2 1413.40 1468.45 204.75 o
-2 -1 2 -2 1426.34 1561.97 213.75 o
-2 1 2 -1 163.00 25.81 54.57 <
-2 -1 2 -1 176.18 6.35 51.37 <
-2 1 2 0 8831.20 9775.31 477.88 o
-2 -1 2 0 8812.59 9061.64 330.22 o
-2 1 2 1 154.36 27.26 52.74 <
-2 -1 2 1 128.96 0.43 39.26 <
-2 1 2 2 133.06 106.38 64.44 <
-2 -1 2 2 123.68 146.82 74.26 <
-1 1 2 -2 94.77 144.59 82.31 <
-1 -1 2 -2 93.10 47.78 29.37 <
-1 1 2 -1 3046.84 3451.99 225.69 o
-1 -1 2 -1 3074.39 3379.46 227.73 o
-1 1 2 0 24749.60 26508.10 585.99 o
-1 -1 2 0 24733.40 27975.50 627.39 o
-1 1 2 1 174.61 93.61 39.76 <
-1 -1 2 1 173.23 101.64 46.65 <
-1 1 2 2 333.85 333.11 65.74 o
-1 -1 2 2 343.19 332.48 65.33 o
0 1 2 -2 2.78 53.76 67.89 <
0 -1 2 -2 2.93 9.74 11.30 <
0 1 2 -1 106.92 35.79 26.61 <
0 -1 2 -1 109.49 -2.93 17.59 <
0 1 2 0 2748.12 3033.42 179.90 o
0 -1 2 0 2723.81 3018.66 122.36 o
0 1 2 1 21.23 141.90 74.38 <
0 -1 2 1 25.12 -0.54 39.02 <
0 1 2 2 41.35 -9.00 58.16 <
0 -1 2 2 39.26 16.17 31.65 <
1 1 2 -2 77.22 66.68 43.46 <
1 -1 2 -2 79.09 3.06 27.13 <
1 1 2 -1 148.65 118.49 66.26 <
1 -1 2 -1 138.76 115.44 46.42 <
1 1 2 0 23198.70 23604.20 821.47 o
1 -1 2 0 23077.70 24266.70 591.08 o
1 1 2 1 22476.60 24401.20 929.04 o
1 -1 2 1 22337.50 25601.30 662.94 o
1 1 2 2 79.18 50.76 103.88 <
1 -1 2 2 62.64 111.33 74.88 <
2 -1 2 -2 260.54 277.56 147.12 <
2 -1 2 -1 6.57 99.03 120.16 <
2 1 2 0 7151.64 7964.65 644.91 o
2 -1 2 0 7251.58 7985.65 462.38 o
2 1 2 1 35.57 420.66 215.14 <
2 -1 2 1 24.19 132.12 99.92 <
2 1 2 2 671.49 940.41 279.41 o
2 -1 2 2 638.45 434.44 144.82 <
3 1 2 -2 352.16 415.81 261.19 <
3 -1 2 -2 353.74 60.72 103.83 <
3 1 2 -1 239.99 288.24 221.80 <
3 -1 2 -1 259.22 415.53 212.10 <
3 1 2 0 5506.75 5454.90 693.07 o
3 -1 2 0 5403.90 5082.73 676.52 o
3 1 2 1 73.48 194.25 151.70 <
3 -1 2 1 106.18 164.95 115.73 <
3 1 2 2 133.36 296.76 172.03 <
3 -1 2 2 128.76 96.77 115.23 <
4 1 2 -2 399.93 144.18 250.80 <
4 -1 2 -2 399.51 272.47 226.52 <
4 1 2 -1 178.53 164.79 198.12 <
4 -1 2 -1 171.51 -16.83 129.83 <
4 1 2 0 1211.85 989.76 256.13 o
4 -1 2 0 1223.84 951.72 244.89 o
4 1 2 1 71.48 407.07 216.56 <
4 -1 2 1 66.85 314.95 146.64 <
4 1 2 2 101.75 204.93 152.66 <
4 -1 2 2 95.56 81.01 141.96 <
5 1 2 -2 226.70 347.70 193.91 <
5 -1 2 -2 226.93 86.18 337.44 <
5 1 2 -1 36.19 67.50 132.99 <
5 -1 2 -1 34.03 170.51 187.16 <
5 1 2 0 746.36 806.81 277.69 <
5 -1 2 0 722.10 766.35 265.69 <
5 1 2 1 705.79 715.33 253.58 <
5 -1 2 1 695.97 1327.11 358.42 o
5 1 2 2 67.29 23.24 155.40 <
5 -1 2 2 86.09 275.34 214.38 <
6 1 2 -2 281.20 -153.32 172.14 <
6 -1 2 -2 274.52 341.63 258.10 <
6 1 2 -1 465.00 301.69 221.84 <
6 -1 2 -1 472.46 133.84 220.75 <
6 1 2 0 317.21 154.64 159.70 <
6 -1 2 0 324.67 522.95 315.09 <
-6 2 2 0 1091.13 945.34 516.67 <
-6 -2 2 0 1112.07 360.46 293.83 <
-6 2 2 1 12.03 1290.54 510.56 <
-6 -2 2 1 13.41 62.22 103.42 <
-6 2 2 2 47.20 -160.14 289.24 <
-6 -2 2 2 46.02 394.68 253.74 <
-5 2 2 -2 119.15 348.30 291.61 <
-5 -2 2 -2 127.46 -99.14 248.91 <
-5 2 2 -1 48.86 -80.81 183.08 <
-5 -2 2 -1 49.48 379.31 213.08 <
-5 2 2 0 1065.76 910.88 421.40 <
-5 -2 2 0 1046.14 1127.68 439.49 <
-5 2 2 1 96.14 142.92 171.42 <
-5 -2 2 1 91.97 447.68 286.35 <
-5 2 2 2 251.99 104.12 132.62 <
-5 -2 2 2 244.40 280.24 168.30 <
-4 2 2 -2 745.70 427.55 138.90 o
-4 -2 2 -2 735.64 849.01 384.20 <
-4 2 2 -1 8.72 136.92 103.83 <
-4 -2 2 -1 8.93 -24.92 67.33 <
-4 2 2 0 3191.74 2775.64 379.40 o
-4 -2 2 0 3166.42 2817.47 384.48 o
-4 2 2 1 15.94 113.70 113.90 <
-4 -2 2 1 16.98 305.00 150.73 <
-4 2 2 2 122.36 174.84 118.75 <
-4 -2 2 2 117.99 250.97 136.55 <
-3 2 2 -2 214.53 108.77 111.22 <
-3 -2 2 -2 230.98 180.54 105.99 <
-3 2 2 -1 2337.30 2252.23 290.45 o
-3 -2 2 -1 2338.80 2146.21 294.08 o
-3 2 2 0 8887.33 9107.53 567.77 o
-3 -2 2 0 8854.48 8443.99 560.52 o
-3 2 2 1 28.95 120.12 100.36 <
-3 -2 2 1 30.81 134.03 103.44 <
-3 2 2 2 394.17 361.57 126.38 <
-3 -2 2 2 393.90 391.37 97.75 o
-2 2 2 -2 565.74 693.48 145.86 o
-2 -2 2 -2 580.34 655.82 101.59 o
-2 2 2 -1 34.03 -62.03 44.70 <
-2 -2 2 -1 36.16 -27.24 50.29 <
-2 2 2 0 14114.00 14475.30 582.10 o
-2 -2 2 0 14042.60 14385.50 430.49 o
-2 2 2 1 154.75 279.30 101.25 <
-2 -2 2 1 155.94 205.27 56.66 o
-2 2 2 2 226.53 323.41 87.94 o
-2 -2 2 2 221.28 236.43 77.68 o
-1 2 2 -2 210.48 46.37 69.57 <
-1 -2 2 -2 213.63 41.48 29.48 <
-1 2 2 -1 3743.77 4348.85 355.67 o
-1 -2 2 -1 3792.60 4340.85 158.25 o
-1 2 2 0 46934.40 51575.50 1234.47 o
-1 -2 2 0 46959.50 51481.00 650.50 o
-1 2 2 1 218.22 65.92 77.46 <
-1 -2 2 1 234.14 219.01 46.76 o
-1 2 2 2 266.87 322.08 114.14 <
-1 -2 2 2 262.95 287.04 52.66 o
0 2 2 -2 57.29 28.11 29.48 <
0 -2 2 -2 59.61 9.11 20.30 <
0 2 2 -1 4.71 97.25 49.87 <
0 -2 2 -1 3.74 31.54 23.15 <
0 2 2 0 6177.06 7143.88 375.85 o
0 -2 2 0 6230.46 6921.59 205.15 o
0 2 2 1 863.93 817.71 85.72 o
0 -2 2 1 868.58 865.91 67.94 o
0 2 2 2 161.88 209.04 103.07 <
0 -2 2 2 173.90 128.73 33.50 o
1 2 2 -2 32.13 -15.15 31.29 <
1 -2 2 -2 32.52 12.07 30.70 <
1 2 2 -1 1768.97 1513.47 174.75 o
1 -2 2 -1 1780.66 1581.65 117.23 o
1 2 2 0 55435.70 58202.90 1240.19 o
1 -2 2 0 55477.10 56171.30 741.64 o
1 2 2 1 445.41 650.93 162.45 o
1 -2 2 1 437.30 464.55 55.46 o
1 2 2 2 40.87 -21.26 54.18 <
1 -2 2 2 44.18 68.05 44.61 <
2 -2 2 -2 57.95 90.72 61.98 <
2 -2 2 -1 194.50 176.71 75.53 <
2 2 2 0 8205.47 8253.96 662.85 o
2 -2 2 0 8366.30 8492.27 485.60 o
2 2 2 1 1057.49 1850.08 348.44 o
2 -2 2 1 1064.02 1184.38 202.15 o
2 2 2 2 1206.51 1457.55 323.35 o
2 -2 2 2 1236.04 1303.35 233.88 o
3 -2 2 -2 63.89 -152.66 82.05 <
3 -2 2 -1 115.83 75.26 90.18 <
3 -2 2 0 15013.00 14519.60 1120.84 o
3 2 2 1 82.08 236.47 210.45 <
3 -2 2 1 80.51 79.50 102.29 <
3 2 2 2 159.82 451.48 189.38 <
3 -2 2 2 165.46 463.10 146.27 o
4 2 2 -2 41.96 84.03 203.69 <
4 -2 2 -2 45.08 74.22 131.20 <
4 2 2 -1 150.65 92.37 208.67 <
4 -2 2 -1 144.15 165.58 91.27 <
4 2 2 0 971.17 505.01 207.91 <
4 -2 2 0 975.20 737.07 254.95 <
4 2 2 1 439.73 884.30 236.78 o
4 -2 2 1 467.85 565.64 231.49 <
4 2 2 2 50.81 225.06 192.38 <
4 -2 2 2 36.45 -71.26 143.29 <
5 2 2 -2 54.14 105.62 323.63 <
5 -2 2 -2 53.69 -229.82 274.00 <
5 2 2 -1 118.40 330.98 215.51 <
5 -2 2 -1 126.11 305.72 255.38 <
5 2 2 0 2948.08 2872.06 497.49 o
5 -2 2 0 2927.58 2422.64 456.60 o
5 2 2 1 10.82 82.68 164.86 <
5 -2 2 1 11.42 500.73 290.13 <
5 2 2 2 153.49 95.12 200.99 <
5 -2 2 2 153.45 466.45 274.00 <
6 2 2 -2 24.82 146.97 171.84 <
6 -2 2 -2 24.03 584.02 307.69 <
6 2 2 -1 42.82 280.48 244.93 <
6 -2 2 -1 42.38 259.63 247.04 <
6 2 2 0 198.20 769.09 384.87 <
-6 3 2 0 238.25 368.29 248.76 <
-6 3 2 1 65.26 -436.36 405.09 <
-6 -3 2 1 64.99 68.85 270.19 <
-6 3 2 2 209.76 -301.45 432.05 <
-6 -3 2 2 216.27 -95.86 200.82 <
-5 3 2 -2 103.49 -345.24 325.39 <
-5 -3 2 -2 105.54 -15.17 109.88 <
-5 3 2 -1 27.78 -139.97 187.88 <
-5 -3 2 -1 32.04 313.48 310.82 <
-5 3 2 0 15.66 -92.01 230.90 <
-5 -3 2 0 16.55 -242.10 179.12 <
-5 3 2 1 166.16 228.26 135.40 <
-5 -3 2 1 172.03 461.20 340.92 <
-5 3 2 2 19.07 155.58 135.29 <
-5 -3 2 2 18.57 98.29 187.25 <
-4 3 2 -2 265.24 288.74 181.68 <
-4 -3 2 -2 279.20 538.97 320.43 <
-4 3 2 -1 20.43 311.56 176.79 <
-4 -3 2 -1 16.21 138.79 197.01 <
-4 3 2 0 956.60 823.43 207.17 o
-4 -3 2 0 945.20 780.10 213.14 o
-4 3 2 1 22.28 18.85 84.50 <
-4 -3 2 1 20.01 23.35 111.07 <
-4 3 2 2 218.70 223.82 126.42 <
-4 -3 2 2 226.47 224.99 130.81 <
-3 3 2 -2 12.24 157.58 113.66 <
-3 -3 2 -2 13.01 23.87 93.98 <
-3 3 2 -1 113.00 238.54 137.79 <
-3 -3 2 -1 112.75 3.48 98.16 <
-3 3 2 0 16.99 86.31 116.44 <
-3 -3 2 0 16.14 -0.07 54.66 <
-3 3 2 1 40.03 73.55 85.22 <
-3 -3 2 1 39.73 108.49 68.35 <
-3 3 2 2 63.04 172.69 113.55 <
-3 -3 2 2 67.41 190.06 61.16 o
-2 3 2 -2 3520.78 3263.47 376.57 o
-2 -3 2 -2 3544.59 3199.10 226.90 o
-2 3 2 -1 110.43 230.06 106.74 <
-2 -3 2 -1 103.35 84.61 61.94 <
-2 3 2 0 524.48 353.87 141.31 <
-2 -3 2 0 511.71 416.49 83.29 o
-2 3 2 1 9.07 -40.29 63.31 <
-2 -3 2 1 11.19 -33.89 28.85 <
-2 3 2 2 86.14 -25.04 73.03 <
-2 -3 2 2 89.40 135.31 38.98 o
-1 3 2 -2 13.48 73.14 41.33 <
-1 -3 2 -2 12.22 35.22 27.57 <
-1 3 2 -1 1372.50 1441.05 212.88 o
-1 -3 2 -1 1335.56 1424.86 100.20 o
-1 3 2 0 121.38 -26.57 53.89 <
-1 -3 2 0 123.46 2.35 27.28 <
-1 3 2 1 107.25 -18.70 85.59 <
-1 -3 2 1 107.13 56.70 28.72 <
-1 3 2 2 5.67 -79.55 91.85 <
-1 -3 2 2 4.11 69.57 30.26 <
0 3 2 -2 194.95 314.24 130.92 <
0 -3 2 -2 198.76 144.66 32.92 o
0 -3 2 -1 38.71 33.13 25.07 <
0 3 2 0 12106.50 12283.50 458.70 o
0 -3 2 0 12057.40 11668.70 250.08 o
0 3 2 1 93.43 41.18 50.57 <
0 -3 2 1 105.50 34.39 29.29 <
0 3 2 2 104.90 -9.87 34.20 <
0 -3 2 2 110.37 13.65 18.80 <
1 3 2 -2 90.74 13.30 49.07 <
1 -3 2 -2 87.35 81.09 38.46 <
1 3 2 -1 810.21 574.23 106.18 o
1 -3 2 -1 792.08 601.41 77.14 o
1 3 2 0 339.90 -67.48 48.22 <
1 -3 2 0 338.75 51.98 46.68 <
1 3 2 1 92.38 14.07 48.09 <
1 -3 2 1 95.76 17.44 36.28 <
1 3 2 2 229.94 197.90 109.25 <
1 -3 2 2 214.82 253.89 61.24 o
2 3 2 -2 65.86 70.26 43.96 <
2 -3 2 -2 65.11 94.37 39.52 <
2 -3 2 -1 33.39 22.04 56.03 <
2 3 2 0 2556.63 2923.24 381.89 o
2 -3 2 0 2565.99 2924.54 221.28 o
2 3 2 1 254.84 390.57 174.79 <
2 -3 2 1 263.47 272.23 89.51 o
2 3 2 2 284.87 251.73 185.40 <
2 -3 2 2 315.53 226.88 98.57 <
3 -3 2 -2 116.42 51.74 56.66 <
3 -3 2 -1 441.04 -87.75 122.09 <
3 -3 2 0 35.77 240.34 172.71 <
3 3 2 1 42.38 -112.62 92.72 <
3 -3 2 1 40.34 140.42 114.64 <
3 3 2 2 66.92 241.30 183.19 <
3 -3 2 2 70.46 210.02 167.77 <
4 3 2 -2 37.16 329.13 271.91 <
4 -3 2 -2 42.46 -63.33 120.83 <
4 3 2 -1 101.85 301.35 246.30 <
4 -3 2 -1 105.08 -173.77 161.16 <
4 3 2 0 3530.94 3868.99 478.05 o
4 -3 2 0 3524.20 3803.20 483.23 o
4 3 2 1 230.02 67.92 145.79 <
4 -3 2 1 227.46 141.29 120.73 <
4 3 2 2 421.17 120.05 113.94 <
4 -3 2 2 414.52 217.77 178.08 <
5 3 2 -2 100.19 192.54 245.93 <
5 -3 2 -2 99.25 48.22 169.10 <
5 3 2 -1 191.79 255.60 188.62 <
5 -3 2 -1 176.32 215.34 209.01 <
5 3 2 0 76.16 46.16 172.42 <
5 -3 2 0 77.98 -13.83 184.56 <
5 3 2 1 23.27 -23.59 140.46 <
5 -3 2 1 28.84 153.03 170.53 <
5 3 2 2 25.61 400.94 191.40 <
5 -3 2 2 23.04 202.95 146.27 <
6 3 2 -2 48.03 103.98 152.05 <
6 -3 2 -2 52.25 290.24 206.30 <
6 3 2 -1 220.60 793.77 289.35 <
6 -3 2 -1 226.05 484.38 285.48 <
6 3 2 0 1370.33 1005.26 572.10 <
-6 4 2 1 165.47 286.67 129.59 <
-6 -4 2 1 156.03 -42.39 270.58 <
-6 4 2 2 18.58 258.99 225.90 <
-6 -4 2 2 20.21 -215.51 231.80 <
-5 4 2 -2 442.97 158.21 185.64 <
-5 -4 2 -2 429.74 -82.05 159.44 <
-5 4 2 -1 20.64 90.94 209.51 <
-5 -4 2 -1 18.51 -115.59 151.34 <
-5 4 2 0 524.35 914.34 418.75 <
-5 -4 2 0 502.68 495.05 344.89 <
-5 4 2 1 700.31 207.93 254.63 <
-5 -4 2 1 695.03 279.82 273.54 <
-5 4 2 2 246.79 -79.07 76.92 <
-5 -4 2 2 245.40 196.82 202.90 <
-4 4 2 -2 145.22 424.85 318.15 <
-4 -4 2 -2 157.35 162.66 213.80 <
-4 4 2 -1 350.72 230.49 115.96 <
-4 -4 2 -1 353.55 137.49 170.05 <
-4 4 2 0 683.60 417.27 159.49 <
-4 -4 2 0 647.44 593.26 335.37 <
-4 4 2 1 302.81 95.33 93.27 <
-4 -4 2 1 291.67 -9.67 52.24 <
-4 4 2 2 18.07 78.14 101.57 <
-4 -4 2 2 20.11 97.70 121.23 <
-3 4 2 -2 633.27 817.90 186.16 o
-3 -4 2 -2 643.05 585.00 241.67 <
-3 4 2 -1 14.12 107.86 108.99 <
-3 -4 2 -1 21.12 -76.57 88.77 <
-3 4 2 0 1967.49 2083.16 297.58 o
-3 -4 2 0 1880.55 1931.78 207.23 o
-3 4 2 1 1270.55 1109.66 208.97 o
-3 -4 2 1 1276.30 1152.84 165.69 o
-3 4 2 2 301.16 202.93 156.57 <
-3 -4 2 2 294.97 105.66 54.70 <
-2 4 2 -2 222.73 262.34 117.86 <
-2 -4 2 -2 225.69 236.91 53.15 o
-2 4 2 -1 1029.73 1170.49 221.97 o
-2 -4 2 -1 1034.36 1098.62 108.46 o
-2 4 2 0 830.79 747.96 191.90 o
-2 -4 2 0 885.10 764.25 92.42 o
-2 4 2 1 264.72 -54.39 55.65 <
-2 -4 2 1 267.93 17.18 36.48 <
-2 4 2 2 102.06 332.78 141.68 <
-2 -4 2 2 98.61 227.86 55.76 o
-1 4 2 -2 329.37 399.87 126.14 o
-1 -4 2 -2 339.32 241.89 52.66 o
-1 4 2 -1 1387.00 1690.37 239.73 o
-1 -4 2 -1 1432.25 1620.19 114.72 o
-1 4 2 0 4348.13 3981.02 358.72 o
-1 -4 2 0 4233.59 4361.02 186.53 o
-1 4 2 1 446.68 280.34 107.11 <
-1 -4 2 1 437.23 323.58 58.59 o
-1 4 2 2 320.04 142.34 107.64 <
-1 -4 2 2 319.96 32.55 30.70 <
0 -4 2 -2 100.06 116.79 34.94 o
0 -4 2 -1 804.62 1027.89 94.99 o
0 4 2 0 20151.40 20989.40 593.48 o
0 -4 2 0 19999.60 21179.80 373.20 o
0 4 2 1 226.35 -33.63 64.03 <
0 -4 2 1 229.88 24.52 29.61 <
0 4 2 2 64.53 27.92 55.83 <
0 -4 2 2 62.05 24.00 22.80 <
1 4 2 -2 199.34 102.98 44.83 <
1 -4 2 -2 206.91 153.82 47.26 o
1 4 2 -1 806.66 934.32 127.86 o
1 -4 2 -1 823.83 856.43 94.79 o
1 4 2 0 2358.39 2247.23 234.76 o
1 -4 2 0 2312.12 2106.90 156.86 o
1 4 2 1 999.85 777.51 157.32 o
1 -4 2 1 967.93 995.00 116.25 o
1 4 2 2 116.33 2.85 35.44 <
1 -4 2 2 113.81 114.99 53.72 <
2 4 2 -2 90.28 76.03 43.90 <
2 -4 2 -2 82.84 53.98 52.87 <
2 -4 2 -1 239.03 179.99 63.48 <
2 4 2 0 962.61 1043.65 240.21 o
2 -4 2 0 1043.31 968.58 143.88 o
2 4 2 1 187.22 281.26 145.57 <
2 -4 2 1 172.29 47.28 66.39 <
2 4 2 2 5894.94 5955.87 615.24 o
2 -4 2 2 5960.26 5693.29 351.74 o
3 4 2 -2 376.52 279.23 102.09 <
3 -4 2 -2 375.14 178.45 102.09 <
3 -4 2 -1 1780.29 1139.84 195.10 o
3 -4 2 0 342.42 506.34 152.57 o
3 4 2 1 598.87 723.16 265.93 <
3 -4 2 1 609.43 593.11 171.73 o
3 4 2 2 205.45 401.02 245.21 <
3 -4 2 2 201.79 171.99 123.92 <
4 -4 2 -2 74.36 385.42 300.83 <
4 -4 2 -1 143.06 364.05 258.41 <
4 4 2 0 352.28 705.48 237.51 <
4 -4 2 0 313.70 698.59 249.28 <
4 4 2 1 253.06 36.85 113.64 <
4 -4 2 1 251.76 442.94 229.93 <
4 4 2 2 1177.84 989.82 299.33 o
4 -4 2 2 1175.90 768.57 258.65 <
5 4 2 -2 352.39 362.44 277.76 <
5 -4 2 -2 335.55 502.58 226.06 <
5 4 2 -1 1071.99 741.87 302.33 <
5 -4 2 -1 1064.83 339.24 204.49 <
5 4 2 0 68.36 -71.07 89.25 <
5 -4 2 0 65.87 -95.61 98.40 <
5 4 2 1 169.99 402.96 237.08 <
5 -4 2 1 162.05 343.68 253.06 <
5 4 2 2 219.07 389.09 223.34 <
5 -4 2 2 208.31 525.78 241.54 <
6 4 2 -2 49.74 -217.12 160.31 <
6 -4 2 -2 46.67 -35.22 258.52 <
6 4 2 -1 49.85 -300.15 255.71 <
6 -4 2 -1 47.45 39.61 251.86 <
6 4 2 0 84.07 200.41 283.74 <
-6 5 2 1 89.30 293.54 225.21 <
-6 -5 2 1 77.49 -114.64 188.60 <
-6 5 2 2 219.61 27.22 124.60 <
-6 -5 2 2 207.33 233.88 435.38 <
-5 5 2 -2 56.44 86.46 272.04 <
-5 -5 2 -2 51.99 287.93 307.28 <
-5 5 2 -1 26.83 -211.08 136.18 <
-5 -5 2 -1 26.03 98.72 240.73 <
-5 5 2 0 198.10 286.30 265.63 <
-5 -5 2 0 193.27 -72.37 190.60 <
-5 5 2 1 85.63 162.27 165.58 <
-5 -5 2 1 90.31 257.56 213.73 <
-5 5 2 2 0.85 173.12 182.29 <
-5 -5 2 2 0.97 82.66 161.03 <
-4 5 2 -2 86.52 197.53 271.21 <
-4 -5 2 -2 89.42 85.75 179.40 <
-4 5 2 -1 495.62 551.06 200.45 <
-4 -5 2 -1 499.70 282.71 180.25 <
-4 5 2 0 2691.20 2455.86 356.05 o
-4 -5 2 0 2655.42 2359.74 550.91 o
-4 5 2 1 50.33 14.41 115.16 <
-4 -5 2 1 42.50 122.55 174.29 <
-4 5 2 2 506.80 284.10 140.36 <
-4 -5 2 2 493.61 467.49 177.90 <
-3 5 2 -2 67.94 18.65 78.42 <
-3 -5 2 -2 66.90 240.26 179.82 <
-3 5 2 -1 206.66 45.00 87.05 <
-3 -5 2 -1 199.40 159.90 103.18 <
-3 5 2 0 274.81 413.18 167.99 <
-3 -5 2 0 261.56 258.69 100.61 <
-3 5 2 1 244.88 98.27 111.09 <
-3 -5 2 1 243.81 350.37 106.70 o
-3 5 2 2 17.57 115.64 144.14 <
-3 -5 2 2 19.24 33.11 58.26 <
-2 5 2 -2 412.17 375.72 130.40 <
-2 -5 2 -2 368.56 237.51 61.09 o
-2 5 2 -1 1836.92 2109.34 305.43 o
-2 -5 2 -1 1840.06 2358.68 162.90 o
-2 5 2 0 21361.90 20498.50 957.93 o
-2 -5 2 0 21313.40 21093.80 482.83 o
-2 5 2 1 31.67 69.39 56.46 <
-2 -5 2 1 44.82 4.09 20.96 <
-2 5 2 2 876.72 979.72 231.54 o
-2 -5 2 2 856.96 493.08 80.27 o
-1 5 2 -2 67.01 218.56 122.16 <
-1 -5 2 -2 64.42 129.01 48.68 <
-1 5 2 -1 759.84 830.53 166.88 o
-1 -5 2 -1 758.59 874.84 92.14 o
-1 5 2 0 46.19 -13.87 74.35 <
-1 -5 2 0 42.71 11.87 26.57 <
-1 5 2 1 209.87 160.70 96.86 <
-1 -5 2 1 205.26 173.47 44.78 o
-1 5 2 2 41.24 91.55 120.46 <
-1 -5 2 2 41.72 63.89 38.76 <
0 -5 2 -2 159.12 -2.48 37.05 <
0 -5 2 -1 1967.04 1857.34 135.53 o
0 -5 2 0 38952.40 40923.10 661.30 o
0 5 2 1 1096.54 894.64 131.29 o
0 -5 2 1 1087.47 786.97 76.35 o
0 5 2 2 450.88 426.88 97.16 o
0 -5 2 2 453.73 448.70 63.70 o
1 5 2 -2 140.22 80.48 32.48 <
1 -5 2 -2 136.41 109.96 45.33 <
1 5 2 -1 160.44 109.01 52.79 <
1 -5 2 -1 160.60 146.03 39.57 o
1 5 2 0 229.13 104.05 27.79 o
1 -5 2 0 231.49 181.66 47.72 o
1 5 2 1 2577.68 2748.92 278.11 o
1 -5 2 1 2599.31 2643.19 190.75 o
1 5 2 2 21.23 -88.88 73.94 <
1 -5 2 2 22.35 -33.78 34.76 <
2 5 2 -2 19.73 36.78 23.18 <
2 -5 2 -2 21.64 32.26 45.28 <
2 5 2 -1 3.47 -24.79 20.30 <
2 -5 2 -1 4.23 85.90 52.39 <
2 5 2 0 28294.20 29454.30 1158.86 o
2 -5 2 0 28448.00 29427.10 731.02 o
2 5 2 1 1376.45 1444.73 293.02 o
2 -5 2 1 1373.12 1180.77 160.55 o
2 5 2 2 34.42 184.03 145.97 <
2 -5 2 2 30.23 23.87 49.31 <
3 5 2 -2 127.42 84.27 66.66 <
3 -5 2 -2 128.02 206.36 111.14 <
3 -5 2 -1 14.03 131.16 74.88 <
3 5 2 0 492.49 875.43 263.04 o
3 -5 2 0 498.77 422.94 138.16 o
3 5 2 1 88.18 89.74 172.43 <
3 -5 2 1 108.86 169.58 115.05 <
3 5 2 2 60.67 295.85 247.54 <
3 -5 2 2 57.60 143.99 134.62 <
4 -5 2 -2 50.85 21.92 134.60 <
4 -5 2 -1 68.42 202.91 121.23 <
4 5 2 0 6494.99 5761.14 771.23 o
4 -5 2 0 6501.10 5549.99 593.06 o
4 5 2 1 269.89 610.17 227.02 <
4 -5 2 1 277.33 214.04 199.40 <
4 5 2 2 68.68 139.77 168.77 <
4 -5 2 2 68.69 381.90 210.01 <
5 5 2 -2 84.40 174.18 264.95 <
5 -5 2 -2 86.48 470.31 247.08 <
5 5 2 -1 27.29 382.18 222.80 <
5 -5 2 -1 25.61 517.03 229.73 <
5 5 2 0 134.61 451.20 239.34 <
5 -5 2 0 140.14 112.44 196.88 <
5 5 2 1 16.77 158.92 204.19 <
5 -5 2 1 19.04 114.85 174.30 <
5 5 2 2 51.82 6.68 81.14 <
5 -5 2 2 50.91 -28.22 132.25 <
6 5 2 -2 28.34 -38.68 130.46 <
6 -5 2 -2 29.19 131.14 176.27 <
6 5 2 -1 249.63 136.14 207.64 <
6 -5 2 -1 234.88 44.92 164.64 <
6 5 2 0 1638.85 1353.65 522.69 <
-6 6 2 1 117.04 425.22 351.42 <
-6 -6 2 1 126.26 189.14 344.83 <
-6 6 2 2 25.34 -21.05 169.99 <
-6 -6 2 2 27.06 -139.16 180.84 <
-5 6 2 -2 122.93 -126.36 157.29 <
-5 -6 2 -2 132.34 62.33 262.48 <
-5 6 2 -1 1.35 307.13 261.76 <
-5 -6 2 -1 1.29 179.16 208.21 <
-5 6 2 0 466.16 345.94 235.25 <
-5 -6 2 0 460.77 1140.79 473.29 <
-5 6 2 1 119.29 246.52 306.35 <
-5 -6 2 1 127.78 93.88 222.06 <
-5 6 2 2 71.57 178.21 174.82 <
-5 -6 2 2 74.51 315.58 254.82 <
-4 6 2 -2 25.59 116.96 140.60 <
-4 -6 2 -2 23.77 461.79 341.35 <
-4 6 2 -1 25.20 135.44 218.95 <
-4 -6 2 -1 21.70 37.63 148.44 <
-4 6 2 0 4161.68 5518.65 532.38 o
-4 -6 2 0 4114.75 5614.50 854.12 o
-4 6 2 1 154.04 88.00 152.10 <
-4 -6 2 1 154.61 -128.35 162.55 <
-4 6 2 2 13.26 29.98 108.77 <
-4 -6 2 2 14.76 250.78 218.62 <
-3 6 2 -2 117.71 -23.46 86.33 <
-3 -6 2 -2 131.80 156.20 133.36 <
-3 6 2 -1 207.38 150.92 105.35 <
-3 -6 2 -1 229.26 149.58 75.46 <
-3 6 2 0 3489.29 3275.45 433.88 o
-3 -6 2 0 3485.18 2736.37 300.85 o
-3 6 2 1 302.27 92.72 107.27 <
-3 -6 2 1 306.06 217.71 105.29 <
-3 6 2 2 194.03 12.61 118.75 <
-3 -6 2 2 197.00 49.76 36.44 <
-2 6 2 -2 737.04 581.97 175.84 o
-2 -6 2 -2 739.97 565.39 102.46 o
-2 6 2 -1 117.99 67.31 84.33 <
-2 -6 2 -1 103.92 109.18 44.39 <
-2 6 2 0 6743.24 7452.44 582.93 o
-2 -6 2 0 6693.77 7468.40 306.41 o
-2 6 2 1 650.91 496.75 183.92 <
-2 -6 2 1 633.82 459.27 84.31 o
-2 6 2 2 53.56 154.66 165.23 <
-2 -6 2 2 55.02 100.48 46.78 <
-1 6 2 -2 50.96 -71.33 42.83 <
-1 -6 2 -2 49.15 37.18 44.70 <
-1 6 2 -1 7221.81 8179.93 562.27 o
-1 -6 2 -1 7047.54 8190.10 333.18 o
-1 6 2 0 12227.70 12771.70 731.52 o
-1 -6 2 0 12259.50 12759.70 369.04 o
-1 6 2 1 378.72 113.86 119.77 <
-1 -6 2 1 389.02 68.13 36.13 <
-1 6 2 2 214.07 150.81 137.53 <
-1 -6 2 2 209.64 88.92 37.87 <
0 -6 2 -2 99.21 123.38 44.29 <
0 -6 2 -1 61.84 161.84 57.48 <
0 -6 2 0 41877.30 43516.50 639.41 o
0 6 2 1 532.03 410.05 95.12 o
0 -6 2 1 546.72 485.51 88.94 o
0 6 2 2 34.45 -38.70 25.05 <
0 -6 2 2 29.60 -37.52 38.15 <
1 -6 2 -2 22.47 10.96 35.37 <
1 6 2 -1 405.22 418.59 76.96 o
1 -6 2 -1 418.99 568.34 93.99 o
1 6 2 0 14146.10 14967.80 538.64 o
1 -6 2 0 14164.70 14816.40 449.79 o
1 6 2 1 1106.18 1046.72 174.66 o
1 -6 2 1 1099.36 782.77 109.46 o
1 6 2 2 22.84 -36.87 31.26 <
1 -6 2 2 22.44 -98.55 54.24 <
2 6 2 -2 196.23 136.03 50.66 <
2 -6 2 -2 188.23 274.56 67.94 o
2 6 2 -1 81.59 27.42 37.24 <
2 -6 2 -1 74.30 105.96 61.76 <
2 6 2 0 2695.44 2722.03 350.85 o
2 -6 2 0 2709.59 2856.58 241.52 o
2 6 2 1 642.94 474.36 179.16 <
2 -6 2 1 660.70 620.41 126.53 o
2 6 2 2 1590.10 1833.29 323.76 o
2 -6 2 2 1596.30 1768.94 211.25 o
3 6 2 -2 83.82 -24.55 27.68 <
3 -6 2 -2 90.16 77.20 66.22 <
3 -6 2 -1 283.82 244.88 90.57 <
3 6 2 0 6271.87 6516.40 679.31 o
3 -6 2 0 6181.70 5443.12 379.20 o
3 6 2 1 193.46 327.13 210.17 <
3 -6 2 1 220.60 164.60 83.50 <
3 6 2 2 96.37 567.51 260.71 <
3 -6 2 2 102.98 115.51 105.40 <
4 -6 2 -2 153.19 244.95 121.46 <
4 -6 2 -1 138.01 232.43 186.06 <
4 6 2 0 1620.11 2252.41 482.83 o
4 -6 2 0 1613.03 2072.25 368.92 o
4 6 2 1 235.90 213.52 161.03 <
4 -6 2 1 249.61 446.18 218.40 <
4 6 2 2 916.02 863.64 401.48 <
4 -6 2 2 897.34 620.08 251.78 <
5 6 2 -2 65.96 135.38 128.38 <
5 -6 2 -2 64.03 268.04 248.69 <
5 6 2 -1 293.93 386.48 238.15 <
5 -6 2 -1 301.13 423.16 241.88 <
5 6 2 0 1603.26 1297.06 357.37 o
5 -6 2 0 1581.04 1414.09 358.85 o
5 6 2 1 207.26 194.95 154.53 <
5 -6 2 1 203.34 37.37 113.29 <
5 6 2 2 85.33 228.56 168.51 <
5 -6 2 2 91.44 63.00 178.18 <
6 6 2 -2 116.01 139.36 212.56 <
6 -6 2 -2 108.06 261.52 255.54 <
6 6 2 -1 55.21 371.44 215.40 <
6 -6 2 -1 52.44 164.51 191.10 <
-6 7 2 1 385.97 0.00 200.47 <
-6 7 2 2 108.87 -225.17 250.12 <
-6 -7 2 2 113.36 -411.68 278.65 <
-5 7 2 -2 141.50 -163.08 237.47 <
-5 -7 2 -2 141.09 119.46 190.93 <
-5 7 2 -1 211.69 236.95 309.85 <
-5 -7 2 -1 207.03 246.43 243.02 <
-5 7 2 0 1347.22 1167.45 482.81 <
-5 -7 2 0 1349.68 586.43 318.00 <
-5 7 2 1 140.33 120.79 116.66 <
-5 -7 2 1 130.90 -111.88 117.96 <
-5 7 2 2 30.24 290.26 239.21 <
-5 -7 2 2 30.13 117.61 203.23 <
-4 7 2 -2 7.33 374.57 345.33 <
-4 -7 2 -2 17.75 -33.42 173.68 <
-4 7 2 -1 138.03 346.00 288.02 <
-4 -7 2 -1 136.13 61.14 177.29 <
-4 7 2 0 2150.86 2567.19 380.77 o
-4 -7 2 0 2228.88 2517.04 591.58 o
-4 7 2 1 1045.91 896.88 271.58 o
-4 -7 2 1 1089.19 1186.71 404.01 <
-4 7 2 2 192.75 142.12 130.60 <
-4 -7 2 2 187.67 55.02 97.83 <
-3 7 2 -2 179.40 223.01 130.44 <
-3 -7 2 -2 184.24 110.64 151.79 <
-3 7 2 -1 1625.07 1640.61 313.17 o
-3 -7 2 -1 1668.11 1448.29 247.74 o
-3 7 2 0 5241.52 4769.12 544.28 o
-3 -7 2 0 5278.99 5011.72 430.86 o
-3 7 2 1 71.52 219.43 161.77 <
-3 -7 2 1 70.88 -10.24 80.01 <
-3 7 2 2 46.62 -161.38 122.99 <
-3 -7 2 2 47.25 163.62 73.64 <
-2 7 2 -2 4314.78 4159.45 431.07 o
-2 -7 2 -2 4243.39 4226.28 271.54 o
-2 7 2 -1 96.01 12.59 55.27 <
-2 -7 2 -1 84.46 57.53 57.02 <
-2 7 2 0 3735.31 3944.32 442.27 o
-2 -7 2 0 3798.58 3940.37 262.67 o
-2 7 2 1 1535.07 1798.83 317.95 o
-2 -7 2 1 1580.63 1598.71 155.16 o
-2 7 2 2 195.24 157.12 141.14 <
-2 -7 2 2 185.59 73.46 53.53 <
-1 7 2 -2 421.02 246.88 106.85 <
-1 -7 2 -2 418.71 175.69 58.98 <
-1 7 2 -1 336.83 179.06 109.49 <
-1 -7 2 -1 273.39 115.18 49.72 <
-1 7 2 0 9643.80 10243.40 691.02 o
-1 -7 2 0 9668.47 9505.51 393.46 o
-1 7 2 1 325.49 566.15 202.62 <
-1 -7 2 1 293.30 301.46 65.18 o
-1 -7 2 2 72.14 33.72 44.79 <
0 -7 2 -2 40.06 43.65 42.70 <
0 -7 2 -1 207.35 359.98 72.07 o
0 -7 2 0 27352.50 26472.00 528.14 o
0 -7 2 1 498.35 502.57 97.33 o
0 7 2 2 21.35 -0.26 25.65 <
0 -7 2 2 18.65 44.94 57.96 <
1 -7 2 -2 505.40 91.20 41.53 <
1 7 2 -1 1332.47 996.24 107.47 o
1 -7 2 -1 1385.32 1162.92 117.97 o
1 7 2 0 7757.40 7506.32 363.20 o
1 -7 2 0 7695.79 7911.56 347.46 o
1 7 2 1 3066.24 3288.39 281.48 o
1 -7 2 1 3158.51 2915.58 223.97 o
1 7 2 2 367.92 279.60 106.11 <
1 -7 2 2 340.86 260.34 81.96 o
2 7 2 -2 162.34 -15.02 21.15 <
2 -7 2 -2 146.82 139.07 54.94 <
2 7 2 -1 888.19 516.56 98.64 o
2 -7 2 -1 887.92 619.09 100.85 o
2 7 2 0 3338.09 3728.16 397.50 o
2 -7 2 0 3425.77 3577.52 273.08 o
2 7 2 1 4.73 118.36 138.64 <
2 -7 2 1 5.09 79.03 88.16 <
2 7 2 2 11.17 283.21 169.07 <
2 -7 2 2 20.83 66.27 64.00 <
3 7 2 -2 250.03 -1.07 31.61 <
3 -7 2 -2 245.89 -15.94 52.39 <
3 -7 2 -1 369.60 87.11 67.37 <
3 7 2 0 3064.15 4021.03 522.56 o
3 -7 2 0 2977.87 3139.81 243.45 o
3 7 2 1 811.71 883.93 272.98 o
3 -7 2 1 741.65 620.84 124.10 o
3 7 2 2 136.74 25.89 116.22 <
3 -7 2 2 124.81 85.81 100.20 <
4 -7 2 -2 160.53 154.70 102.83 <
4 7 2 -1 1056.57 422.77 201.95 <
4 -7 2 -1 1078.80 840.77 240.41 o
4 7 2 0 1561.19 1926.41 470.92 o
4 -7 2 0 1625.21 2297.50 398.77 o
4 7 2 1 38.83 225.28 269.23 <
4 -7 2 1 38.46 191.41 167.71 <
4 7 2 2 425.07 431.86 266.02 <
4 -7 2 2 426.06 392.79 229.06 <
5 7 2 -2 99.92 516.27 222.26 <
5 -7 2 -2 99.68 212.01 160.60 <
5 7 2 -1 77.87 375.22 213.73 <
5 -7 2 -1 80.23 89.81 127.10 <
5 7 2 0 366.11 980.41 318.39 o
5 -7 2 0 356.87 863.43 289.06 <
5 7 2 1 114.89 21.74 178.27 <
5 -7 2 1 125.56 133.14 189.16 <
5 7 2 2 52.22 488.34 421.62 <
5 -7 2 2 53.72 161.45 148.23 <
6 7 2 -2 85.76 99.07 241.78 <
6 -7 2 -2 90.20 179.47 165.03 <
-6 8 2 1 127.84 35.44 131.96 <
-6 8 2 2 3.83 240.10 312.00 <
-6 -8 2 2 4.17 -84.62 194.73 <
-5 8 2 -2 61.12 330.48 320.78 <
-5 -8 2 -2 57.66 354.07 364.79 <
-5 8 2 -1 65.36 565.54 355.37 <
-5 -8 2 -1 67.40 72.57 141.51 <
-5 8 2 0 258.66 533.69 390.07 <
-5 -8 2 0 256.53 618.45 355.65 <
-5 8 2 1 12.74 599.56 440.85 <
-5 -8 2 1 14.11 -54.76 140.49 <
-5 8 2 2 274.80 108.33 273.10 <
-5 -8 2 2 268.30 33.61 193.43 <
-4 8 2 -2 521.00 521.54 342.89 <
-4 -8 2 -2 532.21 409.53 310.48 <
-4 -8 2 -1 67.38 35.29 70.85 <
-4 -8 2 0 1066.36 1531.53 477.16 o
-4 8 2 1 74.16 -2.80 95.53 <
-4 -8 2 1 73.71 -9.17 161.79 <
-4 8 2 2 21.79 -16.09 106.25 <
-4 -8 2 2 18.59 144.68 177.97 <
-3 8 2 -2 34.21 35.85 70.96 <
-3 -8 2 -2 35.82 15.57 66.13 <
-3 8 2 -1 6.78 -41.02 55.02 <
-3 -8 2 -1 5.84 32.04 57.81 <
-3 8 2 0 378.88 490.95 195.82 <
-3 -8 2 0 370.27 463.05 148.01 o
-3 8 2 1 339.68 267.54 132.60 <
-3 -8 2 1 345.63 273.97 123.20 <
-3 8 2 2 353.55 150.34 58.74 <
-3 -8 2 2 360.75 177.38 99.33 <
-2 8 2 -2 1200.65 1012.13 221.15 o
-2 -8 2 -2 1150.39 1101.33 158.49 o
-2 8 2 -1 327.63 74.00 128.33 <
-2 -8 2 -1 323.49 197.08 94.05 <
-2 8 2 0 3280.99 3340.55 427.11 o
-2 -8 2 0 3321.56 3510.69 257.99 o
-2 8 2 1 26.10 232.02 173.58 <
-2 -8 2 1 25.00 105.24 69.01 <
-2 8 2 2 202.12 116.79 104.90 <
-2 -8 2 2 191.71 -52.20 55.07 <
-1 8 2 -2 224.67 -7.76 109.90 <
-1 -8 2 -2 241.47 53.05 43.42 <
-1 8 2 -1 4013.77 4479.01 471.81 o
-1 -8 2 -1 4075.87 4552.50 292.02 o
-1 8 2 0 294.64 351.42 206.32 <
-1 -8 2 0 231.84 102.20 50.31 <
-1 8 2 1 1463.60 1829.16 336.24 o
-1 -8 2 1 1489.80 1571.12 151.44 o
-1 -8 2 2 95.43 74.01 43.29 <
0 -8 2 -2 341.98 6.04 46.76 <
0 -8 2 -1 422.75 46.83 53.11 <
0 -8 2 0 4416.28 4770.09 236.21 o
0 -8 2 1 76.16 86.53 60.27 <
0 -8 2 2 76.14 120.86 55.87 <
1 -8 2 -2 43.72 91.01 54.61 <
1 -8 2 -1 302.55 229.19 60.52 o
1 8 2 0 384.85 168.90 54.27 o
1 -8 2 0 319.97 313.39 73.31 o
1 8 2 1 3355.72 3845.77 287.54 o
1 -8 2 1 3360.69 3567.63 221.69 o
1 8 2 2 183.04 10.94 35.85 <
1 -8 2 2 166.14 150.10 83.88 <
2 8 2 -2 266.69 94.29 47.46 <
2 -8 2 -2 266.73 70.85 40.68 <
2 8 2 -1 69.03 29.46 43.89 <
2 -8 2 -1 67.10 53.00 40.39 <
2 8 2 0 1991.05 1877.64 277.02 o
2 -8 2 0 2073.78 2367.18 194.04 o
2 8 2 1 123.05 40.91 55.07 <
2 -8 2 1 131.42 -0.26 46.31 <
2 8 2 2 234.99 192.21 144.18 <
2 -8 2 2 219.18 25.35 43.66 <
3 8 2 -2 270.80 262.08 89.57 <
3 -8 2 -2 274.48 280.91 94.94 <
3 8 2 -1 126.74 389.77 179.19 <
3 -8 2 -1 125.76 243.47 100.81 <
3 8 2 0 307.58 416.22 194.77 <
3 -8 2 0 313.52 240.38 95.01 <
3 8 2 1 1298.69 961.04 276.36 o
3 -8 2 1 1316.79 1307.26 175.84 o
3 8 2 2 145.54 356.57 208.99 <
3 -8 2 2 146.65 129.75 112.59 <
4 -8 2 -2 180.33 209.08 124.20 <
4 8 2 -1 9.18 305.32 191.93 <
4 -8 2 -1 9.89 -2.46 76.35 <
4 8 2 0 714.80 1399.09 389.68 o
4 -8 2 0 739.90 1322.15 307.02 o
4 8 2 1 140.10 297.59 216.40 <
4 -8 2 1 145.29 121.35 183.29 <
4 8 2 2 102.53 484.60 274.50 <
4 -8 2 2 111.79 150.66 155.62 <
5 8 2 -2 225.08 241.95 181.82 <
5 -8 2 -2 227.66 206.45 177.27 <
5 8 2 -1 139.54 225.82 239.39 <
5 -8 2 -1 133.28 38.59 187.36 <
5 8 2 0 447.93 503.90 400.14 <
5 -8 2 0 451.30 208.65 201.34 <
5 8 2 1 492.43 214.38 276.41 <
5 -8 2 1 482.58 643.71 303.85 <
5 8 2 2 163.85 811.42 422.38 <
5 -8 2 2 158.85 71.92 195.49 <
6 8 2 -2 79.28 144.68 321.89 <
6 -8 2 -2 76.18 -232.67 116.29 <
-6 9 2 2 54.98 -162.34 123.29 <
-5 9 2 -2 120.08 476.27 389.37 <
-5 -9 2 -2 118.91 -174.62 291.30 <
-5 9 2 -1 296.70 836.40 391.31 <
-5 -9 2 -1 289.36 -45.13 247.84 <
-5 9 2 0 1067.86 806.90 418.46 <
-5 -9 2 0 1043.61 841.10 323.63 <
-5 9 2 1 82.55 161.10 297.69 <
-5 -9 2 1 91.53 372.72 257.47 <
-5 9 2 2 83.31 197.47 245.30 <
-5 -9 2 2 86.67 172.21 216.14 <
-4 -9 2 -2 62.66 148.90 255.34 <
-4 -9 2 -1 215.14 65.00 126.75 <
-4 -9 2 0 875.28 899.58 392.09 <
-4 -9 2 1 302.49 -213.23 180.90 <
-4 9 2 2 107.50 138.31 163.42 <
-4 -9 2 2 99.13 138.77 173.92 <
-3 9 2 -2 172.79 -63.92 55.61 <
-3 -9 2 -2 180.95 4.37 127.57 <
-3 9 2 -1 131.32 202.71 168.75 <
-3 -9 2 -1 154.12 0.30 74.57 <
-3 9 2 0 4218.03 4333.20 524.58 o
-3 -9 2 0 4162.85 4442.70 435.90 o
-3 9 2 1 122.16 5.85 70.33 <
-3 -9 2 1 117.50 15.15 92.31 <
-3 -9 2 2 51.98 -14.26 60.37 <
-2 9 2 -2 239.63 119.01 97.36 <
-2 -9 2 -2 238.68 0.83 58.46 <
-2 9 2 -1 1318.46 1567.84 291.13 o
-2 -9 2 -1 1377.81 1646.13 197.80 o
-2 9 2 0 2545.99 2618.67 397.03 o
-2 -9 2 0 2596.28 2468.66 239.99 o
-2 9 2 1 341.61 38.70 56.46 <
-2 -9 2 1 338.22 127.51 82.18 <
-2 9 2 2 239.97 68.50 97.09 <
-2 -9 2 2 229.52 181.16 83.83 <
-1 9 2 -2 96.14 4.91 87.38 <
-1 -9 2 -2 97.67 1.54 57.89 <
-1 9 2 -1 4772.45 4762.70 510.58 o
-1 -9 2 -1 4750.15 4596.78 313.69 o
-1 9 2 0 9465.37 9443.01 743.83 o
-1 -9 2 0 9414.99 9346.74 449.12 o
-1 -9 2 1 706.36 899.25 126.79 o
-1 -9 2 2 50.73 62.24 49.05 <
0 -9 2 -2 66.99 144.27 61.14 <
0 -9 2 -1 2438.81 2482.18 200.88 o
0 -9 2 0 3978.41 4103.14 202.64 o
0 -9 2 1 541.14 480.53 82.24 o
0 -9 2 2 324.89 342.26 67.83 o
1 -9 2 -2 607.33 348.46 70.35 o
1 -9 2 -1 120.76 74.46 60.79 <
1 -9 2 0 6036.60 5373.29 275.63 o
1 9 2 1 6429.18 6587.98 353.65 o
1 -9 2 1 6532.13 7548.95 336.41 o
1 9 2 2 253.19 133.42 44.13 o
1 -9 2 2 254.31 108.51 52.31 <
2 9 2 -2 78.30 -48.20 32.70 <
2 -9 2 -2 76.09 3.70 62.64 <
2 9 2 -1 513.51 496.62 86.70 o
2 -9 2 -1 507.38 505.84 98.79 o
2 9 2 0 1491.68 1637.56 240.25 o
2 -9 2 0 1485.63 1501.97 164.62 o
2 9 2 1 151.00 139.96 107.20 <
2 -9 2 1 147.30 165.18 75.72 <
2 9 2 2 85.25 207.49 124.18 <
2 -9 2 2 89.21 199.49 85.05 <
3 -9 2 -2 422.47 285.47 85.61 o
3 9 2 -1 127.81 356.28 168.93 <
3 -9 2 -1 122.03 303.93 101.59 <
3 9 2 0 1925.83 1569.50 327.70 o
3 -9 2 0 1884.43 1836.84 201.45 o
3 9 2 1 2143.38 2149.34 390.68 o
3 -9 2 1 2109.93 1915.63 205.06 o
3 9 2 2 525.80 654.30 235.10 <
3 -9 2 2 527.03 518.04 145.47 o
4 -9 2 -2 65.22 155.92 123.12 <
4 9 2 -1 327.56 465.10 249.41 <
4 -9 2 -1 324.93 445.31 198.41 <
4 9 2 0 438.34 456.97 254.93 <
4 -9 2 0 451.92 838.73 251.60 o
4 9 2 1 129.35 427.57 253.86 <
4 -9 2 1 124.58 315.02 167.14 <
4 -9 2 2 27.77 -33.63 101.24 <
5 -9 2 -2 142.48 287.82 177.45 <
5 -9 2 -1 34.54 105.92 204.80 <
5 -9 2 0 388.28 368.24 234.54 <
5 9 2 1 25.32 547.86 408.27 <
5 -9 2 1 25.67 165.34 172.51 <
5 9 2 2 85.94 142.09 323.17 <
5 -9 2 2 90.47 324.65 246.13 <
6 9 2 -2 39.27 199.84 329.87 <
6 -9 2 -2 40.35 334.46 210.23 <
-6 10 2 2 11.33 78.13 218.58 <
-5 10 2 -2 51.06 117.03 303.65 <
-5 -10 2 -2 54.44 -101.96 98.85 <
-5 10 2 -1 251.34 216.65 209.86 <
-5 -10 2 -1 233.88 247.82 276.50 <
-5 10 2 0 851.68 1035.61 454.03 <
-5 -10 2 0 842.47 669.87 379.90 <
-5 10 2 1 197.94 558.69 356.72 <
-5 -10 2 1 210.84 20.89 212.75 <
-5 10 2 2 402.21 259.87 311.39 <
-5 -10 2 2 416.58 213.36 189.45 <
-4 -10 2 -2 59.56 283.56 300.91 <
-4 -10 2 -1 190.52 19.17 105.40 <
-4 -10 2 0 889.95 822.77 366.28 <
-4 -10 2 1 10.88 132.29 172.95 <
-4 10 2 2 32.14 164.92 171.05 <
-4 -10 2 2 29.32 -4.09 158.79 <
-3 -10 2 -2 48.74 62.96 91.49 <
-3 10 2 -1 40.34 18.70 105.05 <
-3 -10 2 -1 42.70 105.40 93.59 <
-3 10 2 0 4077.49 3377.96 476.77 o
-3 -10 2 0 4059.23 3665.37 428.70 o
-3 10 2 1 150.79 -55.59 81.38 <
-3 -10 2 1 159.20 232.67 142.88 <
-3 10 2 2 666.40 674.81 242.23 <
-3 -10 2 2 685.28 613.37 134.09 o
-2 10 2 -2 1945.65 1939.63 326.48 o
-2 -10 2 -2 1925.32 1572.06 216.77 o
-2 10 2 -1 229.13 86.27 145.79 <
-2 -10 2 -1 244.06 88.72 58.27 <
-2 10 2 0 1419.70 1773.22 358.92 o
-2 -10 2 0 1442.50 1625.34 206.23 o
-2 10 2 1 40.82 -79.68 131.84 <
-2 -10 2 1 39.06 159.16 88.20 <
-2 10 2 2 119.22 217.54 188.18 <
-2 -10 2 2 116.28 89.51 67.85 <
-1 10 2 -2 166.16 592.11 210.67 <
-1 -10 2 -2 168.51 243.54 92.62 <
-1 10 2 -1 3382.85 3976.63 492.55 o
-1 -10 2 -1 3361.22 3849.80 312.78 o
-1 10 2 0 7591.92 7306.63 687.28 o
-1 -10 2 0 7613.77 7433.92 422.66 o
-1 -10 2 1 39.79 16.00 58.64 <
-1 -10 2 2 462.62 488.88 103.05 o
0 -10 2 -2 303.64 59.29 52.72 <
0 -10 2 -1 491.83 221.54 70.53 o
0 -10 2 0 2424.55 2489.53 164.84 o
0 -10 2 1 893.55 931.78 135.59 o
0 -10 2 2 159.90 69.74 67.29 <
1 -10 2 -2 35.14 32.57 52.31 <
1 -10 2 -1 130.56 115.68 56.68 <
1 -10 2 0 8473.96 8246.11 362.61 o
1 10 2 1 146.87 80.18 31.29 <
1 -10 2 1 155.94 187.80 72.63 <
1 10 2 2 51.99 144.71 73.59 <
1 -10 2 2 52.42 128.21 68.81 <
2 10 2 -2 171.56 49.63 51.96 <
2 -10 2 -2 155.53 147.64 61.33 <
2 10 2 -1 104.87 20.87 30.31 <
2 -10 2 -1 102.59 13.05 35.89 <
2 10 2 0 1109.14 1036.35 119.44 o
2 -10 2 0 1133.00 1313.28 162.66 o
2 10 2 1 518.72 529.12 134.90 o
2 -10 2 1 527.50 741.50 134.90 o
2 10 2 2 118.11 7.96 69.20 <
2 -10 2 2 118.06 157.99 75.64 <
3 10 2 -2 133.65 191.38 143.32 <
3 -10 2 -2 130.63 69.09 75.63 <
3 10 2 -1 181.84 248.34 168.60 <
3 -10 2 -1 190.62 188.34 85.79 <
3 10 2 0 6852.44 6127.16 610.43 o
3 -10 2 0 6738.10 6302.46 373.94 o
3 10 2 1 182.06 37.48 63.31 <
3 -10 2 1 174.32 256.17 97.81 <
3 -10 2 2 102.25 20.48 76.53 <
4 10 2 -2 168.69 209.52 151.88 <
4 -10 2 -2 154.33 -34.18 109.03 <
4 -10 2 -1 8.45 -17.59 154.36 <
4 -10 2 0 344.22 589.06 224.67 <
4 -10 2 1 115.39 166.27 172.51 <
4 -10 2 2 70.70 121.68 167.69 <
5 -10 2 -2 123.41 38.91 195.38 <
5 -10 2 -1 157.99 26.07 148.53 <
5 -10 2 0 1726.82 1784.59 435.55 o
5 -10 2 1 196.59 -82.53 99.27 <
5 10 2 2 149.82 470.44 295.83 <
5 -10 2 2 155.18 54.24 240.04 <
-5 11 2 -2 51.00 -91.68 117.62 <
-5 -11 2 -2 47.60 -178.18 199.66 <
-5 11 2 -1 21.23 869.71 489.94 <
-5 -11 2 -1 22.00 534.21 398.42 <
-5 11 2 0 56.90 242.82 376.55 <
-5 -11 2 0 62.49 -173.71 227.30 <
-5 11 2 1 41.77 -50.13 100.77 <
-5 -11 2 1 42.13 -96.46 215.47 <
-5 11 2 2 19.55 530.78 356.44 <
-5 -11 2 2 19.81 -271.95 215.69 <
-4 -11 2 -2 34.58 249.06 200.88 <
-4 -11 2 -1 345.75 725.50 397.63 <
-4 -11 2 0 174.25 267.95 284.24 <
-4 -11 2 1 14.88 163.42 161.84 <
-4 -11 2 2 37.18 280.60 257.91 <
-3 -11 2 -2 69.03 54.24 77.72 <
-3 -11 2 -1 142.79 154.94 152.92 <
-3 11 2 0 515.60 191.90 146.71 <
-3 -11 2 0 537.02 176.12 141.16 <
-3 11 2 1 30.36 2.41 144.42 <
-3 -11 2 1 36.86 114.86 105.36 <
-3 11 2 2 28.59 135.88 128.66 <
-3 -11 2 2 27.49 161.68 109.11 <
-2 11 2 -2 2347.86 2344.81 382.09 o
-2 -11 2 -2 2281.09 1997.04 240.47 o
-2 11 2 -1 1061.54 1440.48 341.70 o
-2 -11 2 -1 1048.37 1021.70 176.82 o
-2 11 2 0 313.27 41.83 105.18 <
-2 -11 2 0 277.28 317.48 103.57 o
-2 11 2 1 528.66 631.85 237.80 <
-2 -11 2 1 518.85 475.07 128.25 o
-2 11 2 2 149.81 225.86 190.99 <
-2 -11 2 2 164.76 101.42 112.22 <
-1 11 2 -2 84.80 87.50 163.57 <
-1 -11 2 -2 83.87 13.31 98.12 <
-1 11 2 -1 2713.07 2815.86 439.92 o
-1 -11 2 -1 2605.53 2692.55 275.06 o
-1 -11 2 0 1056.87 37.20 63.07 <
-1 -11 2 1 52.96 166.01 45.50 o
-1 -11 2 2 58.00 15.76 48.16 <
0 -11 2 -2 336.08 515.54 92.96 o
0 -11 2 -1 1360.27 1009.76 117.44 o
0 -11 2 0 1813.37 1691.41 165.53 o
0 -11 2 1 2196.25 2476.44 212.08 o
0 -11 2 2 217.60 134.46 71.70 <
1 -11 2 -2 91.83 4.04 62.18 <
1 -11 2 -1 727.61 268.43 75.14 o
1 -11 2 0 537.93 159.86 90.55 <
1 -11 2 1 2207.42 2306.26 213.67 o
1 11 2 2 308.92 27.57 33.00 <
1 -11 2 2 310.57 152.38 76.44 <
2 11 2 -2 834.03 636.35 118.90 o
2 -11 2 -2 817.92 772.77 123.35 o
2 11 2 -1 301.61 280.04 63.57 o
2 -11 2 -1 294.42 386.66 94.70 o
2 11 2 0 1279.27 1533.91 220.60 o
2 -11 2 0 1235.66 1247.49 166.79 o
2 -11 2 1 2825.54 3608.69 277.76 o
2 -11 2 2 299.42 61.39 70.61 <
3 11 2 -2 90.08 131.53 131.35 <
3 -11 2 -2 93.89 -53.92 56.65 <
3 -11 2 -1 514.08 792.44 148.47 o
3 -11 2 0 180.43 130.92 78.98 <
3 -11 2 1 41.16 27.33 63.07 <
3 -11 2 2 12.50 21.41 87.24 <
4 -11 2 -2 465.45 453.48 149.42 o
4 -11 2 -1 32.32 -136.77 172.86 <
4 -11 2 0 585.41 851.17 261.47 o
4 -11 2 1 1293.03 881.30 278.87 o
4 -11 2 2 160.01 344.33 203.93 <
5 -11 2 -2 74.12 58.89 105.07 <
5 -11 2 -1 56.96 -1.43 177.69 <
5 -11 2 0 47.11 -74.72 155.21 <
5 -11 2 1 72.92 483.79 292.91 <
5 -11 2 2 5.70 -244.06 347.17 <
-5 12 2 -2 118.75 508.97 403.16 <
-5 -12 2 -2 116.48 528.54 446.55 <
-5 12 2 -1 239.69 88.55 230.34 <
-5 -12 2 -1 249.65 222.06 323.24 <
-5 12 2 0 368.63 49.40 258.47 <
-5 -12 2 0 350.63 339.57 262.65 <
-5 12 2 1 371.88 42.76 160.62 <
-5 -12 2 1 363.98 290.87 221.84 <
-5 -12 2 2 206.60 472.34 411.92 <
-4 -12 2 -2 15.99 356.76 330.68 <
-4 -12 2 -1 719.44 685.26 370.02 <
-4 -12 2 0 132.44 102.27 298.13 <
-4 -12 2 1 49.40 126.10 89.87 <
-4 -12 2 2 3.41 192.23 287.61 <
-3 -12 2 -2 92.72 64.24 111.64 <
-3 -12 2 -1 7.55 192.80 173.14 <
-3 12 2 0 1010.90 980.83 262.95 o
-3 -12 2 0 988.36 952.95 260.86 o
-3 12 2 1 595.09 67.26 139.86 <
-3 -12 2 1 559.57 334.33 212.41 <
-3 12 2 2 250.16 23.96 147.47 <
-3 -12 2 2 254.79 119.68 83.48 <
-2 12 2 -2 134.26 349.13 210.79 <
-2 -12 2 -2 134.83 160.64 121.29 <
-2 12 2 -1 764.56 785.49 268.54 <
-2 -12 2 -1 758.69 887.75 164.16 o
-2 12 2 0 551.21 594.93 207.40 <
-2 -12 2 0 558.21 789.38 162.88 o
-2 12 2 1 206.22 107.24 72.20 <
-2 -12 2 1 225.23 144.40 102.07 <
-2 -12 2 2 7.76 -40.59 65.83 <
-1 12 2 -2 182.86 52.65 151.86 <
-1 -12 2 -2 200.74 102.68 68.98 <
-1 12 2 -1 3421.63 3583.67 548.06 o
-1 -12 2 -1 3386.43 3213.60 306.78 o
-1 -12 2 0 1592.32 1764.92 241.78 o
-1 -12 2 1 590.57 54.05 77.31 <
-1 -12 2 2 396.88 49.57 63.77 <
0 -12 2 -2 14.15 90.14 48.00 <
0 -12 2 -1 635.16 500.57 92.59 o
0 -12 2 0 1951.32 1974.80 207.80 o
0 -12 2 1 39.87 93.87 85.01 <
0 -12 2 2 36.89 124.29 84.96 <
1 -12 2 -2 194.49 297.21 92.16 o
1 -12 2 -1 236.51 63.03 79.98 <
1 -12 2 0 1161.94 857.91 135.03 o
1 -12 2 1 715.67 574.89 120.05 o
1 -12 2 2 438.17 311.06 95.85 o
2 12 2 -2 178.19 228.93 184.92 <
2 -12 2 -2 184.58 142.97 78.40 <
2 12 2 -1 346.52 146.71 86.75 <
2 -12 2 -1 319.11 292.02 87.90 o
2 -12 2 0 1183.07 1173.64 170.08 o
2 -12 2 1 8.39 42.02 77.33 <
2 -12 2 2 1793.66 1159.95 177.14 o
3 -12 2 -2 158.66 196.27 97.51 <
3 -12 2 -1 373.65 218.52 92.27 <
3 -12 2 0 230.96 101.25 72.42 <
3 -12 2 1 80.19 274.21 103.92 <
3 -12 2 2 77.11 136.84 112.31 <
4 -12 2 -2 101.21 129.27 138.20 <
4 -12 2 -1 37.25 30.72 137.51 <
4 -12 2 0 146.91 234.69 185.40 <
4 -12 2 1 22.15 103.62 85.55 <
4 -12 2 2 193.88 267.82 208.02 <
5 -12 2 -2 163.72 153.55 137.90 <
5 -12 2 -1 307.26 0.20 160.53 <
5 -12 2 0 61.01 249.95 196.66 <
5 -12 2 1 17.59 212.82 209.36 <
-5 13 2 -1 49.52 0.00 268.24 <
-5 -13 2 -1 49.47 213.34 226.17 <
-5 -13 2 0 115.15 283.87 411.92 <
-5 -13 2 1 12.15 227.38 299.58 <
-5 -13 2 2 65.60 164.84 218.27 <
-4 -13 2 -2 115.32 263.17 353.24 <
-4 -13 2 -1 280.32 381.83 304.35 <
-4 -13 2 0 883.89 492.73 322.78 <
-4 -13 2 1 13.62 176.43 280.36 <
-4 -13 2 2 567.06 238.49 223.23 <
-3 -13 2 -2 4.43 -21.00 73.42 <
-3 -13 2 -1 28.37 167.32 164.05 <
-3 -13 2 0 460.19 417.25 178.03 <
-3 13 2 1 55.89 93.81 166.16 <
-3 -13 2 1 59.00 -18.92 62.07 <
-3 13 2 2 193.43 -98.22 96.40 <
-3 -13 2 2 191.14 83.62 68.66 <
-2 13 2 -2 3.17 16.63 123.83 <
-2 -13 2 -2 5.44 -58.72 53.76 <
-2 13 2 -1 589.93 616.54 229.80 <
-2 -13 2 -1 605.56 500.75 139.10 o
-2 13 2 0 5454.70 4360.52 619.21 o
-2 -13 2 0 5476.39 5365.66 438.49 o
-2 13 2 1 309.13 469.99 177.75 <
-2 -13 2 1 310.34 420.94 141.12 <
-2 13 2 2 1107.63 1071.35 316.35 o
-2 -13 2 2 1093.46 1294.32 223.43 o
-1 13 2 -2 42.91 247.56 270.13 <
-1 -13 2 -2 44.19 91.48 91.05 <
-1 13 2 -1 499.56 1227.32 356.72 o
-1 -13 2 -1 481.85 602.60 146.31 o
-1 -13 2 0 1189.43 1048.26 189.90 o
-1 -13 2 1 166.55 232.28 118.29 <
-1 -13 2 2 98.11 36.28 60.22 <
0 -13 2 -2 2.04 22.30 40.79 <
0 -13 2 -1 241.07 347.46 99.27 o
0 -13 2 0 10163.10 9469.43 471.33 o
0 -13 2 1 1127.63 684.07 130.47 o
0 -13 2 2 786.59 566.54 131.62 o
1 -13 2 -2 79.11 265.74 98.31 <
1 -13 2 -1 18.29 27.63 62.92 <
1 -13 2 0 1105.45 1193.14 173.42 o
1 -13 2 1 391.78 287.95 87.46 o
1 -13 2 2 86.53 57.02 65.16 <
2 13 2 -2 100.95 409.09 212.17 <
2 -13 2 -2 96.26 170.73 92.24 <
2 -13 2 -1 457.27 53.02 82.75 <
2 -13 2 0 7361.84 6818.58 405.35 o
2 -13 2 1 831.44 472.40 109.18 o
2 -13 2 2 130.84 105.51 67.79 <
3 -13 2 -2 121.54 176.42 96.27 <
3 -13 2 -1 10.31 152.29 85.00 <
3 -13 2 0 402.71 451.35 131.90 o
3 -13 2 1 18.99 -75.13 82.42 <
3 -13 2 2 35.58 -85.11 107.25 <
4 -13 2 -2 83.56 44.29 119.55 <
4 -13 2 -1 144.33 265.24 184.69 <
4 -13 2 0 1933.69 1663.80 370.89 o
4 -13 2 1 628.92 41.28 112.44 <
4 -13 2 2 13.68 126.14 205.82 <
5 -13 2 -2 109.75 198.32 172.40 <
5 -13 2 -1 5.81 -56.83 199.29 <
5 -13 2 0 75.52 216.32 118.40 <
-5 -14 2 -1 427.15 -83.25 171.10 <
-5 -14 2 0 58.64 -78.85 282.60 <
-5 -14 2 1 2.75 189.88 270.34 <
-5 -14 2 2 16.20 117.31 186.43 <
-4 -14 2 -2 7.77 269.43 213.15 <
-4 -14 2 -1 44.14 388.87 330.57 <
-4 -14 2 0 1228.52 1200.23 539.43 <
-4 -14 2 1 86.55 252.58 278.80 <
-4 -14 2 2 17.60 19.00 213.45 <
-3 -14 2 -2 64.03 239.97 130.70 <
-3 -14 2 -1 636.69 330.32 166.43 <
-3 -14 2 0 49.06 245.51 147.60 <
-3 14 2 1 89.69 99.49 185.36 <
-3 -14 2 1 102.65 124.92 137.77 <
-3 14 2 2 64.88 381.29 246.41 <
-3 -14 2 2 62.45 -29.11 113.83 <
-2 14 2 -2 410.38 697.65 282.32 <
-2 -14 2 -2 423.42 599.84 145.82 o
-2 14 2 -1 118.11 186.56 171.58 <
-2 -14 2 -1 124.65 269.08 126.07 <
-2 14 2 0 6001.81 6544.52 773.36 o
-2 -14 2 0 6089.43 6138.56 478.21 o
-2 14 2 1 63.64 53.59 100.68 <
-2 -14 2 1 63.29 203.38 111.22 <
-2 14 2 2 154.32 245.93 182.29 <
-2 -14 2 2 149.52 20.46 113.27 <
-1 14 2 -2 645.84 879.25 322.02 <
-1 -14 2 -2 659.07 680.81 129.83 o
-1 14 2 -1 2724.30 2761.49 505.62 o
-1 -14 2 -1 2576.72 2740.37 254.24 o
-1 -14 2 0 141.56 164.55 90.37 <
-1 -14 2 1 474.22 379.83 155.20 <
-1 -14 2 2 155.06 94.16 104.31 <
0 -14 2 -2 334.02 247.95 119.70 <
0 -14 2 -1 424.96 197.54 84.66 <
0 -14 2 0 138.45 466.90 136.07 o
0 -14 2 1 445.70 264.15 98.07 <
0 -14 2 2 148.03 117.53 84.98 <
1 -14 2 -2 210.35 397.94 109.81 o
1 -14 2 -1 453.70 444.75 110.03 o
1 -14 2 0 270.66 131.29 75.77 <
1 -14 2 1 1114.64 1112.99 170.25 o
1 -14 2 2 100.79 175.56 94.33 <
2 14 2 -2 188.63 419.20 230.84 <
2 -14 2 -2 196.06 266.02 104.40 <
2 -14 2 -1 431.12 371.11 111.29 o
2 -14 2 0 4780.59 4610.83 350.98 o
2 -14 2 1 173.16 86.25 92.61 <
2 -14 2 2 1505.44 861.08 167.57 o
3 -14 2 -2 165.36 127.21 81.13 <
3 -14 2 -1 250.11 244.23 108.11 <
3 -14 2 0 150.80 177.79 102.05 <
3 -14 2 1 508.04 563.34 153.84 o
3 -14 2 2 23.44 346.00 172.23 <
4 -14 2 -2 66.11 259.11 108.49 <
4 -14 2 -1 160.03 64.37 143.75 <
4 -14 2 0 476.40 170.18 144.10 <
4 -14 2 1 181.01 42.94 139.34 <
4 -14 2 2 360.73 164.64 173.69 <
5 -14 2 -2 114.13 149.10 172.03 <
5 -14 2 -1 13.46 135.66 134.90 <
5 -14 2 0 215.86 298.33 199.88 <
-5 -15 2 0 463.97 529.78 466.92 <
-5 -15 2 1 15.96 330.43 259.19 <
-5 -15 2 2 31.14 304.04 401.66 <
-4 -15 2 -2 137.21 190.43 125.85 <
-4 -15 2 -1 60.98 85.88 182.56 <
-4 -15 2 0 314.62 353.91 288.74 <
-4 -15 2 1 335.31 32.59 227.93 <
-4 -15 2 2 132.25 272.89 290.84 <
-3 -15 2 -2 167.76 502.77 169.16 <
-3 -15 2 -1 468.30 239.91 129.07 <
-3 -15 2 0 949.28 832.29 260.02 o
-3 -15 2 1 37.91 125.79 159.79 <
-3 15 2 2 55.77 209.43 260.48 <
-3 -15 2 2 60.68 36.74 92.46 <
-2 -15 2 -2 720.59 1055.48 196.40 o
-2 15 2 -1 191.97 220.64 109.42 <
-2 -15 2 -1 197.63 328.54 101.74 o
-2 15 2 0 2714.20 2487.03 509.38 o
-2 -15 2 0 2705.41 2863.01 345.44 o
-2 15 2 1 480.89 430.35 257.49 <
-2 -15 2 1 462.61 214.73 128.71 <
-2 15 2 2 39.22 369.98 225.51 <
-2 -15 2 2 41.71 46.15 92.87 <
-1 15 2 -2 241.98 318.22 227.93 <
-1 -15 2 -2 254.99 93.31 124.09 <
-1 -15 2 -1 1913.59 2179.73 297.82 o
-1 -15 2 0 3118.72 3062.92 338.72 o
-1 -15 2 1 5.90 130.99 96.74 <
-1 -15 2 2 58.91 304.17 152.62 <
0 -15 2 -2 79.45 236.99 140.53 <
0 -15 2 -1 204.56 457.55 158.27 <
0 -15 2 0 1079.02 733.48 205.27 o
0 -15 2 1 175.91 90.79 135.55 <
0 -15 2 2 13.35 8.33 80.35 <
1 -15 2 -2 376.24 -40.57 81.48 <
1 -15 2 -1 293.36 454.12 133.60 o
1 -15 2 0 3010.80 2983.39 278.30 o
1 -15 2 1 97.58 214.91 79.64 <
1 -15 2 2 330.13 520.62 130.83 o
2 -15 2 -2 175.19 151.79 95.40 <
2 -15 2 -1 169.45 81.77 88.24 <
2 -15 2 0 2723.66 2769.62 283.13 o
2 -15 2 1 23.87 143.71 123.46 <
2 -15 2 2 208.68 71.27 90.22 <
3 -15 2 -2 261.14 100.29 106.94 <
3 -15 2 -1 144.15 270.47 94.83 <
3 -15 2 0 674.41 613.69 142.49 o
3 -15 2 1 64.74 37.63 117.92 <
3 -15 2 2 164.20 -18.63 102.55 <
4 -15 2 -2 93.71 98.12 144.09 <
4 -15 2 -1 184.62 -137.07 117.25 <
4 -15 2 0 388.57 606.91 241.08 <
4 -15 2 1 38.76 -266.37 192.06 <
4 -15 2 2 42.68 197.69 200.97 <
5 -15 2 -2 72.60 233.01 161.92 <
5 -15 2 -1 17.17 95.86 146.53 <
5 -15 2 0 181.86 747.05 546.90 <
-5 -16 2 1 1.38 20.89 191.73 <
-5 -16 2 2 108.52 731.07 439.77 <
-4 -16 2 -2 48.04 105.42 179.12 <
-4 -16 2 -1 1.62 -14.22 121.16 <
-4 -16 2 0 306.19 269.54 193.79 <
-4 -16 2 1 21.37 374.66 373.15 <
-4 -16 2 2 21.71 238.56 265.28 <
-3 -16 2 -2 30.00 151.23 108.66 <
-3 -16 2 -1 625.06 830.42 223.26 o
-3 -16 2 0 755.48 785.68 219.71 o
-3 -16 2 1 141.13 107.11 145.40 <
-3 -16 2 2 240.93 280.13 135.81 <
-2 -16 2 -2 637.05 483.49 137.64 o
-2 16 2 -1 23.19 -35.39 110.86 <
-2 -16 2 -1 26.28 -34.22 143.66 <
-2 16 2 0 971.07 1480.21 408.89 o
-2 -16 2 0 946.26 709.85 198.91 o
-2 16 2 1 18.26 -21.35 98.83 <
-2 -16 2 1 15.89 37.22 93.16 <
-2 16 2 2 20.81 367.83 221.02 <
-2 -16 2 2 20.06 66.70 127.29 <
-1 16 2 -2 115.08 393.13 300.80 <
-1 -16 2 -2 110.74 107.25 110.18 <
-1 -16 2 -1 234.62 -31.42 96.29 <
-1 -16 2 0 2282.80 1825.12 276.86 o
-1 -16 2 1 918.16 963.74 215.27 o
-1 -16 2 2 456.89 245.13 133.79 <
0 -16 2 -2 289.07 334.13 148.92 <
0 -16 2 -1 53.83 133.62 131.73 <
0 -16 2 0 350.33 161.14 122.60 <
0 -16 2 1 490.84 450.53 166.79 <
0 -16 2 2 33.39 120.60 144.18 <
1 -16 2 -2 28.36 294.71 133.77 <
1 -16 2 -1 336.15 567.51 183.25 o
1 -16 2 0 1865.57 1339.61 240.97 o
1 -16 2 1 1086.71 899.15 205.56 o
1 -16 2 2 204.23 364.20 119.38 o
2 -16 2 -2 422.48 254.74 103.01 <
2 -16 2 -1 107.34 113.18 101.57 <
2 -16 2 0 429.23 758.94 168.42 o
2 -16 2 1 285.58 409.68 136.12 o
2 -16 2 2 174.40 139.60 125.27 <
3 -16 2 -2 84.66 159.99 86.55 <
3 -16 2 -1 9.30 147.53 93.66 <
3 -16 2 0 628.47 401.53 138.42 <
3 -16 2 1 1235.44 1505.69 292.61 o
3 -16 2 2 96.60 -7.13 71.61 <
4 -16 2 -2 271.43 233.45 133.23 <
4 -16 2 -1 58.59 -97.33 146.53 <
4 -16 2 0 53.17 22.52 201.36 <
4 -16 2 1 5.93 62.94 98.03 <
4 -16 2 2 87.81 501.57 275.95 <
5 -16 2 -2 123.05 -282.21 214.21 <
5 -16 2 -1 18.69 -392.05 424.64 <
-4 -17 2 -2 148.92 58.79 246.91 <
-4 -17 2 -1 373.31 327.80 369.11 <
-4 -17 2 0 30.09 3.43 309.45 <
-4 -17 2 1 43.36 587.30 465.40 <
-4 -17 2 2 132.80 601.34 615.59 <
-3 -17 2 -2 0.82 176.60 207.38 <
-3 -17 2 -1 279.27 562.54 250.99 <
-3 -17 2 0 714.50 882.47 319.58 <
-3 -17 2 1 291.11 200.21 281.15 <
-3 -17 2 2 7.71 -50.09 170.03 <
-2 -17 2 -2 229.94 -45.26 82.07 <
-2 -17 2 -1 190.16 203.34 121.88 <
-2 17 2 0 125.73 341.81 253.13 <
-2 -17 2 0 132.53 169.08 133.42 <
-2 17 2 1 294.39 -78.22 167.84 <
-2 -17 2 1 305.26 274.84 125.29 <
-2 17 2 2 92.88 -36.91 113.36 <
-2 -17 2 2 100.55 223.88 133.27 <
-1 17 2 -2 314.71 379.55 262.61 <
-1 -17 2 -2 311.19 393.87 125.42 o
-1 17 2 -1 215.15 505.92 333.02 <
-1 -17 2 -1 214.08 528.41 186.18 <
-1 -17 2 0 1550.57 1744.05 287.08 o
-1 -17 2 1 160.22 41.48 133.53 <
-1 -17 2 2 71.83 213.21 151.62 <
0 -17 2 -2 34.79 235.39 184.60 <
0 -17 2 -1 157.02 420.07 178.88 <
0 -17 2 0 9.25 106.48 149.68 <
0 -17 2 1 147.65 221.21 184.32 <
0 -17 2 2 54.96 145.70 146.86 <
1 -17 2 -2 448.30 717.03 181.66 o
1 -17 2 -1 68.77 204.75 148.40 <
1 -17 2 0 1159.63 1309.24 251.88 o
1 -17 2 1 3597.07 3161.51 366.18 o
1 -17 2 2 110.26 271.10 138.71 <
2 -17 2 -2 7.48 299.98 150.99 <
2 -17 2 -1 471.83 240.15 164.66 <
2 -17 2 0 262.92 283.34 134.33 <
2 -17 2 1 82.03 25.28 128.62 <
2 -17 2 2 65.03 106.88 101.75 <
3 -17 2 -2 225.24 496.82 179.73 <
3 -17 2 -1 42.77 -44.15 101.83 <
3 -17 2 0 275.44 195.27 110.14 <
3 -17 2 1 11.64 161.93 157.29 <
3 -17 2 2 33.40 308.19 177.34 <
4 -17 2 -2 40.39 -64.00 107.85 <
4 -17 2 -1 101.52 -93.33 180.38 <
4 -17 2 0 71.25 41.39 239.12 <
4 -17 2 1 59.48 63.77 191.71 <
4 -17 2 2 6.32 -585.58 281.71 <
5 -17 2 -2 46.06 -103.27 224.08 <
5 -17 2 -1 29.22 -238.58 332.59 <
-4 -18 2 -1 337.08 119.44 239.38 <
-4 -18 2 0 66.12 217.73 317.00 <
-4 -18 2 1 16.70 402.35 321.26 <
-4 -18 2 2 72.63 -164.75 419.36 <
-3 -18 2 -2 19.02 169.10 123.53 <
-3 -18 2 -1 41.23 17.07 209.41 <
-3 -18 2 0 1188.67 1450.64 410.94 o
-3 -18 2 1 176.15 7.96 139.47 <
-3 -18 2 2 198.62 206.79 187.68 <
-2 -18 2 -2 481.09 124.60 97.81 <
-2 -18 2 -1 562.29 76.61 109.12 <
-2 -18 2 0 201.59 107.42 150.86 <
-2 18 2 1 36.59 177.55 213.75 <
-2 -18 2 1 39.53 190.04 150.03 <
-2 18 2 2 124.21 475.58 355.96 <
-2 -18 2 2 129.43 144.71 101.18 <
-1 18 2 -2 181.17 329.33 285.45 <
-1 -18 2 -2 219.41 -21.87 104.01 <
-1 -18 2 -1 36.85 41.18 101.88 <
-1 -18 2 0 3690.69 4298.13 465.33 o
-1 -18 2 1 265.14 478.60 197.79 <
-1 -18 2 2 312.26 425.98 191.27 <
0 -18 2 -2 154.57 66.09 110.88 <
0 -18 2 -1 346.83 214.21 147.86 <
0 -18 2 0 347.80 3.37 155.47 <
0 -18 2 1 27.64 90.48 123.81 <
0 -18 2 2 141.06 80.29 134.59 <
1 -18 2 -2 81.08 64.85 111.16 <
1 -18 2 -1 13.91 287.02 135.07 <
1 -18 2 0 4714.09 4850.99 478.44 o
1 -18 2 1 233.80 370.61 152.18 <
1 -18 2 2 439.97 579.63 210.84 <
2 -18 2 -2 196.14 179.79 134.97 <
2 -18 2 -1 130.82 258.21 153.29 <
2 -18 2 0 160.75 32.24 97.14 <
2 -18 2 1 69.69 8.04 115.38 <
2 -18 2 2 169.69 -91.27 120.51 <
3 -18 2 -2 5.24 21.68 131.21 <
3 -18 2 -1 72.18 30.91 129.38 <
3 -18 2 0 1719.38 1853.41 428.03 o
3 -18 2 1 98.24 236.19 141.66 <
3 -18 2 2 95.56 425.42 234.76 <
4 -18 2 -2 103.13 51.90 152.51 <
4 -18 2 -1 16.36 139.20 192.58 <
4 -18 2 0 24.70 201.30 148.47 <
4 -18 2 1 118.00 -438.05 352.41 <
-4 -19 2 1 46.46 -42.55 301.30 <
-4 -19 2 2 72.36 -63.51 208.58 <
-3 -19 2 -2 53.68 604.56 309.74 <
-3 -19 2 -1 181.04 587.91 294.83 <
-3 -19 2 0 242.13 471.53 247.56 <
-3 -19 2 1 9.88 455.90 211.84 <
-3 -19 2 2 4.37 -172.19 182.62 <
-2 -19 2 -2 213.52 355.57 184.47 <
-2 -19 2 -1 514.60 746.85 202.71 o
-2 -19 2 0 171.54 141.47 105.70 <
-2 19 2 1 288.05 29.31 246.95 <
-2 -19 2 1 279.67 76.35 84.46 <
-2 19 2 2 75.78 146.05 249.71 <
-2 -19 2 2 75.76 143.53 138.38 <
-1 19 2 -2 42.44 -115.01 147.14 <
-1 -19 2 -2 44.11 -75.40 105.05 <
-1 19 2 -1 393.01 399.55 355.17 <
-1 -19 2 -1 443.24 416.61 169.40 <
-1 -19 2 0 804.82 389.74 171.14 <
-1 -19 2 1 61.48 386.44 183.25 <
-1 -19 2 2 35.69 250.34 219.64 <
0 -19 2 -2 39.29 118.64 101.74 <
0 -19 2 -1 862.83 1070.57 294.54 o
0 -19 2 0 137.92 196.91 155.05 <
0 -19 2 1 928.29 1231.21 313.32 o
0 -19 2 2 100.20 152.25 148.96 <
1 -19 2 -2 47.25 27.17 141.82 <
1 -19 2 -1 341.80 194.36 148.51 <
1 -19 2 0 610.23 317.83 151.16 <
1 -19 2 1 789.93 542.77 166.07 o
1 -19 2 2 24.36 57.90 124.62 <
2 -19 2 -2 190.60 126.16 123.14 <
2 -19 2 -1 123.38 265.39 149.47 <
2 -19 2 0 33.52 141.66 128.14 <
2 -19 2 1 821.38 582.17 185.66 o
2 -19 2 2 107.94 81.88 78.03 <
3 -19 2 -2 26.57 -198.19 148.58 <
3 -19 2 -1 136.65 144.34 166.79 <
3 -19 2 0 146.85 -86.70 198.97 <
3 -19 2 1 103.55 133.01 212.88 <
3 -19 2 2 80.25 -188.30 174.86 <
4 -19 2 -2 139.28 289.84 163.73 <
4 -19 2 -1 9.34 6.63 357.30 <
4 -19 2 0 54.19 487.77 385.61 <
-4 -20 2 2 29.86 -111.25 152.97 <
-3 -20 2 -2 94.94 -161.20 262.02 <
-3 -20 2 -1 796.99 811.34 391.03 <
-3 -20 2 0 260.44 152.49 233.82 <
-3 -20 2 1 238.45 343.46 262.89 <
-3 -20 2 2 292.04 -75.77 198.10 <
-2 -20 2 -2 165.96 497.10 197.99 <
-2 -20 2 -1 635.91 681.61 191.66 o
-2 -20 2 0 74.62 216.97 100.40 <
-2 -20 2 1 28.56 103.16 153.73 <
-2 20 2 2 26.38 824.38 384.46 <
-2 -20 2 2 23.63 79.63 162.14 <
-1 -20 2 -2 129.37 333.80 143.47 <
-1 -20 2 -1 166.42 -54.42 79.68 <
-1 -20 2 0 557.36 112.66 127.10 <
-1 -20 2 1 867.86 499.49 213.12 <
-1 -20 2 2 411.08 504.12 240.34 <
0 -20 2 -2 142.32 258.24 216.27 <
0 -20 2 -1 512.84 813.58 270.47 o
0 -20 2 0 811.81 1285.28 321.15 o
0 -20 2 1 90.04 509.25 236.26 <
0 -20 2 2 55.84 141.70 188.84 <
1 -20 2 -2 3.58 205.03 155.49 <
1 -20 2 -1 679.33 504.67 219.71 <
1 -20 2 0 627.85 284.95 155.27 <
1 -20 2 1 595.73 341.68 156.90 <
1 -20 2 2 226.87 350.26 154.07 <
2 -20 2 -2 162.42 245.38 127.92 <
2 -20 2 -1 120.41 187.10 117.72 <
2 -20 2 0 186.28 258.36 187.38 <
2 -20 2 1 9.11 -13.44 102.92 <
2 -20 2 2 80.46 136.57 165.03 <
3 -20 2 -2 18.98 -190.49 176.14 <
3 -20 2 -1 88.60 61.40 104.38 <
3 -20 2 0 218.96 -95.29 188.84 <
3 -20 2 1 275.33 64.42 173.45 <
3 -20 2 2 28.18 157.81 141.20 <
4 -20 2 -2 64.57 275.26 249.78 <
4 -20 2 -1 29.66 86.38 172.82 <
-3 -21 2 -2 14.85 191.06 276.50 <
-3 -21 2 -1 98.01 241.89 335.82 <
-3 -21 2 0 406.04 208.10 207.04 <
-3 -21 2 1 62.45 104.99 170.38 <
-3 -21 2 2 70.10 -144.25 174.40 <
-2 -21 2 -2 309.22 61.85 137.16 <
-2 -21 2 -1 61.68 26.67 175.79 <
-2 -21 2 0 523.50 289.15 165.68 <
-2 -21 2 1 32.53 -199.45 135.42 <
-2 -21 2 2 439.93 205.19 161.68 <
-1 -21 2 -2 61.38 5.54 125.55 <
-1 -21 2 -1 518.04 427.46 153.75 <
-1 21 2 0 1265.05 1309.74 525.69 <
-1 -21 2 0 1248.55 1228.67 319.06 o
-1 -21 2 1 64.13 123.40 151.14 <
-1 -21 2 2 31.61 137.55 170.29 <
0 -21 2 -2 5.55 139.60 158.97 <
0 -21 2 -1 101.61 148.31 186.58 <
0 -21 2 0 1835.44 1625.71 384.16 o
0 -21 2 1 111.37 277.80 208.69 <
0 -21 2 2 288.27 222.65 162.25 <
1 -21 2 -2 20.00 255.84 208.99 <
1 -21 2 -1 40.77 248.76 183.88 <
1 -21 2 0 899.86 902.88 271.41 o
1 -21 2 1 29.52 60.07 126.01 <
1 -21 2 2 130.72 563.15 187.97 <
2 -21 2 -2 13.41 -74.35 119.81 <
2 -21 2 -1 29.30 97.22 139.84 <
2 -21 2 0 759.70 954.15 260.32 o
2 -21 2 1 35.26 132.51 149.55 <
2 -21 2 2 208.34 538.54 194.45 <
3 -21 2 -2 17.88 -173.14 127.12 <
3 -21 2 -1 8.83 -12.04 271.06 <
3 -21 2 0 163.52 -69.76 158.10 <
3 -21 2 1 30.57 250.02 293.35 <
3 -21 2 2 24.76 232.45 321.41 <
4 -21 2 -2 19.46 140.94 229.73 <
-3 -22 2 -1 577.65 203.95 174.34 <
-3 -22 2 0 100.96 128.97 102.83 <
-3 -22 2 1 72.97 -237.34 255.13 <
-3 -22 2 2 74.30 -236.39 242.76 <
-2 -22 2 -2 130.49 -53.22 131.23 <
-2 -22 2 -1 27.54 55.05 134.59 <
-2 -22 2 0 303.93 394.05 197.45 <
-2 -22 2 1 28.01 184.53 192.62 <
-2 -22 2 2 6.81 50.39 147.08 <
-1 -22 2 -2 22.76 148.36 161.05 <
-1 -22 2 -1 1300.54 927.71 286.30 o
-1 22 2 0 679.27 1239.86 570.34 <
-1 -22 2 0 648.65 409.22 226.95 <
-1 -22 2 1 369.41 298.58 167.16 <
-1 -22 2 2 26.39 184.01 140.86 <
0 -22 2 -2 225.41 314.00 207.80 <
0 -22 2 -1 85.92 515.67 219.49 <
0 -22 2 0 2771.39 3294.57 525.99 o
0 -22 2 1 22.46 502.95 249.32 <
0 -22 2 2 0.89 102.62 187.10 <
1 -22 2 -2 215.20 278.95 158.71 <
1 -22 2 -1 669.78 596.23 281.63 <
1 -22 2 0 525.16 966.50 316.33 o
1 -22 2 1 740.78 540.36 213.99 <
1 -22 2 2 44.25 168.38 117.22 <
2 -22 2 -2 213.59 76.92 144.36 <
2 -22 2 -1 37.70 111.46 133.71 <
2 -22 2 0 288.22 159.75 164.79 <
2 -22 2 1 29.88 215.19 181.32 <
2 -22 2 2 437.81 366.89 175.64 <
3 -22 2 -2 118.96 87.92 170.79 <
3 -22 2 -1 134.56 230.30 233.75 <
3 -22 2 0 67.89 177.38 303.43 <
3 -22 2 1 491.29 340.87 229.97 <
-3 -23 2 0 243.66 125.92 306.78 <
-3 -23 2 1 13.32 -212.77 274.76 <
-3 -23 2 2 24.59 17.05 105.59 <
-2 -23 2 -2 7.55 321.67 215.78 <
-2 -23 2 -1 168.92 7.43 115.61 <
-2 -23 2 0 294.72 -37.94 108.12 <
-2 -23 2 1 343.27 145.38 104.31 <
-2 -23 2 2 114.57 -6.81 127.71 <
-1 -23 2 -2 58.72 41.16 104.86 <
-1 -23 2 -1 70.57 229.69 175.97 <
-1 -23 2 0 307.07 362.41 201.12 <
-1 23 2 1 9.79 704.00 405.51 <
-1 -23 2 1 7.37 94.99 227.21 <
-1 -23 2 2 36.70 125.83 114.44 <
0 -23 2 -2 24.29 111.85 156.34 <
0 -23 2 -1 380.97 480.97 280.39 <
0 -23 2 0 1010.86 1209.38 369.79 o
0 -23 2 1 488.83 675.22 316.54 <
0 -23 2 2 184.84 -60.61 163.32 <
1 -23 2 -2 61.18 42.20 170.30 <
1 -23 2 -1 77.48 131.59 179.84 <
1 -23 2 0 312.72 205.99 168.93 <
1 -23 2 1 30.62 -50.26 80.24 <
1 -23 2 2 81.91 141.40 203.58 <
2 -23 2 -2 14.25 -9.59 116.01 <
2 -23 2 -1 107.47 32.46 152.10 <
2 -23 2 0 422.00 304.20 144.46 <
2 -23 2 1 410.95 -21.20 111.55 <
2 -23 2 2 56.26 -99.96 142.03 <
3 -23 2 -2 74.53 71.03 198.54 <
3 -23 2 -1 4.56 83.72 212.77 <
-2 -24 2 -1 161.65 184.95 228.21 <
-2 -24 2 0 317.42 108.09 131.42 <
-2 -24 2 1 16.90 113.14 129.36 <
-2 -24 2 2 38.85 -169.43 187.23 <
-1 -24 2 -2 144.80 375.68 266.71 <
-1 -24 2 -1 384.99 582.15 280.28 <
-1 -24 2 0 202.65 -27.37 137.16 <
-1 -24 2 1 110.44 -67.05 134.36 <
-1 -24 2 2 177.82 157.75 126.51 <
0 -24 2 -2 32.05 407.09 250.39 <
0 -24 2 -1 157.98 -152.27 174.43 <
0 -24 2 0 723.12 863.95 329.43 <
0 -24 2 1 75.68 119.88 241.76 <
0 -24 2 2 2.92 148.05 217.75 <
1 -24 2 -2 126.68 -84.03 104.51 <
1 -24 2 -1 17.29 -79.85 110.66 <
1 -24 2 0 191.23 21.44 186.30 <
1 -24 2 1 325.16 300.39 205.47 <
1 -24 2 2 97.65 235.71 165.99 <
2 -24 2 -2 97.21 87.66 142.73 <
2 -24 2 -1 53.11 403.64 194.12 <
2 -24 2 0 150.18 110.33 224.75 <
2 -24 2 1 5.15 261.87 218.73 <
2 -24 2 2 31.21 -55.85 128.14 <
-2 -25 2 0 108.77 -116.40 120.68 <
-2 -25 2 1 234.65 168.10 281.89 <
-2 -25 2 2 95.35 333.20 179.68 <
-1 -25 2 -2 185.23 535.36 355.57 <
-1 -25 2 -1 21.14 52.05 239.19 <
-1 -25 2 0 112.89 33.09 161.90 <
-1 -25 2 1 51.00 -27.37 224.90 <
-1 -25 2 2 20.34 -231.41 128.03 <
0 -25 2 -2 97.05 -80.05 161.99 <
0 -25 2 -1 373.63 63.81 115.94 <
0 -25 2 0 412.03 277.84 188.84 <
0 -25 2 1 340.49 -15.22 180.92 <
0 -25 2 2 73.25 -23.85 147.90 <
1 -25 2 -2 302.59 294.00 241.10 <
1 -25 2 -1 15.45 50.98 144.16 <
1 -25 2 0 129.92 231.45 237.34 <
1 -25 2 1 159.17 123.20 186.14 <
2 -25 2 -2 38.40 -75.50 201.17 <
-6 0 3 0 30.11 152.14 337.22 <
-6 0 3 1 166.93 326.43 332.15 <
-6 0 3 2 6.57 278.63 245.62 <
-5 0 3 -2 127.94 -17.65 212.97 <
-5 0 3 -1 235.22 443.86 331.52 <
-5 0 3 0 846.22 1110.72 319.63 o
-5 0 3 1 73.10 124.36 130.53 <
-5 0 3 2 332.02 350.30 159.10 <
-4 0 3 -2 55.53 66.09 195.88 <
-4 0 3 -1 2.64 190.77 125.47 <
-4 0 3 0 22.24 -1.19 129.35 <
-4 0 3 1 37.06 26.28 96.48 <
-4 0 3 2 94.26 60.20 82.33 <
-3 0 3 -2 169.80 328.76 143.01 <
-3 0 3 -1 588.11 643.83 156.66 o
-3 0 3 0 2976.19 2731.33 316.06 o
-3 0 3 1 809.39 1318.26 218.97 o
-3 0 3 2 251.93 117.20 89.51 <
-2 0 3 -2 85.41 73.85 81.09 <
-2 0 3 -1 15.31 -27.15 49.61 <
-2 0 3 0 63.76 99.70 66.20 <
-2 0 3 1 59.43 28.87 89.12 <
-2 0 3 2 254.40 7.37 47.96 <
-1 0 3 -2 5.74 26.31 45.55 <
-1 0 3 -1 31523.20 36526.60 781.75 o
-1 0 3 0 2004.75 2128.92 185.84 o
-1 0 3 1 336.40 416.14 68.44 o
-1 0 3 2 65.32 63.27 31.54 <
0 0 3 -2 30.52 -8.04 21.81 <
0 0 3 -1 49.92 21.20 25.41 <
0 0 3 0 220.69 155.20 66.13 <
0 0 3 1 582.45 -2.28 68.90 <
0 0 3 2 11.73 99.85 57.26 <
1 0 3 -2 191.31 212.75 95.96 <
1 0 3 -1 148.06 227.38 112.07 <
1 0 3 0 3752.24 3706.13 378.50 o
1 0 3 1 13364.40 14679.00 807.10 o
1 0 3 2 430.26 642.89 209.84 o
2 0 3 -2 2.64 11.55 81.79 <
2 0 3 -1 202.11 149.57 115.46 <
2 0 3 0 224.08 -98.44 126.73 <
2 0 3 1 322.07 -123.12 53.65 <
2 0 3 2 274.04 208.06 129.68 <
3 0 3 -2 72.92 264.47 136.73 <
3 0 3 -1 605.13 1335.39 243.28 o
3 0 3 0 9271.69 11140.70 694.52 o
3 0 3 1 840.45 610.65 181.27 o
3 0 3 2 14.46 191.32 145.88 <
4 0 3 -2 15.29 227.97 160.75 <
4 0 3 -1 38.62 106.22 134.29 <
4 0 3 0 76.70 95.72 150.71 <
4 0 3 1 165.42 111.27 161.34 <
4 0 3 2 98.70 114.85 178.73 <
5 0 3 -2 10.82 128.01 124.96 <
5 0 3 -1 0.25 256.86 175.64 <
5 0 3 0 3458.47 2736.88 487.60 o
5 0 3 1 2.83 215.41 187.58 <
5 0 3 2 470.43 -69.03 139.03 <
6 0 3 -2 41.01 22.83 162.58 <
6 0 3 -1 34.51 37.59 167.49 <
-6 1 3 0 99.92 -165.45 296.58 <
-6 -1 3 0 103.07 461.55 364.22 <
-6 1 3 1 137.48 320.72 356.68 <
-6 -1 3 1 131.64 65.26 120.70 <
-6 1 3 2 72.46 -181.19 291.32 <
-6 -1 3 2 77.43 84.25 199.40 <
-5 1 3 -2 511.65 103.83 271.37 <
-5 -1 3 -2 508.66 488.29 289.60 <
-5 1 3 -1 13.82 218.01 121.18 <
-5 -1 3 -1 12.95 68.98 276.74 <
-5 1 3 0 2280.88 2115.03 381.48 o
-5 -1 3 0 2271.61 2172.62 411.79 o
-5 1 3 1 606.12 809.77 268.47 o
-5 -1 3 1 604.48 382.27 166.29 <
-5 1 3 2 91.12 22.00 93.18 <
-5 -1 3 2 93.00 121.55 159.38 <
-4 1 3 -2 47.54 -131.20 80.75 <
-4 -1 3 -2 45.06 180.95 154.51 <
-4 1 3 -1 21.87 71.96 69.14 <
-4 -1 3 -1 22.17 122.18 122.38 <
-4 1 3 0 604.28 732.52 188.47 o
-4 -1 3 0 627.11 984.33 250.23 o
-4 1 3 1 289.16 329.72 140.81 <
-4 -1 3 1 276.60 483.16 178.47 <
-4 1 3 2 84.72 -49.98 54.57 <
-4 -1 3 2 90.59 193.17 162.08 <
-3 1 3 -2 1079.86 805.77 200.84 o
-3 -1 3 -2 1075.17 840.06 197.41 o
-3 1 3 -1 145.10 118.79 82.46 <
-3 -1 3 -1 136.97 266.06 110.40 <
-3 1 3 0 9811.19 10406.30 618.87 o
-3 -1 3 0 9878.05 10176.10 624.28 o
-3 1 3 1 1107.60 559.54 163.18 o
-3 -1 3 1 1114.64 661.30 174.47 o
-3 1 3 2 42.73 35.05 92.14 <
-3 -1 3 2 42.75 78.25 42.37 <
-2 1 3 -2 70.86 67.68 75.11 <
-2 -1 3 -2 72.00 105.24 73.16 <
-2 1 3 -1 8.33 49.53 28.94 <
-2 -1 3 -1 11.89 -10.20 60.07 <
-2 1 3 0 3268.24 3385.89 292.80 o
-2 -1 3 0 3307.09 3260.26 207.10 o
-2 1 3 1 102.38 190.97 70.59 <
-2 -1 3 1 99.02 169.23 60.48 <
-2 1 3 2 26.96 3.81 57.52 <
-2 -1 3 2 27.44 -1.24 52.53 <
-1 1 3 -2 842.21 709.41 121.75 o
-1 -1 3 -2 828.30 783.07 127.62 o
-1 1 3 -1 200.50 249.84 63.40 o
-1 -1 3 -1 215.10 361.48 87.29 o
-1 1 3 0 28014.50 30479.90 675.85 o
-1 -1 3 0 28058.10 29784.20 692.94 o
-1 1 3 1 1432.68 1427.79 141.10 o
-1 -1 3 1 1460.58 1477.64 134.90 o
-1 1 3 2 10.56 14.24 44.65 <
-1 -1 3 2 12.43 18.44 42.90 <
0 1 3 -2 81.15 120.70 47.90 <
0 -1 3 -2 84.79 158.95 52.61 o
0 1 3 -1 297.97 290.93 57.16 o
0 -1 3 -1 304.67 290.60 55.55 o
0 1 3 0 3650.69 3863.36 248.19 o
0 -1 3 0 3667.24 3704.37 247.69 o
0 1 3 1 161.47 66.94 57.94 <
0 -1 3 1 157.59 157.23 75.92 <
0 1 3 2 64.57 46.96 58.55 <
0 -1 3 2 67.78 54.85 64.13 <
1 1 3 -2 27.62 147.55 78.61 <
1 -1 3 -2 24.03 47.18 41.74 <
1 1 3 -1 820.60 1201.40 202.30 o
1 -1 3 -1 822.23 1005.91 198.62 o
1 1 3 0 22830.70 22198.00 889.60 o
1 -1 3 0 22837.50 22339.90 927.78 o
1 1 3 1 1690.78 1408.55 254.39 o
1 -1 3 1 1734.35 1597.21 285.10 o
1 1 3 2 121.07 80.37 109.42 <
1 -1 3 2 113.44 70.03 59.03 <
2 1 3 -2 420.23 347.52 144.64 <
2 -1 3 -2 432.33 517.84 123.97 o
2 1 3 -1 1010.17 1131.08 263.71 o
2 -1 3 -1 1006.17 1119.07 179.38 o
2 1 3 0 4353.24 4611.87 506.27 o
2 -1 3 0 4437.24 4598.22 364.98 o
2 1 3 1 584.28 545.93 231.95 <
2 -1 3 1 596.03 836.80 183.75 o
2 1 3 2 365.85 266.95 179.73 <
2 -1 3 2 322.80 510.42 157.31 o
3 1 3 -2 195.85 315.22 205.08 <
3 -1 3 -2 196.88 133.92 109.09 <
3 1 3 -1 1240.01 1268.93 248.01 o
3 -1 3 -1 1258.93 1225.86 233.06 o
3 1 3 0 6418.26 7083.59 552.80 o
3 -1 3 0 6432.86 6595.85 531.64 o
3 1 3 1 423.08 478.57 172.69 <
3 -1 3 1 370.88 316.45 143.09 <
3 1 3 2 47.91 240.60 173.40 <
3 -1 3 2 50.81 176.62 132.79 <
4 1 3 -2 168.93 220.90 156.03 <
4 -1 3 -2 169.26 312.96 185.23 <
4 1 3 -1 608.94 406.90 168.05 <
4 -1 3 -1 600.79 393.76 177.30 <
4 1 3 0 1260.10 1409.83 290.00 o
4 -1 3 0 1330.79 1634.69 326.67 o
4 1 3 1 554.26 423.20 190.41 <
4 -1 3 1 559.91 450.57 190.47 <
4 1 3 2 536.16 307.45 168.01 <
4 -1 3 2 543.37 561.27 197.62 <
5 1 3 -2 193.36 -61.39 125.20 <
5 -1 3 -2 210.31 158.53 182.18 <
5 1 3 -1 679.31 564.62 249.63 <
5 -1 3 -1 708.90 625.35 246.45 <
5 1 3 0 1249.67 1263.52 351.05 o
5 -1 3 0 1276.81 1308.54 355.92 o
5 1 3 1 40.79 -92.55 137.73 <
5 -1 3 1 41.00 -168.71 117.55 <
5 1 3 2 18.10 -262.78 201.38 <
5 -1 3 2 16.68 54.42 156.64 <
6 1 3 -2 43.22 -139.81 111.94 <
6 -1 3 -2 41.94 -152.82 202.40 <
6 1 3 -1 305.14 221.75 183.97 <
6 -1 3 -1 297.26 573.10 275.30 <
6 1 3 0 353.52 100.44 248.28 <
-6 2 3 0 431.25 -81.94 174.32 <
-6 2 3 1 307.06 366.42 338.39 <
-6 -2 3 1 303.53 546.40 375.55 <
-6 2 3 2 64.60 278.11 310.45 <
-6 -2 3 2 63.96 235.95 228.23 <
-5 2 3 -2 36.10 58.61 198.73 <
-5 -2 3 -2 34.81 -27.09 226.32 <
-5 2 3 -1 260.05 119.20 207.60 <
-5 -2 3 -1 274.89 793.86 439.81 <
-5 2 3 0 196.94 -1.35 101.09 <
-5 -2 3 0 211.65 273.97 234.43 <
-5 2 3 1 57.10 51.31 143.99 <
-5 -2 3 1 62.26 303.41 198.86 <
-5 2 3 2 61.60 153.92 124.01 <
-5 -2 3 2 68.86 10.28 85.24 <
-4 2 3 -2 716.29 541.16 196.30 <
-4 -2 3 -2 729.01 659.07 214.36 o
-4 2 3 -1 129.27 331.98 139.05 <
-4 -2 3 -1 127.83 26.37 102.48 <
-4 2 3 0 397.85 52.33 87.42 <
-4 -2 3 0 420.86 142.25 146.92 <
-4 2 3 1 389.53 262.48 132.99 <
-4 -2 3 1 372.80 237.84 143.79 <
-4 2 3 2 61.43 81.35 88.16 <
-4 -2 3 2 58.30 83.62 131.90 <
-3 2 3 -2 68.18 20.76 118.77 <
-3 -2 3 -2 63.47 78.83 121.57 <
-3 2 3 -1 133.29 14.96 102.38 <
-3 -2 3 -1 107.83 156.32 106.05 <
-3 2 3 0 586.91 707.92 179.51 o
-3 -2 3 0 624.09 702.48 182.34 o
-3 2 3 1 122.25 319.72 125.86 <
-3 -2 3 1 143.42 238.63 87.46 <
-3 2 3 2 106.41 10.78 56.39 <
-3 -2 3 2 114.69 57.26 63.31 <
-2 2 3 -2 1310.42 1361.78 200.80 o
-2 -2 3 -2 1263.53 1346.05 146.86 o
-2 2 3 -1 256.33 380.92 104.66 o
-2 -2 3 -1 259.88 497.93 93.29 o
-2 2 3 0 252.28 221.23 84.81 <
-2 -2 3 0 270.21 265.45 69.29 o
-2 2 3 1 124.29 38.31 52.09 <
-2 -2 3 1 119.08 24.31 51.90 <
-2 2 3 2 79.98 24.24 48.42 <
-2 -2 3 2 81.47 70.96 57.94 <
-1 2 3 -2 89.64 58.52 61.53 <
-1 -2 3 -2 81.96 -44.72 32.05 <
-1 2 3 -1 6626.67 7479.21 351.57 o
-1 -2 3 -1 6644.28 7295.09 366.37 o
-1 2 3 0 2276.25 2661.09 201.43 o
-1 -2 3 0 2299.72 2540.78 210.99 o
-1 2 3 1 71.55 95.24 49.96 <
-1 -2 3 1 69.00 164.73 67.13 <
-1 2 3 2 161.10 -0.44 37.22 <
-1 -2 3 2 161.10 95.98 52.24 <
0 2 3 -2 94.39 -159.16 52.63 <
0 -2 3 -2 91.04 59.00 31.87 <
0 2 3 -1 116.36 124.27 44.48 <
0 -2 3 -1 120.00 133.42 40.46 o
0 2 3 0 476.54 444.49 94.59 o
0 -2 3 0 462.89 379.61 76.50 o
0 2 3 1 1798.57 2167.80 204.65 o
0 -2 3 1 1794.79 1981.87 155.01 o
0 2 3 2 244.39 152.55 79.74 <
0 -2 3 2 248.44 53.37 42.40 <
1 2 3 -2 152.25 242.08 78.40 o
1 -2 3 -2 162.05 173.01 35.79 o
1 2 3 -1 26.28 232.36 105.05 <
1 -2 3 -1 25.09 40.96 30.79 <
1 2 3 0 2295.29 2986.44 323.67 o
1 -2 3 0 2332.03 2769.75 142.20 o
1 2 3 1 3071.69 3187.56 371.72 o
1 -2 3 1 3063.09 3497.32 193.40 o
1 2 3 2 248.68 265.32 155.99 <
1 -2 3 2 249.16 213.52 58.11 o
2 2 3 -2 115.47 195.38 130.03 <
2 -2 3 -2 113.79 100.16 57.05 <
2 2 3 -1 88.47 69.48 111.05 <
2 -2 3 -1 91.39 12.52 61.96 <
2 2 3 0 127.65 171.18 102.96 <
2 -2 3 0 150.29 45.87 43.37 <
2 2 3 1 1709.48 1783.47 338.74 o
2 -2 3 1 1718.83 2002.70 265.04 o
2 2 3 2 4532.37 4420.27 570.41 o
2 -2 3 2 4530.09 4604.30 414.01 o
3 2 3 -2 259.12 217.36 216.06 <
3 -2 3 -2 266.25 137.49 107.20 <
3 2 3 -1 131.33 550.36 239.67 <
3 -2 3 -1 128.69 266.19 125.57 <
3 2 3 0 1031.99 1486.53 360.67 o
3 -2 3 0 1057.58 1432.57 258.58 o
3 2 3 1 482.17 560.04 269.69 <
3 -2 3 1 444.19 412.96 163.42 <
3 2 3 2 199.04 77.63 119.57 <
3 -2 3 2 198.33 99.24 111.33 <
4 2 3 -2 218.61 286.06 185.82 <
4 -2 3 -2 211.61 202.97 188.56 <
4 2 3 -1 338.14 240.95 158.68 <
4 -2 3 -1 345.46 292.58 131.57 <
4 2 3 0 343.50 413.85 199.56 <
4 -2 3 0 369.66 179.68 134.14 <
4 2 3 1 637.93 879.32 266.04 o
4 -2 3 1 653.65 481.49 202.32 <
4 2 3 2 129.21 172.32 196.95 <
4 -2 3 2 132.23 -202.65 158.68 <
5 2 3 -2 137.98 499.23 252.00 <
5 -2 3 -2 140.53 74.48 190.93 <
5 2 3 -1 212.07 132.77 132.97 <
5 -2 3 -1 208.36 -82.83 154.68 <
5 2 3 0 470.95 229.32 220.67 <
5 -2 3 0 481.78 127.58 100.29 <
5 2 3 1 135.46 343.98 204.97 <
5 -2 3 1 137.38 108.62 138.46 <
5 2 3 2 157.99 -3.46 212.06 <
5 -2 3 2 162.86 432.72 219.23 <
6 2 3 -2 158.17 -109.03 158.71 <
6 -2 3 -2 146.88 514.45 296.22 <
6 2 3 -1 389.18 494.49 250.41 <
6 -2 3 -1 389.56 467.31 272.32 <
6 2 3 0 228.10 293.46 292.08 <
-6 3 3 0 106.44 390.94 365.72 <
-6 3 3 1 20.23 296.17 356.80 <
-6 -3 3 1 20.79 -62.92 234.49 <
-6 3 3 2 134.93 -251.52 184.80 <
-6 -3 3 2 139.88 60.20 236.36 <
-5 3 3 -2 71.25 -187.45 222.97 <
-5 -3 3 -2 71.15 70.96 309.02 <
-5 3 3 -1 37.84 -153.45 172.62 <
-5 -3 3 -1 36.96 -77.24 97.61 <
-5 3 3 0 684.39 663.41 293.00 <
-5 -3 3 0 676.50 556.51 227.99 <
-5 3 3 1 132.13 -92.72 109.01 <
-5 -3 3 1 127.57 48.37 139.51 <
-5 3 3 2 83.05 65.13 128.44 <
-5 -3 3 2 82.09 88.85 179.64 <
-4 3 3 -2 412.44 132.94 124.03 <
-4 -3 3 -2 412.70 437.86 284.15 <
-4 3 3 -1 128.99 121.90 128.51 <
-4 -3 3 -1 124.86 24.00 80.33 <
-4 3 3 0 1234.39 1643.26 287.95 o
-4 -3 3 0 1214.90 1837.79 340.05 o
-4 3 3 1 6.22 -16.17 66.29 <
-4 -3 3 1 8.57 41.26 110.96 <
-4 3 3 2 205.55 215.71 127.42 <
-4 -3 3 2 211.06 240.58 118.79 <
-3 3 3 -2 59.35 43.65 94.44 <
-3 -3 3 -2 60.78 -7.48 74.66 <
-3 3 3 -1 79.22 273.32 153.42 <
-3 -3 3 -1 72.79 185.69 118.97 <
-3 3 3 0 960.88 1189.66 229.10 o
-3 -3 3 0 959.04 1136.05 215.27 o
-3 3 3 1 31.54 65.09 78.20 <
-3 -3 3 1 28.82 50.03 53.29 <
-3 3 3 2 110.89 136.70 104.01 <
-3 -3 3 2 118.52 9.63 44.03 <
-2 3 3 -2 3781.44 4111.51 347.85 o
-2 -3 3 -2 3821.07 3830.38 253.28 o
-2 3 3 -1 569.10 593.23 99.75 o
-2 -3 3 -1 556.01 705.13 107.79 o
-2 3 3 0 1625.81 2178.67 238.41 o
-2 -3 3 0 1614.03 1821.53 171.07 o
-2 3 3 1 76.42 208.54 69.33 o
-2 -3 3 1 74.52 252.93 76.85 o
-2 3 3 2 257.16 220.38 76.68 <
-2 -3 3 2 248.68 219.54 81.70 <
-1 3 3 -2 31.87 92.33 55.27 <
-1 -3 3 -2 31.33 2.94 27.48 <
-1 3 3 -1 837.12 913.58 189.16 o
-1 -3 3 -1 847.17 984.83 109.74 o
-1 3 3 0 166.76 263.15 145.20 <
-1 -3 3 0 178.31 175.12 54.02 o
-1 3 3 1 431.95 267.17 142.75 <
-1 -3 3 1 422.14 417.16 69.14 o
-1 3 3 2 43.36 138.10 62.90 <
-1 -3 3 2 51.64 9.74 39.55 <
0 3 3 -2 174.18 133.94 93.81 <
0 -3 3 -2 171.29 84.66 36.33 <
0 3 3 -1 696.00 774.77 87.64 o
0 -3 3 -1 685.45 766.90 85.81 o
0 3 3 0 48701.30 51710.00 907.04 o
0 -3 3 0 48645.70 51416.70 676.52 o
0 3 3 1 919.08 948.28 106.61 o
0 -3 3 1 938.83 1082.05 93.88 o
0 3 3 2 16.93 121.96 98.46 <
0 -3 3 2 17.49 55.44 42.52 <
1 3 3 -2 206.85 161.36 43.79 o
1 -3 3 -2 205.68 175.92 38.41 o
1 3 3 -1 75.95 208.64 100.22 <
1 -3 3 -1 76.78 68.64 49.87 <
1 3 3 0 112.90 201.65 101.88 <
1 -3 3 0 150.77 165.45 46.61 o
1 3 3 1 3459.93 4059.16 401.02 o
1 -3 3 1 3539.17 3802.77 183.66 o
1 3 3 2 54.28 -32.07 76.57 <
1 -3 3 2 60.87 37.63 39.50 <
2 3 3 -2 88.85 116.35 64.37 <
2 -3 3 -2 85.82 102.61 44.85 <
2 3 3 -1 294.38 472.03 174.32 <
2 -3 3 -1 281.10 256.71 59.52 o
2 3 3 0 3282.15 3735.88 447.68 o
2 -3 3 0 3249.25 3326.31 249.08 o
2 3 3 1 689.86 985.69 237.04 o
2 -3 3 1 694.41 840.14 174.68 o
2 3 3 2 1818.62 1738.72 361.68 o
2 -3 3 2 1828.15 1935.28 279.73 o
3 3 3 -2 452.21 607.13 232.60 <
3 -3 3 -2 443.15 420.11 158.14 <
3 3 3 -1 144.29 218.95 184.18 <
3 -3 3 -1 155.43 13.24 78.33 <
3 3 3 0 274.83 384.05 191.58 <
3 -3 3 0 310.52 33.72 74.46 <
3 3 3 1 355.39 399.52 262.73 <
3 -3 3 1 321.21 97.36 109.47 <
3 3 3 2 271.10 433.05 201.21 <
3 -3 3 2 274.41 278.98 162.07 <
4 3 3 -2 7.44 545.16 208.64 <
4 -3 3 -2 9.76 81.03 71.87 <
4 3 3 -1 12.15 437.85 205.71 <
4 -3 3 -1 11.23 214.15 155.29 <
4 3 3 0 2988.64 3466.77 463.12 o
4 -3 3 0 3000.50 3469.66 472.53 o
4 3 3 1 553.15 642.17 237.43 <
4 -3 3 1 543.34 337.57 158.16 <
4 3 3 2 122.65 292.00 226.78 <
4 -3 3 2 100.01 82.07 111.53 <
5 3 3 -2 416.05 481.53 239.17 <
5 -3 3 -2 401.88 535.08 242.97 <
5 3 3 -1 83.50 405.53 221.06 <
5 -3 3 -1 84.50 480.12 231.36 <
5 3 3 0 226.02 408.96 253.62 <
5 -3 3 0 237.85 217.40 210.77 <
5 3 3 1 55.99 -17.80 166.18 <
5 -3 3 1 57.78 361.17 205.23 <
5 3 3 2 110.92 465.90 300.43 <
5 -3 3 2 121.63 175.62 227.10 <
6 3 3 -2 12.31 -24.87 102.68 <
6 -3 3 -2 13.44 54.37 187.18 <
6 3 3 -1 28.57 354.50 221.30 <
6 -3 3 -1 25.55 359.11 215.04 <
6 3 3 0 650.65 380.14 250.26 <
-6 4 3 1 225.68 -27.76 159.58 <
-6 -4 3 1 219.37 61.40 221.64 <
-6 4 3 2 109.89 -276.71 291.37 <
-6 -4 3 2 110.19 104.35 206.19 <
-5 4 3 -2 24.97 -126.18 288.48 <
-5 -4 3 -2 26.54 236.25 338.61 <
-5 4 3 -1 53.26 169.14 168.99 <
-5 -4 3 -1 54.30 339.52 415.09 <
-5 4 3 0 152.35 -208.14 186.75 <
-5 -4 3 0 153.84 1008.74 462.58 <
-5 4 3 1 155.79 44.89 145.42 <
-5 -4 3 1 161.03 65.40 131.84 <
-5 4 3 2 25.07 104.46 105.14 <
-5 -4 3 2 24.18 19.85 96.48 <
-4 4 3 -2 405.79 -50.55 102.88 <
-4 -4 3 -2 406.21 259.93 236.76 <
-4 4 3 -1 196.32 9.46 131.07 <
-4 -4 3 -1 191.46 -118.23 65.59 <
-4 4 3 0 11281.60 10887.50 757.07 o
-4 -4 3 0 11379.50 10339.10 768.57 o
-4 4 3 1 399.03 230.13 135.47 <
-4 -4 3 1 383.60 232.54 120.20 <
-4 4 3 2 284.75 141.01 102.86 <
-4 -4 3 2 285.05 254.26 159.47 <
-3 4 3 -2 42.85 102.48 105.29 <
-3 -4 3 -2 45.10 29.74 85.92 <
-3 4 3 -1 35.62 101.94 102.96 <
-3 -4 3 -1 46.52 79.35 75.42 <
-3 4 3 0 327.82 128.57 115.12 <
-3 -4 3 0 329.81 145.38 74.79 <
-3 4 3 1 230.50 452.86 149.36 o
-3 -4 3 1 238.98 374.55 105.14 o
-3 4 3 2 47.02 28.78 95.22 <
-3 -4 3 2 41.23 76.31 74.24 <
-2 4 3 -2 1151.61 849.95 211.32 o
-2 -4 3 -2 1116.66 797.33 127.18 o
-2 4 3 -1 170.89 196.84 112.42 <
-2 -4 3 -1 169.69 97.74 43.03 <
-2 4 3 0 40412.70 41884.70 1458.83 o
-2 -4 3 0 40509.40 40405.90 654.67 o
-2 4 3 1 577.90 904.34 232.93 o
-2 -4 3 1 573.45 607.97 84.75 o
-2 4 3 2 655.76 734.02 228.54 o
-2 -4 3 2 657.73 600.85 101.83 o
-1 4 3 -2 36.09 -6.63 72.50 <
-1 -4 3 -2 38.31 13.98 30.22 <
-1 4 3 -1 2880.70 3006.85 359.80 o
-1 -4 3 -1 2888.78 3026.63 166.47 o
-1 4 3 0 153.85 52.18 75.74 <
-1 -4 3 0 153.53 11.54 37.68 <
-1 4 3 1 7.54 20.44 75.81 <
-1 -4 3 1 7.55 63.64 46.24 <
-1 4 3 2 10.20 64.26 85.38 <
-1 -4 3 2 8.30 8.70 45.63 <
0 4 3 -2 260.92 125.40 95.38 <
0 -4 3 -2 266.93 100.48 32.52 o
0 4 3 -1 379.62 619.78 141.64 o
0 -4 3 -1 373.30 296.37 47.57 o
0 4 3 0 58483.30 59306.70 1252.69 o
0 -4 3 0 58434.90 59340.40 658.41 o
0 4 3 1 2251.16 2710.68 296.69 o
0 -4 3 1 2251.51 2579.08 147.88 o
0 4 3 2 308.59 193.82 65.09 <
0 -4 3 2 325.57 204.08 44.79 o
1 4 3 -2 18.48 52.00 27.72 <
1 -4 3 -2 18.22 27.89 33.83 <
1 4 3 -1 94.68 200.75 108.83 <
1 -4 3 -1 92.32 123.62 54.40 <
1 4 3 0 148.20 162.34 87.00 <
1 -4 3 0 153.93 177.80 67.18 <
1 4 3 1 390.60 338.31 131.60 <
1 -4 3 1 388.69 230.32 64.59 o
1 4 3 2 149.64 76.29 74.18 <
1 -4 3 2 164.27 100.99 58.85 <
2 4 3 -2 237.18 217.75 125.40 <
2 -4 3 -2 242.76 174.66 60.64 <
2 4 3 -1 745.51 742.85 190.97 o
2 -4 3 -1 751.72 694.18 115.99 o
2 4 3 0 28996.20 28920.60 1222.10 o
2 -4 3 0 29084.90 30064.90 748.92 o
2 4 3 1 1349.23 1540.95 316.28 o
2 -4 3 1 1313.49 1693.74 190.01 o
2 4 3 2 287.46 132.99 98.77 <
2 -4 3 2 302.30 176.43 104.51 <
3 4 3 -2 7.86 -98.57 109.77 <
3 -4 3 -2 7.36 14.85 46.48 <
3 4 3 -1 238.49 449.07 247.99 <
3 -4 3 -1 227.69 503.64 154.62 o
3 4 3 0 430.59 302.74 192.41 <
3 -4 3 0 447.96 176.30 93.85 <
3 4 3 1 182.96 159.55 129.21 <
3 -4 3 1 172.71 221.28 127.03 <
3 4 3 2 90.94 68.03 81.44 <
3 -4 3 2 86.03 268.67 158.86 <
4 4 3 -2 426.29 116.36 177.30 <
4 -4 3 -2 455.17 314.69 168.90 <
4 4 3 -1 600.15 578.30 273.41 <
4 -4 3 -1 632.79 542.71 224.30 <
4 4 3 0 5349.22 4843.93 540.82 o
4 -4 3 0 5391.11 4705.42 544.51 o
4 4 3 1 467.67 435.36 191.79 <
4 -4 3 1 456.15 896.97 266.56 o
4 4 3 2 194.10 217.95 165.68 <
4 -4 3 2 176.52 524.80 239.45 <
5 4 3 -2 62.23 160.57 174.49 <
5 -4 3 -2 62.67 164.75 146.99 <
5 4 3 -1 169.34 248.60 175.18 <
5 -4 3 -1 163.01 270.80 216.95 <
5 4 3 0 61.06 130.75 185.66 <
5 -4 3 0 64.64 224.99 220.78 <
5 4 3 1 55.20 407.51 269.60 <
5 -4 3 1 52.66 -0.56 161.03 <
5 4 3 2 216.63 388.79 273.80 <
5 -4 3 2 204.39 308.09 261.48 <
6 4 3 -2 173.24 -306.00 177.71 <
6 -4 3 -2 198.10 210.49 201.91 <
6 4 3 -1 321.50 276.50 214.10 <
6 -4 3 -1 342.33 469.57 253.54 <
6 4 3 0 823.33 571.60 258.17 <
-6 5 3 1 25.40 138.07 177.45 <
-6 -5 3 1 25.99 -177.05 127.27 <
-6 5 3 2 88.46 390.83 293.17 <
-6 -5 3 2 84.93 155.97 273.11 <
-5 5 3 -2 115.89 -359.59 319.74 <
-5 -5 3 -2 117.13 -144.40 213.51 <
-5 5 3 -1 97.12 232.02 239.36 <
-5 -5 3 -1 96.83 91.55 163.88 <
-5 5 3 0 264.73 -243.75 237.97 <
-5 -5 3 0 264.53 284.26 194.41 <
-5 5 3 1 71.25 109.09 157.84 <
-5 -5 3 1 71.30 -116.14 94.55 <
-5 5 3 2 99.06 6.06 134.75 <
-5 -5 3 2 99.74 165.49 173.27 <
-4 5 3 -2 434.15 305.76 152.64 <
-4 -5 3 -2 445.98 320.15 258.04 <
-4 5 3 -1 167.73 -22.92 68.09 <
-4 5 3 0 341.70 242.39 155.97 <
-4 -5 3 0 379.32 570.52 224.54 <
-4 5 3 1 168.67 335.61 166.71 <
-4 -5 3 1 173.33 176.80 145.92 <
-4 5 3 2 184.51 217.32 143.42 <
-4 -5 3 2 186.23 344.94 151.38 <
-3 5 3 -2 193.56 89.07 117.46 <
-3 -5 3 -2 205.70 199.40 140.38 <
-3 5 3 -1 473.15 745.11 189.25 o
-3 -5 3 -1 493.33 560.82 186.64 o
-3 5 3 0 546.29 518.51 165.10 o
-3 -5 3 0 541.14 263.48 77.42 o
-3 5 3 1 114.54 478.34 176.32 <
-3 -5 3 1 121.18 232.28 94.37 <
-3 5 3 2 122.24 210.29 100.81 <
-3 -5 3 2 118.18 97.12 64.07 <
-2 5 3 -2 5095.31 5191.41 519.54 o
-2 -5 3 -2 5090.05 5096.36 253.38 o
-2 5 3 -1 288.89 136.16 80.50 <
-2 -5 3 -1 301.21 142.82 49.35 <
-2 5 3 0 15484.90 14091.40 864.30 o
-2 -5 3 0 15681.20 15093.20 424.07 o
-2 5 3 1 491.15 375.77 181.92 <
-2 -5 3 1 504.31 449.01 81.35 o
-2 5 3 2 410.34 968.61 250.63 o
-2 -5 3 2 406.02 889.82 116.72 o
-1 5 3 -2 307.75 137.38 111.05 <
-1 -5 3 -2 324.08 115.90 46.61 <
-1 5 3 -1 534.42 273.80 126.90 <
-1 -5 3 -1 538.53 410.88 70.92 o
-1 5 3 0 555.58 609.47 160.70 o
-1 -5 3 0 567.40 369.40 69.66 o
-1 5 3 1 1220.08 1299.85 273.87 o
-1 -5 3 1 1223.93 1275.69 126.03 o
-1 5 3 2 85.75 165.23 118.81 <
-1 -5 3 2 78.34 89.42 46.87 <
0 -5 3 -2 28.67 81.74 53.61 <
0 -5 3 -1 357.82 252.17 59.61 o
0 5 3 0 669.82 588.02 137.25 o
0 -5 3 0 635.77 648.15 77.37 o
0 5 3 1 99.03 69.09 76.44 <
0 -5 3 1 103.06 75.96 44.40 <
0 5 3 2 91.78 153.62 89.98 <
0 -5 3 2 97.61 82.87 28.79 <
1 5 3 -2 547.77 127.40 72.51 <
1 -5 3 -2 538.05 32.48 28.26 <
1 5 3 -1 789.06 855.71 146.86 o
1 -5 3 -1 779.41 784.79 103.55 o
1 5 3 0 106.71 84.20 46.00 <
1 -5 3 0 113.64 32.68 54.40 <
1 5 3 1 5809.44 6387.98 488.16 o
1 -5 3 1 5804.68 6295.02 315.52 o
1 5 3 2 114.61 238.10 117.29 <
1 -5 3 2 120.59 148.77 67.51 <
2 5 3 -2 114.61 23.70 33.39 <
2 -5 3 -2 113.32 81.13 53.65 <
2 5 3 -1 155.51 160.77 103.03 <
2 -5 3 -1 159.66 148.49 66.37 <
2 5 3 0 19198.30 20211.80 1002.43 o
2 -5 3 0 19345.60 18391.20 602.02 o
2 5 3 1 52.47 156.29 80.35 <
2 -5 3 1 50.33 -33.68 46.03 <
2 5 3 2 561.22 230.47 108.70 <
2 -5 3 2 623.94 537.84 127.42 o
3 5 3 -2 249.99 162.03 131.25 <
3 -5 3 -2 250.61 112.35 87.59 <
3 5 3 -1 280.78 211.97 216.43 <
3 -5 3 -1 286.72 158.73 90.96 <
3 5 3 0 276.18 54.35 65.27 <
3 -5 3 0 286.14 150.84 76.77 <
3 5 3 1 948.33 1096.07 321.19 o
3 -5 3 1 939.67 975.06 234.45 o
3 5 3 2 50.75 260.87 191.97 <
3 -5 3 2 47.85 109.05 121.35 <
4 5 3 -2 39.78 321.09 229.71 <
4 -5 3 -2 42.36 -9.11 131.60 <
4 5 3 -1 11.80 279.76 251.89 <
4 -5 3 -1 12.72 115.27 99.79 <
4 5 3 0 1347.13 937.82 336.93 <
4 -5 3 0 1392.74 899.86 260.02 o
4 5 3 1 43.36 149.64 179.40 <
4 -5 3 1 50.36 174.79 143.21 <
4 5 3 2 412.27 584.71 226.12 <
4 -5 3 2 402.54 424.05 224.45 <
5 5 3 -2 29.77 208.56 194.34 <
5 -5 3 -2 33.78 192.73 217.54 <
5 5 3 -1 298.51 339.85 179.79 <
5 -5 3 -1 321.38 635.50 272.84 <
5 5 3 0 298.43 567.12 192.79 <
5 -5 3 0 313.84 122.96 167.42 <
5 5 3 1 388.80 441.38 232.12 <
5 -5 3 1 396.86 389.96 218.12 <
5 5 3 2 155.22 170.49 242.89 <
5 -5 3 2 152.45 61.96 127.66 <
6 5 3 -2 45.19 -39.55 179.47 <
6 -5 3 -2 43.06 152.66 177.49 <
6 5 3 -1 68.31 -290.15 138.34 <
6 -5 3 -1 70.62 392.42 261.58 <
6 5 3 0 783.56 563.14 263.43 <
-6 6 3 1 146.50 -62.40 256.82 <
-6 6 3 2 53.16 -129.47 210.73 <
-6 -6 3 2 50.96 -177.32 187.01 <
-5 6 3 -2 87.70 610.78 375.46 <
-5 -6 3 -2 92.06 605.93 359.18 <
-5 6 3 -1 9.59 139.42 249.12 <
-5 -6 3 -1 9.05 39.66 162.47 <
-5 6 3 0 76.83 -123.38 233.51 <
-5 -6 3 0 78.57 -149.70 212.17 <
-5 6 3 1 163.36 40.94 155.99 <
-5 -6 3 1 161.77 295.72 390.68 <
-5 6 3 2 36.12 124.88 123.83 <
-5 -6 3 2 35.11 65.37 170.14 <
-4 6 3 -2 367.86 40.79 241.43 <
-4 -6 3 -2 368.31 168.66 153.14 <
-4 6 3 -1 196.22 454.49 175.19 <
-4 -6 3 -1 196.02 369.57 312.26 <
-4 6 3 0 121.06 34.05 81.81 <
-4 -6 3 0 123.36 279.39 221.62 <
-4 6 3 1 110.73 138.86 130.42 <
-4 -6 3 1 105.70 -28.76 89.12 <
-4 6 3 2 34.73 137.33 112.33 <
-4 -6 3 2 34.82 107.38 151.29 <
-3 6 3 -2 36.49 -36.18 87.74 <
-3 -6 3 -2 41.66 245.76 221.06 <
-3 6 3 -1 147.50 -60.29 88.94 <
-3 -6 3 -1 150.01 4.07 91.38 <
-3 6 3 0 55.24 205.01 165.58 <
-3 -6 3 0 55.31 5.50 68.83 <
-3 6 3 1 194.20 235.30 176.49 <
-3 -6 3 1 205.23 101.74 78.85 <
-3 6 3 2 29.55 -66.63 84.33 <
-3 -6 3 2 28.04 86.27 85.68 <
-2 6 3 -2 878.53 654.15 193.82 o
-2 -6 3 -2 881.70 794.64 109.31 o
-2 6 3 -1 773.56 777.46 192.54 o
-2 -6 3 -1 758.41 817.79 113.90 o
-2 6 3 0 182.57 76.44 120.22 <
-2 -6 3 0 180.65 65.79 43.66 <
-2 6 3 1 82.47 15.93 54.03 <
-2 -6 3 1 75.45 -7.43 50.87 <
-2 6 3 2 49.71 45.00 110.36 <
-2 -6 3 2 48.36 62.68 44.96 <
-1 6 3 -2 109.50 88.96 84.46 <
-1 -6 3 -2 110.83 57.05 43.26 <
-1 6 3 -1 93.44 30.76 53.15 <
-1 -6 3 -1 91.88 80.11 49.52 <
-1 6 3 0 162.95 124.66 94.09 <
-1 -6 3 0 172.67 157.88 52.16 o
-1 6 3 1 242.58 223.60 172.32 <
-1 -6 3 1 249.47 165.01 62.48 <
-1 6 3 2 92.27 92.75 113.38 <
-1 -6 3 2 88.52 62.66 50.94 <
0 -6 3 -2 327.24 224.06 48.05 o
0 -6 3 -1 1185.61 1131.53 126.59 o
0 6 3 0 175.79 79.09 69.79 <
0 -6 3 0 135.28 201.49 57.09 o
0 6 3 1 28.06 -19.28 43.65 <
0 -6 3 1 27.14 35.31 26.18 <
0 6 3 2 371.58 137.12 65.29 <
0 -6 3 2 382.73 218.23 59.14 o
1 6 3 -2 15.73 1.39 21.96 <
1 -6 3 -2 14.77 9.72 30.50 <
1 6 3 -1 149.28 10.22 35.18 <
1 -6 3 -1 133.42 71.14 51.37 <
1 6 3 0 198.62 242.56 94.14 <
1 -6 3 0 197.05 152.23 73.29 <
1 6 3 1 3159.44 3271.43 346.57 o
1 -6 3 1 3153.35 3501.95 242.19 o
1 6 3 2 268.23 411.16 120.03 o
1 -6 3 2 262.33 395.63 94.66 o
2 6 3 -2 592.09 303.09 103.48 <
2 -6 3 -2 574.41 246.62 76.14 o
2 6 3 -1 367.07 462.86 139.12 o
2 -6 3 -1 358.48 228.30 81.16 <
2 6 3 0 1074.65 1296.32 261.00 o
2 -6 3 0 1067.65 1234.04 172.05 o
2 6 3 1 55.25 53.20 106.49 <
2 -6 3 1 48.72 -4.67 38.53 <
2 6 3 2 631.42 543.03 196.84 <
2 -6 3 2 698.64 620.35 139.49 o
3 6 3 -2 49.69 290.11 186.64 <
3 -6 3 -2 44.17 188.71 90.88 <
3 6 3 -1 50.85 247.71 168.92 <
3 -6 3 -1 49.68 141.10 77.01 <
3 6 3 0 317.80 435.27 207.80 <
3 -6 3 0 318.11 181.14 101.38 <
3 6 3 1 729.83 619.24 228.54 <
3 -6 3 1 692.77 1034.44 190.56 o
3 6 3 2 159.58 -145.55 129.46 <
3 -6 3 2 157.45 77.61 95.20 <
4 6 3 -2 495.56 631.04 253.38 <
4 -6 3 -2 493.61 61.70 127.18 <
4 6 3 -1 342.87 325.87 230.90 <
4 -6 3 -1 323.69 299.21 189.08 <
4 6 3 0 496.04 475.68 264.78 <
4 -6 3 0 492.92 381.90 199.67 <
4 6 3 1 52.31 161.99 217.67 <
4 -6 3 1 50.09 70.90 173.43 <
4 6 3 2 877.30 784.59 308.76 <
4 -6 3 2 908.60 860.10 278.80 o
5 6 3 -2 20.55 -72.24 153.60 <
5 -6 3 -2 19.20 119.68 164.12 <
5 6 3 -1 39.46 16.72 106.75 <
5 -6 3 -1 33.91 119.68 178.40 <
5 6 3 0 424.00 247.28 170.77 <
5 -6 3 0 432.26 264.73 216.19 <
5 6 3 1 873.57 1032.07 322.17 o
5 -6 3 1 871.48 704.78 268.28 <
5 6 3 2 113.51 -100.57 136.92 <
5 -6 3 2 126.88 154.34 199.16 <
6 6 3 -2 405.66 149.75 142.94 <
6 -6 3 -2 407.38 250.13 217.99 <
6 6 3 -1 208.89 17.83 126.01 <
-6 7 3 1 37.04 -297.63 181.19 <
-6 7 3 2 224.64 35.81 123.66 <
-6 -7 3 2 235.53 94.31 205.69 <
-5 7 3 -2 325.51 263.54 341.15 <
-5 -7 3 -2 322.80 306.63 325.22 <
-5 7 3 -1 354.59 316.83 342.54 <
-5 -7 3 -1 349.01 935.98 405.07 <
-5 7 3 0 1674.47 1452.90 523.34 <
-5 -7 3 0 1622.53 1277.37 488.42 <
-5 7 3 1 142.99 80.20 211.14 <
-5 -7 3 1 147.91 193.12 278.21 <
-5 7 3 2 110.98 279.21 223.45 <
-5 -7 3 2 109.36 553.80 323.35 <
-4 7 3 -2 202.07 101.86 237.04 <
-4 -7 3 -2 202.13 56.72 240.62 <
-4 7 3 -1 90.95 298.13 159.20 <
-4 -7 3 -1 90.01 -15.39 114.53 <
-4 7 3 0 1036.06 508.88 190.19 <
-4 -7 3 0 1045.77 204.21 202.82 <
-4 7 3 1 175.00 198.86 148.44 <
-4 -7 3 1 172.34 271.06 282.15 <
-4 7 3 2 538.58 479.90 189.73 <
-4 -7 3 2 546.20 412.18 168.84 <
-3 7 3 -2 183.73 66.92 88.07 <
-3 -7 3 -2 185.83 117.18 110.74 <
-3 7 3 -1 615.87 836.67 243.41 o
-3 -7 3 -1 628.36 750.49 185.82 o
-3 7 3 0 7266.35 6913.19 690.15 o
-3 -7 3 0 7223.46 7020.79 438.94 o
-3 7 3 1 255.60 257.50 168.55 <
-3 -7 3 1 268.61 244.21 113.92 <
-3 7 3 2 292.50 100.01 73.35 <
-3 -7 3 2 306.52 94.87 58.68 <
-2 7 3 -2 224.04 356.39 123.18 <
-2 -7 3 -2 193.89 323.91 98.49 o
-2 7 3 -1 33.12 147.51 86.00 <
-2 -7 3 -1 39.63 -1.91 51.59 <
-2 7 3 0 4946.92 4539.06 516.53 o
-2 -7 3 0 4945.39 4537.71 261.37 o
-2 7 3 1 331.47 276.71 169.32 <
-2 -7 3 1 323.16 102.79 52.46 <
-2 7 3 2 859.62 1003.94 302.87 o
-2 -7 3 2 855.85 974.48 128.31 o
-1 7 3 -2 100.56 204.30 116.53 <
-1 -7 3 -2 99.42 33.15 52.26 <
-1 7 3 -1 2401.68 2715.66 369.09 o
-1 -7 3 -1 2388.47 2971.57 199.62 o
-1 7 3 0 17415.00 18246.70 999.11 o
-1 -7 3 0 17443.00 18072.40 435.92 o
-1 7 3 1 81.48 99.05 136.73 <
-1 -7 3 1 75.04 109.53 50.31 <
-1 7 3 2 342.25 646.78 229.82 <
-1 -7 3 2 351.55 378.11 78.20 o
0 -7 3 -2 65.57 76.22 53.15 <
0 -7 3 -1 116.82 1.48 59.66 <
0 -7 3 0 4505.46 4897.71 270.54 o
0 7 3 1 288.02 74.35 57.39 <
0 -7 3 1 290.51 178.25 75.27 <
0 7 3 2 350.67 38.35 65.37 <
0 -7 3 2 357.17 77.03 59.74 <
1 7 3 -2 291.23 104.14 36.98 <
1 -7 3 -2 292.90 219.65 73.46 <
1 7 3 -1 283.64 229.01 73.18 o
1 -7 3 -1 301.35 277.89 80.00 o
1 7 3 0 16171.10 16712.20 688.68 o
1 -7 3 0 16169.70 17392.70 533.40 o
1 7 3 1 6968.91 7604.54 513.10 o
1 -7 3 1 6910.21 7442.33 364.11 o
1 7 3 2 164.95 129.94 76.61 <
1 -7 3 2 151.60 164.18 68.66 <
2 7 3 -2 39.82 40.72 57.79 <
2 -7 3 -2 36.11 29.89 55.40 <
2 7 3 -1 806.77 93.98 68.40 <
2 -7 3 -1 821.28 286.85 83.07 o
2 7 3 0 7758.05 7290.61 583.50 o
2 -7 3 0 7756.05 7389.86 403.61 o
2 7 3 1 274.49 420.14 173.18 <
2 -7 3 1 282.80 378.11 106.11 o
2 7 3 2 561.44 477.79 181.45 <
2 -7 3 2 582.58 544.77 132.64 o
3 7 3 -2 295.69 559.75 225.75 <
3 -7 3 -2 286.79 261.87 100.59 <
3 7 3 -1 57.24 143.82 67.18 <
3 -7 3 -1 50.82 -40.96 76.05 <
3 7 3 0 4845.49 4452.08 569.65 o
3 -7 3 0 4779.16 3969.37 339.61 o
3 7 3 1 113.44 165.45 123.51 <
3 -7 3 1 78.85 68.26 87.83 <
3 7 3 2 129.80 13.80 112.03 <
3 -7 3 2 133.87 148.27 89.40 <
4 7 3 -2 57.05 79.18 103.70 <
4 -7 3 -2 51.32 207.77 120.23 <
4 7 3 -1 337.34 263.26 204.06 <
4 -7 3 -1 344.76 441.09 216.80 <
4 7 3 0 1814.98 910.71 332.24 <
4 -7 3 0 1840.79 1366.28 313.95 o
4 7 3 1 67.19 -2.44 107.25 <
4 -7 3 1 67.65 127.46 182.42 <
4 -7 3 2 142.34 32.79 108.42 <
5 7 3 -2 103.69 608.87 297.39 <
5 -7 3 -2 98.12 239.43 187.29 <
5 7 3 -1 194.96 332.70 213.36 <
5 -7 3 -1 178.36 219.43 189.25 <
5 7 3 0 798.71 650.37 275.02 <
5 -7 3 0 782.16 685.26 284.91 <
5 7 3 1 262.66 412.76 214.28 <
5 -7 3 1 258.55 121.03 232.01 <
5 7 3 2 6.79 -119.68 112.94 <
5 -7 3 2 8.18 -120.10 143.42 <
6 7 3 -2 59.12 434.57 403.11 <
6 -7 3 -2 58.47 374.72 250.67 <
-6 8 3 1 54.60 172.16 267.19 <
-6 8 3 2 47.47 -32.33 153.38 <
-6 -8 3 2 47.31 -99.70 145.49 <
-5 8 3 -2 120.04 821.32 384.74 <
-5 -8 3 -2 126.47 216.32 304.61 <
-5 8 3 -1 10.18 485.86 312.69 <
-5 -8 3 -1 9.29 744.99 418.48 <
-5 8 3 0 737.79 653.41 344.83 <
-5 -8 3 0 750.91 515.10 304.00 <
-5 8 3 1 28.25 -17.28 128.62 <
-5 -8 3 1 33.79 33.78 149.34 <
-5 8 3 2 99.78 -14.89 140.55 <
-5 -8 3 2 95.68 -54.89 148.53 <
-4 8 3 -2 8.75 56.40 209.49 <
-4 -8 3 -2 6.57 251.89 136.96 <
-4 8 3 -1 251.03 343.37 277.89 <
-4 -8 3 -1 253.27 -89.20 155.10 <
-4 8 3 0 857.49 827.29 242.17 o
-4 -8 3 0 851.28 338.91 251.99 <
-4 8 3 1 21.38 -22.54 94.35 <
-4 8 3 2 116.32 109.24 127.55 <
-4 -8 3 2 108.30 296.71 258.95 <
-3 8 3 -2 41.73 82.31 114.68 <
-3 -8 3 -2 39.62 65.53 167.64 <
-3 8 3 -1 930.90 937.63 289.84 o
-3 -8 3 -1 895.59 820.23 206.79 o
-3 8 3 0 4099.02 3683.55 506.82 o
-3 -8 3 0 4138.96 3812.58 405.01 o
-3 8 3 1 164.84 407.33 176.84 <
-3 -8 3 1 158.60 334.54 132.60 <
-3 8 3 2 276.06 351.22 176.08 <
-3 -8 3 2 279.43 373.55 90.75 o
-2 8 3 -2 410.02 431.29 157.97 <
-2 -8 3 -2 413.20 264.93 94.51 <
-2 8 3 -1 988.01 930.87 258.24 o
-2 -8 3 -1 996.69 1013.87 143.60 o
-2 8 3 0 6310.59 6293.04 632.39 o
-2 -8 3 0 6236.81 6300.83 359.05 o
-2 8 3 1 395.61 396.16 206.97 <
-2 -8 3 1 385.52 240.17 77.96 o
-2 8 3 2 331.56 301.43 132.10 <
-2 -8 3 2 314.05 542.17 107.96 o
-1 8 3 -2 60.89 -172.25 114.85 <
-1 -8 3 -2 56.59 193.84 71.92 <
-1 8 3 -1 8921.57 10206.10 762.70 o
-1 -8 3 -1 9117.73 9905.08 439.23 o
-1 8 3 0 19305.30 18692.70 1063.31 o
-1 -8 3 0 19343.90 19877.30 541.71 o
-1 8 3 1 102.16 73.87 98.77 <
-1 -8 3 1 82.51 64.92 49.48 <
-1 8 3 2 479.17 551.36 259.13 <
-1 -8 3 2 488.49 284.85 70.13 o
0 -8 3 -2 222.60 325.78 89.48 o
0 -8 3 -1 699.53 383.05 96.42 o
0 -8 3 0 8497.84 9114.21 336.68 o
0 -8 3 1 150.69 172.40 81.01 <
0 8 3 2 278.56 141.88 76.81 <
0 -8 3 2 276.07 96.98 66.46 <
1 8 3 -2 53.12 28.18 21.35 <
1 -8 3 -2 54.22 19.04 42.40 <
1 8 3 -1 683.98 486.44 91.57 o
1 -8 3 -1 646.24 494.55 97.96 o
1 8 3 0 25107.90 24838.20 782.10 o
1 -8 3 0 25111.10 26319.30 686.15 o
1 8 3 1 7989.35 8584.48 526.77 o
1 -8 3 1 8177.24 9074.51 417.53 o
1 8 3 2 147.97 68.39 61.22 <
1 -8 3 2 137.94 94.25 72.37 <
2 8 3 -2 426.30 149.68 37.09 o
2 -8 3 -2 417.51 279.84 70.42 o
2 8 3 -1 24.26 -78.98 100.59 <
2 -8 3 -1 28.02 68.13 46.03 <
2 8 3 0 6432.94 5783.31 502.71 o
2 -8 3 0 6468.78 6056.24 374.70 o
2 8 3 1 164.83 151.29 97.57 <
2 -8 3 1 158.25 91.05 59.53 <
2 8 3 2 885.77 652.41 220.04 <
2 -8 3 2 866.00 734.61 143.49 o
3 8 3 -2 6.75 23.48 72.85 <
3 -8 3 -2 6.95 100.66 68.61 <
3 8 3 -1 56.81 150.36 120.86 <
3 -8 3 -1 58.58 94.05 67.74 <
3 8 3 0 7821.86 7695.00 726.33 o
3 -8 3 0 7812.08 8092.27 493.45 o
3 8 3 1 444.50 418.31 221.91 <
3 -8 3 1 388.02 119.99 70.68 <
3 8 3 2 47.89 24.24 106.74 <
3 -8 3 2 38.28 22.80 91.77 <
4 8 3 -2 134.55 391.98 208.86 <
4 -8 3 -2 131.07 211.51 112.70 <
4 8 3 -1 116.70 288.21 189.25 <
4 -8 3 -1 114.39 69.29 130.64 <
4 8 3 0 976.10 682.63 281.36 <
4 -8 3 0 980.06 1032.20 280.69 o
4 8 3 1 185.33 319.85 234.12 <
4 -8 3 1 184.27 124.42 119.96 <
4 8 3 2 287.38 125.99 131.64 <
4 -8 3 2 297.76 204.53 173.58 <
5 8 3 -2 12.40 -82.07 208.58 <
5 -8 3 -2 12.15 357.17 210.91 <
5 8 3 -1 54.39 -71.57 211.60 <
5 -8 3 -1 50.39 -63.83 143.62 <
5 8 3 0 2286.50 3338.76 822.57 o
5 -8 3 0 2292.65 1926.52 399.64 o
5 8 3 1 154.10 728.79 390.61 <
5 -8 3 1 170.63 464.58 225.86 <
5 8 3 2 40.77 463.94 360.55 <
5 -8 3 2 38.11 -49.22 158.18 <
6 8 3 -2 43.90 315.48 342.35 <
6 -8 3 -2 41.51 7.18 148.84 <
-6 9 3 2 93.17 -174.16 164.79 <
-5 9 3 -2 128.00 530.30 381.98 <
-5 -9 3 -2 130.24 206.91 201.25 <
-5 9 3 -1 300.37 314.74 311.35 <
-5 -9 3 -1 301.52 215.77 179.58 <
-5 9 3 0 1112.27 963.56 479.01 <
-5 -9 3 0 1086.44 902.75 396.26 <
-5 9 3 1 220.23 149.42 309.67 <
-5 -9 3 1 232.17 330.67 300.19 <
-5 9 3 2 30.64 351.24 285.93 <
-5 -9 3 2 30.54 560.52 358.83 <
-4 9 3 -2 47.91 260.08 247.93 <
-4 -9 3 -2 48.30 -34.41 77.07 <
-4 9 3 -1 100.51 210.29 165.32 <
-4 -9 3 -1 92.41 213.52 286.82 <
-4 -9 3 0 91.31 -49.94 97.16 <
-4 9 3 1 315.73 15.61 104.20 <
-4 -9 3 1 305.49 31.07 189.36 <
-4 9 3 2 124.89 126.71 178.49 <
-4 -9 3 2 128.12 202.80 228.91 <
-3 9 3 -2 168.56 27.74 83.29 <
-3 -9 3 -2 178.96 240.15 197.64 <
-3 9 3 -1 512.97 451.20 241.76 <
-3 -9 3 -1 503.21 358.52 138.21 <
-3 9 3 0 3378.19 3395.83 500.07 o
-3 -9 3 0 3320.33 3709.40 402.52 o
-3 9 3 1 524.36 231.49 91.14 <
-3 -9 3 1 549.82 288.13 147.77 <
-3 9 3 2 7.20 -123.92 182.27 <
-3 -9 3 2 6.36 102.31 79.92 <
-2 9 3 -2 148.57 109.40 121.97 <
-2 -9 3 -2 155.34 168.38 95.25 <
-2 9 3 -1 283.14 482.23 204.03 <
-2 -9 3 -1 279.59 325.24 93.57 o
-2 9 3 0 225.25 348.68 185.01 <
-2 -9 3 0 218.00 81.24 75.26 <
-2 9 3 1 436.24 243.89 228.51 <
-2 -9 3 1 439.37 0.28 71.90 <
-2 9 3 2 96.83 -17.76 128.57 <
-2 -9 3 2 96.82 182.06 90.79 <
-1 9 3 -2 267.92 283.95 150.92 <
-1 -9 3 -2 282.19 291.17 93.37 o
-1 9 3 -1 499.93 736.98 245.86 <
-1 -9 3 -1 488.10 536.12 128.03 o
-1 9 3 0 8578.11 8630.35 750.40 o
-1 -9 3 0 8604.36 9116.69 384.72 o
-1 9 3 1 677.95 588.00 255.54 <
-1 -9 3 1 688.81 493.68 107.62 o
-1 9 3 2 89.32 266.97 193.51 <
-1 -9 3 2 91.79 306.67 94.38 o
0 -9 3 -2 14.10 -16.96 43.11 <
0 -9 3 -1 191.05 134.62 76.11 <
0 -9 3 0 3133.14 2662.41 194.14 o
0 -9 3 1 403.61 163.64 69.51 <
0 -9 3 2 230.02 342.22 96.11 o
1 -9 3 -2 66.62 253.71 75.38 o
1 9 3 -1 927.13 541.54 87.09 o
1 -9 3 -1 918.56 990.30 127.83 o
1 9 3 0 6808.97 5823.08 341.26 o
1 -9 3 0 6840.21 7232.56 331.26 o
1 9 3 1 438.08 595.45 134.34 o
1 -9 3 1 452.03 403.24 100.46 o
1 9 3 2 591.88 553.30 157.75 o
1 -9 3 2 597.06 542.84 121.07 o
2 9 3 -2 85.43 69.77 49.50 <
2 -9 3 -2 81.26 66.16 59.22 <
2 9 3 -1 77.08 230.40 122.86 <
2 -9 3 -1 71.18 51.63 57.83 <
2 9 3 0 866.17 321.63 144.70 <
2 -9 3 0 857.63 188.23 86.29 <
2 9 3 1 482.96 619.59 224.51 <
2 -9 3 1 514.66 190.97 78.63 <
2 9 3 2 728.73 927.28 249.13 o
2 -9 3 2 754.13 801.12 169.16 o
3 9 3 -2 165.51 201.32 135.21 <
3 -9 3 -2 169.93 50.72 57.59 <
3 9 3 -1 653.19 617.87 206.23 <
3 -9 3 -1 621.37 486.97 105.61 o
3 9 3 0 2613.99 2603.91 414.37 o
3 -9 3 0 2584.51 2724.50 250.84 o
3 9 3 1 201.37 22.37 103.81 <
3 -9 3 1 209.23 259.84 95.98 <
3 9 3 2 44.41 -84.18 115.42 <
3 -9 3 2 44.85 225.88 100.24 <
4 9 3 -2 81.39 131.99 138.84 <
4 -9 3 -2 78.72 173.19 109.94 <
4 9 3 -1 8.09 70.24 150.66 <
4 -9 3 -1 8.46 -34.91 94.07 <
4 9 3 0 420.73 -10.76 71.09 <
4 -9 3 0 409.60 369.13 173.71 <
4 -9 3 1 424.38 213.32 112.07 <
4 -9 3 2 38.98 131.59 107.79 <
5 -9 3 -2 334.45 75.00 111.70 <
5 -9 3 -1 406.71 215.14 160.88 <
5 -9 3 0 796.48 965.56 330.24 <
5 9 3 1 51.15 436.16 431.36 <
5 -9 3 1 53.72 374.65 246.76 <
5 9 3 2 2.08 187.25 403.59 <
5 -9 3 2 1.91 76.77 197.80 <
6 -9 3 -2 51.31 -216.36 241.06 <
-6 10 3 2 44.11 -123.33 216.08 <
-5 10 3 -2 30.36 -62.29 131.79 <
-5 -10 3 -2 32.54 -49.83 234.10 <
-5 10 3 -1 16.01 258.69 243.99 <
-5 -10 3 -1 18.40 47.92 277.00 <
-5 10 3 0 24.62 187.73 269.23 <
-5 -10 3 0 26.35 -248.88 165.10 <
-5 10 3 1 91.87 -77.01 119.88 <
-5 -10 3 1 88.06 194.51 290.65 <
-5 10 3 2 206.02 220.58 323.11 <
-5 -10 3 2 199.65 25.52 183.01 <
-4 -10 3 -2 92.28 375.89 304.30 <
-4 -10 3 -1 978.09 1088.85 449.98 <
-4 -10 3 0 109.83 95.62 185.32 <
-4 10 3 1 118.48 306.20 159.66 <
-4 -10 3 1 120.43 86.09 232.80 <
-4 10 3 2 66.35 147.12 160.71 <
-4 -10 3 2 68.10 -27.26 74.00 <
-3 10 3 -2 44.23 113.77 85.18 <
-3 -10 3 -2 42.87 105.38 268.63 <
-3 10 3 -1 752.44 723.94 271.63 <
-3 -10 3 -1 736.31 638.35 187.01 o
-3 10 3 0 480.20 371.65 152.40 <
-3 -10 3 0 498.94 379.83 176.93 <
-3 10 3 1 354.14 271.84 166.95 <
-3 -10 3 1 352.15 17.54 84.50 <
-3 10 3 2 536.49 139.70 182.32 <
-3 -10 3 2 518.21 289.15 96.48 <
-2 10 3 -2 1155.45 822.18 246.74 o
-2 -10 3 -2 1179.51 952.65 173.93 o
-2 10 3 -1 1761.41 2305.80 428.51 o
-2 -10 3 -1 1737.97 1762.42 219.23 o
-2 10 3 0 648.17 733.35 272.91 <
-2 -10 3 0 642.20 704.13 151.57 o
-2 10 3 1 97.62 23.92 127.18 <
-2 -10 3 1 93.86 -35.59 58.57 <
-2 10 3 2 101.93 134.38 93.81 <
-2 -10 3 2 111.95 193.36 91.51 <
-1 10 3 -2 20.60 99.42 125.44 <
-1 -10 3 -2 25.33 70.51 67.94 <
-1 10 3 -1 4509.02 5020.46 610.58 o
-1 -10 3 -1 4538.88 5005.70 353.46 o
-1 10 3 0 1872.92 1878.69 385.92 o
-1 -10 3 0 1987.51 1630.41 175.60 o
-1 10 3 1 1614.04 1518.64 362.33 o
-1 -10 3 1 1571.38 1398.81 172.79 o
-1 -10 3 2 632.71 536.06 117.16 o
0 -10 3 -2 208.84 15.74 55.07 <
0 -10 3 -1 807.90 1047.83 144.77 o
0 -10 3 0 452.86 561.99 110.72 o
0 -10 3 1 231.20 430.79 98.72 o
0 -10 3 2 39.97 117.64 62.74 <
1 -10 3 -2 133.38 46.28 44.11 <
1 -10 3 -1 1057.45 867.12 130.51 o
1 10 3 0 2487.30 1354.31 137.99 o
1 -10 3 0 2595.63 2301.17 200.38 o
1 10 3 1 1137.81 821.99 131.86 o
1 -10 3 1 1266.84 917.65 131.53 o
1 10 3 2 54.13 62.14 58.11 <
1 -10 3 2 53.84 32.05 67.48 <
2 10 3 -2 158.09 72.85 36.00 <
2 -10 3 -2 160.49 -3.19 59.89 <
2 10 3 -1 14.85 3.91 36.85 <
2 -10 3 -1 15.50 79.18 63.94 <
2 10 3 0 891.97 993.15 201.71 o
2 -10 3 0 885.36 1060.74 155.84 o
2 10 3 1 641.55 626.04 189.64 o
2 -10 3 1 597.08 433.11 112.03 o
2 10 3 2 760.23 1551.27 296.00 o
2 -10 3 2 770.73 1037.44 151.53 o
3 10 3 -2 93.75 -30.04 91.57 <
3 -10 3 -2 92.92 132.21 83.35 <
3 10 3 -1 376.19 -26.83 98.66 <
3 -10 3 -1 390.88 21.65 56.39 <
3 10 3 0 701.66 427.01 142.29 o
3 -10 3 0 710.03 410.92 115.55 o
3 -10 3 1 873.13 698.44 131.71 o
3 -10 3 2 125.93 122.77 88.66 <
4 -10 3 -2 109.30 40.02 81.63 <
4 -10 3 -1 129.19 137.29 97.36 <
4 -10 3 0 165.51 251.63 179.92 <
4 -10 3 1 355.80 164.79 126.21 <
4 -10 3 2 132.60 334.63 221.45 <
5 -10 3 -2 62.16 372.77 184.08 <
5 -10 3 -1 298.78 278.17 154.79 <
5 -10 3 0 42.75 582.62 273.98 <
5 -10 3 1 13.33 294.30 246.36 <
5 -10 3 2 153.11 85.75 112.79 <
-5 11 3 -2 0.42 121.86 232.41 <
-5 11 3 -1 170.48 -5.78 156.84 <
-5 -11 3 -1 169.32 559.99 416.79 <
-5 11 3 0 799.08 720.92 423.48 <
-5 -11 3 0 797.20 1223.89 553.41 <
-5 11 3 1 65.42 119.86 269.52 <
-5 -11 3 1 64.76 -45.44 108.16 <
-5 11 3 2 52.42 431.75 361.67 <
-5 -11 3 2 55.68 235.51 264.98 <
-4 -11 3 -2 90.02 70.16 226.15 <
-4 -11 3 -1 55.40 94.35 182.49 <
-4 -11 3 0 305.54 -202.58 270.00 <
-4 -11 3 1 113.94 150.55 194.95 <
-4 11 3 2 54.64 349.39 215.45 <
-4 -11 3 2 54.07 76.03 85.38 <
-3 -11 3 -2 119.68 22.04 138.60 <
-3 11 3 -1 164.04 105.59 86.42 <
-3 -11 3 -1 162.42 19.78 104.88 <
-3 11 3 0 3497.22 4279.78 586.86 o
-3 -11 3 0 3483.56 4485.93 496.32 o
-3 11 3 1 28.25 63.83 184.03 <
-3 -11 3 1 27.20 179.08 142.70 <
-3 11 3 2 93.60 264.23 209.82 <
-3 -11 3 2 95.53 188.80 95.99 <
-2 11 3 -2 258.82 312.65 200.64 <
-2 -11 3 -2 261.74 229.56 114.99 <
-2 11 3 -1 42.36 59.52 194.75 <
-2 -11 3 -1 55.14 133.71 91.01 <
-2 11 3 0 1484.68 1212.01 293.08 o
-2 -11 3 0 1436.99 1036.35 184.18 o
-2 11 3 1 209.40 -234.54 160.12 <
-2 -11 3 1 203.14 250.63 103.74 <
-2 11 3 2 76.19 224.93 115.83 <
-2 -11 3 2 82.11 91.20 66.09 <
-1 11 3 -2 572.78 1109.57 290.28 o
-1 -11 3 -2 585.02 688.59 132.60 o
-1 11 3 -1 948.05 1251.58 331.98 o
-1 -11 3 -1 948.19 783.81 149.92 o
-1 11 3 0 7783.22 8483.06 823.18 o
-1 -11 3 0 7779.35 8203.63 486.51 o
-1 11 3 1 362.68 1010.72 334.59 o
-1 -11 3 1 376.40 357.68 101.27 o
-1 -11 3 2 114.14 67.89 59.05 <
0 -11 3 -2 20.59 137.81 87.98 <
0 -11 3 -1 276.95 417.25 109.92 o
0 -11 3 0 571.85 101.27 64.55 <
0 -11 3 1 419.74 507.58 116.05 o
0 -11 3 2 127.86 232.49 87.92 <
1 -11 3 -2 502.22 276.04 84.87 o
1 -11 3 -1 180.50 196.45 71.07 <
1 -11 3 0 6262.13 6897.60 362.20 o
1 11 3 1 1129.87 485.95 89.87 o
1 -11 3 1 1075.30 1018.50 145.73 o
1 11 3 2 281.79 62.89 67.22 <
1 -11 3 2 264.96 266.60 102.22 <
2 11 3 -2 42.77 129.31 62.51 <
2 -11 3 -2 45.43 45.72 61.68 <
2 11 3 -1 219.51 -18.26 42.76 <
2 -11 3 -1 215.84 12.39 41.50 <
2 -11 3 0 1734.35 1832.14 195.08 o
2 -11 3 1 323.66 201.25 80.46 <
2 -11 3 2 801.28 615.30 125.09 o
3 -11 3 -2 512.93 293.00 88.96 o
3 -11 3 -1 14.83 44.02 65.83 <
3 -11 3 0 1834.72 1636.91 210.65 o
3 -11 3 1 364.71 528.97 133.71 o
3 -11 3 2 413.98 225.80 111.44 <
4 -11 3 -2 28.52 -4.81 61.31 <
4 -11 3 -1 239.96 219.47 105.55 <
4 -11 3 0 491.98 301.52 151.88 <
4 -11 3 1 187.24 37.57 130.94 <
4 -11 3 2 152.44 31.02 202.64 <
5 -11 3 -2 339.79 212.01 191.73 <
5 -11 3 -1 13.39 -1.93 84.24 <
5 -11 3 0 228.82 -14.80 109.29 <
5 -11 3 1 28.40 316.69 277.95 <
-5 12 3 -2 12.84 377.16 395.66 <
-5 12 3 -1 29.83 343.85 312.32 <
-5 -12 3 -1 29.31 63.03 293.56 <
-5 12 3 0 104.72 403.79 298.33 <
-5 -12 3 0 100.93 396.03 300.89 <
-5 12 3 1 162.89 375.27 294.87 <
-5 -12 3 1 150.21 -208.01 153.10 <
-5 12 3 2 279.99 57.92 244.54 <
-5 -12 3 2 273.47 -254.56 120.10 <
-4 -12 3 -2 311.59 175.16 212.08 <
-4 -12 3 -1 324.82 211.91 233.49 <
-4 -12 3 0 2863.43 3980.57 817.23 o
-4 -12 3 1 452.69 297.93 317.67 <
-4 -12 3 2 60.52 -21.76 265.80 <
-3 -12 3 -2 8.20 98.75 165.32 <
-3 12 3 -1 153.85 63.77 87.68 <
-3 -12 3 -1 158.60 -23.81 98.55 <
-3 12 3 0 325.86 126.94 91.57 <
-3 -12 3 0 315.50 187.32 197.49 <
-3 12 3 1 208.39 98.33 71.79 <
-3 -12 3 1 204.17 43.20 67.27 <
-3 12 3 2 278.33 1.78 165.97 <
-3 -12 3 2 273.99 215.80 116.23 <
-2 12 3 -2 774.00 501.10 220.88 <
-2 -12 3 -2 832.44 355.09 103.35 o
-2 12 3 -1 432.07 692.33 287.69 <
-2 -12 3 -1 434.90 421.99 127.05 o
-2 12 3 0 6819.02 7881.97 810.62 o
-2 -12 3 0 6830.71 7513.88 497.19 o
-2 12 3 1 908.88 653.28 274.06 <
-2 -12 3 1 920.02 355.37 121.83 <
-2 12 3 2 157.79 -1.24 107.55 <
-2 -12 3 2 155.61 114.03 111.51 <
-1 12 3 -2 84.46 507.29 277.08 <
-1 -12 3 -2 80.94 155.86 113.73 <
-1 12 3 -1 292.46 166.19 190.49 <
-1 -12 3 -1 284.60 123.42 64.89 <
-1 12 3 0 1984.22 2906.43 517.43 o
-1 -12 3 0 1908.83 2222.64 271.17 o
-1 -12 3 1 289.21 -20.57 69.51 <
-1 -12 3 2 205.15 113.70 64.55 <
0 -12 3 -2 353.62 62.74 41.16 <
0 -12 3 -1 738.27 795.97 143.09 o
0 -12 3 0 14687.20 15460.70 615.61 o
0 -12 3 1 166.19 65.94 67.03 <
0 -12 3 2 187.69 29.74 55.96 <
1 -12 3 -2 0.87 22.78 58.57 <
1 -12 3 -1 106.29 98.92 72.74 <
1 -12 3 0 2365.29 3061.98 249.30 o
1 -12 3 1 1152.66 753.51 138.05 o
1 -12 3 2 23.00 153.45 79.92 <
2 12 3 -2 207.98 174.97 146.82 <
2 -12 3 -2 203.02 202.23 91.90 <
2 -12 3 -1 671.42 469.68 122.75 o
2 -12 3 0 4678.04 4941.46 339.65 o
2 -12 3 1 188.38 274.02 101.96 <
2 -12 3 2 1159.36 1113.05 173.16 o
3 -12 3 -2 5.23 -32.48 70.96 <
3 -12 3 -1 26.56 -27.02 76.37 <
3 -12 3 0 388.61 600.54 135.92 o
3 -12 3 1 264.31 143.42 97.57 <
3 -12 3 2 74.91 112.11 110.66 <
4 -12 3 -2 122.96 34.13 72.50 <
4 -12 3 -1 307.67 -48.11 76.74 <
4 -12 3 0 1509.36 1866.60 382.42 o
4 -12 3 1 83.82 -232.45 190.79 <
4 -12 3 2 67.51 294.78 213.49 <
5 -12 3 -2 7.96 43.98 172.69 <
5 -12 3 -1 40.38 175.58 173.51 <
5 -12 3 0 82.06 141.96 207.77 <
5 -12 3 1 177.46 448.44 410.79 <
-5 13 3 -1 165.82 -122.75 181.12 <
-5 13 3 0 144.26 82.27 170.64 <
-5 -13 3 0 147.09 873.84 463.21 <
-5 13 3 1 97.94 206.15 206.08 <
-5 -13 3 1 93.52 -401.02 308.09 <
-5 13 3 2 126.14 151.64 273.04 <
-5 -13 3 2 130.78 267.08 218.36 <
-4 -13 3 -2 279.18 164.88 213.60 <
-4 -13 3 -1 19.77 272.63 351.15 <
-4 -13 3 0 223.18 621.34 430.85 <
-4 -13 3 1 50.78 119.81 222.82 <
-4 -13 3 2 21.42 -351.83 109.47 <
-3 -13 3 -2 130.03 -10.18 137.10 <
-3 -13 3 -1 313.73 637.08 229.40 <
-3 13 3 0 376.79 193.93 156.21 <
-3 -13 3 0 388.88 139.57 156.81 <
-3 13 3 1 29.87 571.34 261.76 <
-3 -13 3 1 30.63 189.64 169.68 <
-3 13 3 2 183.60 186.25 274.21 <
-3 -13 3 2 189.49 74.50 115.05 <
-2 13 3 -2 1681.93 1633.28 388.20 o
-2 -13 3 -2 1753.62 1659.43 261.34 o
-2 13 3 -1 95.76 603.69 287.06 <
-2 -13 3 -1 81.58 188.47 126.57 <
-2 13 3 0 90.87 98.98 158.40 <
-2 -13 3 0 96.78 192.54 114.23 <
-2 13 3 1 248.97 294.37 147.79 <
-2 -13 3 1 227.72 163.05 105.36 <
-2 13 3 2 121.29 361.11 204.40 <
-2 -13 3 2 123.31 90.12 107.36 <
-1 13 3 -2 363.82 278.80 267.74 <
-1 -13 3 -2 349.48 183.29 86.85 <
-1 13 3 -1 294.68 565.91 247.01 <
-1 -13 3 -1 275.90 310.69 140.77 <
-1 13 3 0 601.00 1058.00 358.04 <
-1 -13 3 0 662.48 325.54 114.75 <
-1 -13 3 1 149.97 119.88 67.68 <
-1 -13 3 2 205.67 140.94 81.09 <
0 -13 3 -2 91.71 232.99 101.70 <
0 -13 3 -1 56.79 39.05 80.03 <
0 -13 3 0 9179.06 8319.54 468.57 o
0 -13 3 1 748.31 784.03 159.95 o
0 -13 3 2 186.65 85.33 85.72 <
1 -13 3 -2 215.46 132.88 74.51 <
1 -13 3 -1 112.65 164.21 81.87 <
1 -13 3 0 502.27 402.20 102.36 o
1 -13 3 1 1122.08 1176.90 168.05 o
1 -13 3 2 254.78 44.26 64.37 <
2 -13 3 -2 39.48 129.44 102.74 <
2 -13 3 -1 8.58 38.85 76.14 <
2 -13 3 0 58.43 -44.78 81.72 <
2 -13 3 1 865.49 838.51 157.10 o
2 -13 3 2 712.40 596.13 134.34 o
3 -13 3 -2 152.55 104.14 68.66 <
3 -13 3 -1 3.21 116.68 83.12 <
3 -13 3 0 273.90 140.21 80.75 <
3 -13 3 1 425.62 260.78 109.20 <
3 -13 3 2 149.12 -29.07 87.40 <
4 -13 3 -2 77.43 -84.66 116.20 <
4 -13 3 -1 35.96 187.23 138.01 <
4 -13 3 0 609.82 594.84 230.82 <
4 -13 3 1 375.88 -224.10 183.03 <
4 -13 3 2 82.52 -15.63 220.34 <
5 -13 3 -2 148.30 30.15 141.46 <
5 -13 3 -1 67.10 -154.79 237.26 <
5 -13 3 0 176.66 10.54 96.20 <
-5 14 3 -1 15.00 226.19 209.97 <
-5 14 3 0 66.65 22.83 323.06 <
-5 14 3 1 74.12 195.80 213.97 <
-5 -14 3 1 72.55 98.33 261.50 <
-5 -14 3 2 31.29 87.33 358.31 <
-4 -14 3 -2 13.12 581.32 445.99 <
-4 -14 3 -1 584.95 305.35 312.61 <
-4 -14 3 0 87.82 359.48 306.43 <
-4 -14 3 1 179.45 335.91 364.11 <
-4 -14 3 2 38.68 716.59 523.53 <
-3 -14 3 -2 87.30 183.82 149.53 <
-3 -14 3 -1 9.91 102.59 93.07 <
-3 14 3 0 107.81 -113.83 171.82 <
-3 -14 3 0 109.69 -16.76 101.24 <
-3 14 3 1 80.48 341.42 242.15 <
-3 -14 3 1 75.67 111.31 153.08 <
-3 -14 3 2 96.39 -19.96 94.07 <
-2 14 3 -2 106.83 73.16 203.10 <
-2 -14 3 -2 100.39 143.71 139.66 <
-2 14 3 -1 1292.14 761.38 281.60 <
-2 -14 3 -1 1323.16 1265.39 227.69 o
-2 14 3 0 579.15 -168.07 142.25 <
-2 -14 3 0 531.43 82.05 72.85 <
-2 14 3 1 183.22 4.68 141.21 <
-2 -14 3 1 176.03 21.61 121.27 <
-2 14 3 2 19.79 53.87 182.56 <
-2 -14 3 2 19.72 134.53 146.49 <
-1 14 3 -2 114.16 50.05 203.65 <
-1 -14 3 -2 106.10 111.47 106.46 <
-1 14 3 -1 640.33 680.15 306.45 <
-1 -14 3 -1 640.57 765.25 187.69 o
-1 14 3 0 35.21 462.03 313.00 <
-1 -14 3 0 36.35 161.49 132.12 <
-1 -14 3 1 575.02 397.61 118.66 o
-1 -14 3 2 176.13 128.73 79.96 <
0 -14 3 -2 474.33 450.70 164.53 <
0 -14 3 -1 1320.33 1223.67 189.91 o
0 -14 3 0 654.26 0.74 55.81 <
0 -14 3 1 850.84 820.40 168.43 o
0 -14 3 2 107.90 56.85 82.64 <
1 -14 3 -2 66.57 199.82 99.27 <
1 -14 3 -1 4.62 -11.57 66.89 <
1 -14 3 0 16.95 130.14 72.13 <
1 -14 3 1 1319.42 1314.85 191.40 o
1 -14 3 2 53.40 42.40 73.01 <
2 -14 3 -2 799.28 596.71 145.25 o
2 -14 3 -1 1002.56 610.54 140.47 o
2 -14 3 0 233.57 29.28 106.85 <
2 -14 3 1 359.80 626.24 144.21 o
2 -14 3 2 187.35 137.34 94.51 <
3 -14 3 -2 38.28 92.74 85.46 <
3 -14 3 -1 31.10 23.81 121.66 <
3 -14 3 0 137.30 24.59 91.49 <
3 -14 3 1 1268.21 1192.30 193.99 o
3 -14 3 2 82.83 -65.96 107.75 <
4 -14 3 -2 532.59 260.36 141.49 <
4 -14 3 -1 144.11 -22.46 93.16 <
4 -14 3 0 79.52 498.75 242.02 <
4 -14 3 1 80.00 -64.61 194.43 <
4 -14 3 2 45.23 -152.71 165.49 <
5 -14 3 -2 14.97 -145.75 152.44 <
5 -14 3 -1 30.12 -58.44 118.96 <
5 -14 3 0 90.85 44.63 164.43 <
-5 15 3 0 417.57 542.67 333.70 <
-5 -15 3 2 82.25 292.48 289.69 <
-4 -15 3 -2 59.34 237.67 445.88 <
-4 -15 3 -1 85.26 39.92 156.12 <
-4 -15 3 0 554.50 643.95 432.23 <
-4 -15 3 1 1.53 -237.86 119.77 <
-4 -15 3 2 267.36 -124.66 193.16 <
-3 -15 3 -2 50.88 139.53 172.68 <
-3 -15 3 -1 61.20 177.14 138.20 <
-3 -15 3 0 1067.00 1036.48 332.94 o
-3 15 3 1 149.75 82.98 146.49 <
-3 -15 3 1 149.20 -52.05 166.36 <
-3 15 3 2 173.99 48.02 180.56 <
-3 -15 3 2 175.93 76.38 196.21 <
-2 15 3 -2 1019.00 1197.99 375.57 o
-2 -15 3 -2 1056.01 952.09 216.34 o
-2 15 3 -1 322.02 193.41 140.10 <
-2 -15 3 -1 302.78 190.99 109.74 <
-2 15 3 0 1151.36 234.25 174.95 <
-2 -15 3 0 1181.60 506.34 172.43 <
-2 15 3 1 47.78 191.91 253.60 <
-2 -15 3 1 52.81 58.16 139.25 <
-2 15 3 2 300.37 304.04 198.71 <
-2 -15 3 2 294.09 198.27 117.81 <
-1 15 3 -2 38.99 68.16 190.03 <
-1 -15 3 -2 32.69 90.20 93.68 <
-1 15 3 -1 304.76 762.18 312.22 <
-1 -15 3 -1 283.62 242.36 131.92 <
-1 15 3 0 1769.83 1666.67 442.11 o
-1 -15 3 0 1769.73 1539.64 271.76 o
-1 -15 3 1 308.92 259.80 130.88 <
-1 -15 3 2 186.13 230.23 117.77 <
0 -15 3 -2 196.13 251.63 135.53 <
0 -15 3 -1 476.61 188.47 113.20 <
0 -15 3 0 8538.80 7448.01 615.26 o
0 -15 3 1 433.54 111.55 88.74 <
0 -15 3 2 360.26 466.23 137.47 o
1 -15 3 -2 85.29 36.37 78.37 <
1 -15 3 -1 84.37 191.99 103.64 <
1 -15 3 0 1221.21 1005.98 166.27 o
1 -15 3 1 387.97 412.55 117.90 o
1 -15 3 2 109.22 385.31 124.09 o
2 -15 3 -2 144.00 212.43 92.24 <
2 -15 3 -1 57.21 22.11 79.27 <
2 -15 3 0 1690.13 1273.43 190.41 o
2 -15 3 1 312.59 123.36 99.03 <
2 -15 3 2 17.80 212.36 102.14 <
3 -15 3 -2 51.58 100.83 95.14 <
3 -15 3 -1 120.70 -44.74 81.96 <
3 -15 3 0 605.54 700.57 144.36 o
3 -15 3 1 153.28 121.05 105.40 <
3 -15 3 2 32.52 245.13 148.94 <
4 -15 3 -2 91.35 -85.83 130.88 <
4 -15 3 -1 41.54 -93.70 141.31 <
4 -15 3 0 1175.31 1475.57 378.70 o
4 -15 3 1 122.75 296.74 190.82 <
4 -15 3 2 50.39 -104.11 129.18 <
5 -15 3 -2 10.60 -28.07 114.27 <
5 -15 3 -1 76.45 19.70 129.86 <
-4 -16 3 -2 174.72 493.60 266.84 <
-4 -16 3 -1 88.85 482.40 375.27 <
-4 -16 3 0 903.76 1626.93 663.98 <
-4 -16 3 1 11.21 -123.62 140.05 <
-4 -16 3 2 202.70 518.97 453.05 <
-3 -16 3 -2 4.31 189.12 195.19 <
-3 -16 3 -1 19.28 196.80 200.73 <
-3 -16 3 0 725.87 146.81 291.84 <
-3 -16 3 1 84.79 107.31 180.92 <
-3 16 3 2 276.07 -5.30 166.12 <
-3 -16 3 2 264.21 209.56 201.82 <
-2 16 3 -2 144.74 332.44 304.59 <
-2 -16 3 -2 118.99 117.62 107.18 <
-2 16 3 -1 330.80 151.01 113.97 <
-2 -16 3 -1 335.84 279.74 154.84 <
-2 16 3 0 2089.59 1573.69 455.70 o
-2 -16 3 0 2126.38 1649.83 303.78 o
-2 16 3 1 113.36 148.58 197.62 <
-2 -16 3 1 116.08 232.19 152.79 <
-2 16 3 2 261.85 36.78 111.09 <
-2 -16 3 2 263.18 207.60 130.73 <
-1 16 3 -2 64.94 146.88 146.57 <
-1 -16 3 -2 68.42 34.63 102.38 <
-1 16 3 -1 1333.94 1605.26 460.92 o
-1 -16 3 -1 1297.70 1153.68 242.88 o
-1 16 3 0 1410.08 1188.03 365.50 o
-1 -16 3 0 1478.57 810.99 198.88 o
-1 -16 3 1 101.10 516.04 182.23 <
-1 -16 3 2 512.49 717.37 181.64 o
0 -16 3 -2 42.70 241.51 144.20 <
0 -16 3 -1 439.48 448.94 155.75 <
0 -16 3 0 4611.87 4728.00 511.58 o
0 -16 3 1 401.98 176.93 149.84 <
0 -16 3 2 364.01 452.57 183.60 <
1 -16 3 -2 12.30 219.14 142.42 <
1 -16 3 -1 90.53 -50.59 78.63 <
1 -16 3 0 1668.97 1003.87 232.32 o
1 -16 3 1 613.96 475.45 127.07 o
1 -16 3 2 337.00 232.78 99.25 <
2 -16 3 -2 276.97 442.22 128.46 o
2 -16 3 -1 46.56 -55.89 93.29 <
2 -16 3 0 1412.62 1131.40 195.17 o
2 -16 3 1 311.47 413.11 144.12 <
2 -16 3 2 117.00 51.29 98.49 <
3 -16 3 -2 20.74 131.81 87.77 <
3 -16 3 -1 26.71 104.51 100.24 <
3 -16 3 0 1257.46 1119.96 215.43 o
3 -16 3 1 305.63 202.75 146.57 <
3 -16 3 2 73.11 244.56 165.21 <
4 -16 3 -2 189.43 -90.90 114.55 <
4 -16 3 -1 5.19 35.94 118.31 <
4 -16 3 0 571.30 358.31 228.93 <
4 -16 3 1 150.00 141.05 158.79 <
4 -16 3 2 249.37 368.20 269.08 <
5 -16 3 -2 7.38 23.87 169.01 <
5 -16 3 -1 24.85 -85.85 168.42 <
-4 -17 3 -2 9.78 121.53 297.78 <
-4 -17 3 -1 58.52 -137.21 398.37 <
-4 -17 3 0 39.36 -169.27 235.36 <
-4 -17 3 1 64.33 191.21 461.62 <
-4 -17 3 2 81.72 97.24 410.40 <
-3 -17 3 -2 6.22 123.21 226.30 <
-3 -17 3 -1 1616.80 1247.71 356.72 o
-3 -17 3 0 1194.34 1949.76 475.21 o
-3 -17 3 1 173.67 9.04 146.21 <
-3 -17 3 2 24.90 23.17 117.27 <
-2 -17 3 -2 59.88 140.53 103.22 <
-2 17 3 -1 79.42 -147.71 210.40 <
-2 -17 3 -1 79.14 90.68 126.31 <
-2 17 3 0 98.42 64.72 216.75 <
-2 -17 3 0 101.62 159.03 130.77 <
-2 17 3 1 117.91 202.67 118.36 <
-2 -17 3 1 127.73 170.25 106.98 <
-2 17 3 2 142.38 275.93 265.43 <
-2 -17 3 2 140.13 128.05 137.88 <
-1 17 3 -2 230.09 728.94 352.15 <
-1 -17 3 -2 228.65 176.10 119.01 <
-1 17 3 -1 2500.07 2343.70 558.17 o
-1 -17 3 -1 2512.56 2316.94 332.26 o
-1 17 3 0 1754.80 1474.90 456.31 o
-1 -17 3 0 1717.01 1435.40 279.21 o
-1 -17 3 1 561.63 441.35 165.45 <
-1 -17 3 2 26.89 225.52 148.03 <
0 -17 3 -2 99.35 172.60 170.53 <
0 -17 3 -1 102.11 68.50 138.70 <
0 -17 3 0 266.56 411.24 194.32 <
0 -17 3 1 96.28 -53.94 87.44 <
0 -17 3 2 67.39 113.57 146.86 <
1 -17 3 -2 280.50 262.89 129.47 <
1 -17 3 -1 1615.10 1549.56 270.47 o
1 -17 3 0 1676.22 1889.17 299.32 o
1 -17 3 1 1817.51 2021.37 325.37 o
1 -17 3 2 73.61 10.52 113.88 <
2 -17 3 -2 79.95 172.73 105.75 <
2 -17 3 -1 80.32 195.08 148.01 <
2 -17 3 0 450.21 115.99 134.94 <
2 -17 3 1 39.98 233.62 123.40 <
2 -17 3 2 20.28 -37.85 121.96 <
3 -17 3 -2 144.06 230.80 128.10 <
3 -17 3 -1 632.62 633.04 166.58 o
3 -17 3 0 746.93 797.73 196.47 o
3 -17 3 1 235.02 525.36 207.73 <
3 -17 3 2 13.23 176.36 155.64 <
4 -17 3 -2 35.07 59.52 186.40 <
4 -17 3 -1 12.12 -239.62 169.58 <
4 -17 3 0 236.93 687.24 309.54 <
4 -17 3 1 232.03 342.00 244.47 <
4 -17 3 2 67.97 138.29 188.49 <
5 -17 3 -2 50.96 189.49 150.77 <
-4 -18 3 0 8.96 -243.91 433.62 <
-4 -18 3 1 82.51 811.92 535.34 <
-4 -18 3 2 22.99 327.09 388.20 <
-3 -18 3 -2 57.06 154.88 134.73 <
-3 -18 3 -1 181.71 287.46 236.15 <
-3 -18 3 0 431.04 62.77 102.25 <
-3 -18 3 1 195.06 339.17 256.39 <
-3 -18 3 2 305.04 188.54 120.53 <
-2 -18 3 -2 12.45 21.52 108.11 <
-2 -18 3 -1 450.70 498.77 154.79 o
-2 18 3 0 47.05 407.92 313.78 <
-2 -18 3 0 41.19 47.48 128.18 <
-2 18 3 1 1.75 117.16 266.37 <
-2 -18 3 1 2.39 -53.27 135.57 <
-2 18 3 2 51.92 57.79 158.60 <
-2 -18 3 2 51.67 307.11 163.86 <
-1 18 3 -2 119.83 228.93 277.93 <
-1 -18 3 -2 119.90 188.29 129.51 <
-1 18 3 -1 2443.91 2572.89 571.80 o
-1 -18 3 -1 2467.28 2179.82 348.46 o
-1 18 3 0 756.40 185.29 362.44 <
-1 -18 3 0 733.67 358.50 177.95 <
-1 -18 3 1 302.21 159.27 153.60 <
-1 -18 3 2 271.10 210.15 126.21 <
0 -18 3 -2 47.43 28.11 120.23 <
0 -18 3 -1 396.46 858.30 271.60 o
0 -18 3 0 79.42 262.39 155.70 <
0 -18 3 1 35.69 116.36 144.62 <
0 -18 3 2 173.92 408.53 179.68 <
1 -18 3 -2 109.64 313.20 178.69 <
1 -18 3 -1 56.46 439.57 159.53 <
1 -18 3 0 793.11 178.21 114.46 <
1 -18 3 1 2679.25 2386.11 344.30 o
1 -18 3 2 192.09 333.50 153.45 <
2 -18 3 -2 126.79 88.83 125.83 <
2 -18 3 -1 50.56 -108.35 65.14 <
2 -18 3 0 110.14 326.56 168.62 <
2 -18 3 1 12.66 -77.72 95.14 <
2 -18 3 2 83.38 131.66 153.10 <
3 -18 3 -2 128.48 45.33 130.92 <
3 -18 3 -1 89.19 -8.48 121.25 <
3 -18 3 0 506.20 413.48 202.36 <
3 -18 3 1 93.23 107.18 167.95 <
3 -18 3 2 70.04 -97.88 147.29 <
4 -18 3 -2 61.47 146.81 167.16 <
4 -18 3 -1 17.31 544.12 434.20 <
4 -18 3 0 44.15 291.22 257.89 <
4 -18 3 1 53.57 -1.72 137.21 <
-4 -19 3 1 26.06 183.29 299.54 <
-4 -19 3 2 4.41 226.23 182.75 <
-3 -19 3 -2 84.90 -45.05 327.70 <
-3 -19 3 -1 657.87 552.10 266.43 <
-3 -19 3 0 1495.42 1212.30 355.37 o
-3 -19 3 1 63.23 -32.79 228.49 <
-3 -19 3 2 129.25 228.67 235.93 <
-2 -19 3 -2 3.95 67.61 150.49 <
-2 -19 3 -1 159.19 551.93 231.08 <
-2 -19 3 0 238.78 81.11 117.07 <
-2 19 3 1 39.74 81.27 151.84 <
-2 -19 3 1 43.78 178.73 117.73 <
-2 19 3 2 25.97 227.84 159.95 <
-2 -19 3 2 23.50 115.49 122.55 <
-1 19 3 -2 154.93 -39.11 194.99 <
-1 -19 3 -2 135.78 327.80 164.66 <
-1 -19 3 -1 524.23 110.35 107.25 <
-1 19 3 0 2781.54 3576.99 692.83 o
-1 -19 3 0 2795.59 3212.52 425.79 o
-1 -19 3 1 110.94 236.43 196.95 <
-1 -19 3 2 112.52 331.20 221.82 <
0 -19 3 -2 5.22 94.18 161.42 <
0 -19 3 -1 256.00 164.03 184.99 <
0 -19 3 0 361.95 28.33 134.18 <
0 -19 3 1 124.60 175.36 187.71 <
0 -19 3 2 107.27 205.04 187.03 <
1 -19 3 -2 741.95 846.62 259.58 o
1 -19 3 -1 408.79 507.43 177.32 <
1 -19 3 0 2218.62 2231.12 345.70 o
1 -19 3 1 682.52 951.32 243.82 o
1 -19 3 2 250.25 292.10 161.21 <
2 -19 3 -2 0.19 174.68 129.77 <
2 -19 3 -1 29.79 285.10 146.57 <
2 -19 3 0 149.61 263.39 143.88 <
2 -19 3 1 85.86 234.52 169.16 <
2 -19 3 2 32.13 206.30 157.71 <
3 -19 3 -2 530.30 675.13 242.30 <
3 -19 3 -1 25.84 -37.68 127.05 <
3 -19 3 0 708.77 425.42 167.32 <
3 -19 3 1 91.84 -165.10 144.31 <
3 -19 3 2 79.65 81.20 247.76 <
4 -19 3 -2 15.86 -275.21 212.80 <
4 -19 3 -1 24.85 84.01 146.07 <
4 -19 3 0 46.25 459.47 442.75 <
-3 -20 3 -2 9.21 38.31 381.74 <
-3 -20 3 -1 38.36 -160.95 254.47 <
-3 -20 3 0 314.64 643.50 300.67 <
-3 -20 3 1 70.68 175.80 179.30 <
-3 -20 3 2 78.98 381.66 288.69 <
-2 -20 3 -2 146.34 -8.54 145.96 <
-2 -20 3 -1 370.76 527.67 231.65 <
-2 -20 3 0 723.68 1187.36 329.15 o
-2 20 3 1 312.49 294.56 191.77 <
-2 -20 3 1 314.84 180.40 182.80 <
-2 20 3 2 70.73 -69.39 107.46 <
-2 -20 3 2 61.58 -116.46 145.42 <
-1 20 3 -2 64.56 29.13 196.19 <
-1 -20 3 -2 58.97 -151.71 108.14 <
-1 20 3 -1 167.89 261.58 146.94 <
-1 -20 3 -1 167.17 113.27 132.25 <
-1 20 3 0 372.37 1146.31 513.62 <
-1 -20 3 0 385.45 838.58 243.21 o
-1 20 3 1 111.64 362.07 332.33 <
-1 -20 3 1 128.99 33.85 147.31 <
-1 -20 3 2 133.47 58.48 170.57 <
0 -20 3 -2 382.58 318.91 168.84 <
0 -20 3 -1 323.88 364.02 229.71 <
0 -20 3 0 320.41 1139.88 326.45 o
0 -20 3 1 592.80 504.08 215.49 <
0 -20 3 2 159.27 173.43 162.92 <
1 -20 3 -2 39.36 84.79 180.30 <
1 -20 3 -1 44.08 541.78 225.17 <
1 -20 3 0 748.51 873.45 232.19 o
1 -20 3 1 172.52 51.46 101.86 <
1 -20 3 2 122.60 60.40 107.46 <
2 -20 3 -2 209.39 252.28 138.47 <
2 -20 3 -1 214.03 264.80 152.36 <
2 -20 3 0 435.27 681.92 219.47 o
2 -20 3 1 364.71 252.65 124.31 <
2 -20 3 2 92.07 85.66 148.32 <
3 -20 3 -2 11.20 138.07 141.66 <
3 -20 3 -1 10.85 -68.70 157.36 <
3 -20 3 0 703.51 512.21 243.19 <
3 -20 3 1 84.95 251.60 208.73 <
3 -20 3 2 27.96 -13.96 233.10 <
4 -20 3 -2 32.51 376.54 293.71 <
4 -20 3 -1 56.91 418.99 181.80 <
-3 -21 3 -1 147.07 60.00 287.11 <
-3 -21 3 0 222.72 105.42 210.60 <
-3 -21 3 1 22.62 87.22 215.91 <
-3 -21 3 2 122.10 290.30 325.00 <
-2 -21 3 -2 270.90 456.94 235.52 <
-2 -21 3 -1 103.75 144.99 160.81 <
-2 -21 3 0 330.05 295.93 142.09 <
-2 -21 3 1 257.64 79.40 120.22 <
-2 21 3 2 244.93 108.74 115.18 <
-2 -21 3 2 256.40 167.90 202.99 <
-1 -21 3 -2 9.87 261.54 156.05 <
-1 21 3 -1 265.39 196.40 248.08 <
-1 -21 3 -1 267.36 306.78 178.38 <
-1 21 3 0 448.81 491.64 366.70 <
-1 -21 3 0 433.76 326.45 227.91 <
-1 21 3 1 16.23 91.74 178.88 <
-1 -21 3 1 14.97 242.67 157.95 <
-1 -21 3 2 231.62 742.98 276.32 <
0 -21 3 -2 101.47 -1.41 158.57 <
0 -21 3 -1 48.38 447.99 225.28 <
0 -21 3 0 360.84 329.96 178.18 <
0 -21 3 1 541.59 637.39 296.13 <
0 -21 3 2 115.18 358.24 254.89 <
1 -21 3 -2 14.50 45.83 140.92 <
1 -21 3 -1 132.20 312.58 217.84 <
1 -21 3 0 372.34 193.36 103.90 <
1 -21 3 1 25.42 164.21 192.58 <
1 -21 3 2 357.59 210.73 148.84 <
2 -21 3 -2 40.31 226.54 162.14 <
2 -21 3 -1 23.74 -112.35 85.98 <
2 -21 3 0 406.84 620.89 209.86 <
2 -21 3 1 446.74 145.23 116.77 <
2 -21 3 2 370.36 101.51 79.20 <
3 -21 3 -2 17.32 135.84 139.23 <
3 -21 3 -1 32.46 -200.88 141.90 <
3 -21 3 0 213.24 199.29 245.19 <
3 -21 3 1 159.77 71.44 236.73 <
3 -21 3 2 85.82 754.66 338.28 <
4 -21 3 -2 23.20 240.51 203.53 <
-3 -22 3 -1 20.35 109.81 202.45 <
-3 -22 3 0 24.28 -28.57 163.32 <
-3 -22 3 1 70.43 -60.03 210.79 <
-3 -22 3 2 18.62 52.85 159.45 <
-2 -22 3 -2 186.53 421.20 238.30 <
-2 -22 3 -1 512.79 82.01 193.14 <
-2 -22 3 0 297.00 -14.26 120.23 <
-2 -22 3 1 284.32 48.29 119.25 <
-2 -22 3 2 16.79 -12.65 134.66 <
-1 -22 3 -2 25.78 225.90 153.66 <
-1 -22 3 -1 29.91 -57.37 165.71 <
-1 22 3 0 20.42 310.33 344.17 <
-1 -22 3 0 17.96 343.09 218.64 <
-1 22 3 1 149.77 317.67 360.81 <
-1 -22 3 1 150.98 101.85 154.70 <
-1 22 3 2 46.10 585.95 343.72 <
-1 -22 3 2 39.60 39.87 122.68 <
0 -22 3 -2 298.38 633.06 293.87 <
0 -22 3 -1 695.89 611.93 239.26 <
0 -22 3 0 412.25 135.23 198.47 <
0 -22 3 1 99.97 269.30 213.90 <
0 -22 3 2 30.33 139.99 162.03 <
1 -22 3 -2 3.56 450.23 287.54 <
1 -22 3 -1 3.42 493.81 235.76 <
1 -22 3 0 62.21 203.73 198.08 <
1 -22 3 1 164.27 -103.61 106.72 <
1 -22 3 2 111.01 268.30 191.45 <
2 -22 3 -2 349.16 372.61 195.53 <
2 -22 3 -1 248.78 247.91 158.49 <
2 -22 3 0 294.94 124.16 95.83 <
2 -22 3 1 169.83 74.53 120.27 <
2 -22 3 2 24.17 192.73 158.70 <
3 -22 3 -2 16.48 17.94 133.62 <
3 -22 3 -1 30.39 227.90 230.10 <
3 -22 3 0 72.29 228.76 206.97 <
3 -22 3 1 25.50 250.26 264.43 <
-3 -23 3 2 46.47 69.89 105.40 <
-2 -23 3 -2 142.67 -67.76 227.21 <
-2 -23 3 -1 225.20 -172.14 177.34 <
-2 -23 3 0 629.26 586.91 245.71 <
-2 -23 3 1 102.43 -54.03 114.86 <
-2 -23 3 2 338.92 346.59 207.47 <
-1 -23 3 -2 433.17 476.57 215.36 <
-1 -23 3 -1 75.17 -30.22 109.11 <
-1 -23 3 0 12.79 -13.41 114.88 <
-1 23 3 1 119.53 287.85 345.24 <
-1 -23 3 1 119.30 63.00 143.20 <
-1 23 3 2 59.95 627.59 323.11 <
-1 -23 3 2 58.05 281.54 177.69 <
0 -23 3 -2 26.56 29.44 116.47 <
0 -23 3 -1 195.08 345.30 186.99 <
0 -23 3 0 278.93 -89.98 159.73 <
0 -23 3 1 145.00 206.14 205.34 <
0 -23 3 2 294.00 453.79 258.50 <
1 -23 3 -2 128.40 -99.77 155.45 <
1 -23 3 -1 71.58 79.74 171.71 <
1 -23 3 0 10.41 228.91 137.97 <
1 -23 3 1 179.04 68.81 142.55 <
1 -23 3 2 221.13 279.48 249.76 <
2 -23 3 -2 37.72 -166.99 155.14 <
2 -23 3 -1 43.28 41.09 171.23 <
2 -23 3 0 874.14 1056.74 286.00 o
2 -23 3 1 158.24 -119.49 154.66 <
2 -23 3 2 233.23 632.32 410.90 <
3 -23 3 -2 45.41 -77.90 143.59 <
3 -23 3 -1 8.43 -5.33 375.09 <
-2 -24 3 0 750.42 947.45 391.79 <
-2 -24 3 1 46.29 65.00 185.47 <
-2 -24 3 2 138.14 263.73 154.71 <
-1 -24 3 -2 110.51 163.95 163.81 <
-1 -24 3 -1 78.95 350.04 246.43 <
-1 -24 3 0 172.66 157.84 127.64 <
-1 24 3 1 120.21 744.09 406.81 <
-1 -24 3 1 118.41 243.19 149.96 <
-1 24 3 2 113.96 160.16 291.63 <
-1 -24 3 2 120.50 137.81 169.47 <
0 -24 3 -2 59.26 146.40 197.21 <
0 -24 3 -1 117.70 45.33 162.64 <
0 -24 3 0 606.90 710.79 275.86 <
0 -24 3 1 69.16 80.96 149.44 <
0 -24 3 2 92.50 152.68 213.82 <
1 -24 3 -2 1.51 204.51 228.28 <
1 -24 3 -1 5.71 158.12 213.04 <
1 -24 3 0 172.92 207.29 163.95 <
1 -24 3 1 376.10 604.15 267.58 <
1 -24 3 2 24.39 154.62 172.58 <
2 -24 3 -2 51.84 -192.84 188.40 <
2 -24 3 -1 68.44 290.54 215.12 <
2 -24 3 0 510.70 263.26 154.58 <
2 -24 3 1 16.82 57.33 170.71 <
-1 -25 3 -2 114.72 264.78 227.12 <
-1 -25 3 -1 679.35 759.64 438.66 <
-1 -25 3 0 65.06 -67.55 181.58 <
-1 -25 3 1 220.14 -199.16 179.49 <
-1 25 3 2 22.78 792.62 434.68 <
0 -25 3 -2 26.71 227.19 151.71 <
0 -25 3 -1 124.92 -87.81 142.23 <
0 -25 3 0 146.14 189.06 299.04 <
1 -25 3 -2 175.31 -20.48 143.27 <
1 -25 3 -1 390.08 822.08 475.25 <
-6 0 4 1 85.44 -37.39 162.90 <
-6 0 4 2 40.27 766.57 295.96 <
-5 0 4 -2 242.24 167.73 171.43 <
-5 0 4 -1 61.95 87.33 155.27 <
-5 0 4 0 56.04 236.30 188.86 <
-5 0 4 1 16.44 -102.07 146.99 <
-5 0 4 2 2.54 66.29 112.68 <
-4 0 4 -2 51.57 191.97 153.99 <
-4 0 4 -1 753.93 552.58 207.36 <
-4 0 4 0 294.48 253.00 171.66 <
-4 0 4 1 14.75 61.61 117.70 <
-4 0 4 2 76.73 70.51 91.70 <
-3 0 4 -2 103.44 56.05 83.83 <
-3 0 4 -1 172.00 -49.96 93.53 <
-3 0 4 0 9.96 80.03 91.05 <
-3 0 4 1 50.97 70.96 86.50 <
-3 0 4 2 35.27 -29.18 67.70 <
-2 0 4 -2 987.23 1007.02 175.10 o
-2 0 4 -1 1485.71 2161.58 248.52 o
-2 0 4 0 6386.51 6093.29 408.35 o
-2 0 4 1 137.73 220.08 83.11 <
-2 0 4 2 180.69 513.06 139.01 o
-1 0 4 -2 62.60 82.61 65.42 <
-1 0 4 -1 238.50 88.09 63.46 <
-1 0 4 0 19.48 38.85 28.61 <
-1 0 4 1 59.89 80.35 48.87 <
-1 0 4 2 18.28 -3.26 45.09 <
0 0 4 -2 33.68 51.65 47.65 <
0 0 4 -1 786.88 867.19 99.59 o
0 0 4 0 7507.79 8277.39 422.92 o
0 0 4 1 7.12 -105.92 67.27 <
0 0 4 2 56.50 263.56 92.70 <
1 0 4 -2 43.38 50.83 47.74 <
1 0 4 -1 276.92 80.25 48.44 <
1 0 4 0 14.36 54.53 74.63 <
1 0 4 1 55.74 64.83 125.57 <
1 0 4 2 8.95 45.52 112.64 <
2 0 4 -2 68.67 21.41 70.18 <
2 0 4 -1 216.54 191.84 90.03 <
2 0 4 0 13594.90 14000.20 963.61 o
2 0 4 1 780.41 613.08 217.21 <
2 0 4 2 4325.23 4606.91 431.62 o
3 0 4 -2 4.57 149.40 116.96 <
3 0 4 -1 117.21 164.70 130.92 <
3 0 4 0 6.54 256.88 153.66 <
3 0 4 1 31.94 273.87 179.99 <
3 0 4 2 24.07 186.88 144.46 <
4 0 4 -2 67.96 253.95 158.64 <
4 0 4 -1 38.13 137.33 91.33 <
4 0 4 0 2220.09 1236.52 289.54 o
4 0 4 1 658.26 385.96 189.69 <
4 0 4 2 1349.38 827.36 259.26 o
5 0 4 -2 6.30 -44.72 72.53 <
5 0 4 -1 204.98 115.29 155.10 <
5 0 4 0 7.90 -51.44 150.08 <
5 0 4 1 246.54 551.60 217.54 <
5 0 4 2 27.45 130.18 141.42 <
6 0 4 -2 17.98 186.34 196.62 <
6 0 4 -1 237.90 -222.01 213.91 <
-6 1 4 1 61.16 -124.35 216.28 <
-6 -1 4 1 62.54 197.73 202.56 <
-6 1 4 2 101.35 26.54 107.85 <
-6 -1 4 2 99.13 285.35 219.64 <
-5 1 4 -2 76.13 314.82 288.41 <
-5 -1 4 -2 89.43 387.87 323.54 <
-5 1 4 -1 44.62 374.00 193.10 <
-5 -1 4 -1 49.19 216.69 168.18 <
-5 1 4 0 1473.16 1500.60 339.17 o
-5 -1 4 0 1480.72 1618.69 376.89 o
-5 1 4 1 122.11 3.85 150.92 <
-5 -1 4 1 133.18 135.33 131.81 <
-5 1 4 2 114.10 -59.26 117.09 <
-5 -1 4 2 115.93 186.21 164.66 <
-4 1 4 -2 41.97 -200.38 142.25 <
-4 -1 4 -2 38.10 79.09 141.20 <
-4 1 4 -1 258.94 158.66 121.51 <
-4 -1 4 -1 268.20 178.29 156.18 <
-4 1 4 0 2620.79 1956.13 323.06 o
-4 -1 4 0 2616.80 2233.17 348.65 o
-4 1 4 1 99.12 -29.48 108.31 <
-4 -1 4 1 101.44 176.75 111.33 <
-4 1 4 2 201.98 173.42 155.90 <
-4 -1 4 2 189.63 71.13 83.62 <
-3 1 4 -2 12.27 -24.11 96.18 <
-3 -1 4 -2 20.33 191.64 146.57 <
-3 1 4 -1 702.30 255.38 108.29 <
-3 -1 4 -1 711.46 543.47 162.70 o
-3 1 4 0 5143.46 5701.66 462.35 o
-3 -1 4 0 5160.89 5751.96 478.92 o
-3 1 4 1 157.25 -58.68 87.83 <
-3 -1 4 1 172.44 22.74 72.24 <
-3 1 4 2 118.50 172.90 107.33 <
-3 -1 4 2 117.14 133.34 93.22 <
-2 1 4 -2 650.38 545.64 131.97 o
-2 -1 4 -2 632.31 512.19 95.88 o
-2 1 4 -1 718.51 810.05 157.75 o
-2 -1 4 -1 728.01 767.92 157.08 o
-2 1 4 0 4874.41 5196.60 374.22 o
-2 -1 4 0 4783.61 5162.03 377.18 o
-2 1 4 1 55.86 109.18 71.26 <
-2 -1 4 1 56.29 41.31 60.61 <
-2 1 4 2 123.59 180.51 104.09 <
-2 -1 4 2 118.21 135.07 78.22 <
-1 1 4 -2 30.64 99.59 63.29 <
-1 -1 4 -2 33.66 53.16 51.27 <
-1 1 4 -1 6623.72 7548.54 371.11 o
-1 -1 4 -1 6683.03 7307.92 376.65 o
-1 1 4 0 7154.50 7474.69 355.57 o
-1 -1 4 0 7124.88 7519.64 327.78 o
-1 1 4 1 845.89 784.73 103.35 o
-1 -1 4 1 858.08 927.45 120.92 o
-1 1 4 2 89.26 102.16 54.31 <
-1 -1 4 2 92.15 -6.02 53.79 <
0 1 4 -2 67.75 92.77 41.11 <
0 -1 4 -2 65.14 53.13 33.04 <
0 1 4 -1 560.74 473.86 97.66 o
0 -1 4 -1 580.12 534.93 82.35 o
0 1 4 0 31579.00 35101.60 859.41 o
0 -1 4 0 31447.10 34498.70 866.66 o
0 1 4 1 77.11 75.22 47.40 <
0 -1 4 1 70.59 102.36 82.57 <
0 1 4 2 58.37 26.04 61.20 <
0 -1 4 2 55.98 183.66 95.11 <
1 1 4 -2 85.37 121.01 84.75 <
1 -1 4 -2 92.59 124.47 53.09 <
1 1 4 -1 126.84 137.71 108.09 <
1 -1 4 -1 111.49 230.75 78.16 <
1 1 4 0 4960.33 4563.15 463.27 o
1 -1 4 0 5008.88 4680.00 293.96 o
1 1 4 1 614.11 639.26 194.88 o
1 -1 4 1 618.64 783.49 131.16 o
1 1 4 2 65.06 199.36 119.68 <
1 -1 4 2 77.07 164.79 82.46 <
2 1 4 -2 15.99 71.05 84.20 <
2 -1 4 -2 16.53 -3.98 47.76 <
2 1 4 -1 7.58 77.42 102.72 <
2 -1 4 -1 6.38 23.78 91.11 <
2 1 4 0 4523.93 4450.40 540.16 o
2 -1 4 0 4491.72 4801.60 390.64 o
2 1 4 1 337.52 127.47 84.85 <
2 -1 4 1 355.93 495.90 152.01 o
2 1 4 2 496.65 448.42 206.03 <
2 -1 4 2 506.51 461.42 124.29 o
3 1 4 -2 209.29 194.47 91.42 <
3 -1 4 -2 238.00 91.14 88.31 <
3 1 4 -1 121.53 162.21 128.99 <
3 -1 4 -1 139.63 157.32 99.33 <
3 1 4 0 2539.11 2569.26 343.96 o
3 -1 4 0 2597.41 2302.63 330.26 o
3 1 4 1 587.35 785.22 212.43 o
3 -1 4 1 584.56 492.86 168.05 <
3 1 4 2 155.51 58.24 106.59 <
3 -1 4 2 143.34 163.05 141.86 <
4 1 4 -2 68.06 172.21 148.05 <
4 -1 4 -2 69.76 242.21 163.82 <
4 1 4 -1 111.53 229.04 185.71 <
4 -1 4 -1 97.14 31.39 95.18 <
4 1 4 0 1953.90 2025.85 366.46 o
4 -1 4 0 1937.04 2079.24 365.33 o
4 1 4 1 241.37 807.79 245.45 o
4 -1 4 1 258.43 441.23 226.62 <
4 1 4 2 28.89 -38.92 83.24 <
4 -1 4 2 20.26 114.81 75.55 <
5 1 4 -2 481.59 111.31 245.51 <
5 -1 4 -2 507.87 -27.55 74.00 <
5 1 4 -1 439.13 501.29 237.21 <
5 -1 4 -1 478.34 37.26 178.30 <
5 1 4 0 543.34 14.05 170.73 <
5 -1 4 0 561.71 218.67 120.38 <
5 1 4 1 8.92 -68.76 83.59 <
5 -1 4 1 8.48 38.52 120.01 <
5 1 4 2 209.51 104.29 174.55 <
5 -1 4 2 210.76 -167.69 135.81 <
6 1 4 -2 53.26 306.45 187.53 <
6 -1 4 -2 52.46 13.59 96.01 <
6 1 4 -1 38.18 86.11 220.82 <
6 -1 4 -1 30.72 204.43 212.01 <
-6 2 4 1 139.64 -34.78 308.04 <
-6 -2 4 1 140.63 330.35 367.44 <
-6 2 4 2 80.92 70.35 214.60 <
-6 -2 4 2 76.45 27.28 214.60 <
-5 2 4 -2 185.36 -30.96 152.25 <
-5 -2 4 -2 183.63 506.66 324.65 <
-5 2 4 -1 53.89 97.77 153.75 <
-5 -2 4 -1 58.10 92.09 218.43 <
-5 2 4 0 253.80 105.75 152.29 <
-5 -2 4 0 247.68 223.84 140.27 <
-5 2 4 1 130.64 219.97 165.12 <
-5 -2 4 1 142.19 233.63 124.14 <
-5 2 4 2 127.60 -116.75 90.53 <
-5 -2 4 2 132.67 136.38 179.45 <
-4 2 4 -2 43.99 98.48 127.05 <
-4 -2 4 -2 41.85 153.42 131.68 <
-4 2 4 -1 69.06 222.67 121.33 <
-4 -2 4 -1 77.10 200.60 179.95 <
-4 2 4 0 3481.35 3565.84 435.99 o
-4 -2 4 0 3565.53 3794.03 472.83 o
-4 2 4 1 762.30 435.36 148.47 <
-4 -2 4 1 757.14 571.71 196.16 <
-4 2 4 2 162.45 93.72 105.20 <
-4 -2 4 2 152.57 61.76 84.53 <
-3 2 4 -2 112.09 117.83 114.33 <
-3 -2 4 -2 110.22 119.79 106.07 <
-3 2 4 -1 241.79 -0.69 62.37 <
-3 -2 4 -1 206.41 82.09 58.07 <
-3 2 4 0 461.57 373.83 155.08 <
-3 -2 4 0 476.11 212.40 101.92 <
-3 2 4 1 88.49 182.56 90.90 <
-3 -2 4 1 92.61 132.34 82.22 <
-3 2 4 2 155.73 111.88 96.46 <
-3 -2 4 2 156.69 87.92 66.39 <
-2 2 4 -2 1638.50 1551.06 225.56 o
-2 -2 4 -2 1613.64 1340.80 144.66 o
-2 2 4 -1 200.55 344.39 125.70 <
-2 -2 4 -1 227.72 127.68 43.85 <
-2 2 4 0 9630.23 10210.50 521.95 o
-2 -2 4 0 9720.02 9911.37 538.03 o
-2 2 4 1 1629.54 1586.41 199.06 o
-2 -2 4 1 1627.25 1576.91 220.75 o
-2 2 4 2 170.18 -0.44 60.79 <
-2 -2 4 2 170.18 95.27 77.75 <
-1 2 4 -2 52.12 104.11 60.31 <
-1 -2 4 -2 48.60 4.15 57.90 <
-1 2 4 -1 6664.92 7572.65 373.83 o
-1 -2 4 -1 6712.95 7438.97 391.26 o
-1 2 4 0 2182.31 2156.69 191.27 o
-1 -2 4 0 2217.06 2197.53 181.45 o
-1 2 4 1 69.68 95.42 55.76 <
-1 -2 4 1 89.32 -2.07 45.29 <
-1 2 4 2 89.63 193.12 70.00 <
-1 -2 4 2 83.85 53.42 42.37 <
0 2 4 -2 132.87 68.98 69.26 <
0 -2 4 -2 135.22 1.22 35.04 <
0 2 4 -1 140.49 78.13 52.77 <
0 -2 4 -1 148.09 135.40 55.55 <
0 2 4 0 43281.40 46807.40 993.65 o
0 -2 4 0 43401.40 47073.20 1019.83 o
0 2 4 1 377.74 248.76 91.11 <
0 -2 4 1 393.92 172.75 54.57 o
0 2 4 2 42.77 101.38 87.74 <
0 -2 4 2 41.52 58.24 52.15 <
1 2 4 -2 133.31 77.70 78.24 <
1 -2 4 -2 130.00 103.27 37.85 <
1 2 4 -1 704.11 620.32 167.51 o
1 -2 4 -1 669.01 660.87 83.42 o
1 2 4 0 3282.30 2758.57 355.09 o
1 -2 4 0 3304.23 2786.71 176.45 o
1 2 4 1 6633.77 7185.02 611.61 o
1 -2 4 1 6555.15 7180.93 299.93 o
1 2 4 2 4.15 -15.57 48.46 <
1 -2 4 2 6.46 -1.39 45.11 <
2 2 4 -2 45.27 18.07 42.52 <
2 -2 4 -2 40.39 5.65 51.96 <
2 2 4 -1 1018.49 1195.82 264.78 o
2 -2 4 -1 1008.30 1191.67 186.23 o
2 2 4 0 5926.75 6392.09 636.63 o
2 -2 4 0 6020.17 6147.16 444.92 o
2 2 4 1 161.04 198.66 133.31 <
2 -2 4 1 183.33 35.41 119.33 <
2 2 4 2 1574.78 1451.62 341.91 o
2 -2 4 2 1561.94 1555.41 241.82 o
3 2 4 -2 182.25 139.47 159.73 <
3 -2 4 -2 174.74 208.84 134.09 <
3 2 4 -1 338.99 479.90 256.04 <
3 -2 4 -1 330.22 372.02 140.47 <
3 2 4 0 930.82 958.61 321.13 <
3 -2 4 0 927.81 1209.36 246.04 o
3 2 4 1 250.49 165.71 155.70 <
3 -2 4 1 271.11 266.74 123.81 <
3 2 4 2 1.32 49.65 131.81 <
3 -2 4 2 2.62 -7.26 135.55 <
4 2 4 -2 147.90 158.49 160.40 <
4 -2 4 -2 135.32 92.79 133.64 <
4 2 4 -1 943.97 832.97 242.13 o
4 -2 4 -1 953.22 659.59 203.79 o
4 2 4 0 1896.23 2181.36 362.02 o
4 -2 4 0 1937.67 1836.93 352.72 o
4 2 4 1 123.11 -30.20 81.59 <
4 -2 4 1 132.04 140.07 141.94 <
4 2 4 2 324.44 241.32 166.43 <
4 -2 4 2 359.32 -67.96 146.70 <
5 2 4 -2 34.95 267.24 201.43 <
5 -2 4 -2 32.49 270.00 194.30 <
5 2 4 -1 152.41 344.81 224.40 <
5 -2 4 -1 147.21 267.95 166.03 <
5 2 4 0 406.68 374.81 241.76 <
5 -2 4 0 392.02 254.97 201.08 <
5 2 4 1 191.22 98.75 113.53 <
5 -2 4 1 171.52 222.15 160.32 <
5 2 4 2 5.59 -177.27 197.66 <
5 -2 4 2 4.47 84.62 168.82 <
6 2 4 -2 157.81 23.00 192.30 <
6 -2 4 -2 141.86 406.62 274.37 <
6 2 4 -1 433.76 508.29 263.61 <
6 -2 4 -1 439.25 51.63 217.75 <
-6 3 4 1 206.86 290.34 363.46 <
-6 -3 4 1 213.93 -17.11 170.68 <
-6 3 4 2 73.15 887.15 472.49 <
-6 -3 4 2 74.79 81.51 150.92 <
-5 3 4 -2 51.08 92.22 130.20 <
-5 -3 4 -2 46.77 -186.14 267.82 <
-5 3 4 -1 8.16 -430.18 383.77 <
-5 -3 4 -1 7.71 -112.96 184.58 <
-5 3 4 0 381.64 90.29 153.21 <
-5 -3 4 0 398.02 257.23 221.64 <
-5 3 4 1 103.27 26.26 131.57 <
-5 -3 4 1 95.59 40.42 109.29 <
-5 3 4 2 99.73 -99.29 143.25 <
-5 -3 4 2 96.67 42.15 76.09 <
-4 3 4 -2 178.80 71.85 80.33 <
-4 -3 4 -2 168.59 105.88 144.92 <
-4 3 4 -1 392.54 332.94 114.33 <
-4 -3 4 -1 398.23 370.39 137.79 <
-4 3 4 0 1216.11 1824.38 312.37 o
-4 -3 4 0 1232.32 1478.18 292.87 o
-4 3 4 1 376.62 244.36 127.05 <
-4 -3 4 1 400.73 507.16 173.77 <
-4 3 4 2 135.22 -38.46 78.14 <
-4 -3 4 2 138.83 266.61 144.62 <
-3 3 4 -2 20.14 41.28 87.57 <
-3 -3 4 -2 18.67 141.57 74.09 <
-3 3 4 -1 263.16 168.21 95.62 <
-3 -3 4 -1 280.31 417.74 150.92 <
-3 3 4 0 2588.00 2429.16 309.50 o
-3 -3 4 0 2649.05 2049.26 299.08 o
-3 3 4 1 365.09 -24.11 71.94 <
-3 -3 4 1 335.03 50.16 71.00 <
-3 3 4 2 189.37 98.72 82.11 <
-3 -3 4 2 192.76 107.31 75.26 <
-2 3 4 -2 442.80 479.88 140.34 o
-2 -3 4 -2 467.38 520.19 110.75 o
-2 3 4 -1 1768.91 2142.90 253.71 o
-2 -3 4 -1 1798.01 1973.35 181.38 o
-2 3 4 0 1433.05 1301.08 194.45 o
-2 -3 4 0 1461.47 1540.21 217.01 o
-2 3 4 1 512.87 477.64 107.09 o
-2 -3 4 1 533.16 237.41 92.55 <
-2 3 4 2 212.27 236.49 69.03 o
-2 -3 4 2 208.88 218.67 89.12 <
-1 3 4 -2 73.78 219.86 126.59 <
-1 -3 4 -2 71.57 40.68 47.96 <
-1 3 4 -1 113.88 67.89 59.02 <
-1 -3 4 -1 106.69 37.00 54.98 <
-1 3 4 0 7348.20 7168.19 355.31 o
-1 -3 4 0 7449.84 7444.12 344.22 o
-1 3 4 1 927.51 951.74 139.68 o
-1 -3 4 1 953.71 937.89 128.07 o
-1 3 4 2 183.48 -42.35 84.25 <
-1 -3 4 2 191.10 58.07 60.26 <
0 3 4 -2 67.53 40.41 47.26 <
0 -3 4 -2 73.03 50.05 37.44 <
0 3 4 -1 2602.96 3007.05 245.97 o
0 -3 4 -1 2614.97 2927.80 179.82 o
0 3 4 0 27203.80 27609.20 763.27 o
0 -3 4 0 27228.20 28235.00 634.11 o
0 3 4 1 53.12 231.10 102.59 <
0 -3 4 1 49.37 55.02 42.18 <
0 3 4 2 343.41 372.46 108.51 o
0 -3 4 2 330.28 353.96 81.00 o
1 3 4 -2 194.01 51.66 54.02 <
1 -3 4 -2 189.06 21.98 24.79 <
1 3 4 -1 437.94 250.39 92.37 <
1 -3 4 -1 434.14 387.68 61.89 o
1 3 4 0 9850.16 10038.50 676.65 o
1 -3 4 0 9928.00 9583.89 291.87 o
1 3 4 1 1603.65 1651.06 288.85 o
1 -3 4 1 1577.64 1829.31 152.42 o
1 3 4 2 90.48 68.83 70.87 <
1 -3 4 2 93.16 40.76 31.92 <
2 3 4 -2 82.43 131.31 107.97 <
2 -3 4 -2 82.60 29.13 47.31 <
2 3 4 -1 983.89 824.71 197.43 o
2 -3 4 -1 982.91 778.34 90.27 o
2 3 4 0 3083.72 3408.87 461.86 o
2 -3 4 0 3122.18 3182.41 223.38 o
2 3 4 1 666.29 711.37 213.77 o
2 -3 4 1 659.75 515.67 101.55 o
2 3 4 2 207.91 39.52 112.27 <
2 -3 4 2 238.38 88.14 52.94 <
3 3 4 -2 290.87 75.22 107.49 <
3 -3 4 -2 286.24 82.75 92.96 <
3 3 4 -1 31.54 179.42 167.84 <
3 -3 4 -1 25.16 108.55 87.81 <
3 3 4 0 5091.31 4134.06 603.97 o
3 -3 4 0 5143.80 4295.33 448.53 o
3 3 4 1 1492.29 1083.75 309.09 o
3 -3 4 1 1493.15 1397.57 285.19 o
3 3 4 2 414.45 362.02 212.91 <
3 -3 4 2 418.82 392.98 165.64 <
4 3 4 -2 56.75 141.44 191.40 <
4 -3 4 -2 53.91 -74.09 129.60 <
4 3 4 -1 345.62 110.46 138.73 <
4 -3 4 -1 342.36 332.50 163.51 <
4 3 4 0 2508.05 3096.03 442.36 o
4 -3 4 0 2511.97 2873.14 428.88 o
4 3 4 1 431.03 203.21 168.90 <
4 -3 4 1 428.59 211.51 195.62 <
4 3 4 2 63.05 465.66 215.40 <
4 -3 4 2 56.77 -71.00 218.69 <
5 3 4 -2 309.08 389.90 211.73 <
5 -3 4 -2 303.82 236.67 127.83 <
5 3 4 -1 124.09 415.72 233.36 <
5 -3 4 -1 122.06 512.21 250.63 <
5 3 4 0 1441.56 248.71 166.55 <
5 -3 4 0 1446.30 985.74 343.44 <
5 3 4 1 126.06 -33.02 146.58 <
5 -3 4 1 118.90 -135.64 207.84 <
5 3 4 2 159.28 -18.63 145.71 <
5 -3 4 2 144.89 -159.01 144.32 <
6 3 4 -2 22.56 -22.13 182.36 <
6 -3 4 -2 22.17 20.61 145.20 <
6 3 4 -1 131.04 430.12 236.15 <
6 -3 4 -1 133.26 225.52 186.64 <
-6 4 4 1 51.75 -47.66 262.52 <
-6 -4 4 1 52.17 333.82 344.42 <
-6 4 4 2 71.44 171.38 259.65 <
-6 -4 4 2 67.31 146.73 208.60 <
-5 4 4 -2 126.60 -90.03 285.78 <
-5 -4 4 -2 131.24 163.92 209.69 <
-5 4 4 -1 135.29 39.05 101.29 <
-5 -4 4 -1 143.11 549.90 362.00 <
-5 4 4 0 2311.75 1831.53 340.20 o
-5 -4 4 0 2334.09 1386.50 495.03 <
-5 4 4 1 114.78 152.95 116.36 <
-5 -4 4 1 115.57 148.12 167.75 <
-5 4 4 2 333.61 54.77 84.85 <
-5 -4 4 2 335.61 40.55 156.81 <
-4 4 4 -2 808.13 680.13 212.82 o
-4 -4 4 -2 805.34 692.59 235.36 <
-4 4 4 -1 274.68 214.97 132.16 <
-4 -4 4 -1 276.64 493.90 218.86 <
-4 4 4 0 55.74 52.55 76.16 <
-4 -4 4 0 55.90 218.49 149.40 <
-4 4 4 1 130.45 -67.66 106.51 <
-4 -4 4 1 150.11 15.91 99.64 <
-4 4 4 2 211.74 138.42 102.16 <
-4 -4 4 2 212.90 145.58 122.99 <
-3 4 4 -2 309.95 446.23 163.10 <
-3 -4 4 -2 305.05 222.91 116.22 <
-3 4 4 -1 435.03 327.33 122.94 <
-3 -4 4 -1 424.08 367.98 146.34 <
-3 4 4 0 11130.60 10791.30 651.67 o
-3 -4 4 0 11155.80 10812.50 684.89 o
-3 4 4 1 348.64 241.62 96.44 <
-3 -4 4 1 347.77 220.41 96.85 <
-3 4 4 2 446.94 497.01 159.86 o
-3 -4 4 2 437.90 346.67 94.98 o
-2 4 4 -2 5956.44 5358.66 407.05 o
-2 -4 4 -2 6001.01 5267.17 323.54 o
-2 4 4 -1 352.15 589.65 143.49 o
-2 -4 4 -1 360.78 391.27 91.94 o
-2 4 4 0 527.58 219.64 93.88 <
-2 -4 4 0 511.29 193.51 80.22 <
-2 4 4 1 510.14 538.45 124.99 o
-2 -4 4 1 541.03 467.68 123.27 o
-2 4 4 2 251.42 65.35 47.83 <
-2 -4 4 2 258.00 223.65 100.86 <
-1 4 4 -2 221.02 201.25 157.55 <
-1 -4 4 -2 223.21 21.76 54.37 <
-1 4 4 -1 216.89 260.41 132.38 <
-1 -4 4 -1 241.62 269.54 71.13 o
-1 4 4 0 29069.30 29153.40 1226.54 o
-1 -4 4 0 29093.60 30757.00 606.11 o
-1 4 4 1 965.47 629.52 186.68 o
-1 -4 4 1 962.36 866.06 110.55 o
-1 4 4 2 287.43 278.10 49.90 o
-1 -4 4 2 281.50 248.01 59.74 o
0 4 4 -2 87.62 97.49 69.59 <
0 -4 4 -2 76.48 20.04 33.02 <
0 4 4 -1 632.77 529.04 79.05 o
0 -4 4 -1 661.16 546.41 86.53 o
0 4 4 0 2419.93 2398.85 166.07 o
0 -4 4 0 2348.83 2627.02 198.84 o
0 4 4 1 39.56 73.33 82.85 <
0 -4 4 1 44.30 33.13 35.28 <
0 4 4 2 148.55 127.83 99.40 <
0 -4 4 2 149.31 91.81 48.44 <
1 4 4 -2 101.86 24.17 75.55 <
1 -4 4 -2 109.87 -4.63 29.76 <
1 4 4 -1 54.70 -56.42 77.07 <
1 -4 4 -1 59.77 18.83 32.98 <
1 4 4 0 27383.40 27403.80 1101.07 o
1 -4 4 0 27517.80 27767.30 497.79 o
1 4 4 1 4621.02 4680.89 493.29 o
1 -4 4 1 4626.72 4591.60 218.73 o
1 4 4 2 170.17 393.35 166.64 <
1 -4 4 2 171.37 136.51 50.85 <
2 4 4 -2 221.10 12.00 98.27 <
2 -4 4 -2 229.69 192.40 59.61 o
2 4 4 -1 1439.57 1105.12 243.80 o
2 -4 4 -1 1485.26 1216.71 152.97 o
2 4 4 0 255.38 48.79 73.18 <
2 -4 4 0 259.18 156.82 61.35 <
2 4 4 1 54.35 82.29 119.05 <
2 -4 4 1 49.02 -127.73 83.62 <
2 4 4 2 472.37 530.16 240.93 <
2 -4 4 2 420.57 147.86 68.94 <
3 4 4 -2 18.52 335.80 162.93 <
3 -4 4 -2 20.84 -77.31 101.03 <
3 4 4 -1 35.68 161.49 117.79 <
3 -4 4 -1 30.48 -78.05 84.70 <
3 4 4 0 10444.40 9209.02 881.45 o
3 -4 4 0 10598.00 9673.57 671.30 o
3 4 4 1 862.60 1070.48 303.46 o
3 -4 4 1 913.69 872.30 223.91 o
3 4 4 2 154.28 142.25 132.42 <
3 -4 4 2 154.88 -43.05 127.01 <
4 4 4 -2 133.70 270.48 205.41 <
4 -4 4 -2 134.61 178.60 107.11 <
4 4 4 -1 281.21 276.32 226.63 <
4 -4 4 -1 316.57 193.43 133.66 <
4 4 4 0 141.15 15.55 115.96 <
4 -4 4 0 153.38 216.12 145.51 <
4 4 4 1 58.89 229.65 152.64 <
4 -4 4 1 54.81 278.34 201.53 <
4 4 4 2 102.47 141.53 181.23 <
4 -4 4 2 110.48 483.94 227.02 <
5 4 4 -2 10.88 -83.18 124.44 <
5 -4 4 -2 9.81 -42.65 164.34 <
5 4 4 -1 83.54 141.29 125.16 <
5 -4 4 -1 80.52 -50.46 126.53 <
5 4 4 0 2324.89 2415.09 452.73 o
5 -4 4 0 2342.62 2255.56 456.25 o
5 4 4 1 538.64 876.66 282.24 o
5 -4 4 1 546.20 604.06 293.54 <
5 4 4 2 68.40 417.61 216.04 <
5 -4 4 2 59.50 -116.72 215.52 <
6 4 4 -2 96.22 -27.89 162.18 <
6 -4 4 -2 86.96 -247.63 207.21 <
6 4 4 -1 223.89 249.86 207.34 <
6 -4 4 -1 229.51 -22.07 368.67 <
-6 5 4 1 199.30 410.83 413.29 <
-6 5 4 2 33.39 -33.66 151.95 <
-6 -5 4 2 36.99 20.24 185.58 <
-5 5 4 -2 17.40 -87.70 150.68 <
-5 -5 4 -2 16.80 -103.74 228.28 <
-5 5 4 -1 75.92 73.33 174.38 <
-5 -5 4 -1 72.85 -80.03 156.75 <
-5 5 4 0 120.78 -131.18 142.99 <
-5 -5 4 0 118.98 61.00 219.41 <
-5 5 4 1 206.87 -120.33 88.12 <
-5 -5 4 1 205.87 -32.11 196.01 <
-5 5 4 2 53.12 101.88 168.27 <
-5 -5 4 2 51.38 184.84 140.99 <
-4 5 4 -2 144.29 29.67 120.90 <
-4 -5 4 -2 137.54 316.80 229.73 <
-4 5 4 -1 27.43 86.03 108.35 <
-4 -5 4 -1 25.84 -15.24 86.62 <
-4 5 4 0 499.51 212.14 122.42 <
-4 -5 4 0 502.05 582.99 193.86 o
-4 5 4 1 253.58 266.04 128.09 <
-4 -5 4 1 279.31 106.29 92.25 <
-4 5 4 2 150.71 161.27 91.81 <
-4 -5 4 2 162.88 129.55 141.79 <
-3 5 4 -2 45.37 167.75 119.57 <
-3 -5 4 -2 44.66 4.26 141.96 <
-3 5 4 -1 83.61 64.57 57.48 <
-3 -5 4 -1 76.75 182.62 105.49 <
-3 5 4 0 225.82 163.81 115.49 <
-3 -5 4 0 216.57 162.70 65.03 <
-3 5 4 1 181.29 162.92 121.60 <
-3 -5 4 1 172.92 24.63 67.48 <
-3 5 4 2 62.89 211.23 142.36 <
-3 -5 4 2 61.52 105.46 78.61 <
-2 5 4 -2 131.68 77.63 119.99 <
-2 -5 4 -2 145.00 119.55 70.40 <
-2 5 4 -1 71.69 57.72 54.13 <
-2 -5 4 -1 78.51 108.66 52.74 <
-2 5 4 0 3896.42 3980.22 499.40 o
-2 -5 4 0 3962.03 3941.84 231.43 o
-2 5 4 1 94.76 5.24 53.66 <
-2 -5 4 1 100.51 147.75 70.48 <
-2 5 4 2 361.46 308.19 192.21 <
-2 -5 4 2 372.61 137.33 67.66 <
-1 5 4 -2 33.56 84.35 150.14 <
-1 -5 4 -2 32.97 62.57 42.89 <
-1 5 4 -1 258.91 514.12 185.75 <
-1 -5 4 -1 250.01 75.26 36.39 <
-1 5 4 0 887.72 672.24 189.40 o
-1 -5 4 0 837.13 784.18 107.22 o
-1 5 4 1 140.72 -62.61 75.24 <
-1 -5 4 1 163.21 -58.70 34.98 <
-1 5 4 2 62.60 212.71 119.72 <
-1 -5 4 2 57.55 56.83 39.65 <
0 5 4 -2 583.17 760.85 209.54 o
0 -5 4 -2 584.16 596.73 86.55 o
0 5 4 -1 798.96 597.21 141.23 o
0 -5 4 -1 787.30 457.79 85.50 o
0 5 4 0 3729.33 3656.15 355.24 o
0 -5 4 0 3895.39 3435.79 235.51 o
0 5 4 1 129.56 87.98 86.92 <
0 -5 4 1 128.46 126.14 46.90 <
0 5 4 2 384.70 185.34 115.40 <
0 -5 4 2 378.12 379.61 74.01 o
1 5 4 -2 1.20 4.18 66.03 <
1 -5 4 -2 1.22 3.19 22.18 <
1 5 4 -1 20.09 117.53 110.20 <
1 -5 4 -1 19.63 77.92 40.13 <
1 5 4 0 1096.18 1453.75 250.36 o
1 -5 4 0 1042.95 1150.08 106.83 o
1 5 4 1 9678.82 10595.10 723.09 o
1 -5 4 1 9668.98 10640.10 427.88 o
1 5 4 2 422.14 181.56 82.77 <
1 -5 4 2 431.93 138.51 59.83 <
2 5 4 -2 327.82 645.96 171.27 o
2 -5 4 -2 321.13 411.85 91.83 o
2 5 4 -1 676.89 549.80 175.21 o
2 -5 4 -1 673.82 431.40 98.57 o
2 5 4 0 6668.07 7139.93 645.48 o
2 -5 4 0 6694.26 6939.76 385.03 o
2 5 4 1 54.72 267.41 170.14 <
2 -5 4 1 57.21 66.11 76.87 <
2 5 4 2 462.60 588.23 217.54 <
2 -5 4 2 463.49 470.79 149.18 o
3 5 4 -2 31.93 58.76 97.29 <
3 -5 4 -2 33.76 0.89 77.64 <
3 5 4 -1 64.80 -33.42 124.05 <
3 -5 4 -1 59.40 124.90 90.01 <
3 5 4 0 1008.27 967.93 277.21 o
3 -5 4 0 996.91 1052.14 223.99 o
3 5 4 1 244.56 12.93 148.81 <
3 -5 4 1 286.29 126.09 129.18 <
3 5 4 2 109.64 210.58 148.44 <
3 -5 4 2 117.85 39.22 103.96 <
4 5 4 -2 127.91 564.82 258.97 <
4 -5 4 -2 118.40 255.17 160.92 <
4 5 4 -1 377.84 643.78 290.69 <
4 -5 4 -1 369.68 263.32 163.31 <
4 5 4 0 1249.42 1253.56 380.18 o
4 -5 4 0 1249.89 1760.98 344.52 o
4 5 4 1 140.17 484.40 296.30 <
4 -5 4 1 123.79 317.59 202.51 <
4 5 4 2 12.32 0.83 89.40 <
4 -5 4 2 10.26 274.87 200.60 <
5 5 4 -2 26.94 318.80 204.23 <
5 -5 4 -2 28.60 64.77 167.57 <
5 5 4 -1 232.93 -147.07 102.74 <
5 -5 4 -1 224.88 53.46 76.20 <
5 5 4 0 642.95 735.14 267.71 <
5 -5 4 0 648.79 813.10 313.50 <
5 5 4 1 211.42 0.37 235.67 <
5 -5 4 1 194.06 147.01 165.43 <
5 5 4 2 335.97 216.93 172.21 <
5 -5 4 2 339.14 158.57 162.42 <
6 5 4 -2 79.72 79.37 162.99 <
6 -5 4 -2 72.33 387.33 262.15 <
6 5 4 -1 137.78 434.09 282.23 <
-6 6 4 1 139.48 -90.33 154.62 <
-6 6 4 2 48.46 -152.31 160.05 <
-6 -6 4 2 47.17 -169.40 254.91 <
-5 6 4 -2 79.17 374.63 336.05 <
-5 -6 4 -2 82.09 196.41 330.57 <
-5 6 4 -1 331.83 111.64 176.30 <
-5 -6 4 -1 338.07 43.76 304.35 <
-5 6 4 0 131.65 206.51 238.10 <
-5 -6 4 0 129.73 277.10 262.73 <
-5 6 4 1 162.89 -67.85 259.63 <
-5 -6 4 1 157.85 294.28 225.58 <
-5 6 4 2 98.54 48.72 146.10 <
-5 -6 4 2 99.65 230.51 188.49 <
-4 6 4 -2 1020.10 988.98 267.04 o
-4 -6 4 -2 1012.24 713.00 337.17 <
-4 6 4 -1 4.80 172.30 157.57 <
-4 -6 4 -1 3.71 145.71 171.84 <
-4 6 4 0 3766.76 2923.28 401.11 o
-4 -6 4 0 3813.87 3128.92 465.97 o
-4 6 4 1 240.95 140.88 149.66 <
-4 -6 4 1 246.02 98.09 88.72 <
-4 6 4 2 188.86 265.60 122.99 <
-4 -6 4 2 183.63 354.80 195.27 <
-3 6 4 -2 51.31 181.71 134.42 <
-3 -6 4 -2 55.48 212.19 121.73 <
-3 6 4 -1 299.29 246.52 114.79 <
-3 -6 4 -1 278.22 421.53 163.14 <
-3 6 4 0 515.11 385.14 151.16 <
-3 -6 4 0 504.89 402.59 103.96 o
-3 6 4 1 447.11 355.22 154.32 <
-3 -6 4 1 443.48 434.29 110.96 o
-3 6 4 2 194.68 295.30 105.38 <
-3 -6 4 2 183.38 315.52 106.20 <
-2 6 4 -2 1196.71 927.41 256.69 o
-2 -6 4 -2 1237.88 1032.31 123.29 o
-2 6 4 -1 4.64 113.83 140.97 <
-2 -6 4 -1 4.80 61.00 49.24 <
-2 6 4 0 18071.80 19040.60 1110.99 o
-2 -6 4 0 18178.50 18641.10 519.40 o
-2 6 4 1 382.53 211.43 142.96 <
-2 -6 4 1 377.71 42.24 55.66 <
-2 6 4 2 315.46 386.96 232.88 <
-2 -6 4 2 309.20 356.92 101.01 o
-1 6 4 -2 61.26 14.05 105.96 <
-1 -6 4 -2 57.40 35.48 36.98 <
-1 6 4 -1 12053.30 13267.10 858.01 o
-1 -6 4 -1 11944.70 13782.90 419.33 o
-1 6 4 0 1906.59 1386.03 283.74 o
-1 -6 4 0 1904.36 1475.12 149.71 o
-1 6 4 1 332.78 168.23 99.16 <
-1 -6 4 1 344.56 190.95 58.37 o
-1 6 4 2 469.19 548.84 233.71 <
-1 -6 4 2 463.98 489.05 105.53 o
0 6 4 -2 246.31 300.87 188.62 <
0 -6 4 -2 242.62 79.64 48.53 <
0 -6 4 -1 29.26 42.46 58.29 <
0 6 4 0 12356.20 12364.10 659.35 o
0 -6 4 0 12502.50 12851.30 462.38 o
0 6 4 1 692.80 578.24 152.62 o
0 -6 4 1 695.79 450.46 76.77 o
0 6 4 2 59.75 7.78 79.88 <
0 -6 4 2 56.55 66.31 46.18 <
1 6 4 -2 224.39 -5.96 31.44 <
1 -6 4 -2 226.26 8.54 45.28 <
1 6 4 -1 1828.60 1764.96 248.52 o
1 -6 4 -1 1831.85 1810.95 172.82 o
1 6 4 0 1776.40 1666.39 278.60 o
1 -6 4 0 1787.77 1362.74 155.08 o
1 6 4 1 6676.99 7018.33 584.00 o
1 -6 4 1 6660.26 7364.83 365.94 o
1 6 4 2 369.23 280.89 154.27 <
1 -6 4 2 355.25 270.71 90.05 o
2 6 4 -2 1355.88 1402.59 246.49 o
2 -6 4 -2 1336.54 1442.35 169.40 o
2 6 4 -1 400.17 598.32 190.01 o
2 -6 4 -1 409.02 640.67 118.68 o
2 6 4 0 13482.40 14004.70 888.78 o
2 -6 4 0 13520.40 13542.00 548.95 o
2 6 4 1 603.97 882.54 261.08 o
2 -6 4 1 601.98 509.36 120.85 o
2 6 4 2 137.65 -3.94 152.29 <
2 -6 4 2 137.89 128.36 87.25 <
3 6 4 -2 193.82 32.63 116.75 <
3 -6 4 -2 190.03 150.44 76.59 <
3 6 4 -1 834.91 661.41 212.02 o
3 -6 4 -1 854.11 714.92 139.47 o
3 6 4 0 996.15 1198.78 313.06 o
3 -6 4 0 971.47 827.88 169.32 o
3 6 4 1 141.81 210.08 224.40 <
3 -6 4 1 174.51 265.21 139.97 <
3 6 4 2 86.14 275.80 204.25 <
3 -6 4 2 66.67 -14.37 114.72 <
4 6 4 -2 823.21 683.85 272.13 <
4 -6 4 -2 817.41 350.17 185.29 <
4 6 4 -1 503.26 349.91 166.60 <
4 -6 4 -1 513.49 412.96 217.86 <
4 6 4 0 2461.70 1720.35 455.07 o
4 -6 4 0 2469.19 1483.77 337.67 o
4 6 4 1 126.13 -243.06 100.90 <
4 -6 4 1 125.92 182.34 156.14 <
4 6 4 2 120.82 -148.84 209.67 <
4 -6 4 2 122.89 310.24 136.29 <
5 6 4 -2 63.35 113.20 177.80 <
5 -6 4 -2 62.57 267.80 220.93 <
5 6 4 -1 151.72 41.81 196.73 <
5 -6 4 -1 167.11 457.20 170.27 <
5 6 4 0 154.34 7.59 188.53 <
5 -6 4 0 139.91 334.74 183.34 <
5 6 4 1 173.66 227.63 200.88 <
5 -6 4 1 164.35 99.81 142.64 <
5 6 4 2 36.91 364.31 195.41 <
5 -6 4 2 38.13 -146.14 181.42 <
6 6 4 -2 419.52 121.07 194.75 <
6 -6 4 -2 405.86 353.24 239.91 <
-6 7 4 1 31.55 204.80 214.90 <
-6 7 4 2 144.19 -97.20 325.13 <
-6 -7 4 2 141.53 -449.88 411.92 <
-5 7 4 -2 90.68 -54.53 144.44 <
-5 -7 4 -2 92.17 -74.70 230.43 <
-5 7 4 -1 413.66 458.10 254.28 <
-5 -7 4 -1 422.98 682.39 370.18 <
-5 7 4 0 779.98 683.79 410.85 <
-5 -7 4 0 764.07 464.27 287.96 <
-5 7 4 1 58.28 27.15 185.49 <
-5 -7 4 1 57.86 147.71 148.49 <
-5 7 4 2 22.69 -149.25 146.51 <
-5 -7 4 2 23.01 -134.49 206.21 <
-4 7 4 -2 406.95 177.14 187.91 <
-4 -7 4 -2 397.44 326.26 287.11 <
-4 7 4 -1 109.35 109.27 103.36 <
-4 -7 4 -1 108.95 155.73 137.21 <
-4 7 4 0 1355.22 718.76 215.14 o
-4 -7 4 0 1329.05 1270.56 430.23 <
-4 7 4 1 47.42 52.05 116.05 <
-4 -7 4 1 40.07 254.30 169.58 <
-4 7 4 2 209.98 203.15 130.66 <
-4 -7 4 2 203.34 201.67 171.45 <
-3 7 4 -2 201.27 27.92 99.40 <
-3 -7 4 -2 195.17 181.97 132.75 <
-3 7 4 -1 678.19 629.04 259.37 <
-3 -7 4 -1 652.66 774.62 196.97 o
-3 7 4 0 1604.75 1948.69 396.09 o
-3 -7 4 0 1584.82 1829.43 234.89 o
-3 7 4 1 335.98 242.75 170.60 <
-3 -7 4 1 327.39 432.01 123.25 o
-3 7 4 2 97.37 -80.16 84.48 <
-3 -7 4 2 97.88 37.50 74.09 <
-2 7 4 -2 67.93 49.50 108.09 <
-2 -7 4 -2 92.72 144.60 77.14 <
-2 7 4 -1 35.37 -76.35 97.49 <
-2 -7 4 -1 39.43 -19.15 42.39 <
-2 7 4 0 9256.91 9543.86 807.46 o
-2 -7 4 0 9194.10 9661.33 390.53 o
-2 7 4 1 76.62 -5.00 74.85 <
-2 -7 4 1 70.67 105.03 68.22 <
-2 7 4 2 206.79 264.11 252.82 <
-2 -7 4 2 208.64 418.77 93.46 o
-1 7 4 -2 449.29 151.45 55.31 <
-1 -7 4 -2 435.92 295.93 71.83 o
-1 7 4 -1 12651.70 13790.90 911.34 o
-1 -7 4 -1 12701.50 14172.20 450.85 o
-1 7 4 0 1942.30 1429.92 321.70 o
-1 -7 4 0 1958.01 1953.45 178.53 o
-1 7 4 1 1954.58 1816.90 364.22 o
-1 -7 4 1 1978.77 1548.28 167.32 o
-1 7 4 2 233.27 247.28 158.99 <
-1 -7 4 2 228.36 153.47 71.38 <
0 -7 4 -2 205.68 164.70 73.68 <
0 -7 4 -1 85.18 104.27 48.18 <
0 7 4 0 421.59 398.79 114.49 o
0 -7 4 0 559.80 467.40 95.14 o
0 7 4 1 173.96 22.28 34.42 <
0 -7 4 1 171.14 107.59 54.46 <
0 7 4 2 174.49 240.71 116.25 <
0 -7 4 2 168.48 74.64 48.76 <
1 7 4 -2 199.12 50.11 39.26 <
1 -7 4 -2 205.19 -66.89 56.05 <
1 7 4 -1 1117.82 894.77 177.06 o
1 -7 4 -1 1132.15 867.06 122.12 o
1 7 4 0 988.04 761.66 180.18 o
1 -7 4 0 1002.74 1035.26 144.73 o
1 7 4 1 8941.66 9215.11 650.89 o
1 -7 4 1 8949.15 8779.86 413.76 o
1 7 4 2 25.83 -137.49 133.66 <
1 -7 4 2 23.28 31.22 69.18 <
2 7 4 -2 168.77 121.83 91.24 <
2 -7 4 -2 169.05 -45.90 69.01 <
2 7 4 -1 130.55 42.40 63.63 <
2 -7 4 -1 126.13 132.42 64.90 <
2 7 4 0 6896.57 6923.26 615.43 o
2 -7 4 0 6878.08 6233.67 384.77 o
2 7 4 1 88.68 280.63 189.91 <
2 -7 4 1 89.56 -81.14 87.38 <
2 7 4 2 1016.64 1251.32 349.24 o
2 -7 4 2 939.78 1001.39 170.55 o
3 7 4 -2 68.89 227.32 141.75 <
3 -7 4 -2 73.63 -4.74 67.11 <
3 7 4 -1 476.73 148.34 79.92 <
3 -7 4 -1 478.30 433.86 122.79 o
3 7 4 0 356.91 73.77 55.37 <
3 -7 4 0 347.40 303.46 105.81 <
3 7 4 1 915.08 1043.52 301.87 o
3 -7 4 1 950.21 1063.20 191.86 o
3 7 4 2 0.74 -69.07 101.16 <
3 -7 4 2 0.36 16.13 56.92 <
4 7 4 -2 44.25 128.85 215.93 <
4 -7 4 -2 44.83 63.53 96.74 <
4 7 4 -1 119.80 396.31 281.97 <
4 -7 4 -1 119.28 30.55 96.88 <
4 7 4 0 643.28 189.56 158.36 <
4 -7 4 0 630.90 584.11 211.88 <
4 7 4 1 151.97 157.10 177.73 <
4 -7 4 1 163.11 65.51 79.13 <
4 7 4 2 79.63 143.55 145.44 <
4 -7 4 2 88.76 -12.26 136.79 <
5 7 4 -2 43.99 259.17 206.53 <
5 -7 4 -2 51.22 112.62 122.77 <
5 7 4 -1 242.74 216.69 209.79 <
5 -7 4 -1 248.66 -5.13 141.57 <
5 7 4 0 259.50 354.09 206.97 <
5 -7 4 0 256.40 86.14 206.77 <
5 7 4 1 573.96 836.79 511.14 <
5 -7 4 1 573.12 279.58 173.25 <
5 7 4 2 15.04 400.27 336.85 <
5 -7 4 2 14.25 143.36 154.12 <
6 7 4 -2 4.68 -36.48 112.05 <
6 -7 4 -2 4.70 -114.79 240.34 <
-6 8 4 2 20.00 101.75 211.43 <
-5 8 4 -2 138.33 256.52 292.63 <
-5 -8 4 -2 145.79 268.80 355.91 <
-5 8 4 -1 80.80 -20.15 151.95 <
-5 -8 4 -1 79.81 -153.58 308.30 <
-5 8 4 0 39.59 -247.52 256.47 <
-5 -8 4 0 37.23 148.03 269.48 <
-5 8 4 1 220.12 196.47 236.32 <
-5 -8 4 1 216.14 -235.49 236.47 <
-5 8 4 2 15.89 123.99 128.03 <
-5 -8 4 2 16.82 647.33 366.17 <
-4 8 4 -2 39.01 222.06 192.58 <
-4 -8 4 -2 42.65 105.90 228.15 <
-4 8 4 -1 65.94 271.63 161.34 <
-4 -8 4 -1 68.02 8.30 149.53 <
-4 8 4 0 220.07 309.74 175.18 <
-4 -8 4 0 211.23 198.23 234.32 <
-4 8 4 1 33.85 238.41 160.38 <
-4 -8 4 1 38.91 225.84 225.91 <
-4 8 4 2 96.93 20.76 110.11 <
-4 -8 4 2 99.67 -118.83 88.44 <
-3 8 4 -2 209.17 148.99 157.18 <
-3 -8 4 -2 201.44 94.25 241.95 <
-3 8 4 -1 222.76 288.13 197.32 <
-3 -8 4 -1 192.24 229.49 180.27 <
-3 8 4 0 563.87 836.53 288.24 <
-3 -8 4 0 573.03 492.31 140.62 o
-3 8 4 1 423.11 330.44 150.97 <
-3 -8 4 1 425.14 290.10 99.07 <
-3 8 4 2 27.90 142.88 149.18 <
-3 -8 4 2 27.23 73.01 63.20 <
-2 8 4 -2 96.09 -137.90 82.85 <
-2 -8 4 -2 78.29 45.20 59.14 <
-2 8 4 -1 447.20 569.38 224.60 <
-2 -8 4 -1 459.33 708.24 110.47 o
-2 8 4 0 178.28 304.17 188.68 <
-2 -8 4 0 180.79 88.66 62.44 <
-2 8 4 1 72.15 318.61 177.21 <
-2 -8 4 1 71.29 57.35 63.70 <
-2 8 4 2 204.11 387.42 204.71 <
-2 -8 4 2 200.53 168.47 86.11 <
-1 8 4 -2 292.73 139.94 64.87 <
-1 -8 4 -2 285.87 363.96 84.40 o
-1 8 4 -1 1383.91 1861.58 355.39 o
-1 -8 4 -1 1419.94 1703.33 167.43 o
-1 8 4 0 1292.81 1140.81 325.22 o
-1 -8 4 0 1256.42 1144.10 130.16 o
-1 8 4 1 275.89 414.99 158.47 <
-1 -8 4 1 291.29 88.74 59.05 <
-1 8 4 2 65.44 254.15 220.26 <
-1 -8 4 2 60.88 20.07 52.11 <
0 -8 4 -2 371.78 115.53 64.14 <
0 -8 4 -1 974.90 1100.27 172.01 o
0 -8 4 0 2724.33 2264.26 274.74 o
0 8 4 1 993.73 962.78 195.91 o
0 -8 4 1 1005.67 1009.00 151.57 o
0 8 4 2 429.97 78.22 72.98 <
0 -8 4 2 417.81 138.01 78.44 <
1 8 4 -2 246.11 367.48 93.11 o
1 -8 4 -2 244.36 340.09 89.72 o
1 8 4 -1 5.35 -90.25 65.51 <
1 -8 4 -1 9.13 -4.20 42.53 <
1 8 4 0 1200.95 881.88 180.84 o
1 -8 4 0 1173.67 1127.53 154.70 o
1 8 4 1 1952.83 1614.02 271.10 o
1 -8 4 1 1867.32 1627.28 189.62 o
1 8 4 2 182.17 116.40 144.21 <
1 -8 4 2 184.73 81.18 89.64 <
2 8 4 -2 258.11 155.23 97.03 <
2 -8 4 -2 254.30 197.97 80.14 <
2 8 4 -1 88.35 383.50 160.86 <
2 -8 4 -1 90.49 154.60 73.27 <
2 8 4 0 374.34 119.35 96.85 <
2 -8 4 0 370.96 38.35 63.98 <
2 8 4 1 793.36 782.83 235.99 o
2 -8 4 1 814.36 750.83 152.88 o
2 8 4 2 3526.09 2798.03 454.55 o
2 -8 4 2 3371.02 2356.39 266.48 o
3 8 4 -2 177.45 295.30 126.29 <
3 -8 4 -2 167.40 221.51 98.48 <
3 8 4 -1 40.97 68.63 65.70 <
3 -8 4 -1 38.91 -22.07 70.14 <
3 8 4 0 282.14 140.31 177.93 <
3 -8 4 0 286.62 157.07 106.20 <
3 8 4 1 165.76 228.30 142.09 <
3 -8 4 1 170.19 165.57 112.14 <
3 8 4 2 64.82 72.96 156.95 <
3 -8 4 2 62.64 -34.94 51.55 <
4 8 4 -2 84.74 279.91 210.10 <
4 -8 4 -2 83.12 115.72 113.01 <
4 8 4 -1 29.69 13.94 115.01 <
4 -8 4 -1 33.63 86.12 104.49 <
4 8 4 0 959.37 1091.03 343.78 o
4 -8 4 0 944.49 805.77 263.73 o
4 8 4 1 515.37 189.73 126.96 <
4 -8 4 1 519.53 177.80 170.51 <
4 -8 4 2 118.21 98.48 81.25 <
5 8 4 -2 74.65 274.69 150.68 <
5 -8 4 -2 67.48 255.56 181.97 <
5 -8 4 -1 41.07 226.93 203.06 <
5 8 4 0 51.90 432.48 399.61 <
5 -8 4 0 51.18 224.97 210.15 <
5 8 4 1 27.30 360.07 294.28 <
5 -8 4 1 22.86 -292.19 173.92 <
5 8 4 2 32.35 368.89 412.74 <
5 -8 4 2 33.52 403.44 287.91 <
6 -8 4 -2 21.84 -255.76 314.39 <
-6 9 4 2 137.78 -198.99 344.50 <
-5 9 4 -2 210.59 -99.44 170.97 <
-5 -9 4 -2 223.09 -5.18 200.95 <
-5 9 4 -1 158.18 252.19 302.56 <
-5 -9 4 -1 176.58 119.46 220.14 <
-5 9 4 0 1239.74 1064.70 462.27 <
-5 -9 4 0 1233.14 1460.84 626.48 <
-5 9 4 1 217.08 380.74 293.15 <
-5 -9 4 1 219.78 530.45 305.02 <
-5 9 4 2 64.16 -113.66 173.82 <
-5 -9 4 2 60.44 116.90 208.23 <
-4 9 4 -2 35.98 209.84 271.95 <
-4 -9 4 -2 34.46 209.69 212.38 <
-4 9 4 -1 162.96 465.55 279.65 <
-4 -9 4 -1 163.10 187.14 278.21 <
-4 9 4 0 770.51 785.07 240.49 o
-4 -9 4 0 755.47 429.36 269.71 <
-4 9 4 1 144.86 25.72 106.68 <
-4 -9 4 1 130.63 266.48 228.23 <
-4 9 4 2 87.90 204.40 129.42 <
-4 -9 4 2 88.48 154.07 238.02 <
-3 9 4 -2 494.53 298.02 152.27 <
-3 -9 4 -2 514.85 516.17 279.04 <
-3 9 4 -1 1582.07 870.41 273.39 o
-3 -9 4 -1 1509.03 1199.97 243.13 o
-3 9 4 0 5096.05 4751.44 639.02 o
-3 -9 4 0 5064.56 5295.30 494.92 o
-3 9 4 1 555.30 778.86 256.41 o
-3 -9 4 1 567.71 936.17 195.14 o
-3 9 4 2 314.61 230.12 168.69 <
-3 -9 4 2 300.44 304.02 100.81 o
-2 9 4 -2 63.07 -87.70 97.49 <
-2 -9 4 -2 63.93 155.29 90.14 <
-2 9 4 -1 181.67 186.90 205.84 <
-2 -9 4 -1 172.12 66.89 79.38 <
-2 9 4 0 3596.57 4474.16 598.98 o
-2 -9 4 0 3626.42 3679.46 269.82 o
-2 9 4 1 296.50 305.96 200.34 <
-2 -9 4 1 280.51 272.80 88.11 o
-2 9 4 2 130.07 -364.20 205.62 <
-2 -9 4 2 132.66 138.09 80.07 <
-1 9 4 -2 319.68 33.07 78.94 <
-1 -9 4 -2 323.30 270.52 101.61 <
-1 9 4 -1 2975.56 2718.57 447.79 o
-1 -9 4 -1 3148.23 2997.07 262.86 o
-1 9 4 0 14525.20 15768.40 1084.88 o
-1 -9 4 0 14502.90 15594.70 471.23 o
-1 9 4 1 84.36 313.85 179.90 <
-1 -9 4 1 90.35 121.77 70.64 <
-1 9 4 2 603.70 401.39 243.91 <
-1 -9 4 2 587.83 82.25 71.96 <
0 -9 4 -2 136.04 156.88 67.05 <
0 -9 4 -1 200.48 169.03 70.13 <
0 -9 4 0 5975.27 5446.97 437.42 o
0 -9 4 1 46.05 107.94 79.35 <
0 9 4 2 128.07 27.28 31.13 <
0 -9 4 2 124.86 156.70 73.68 <
1 9 4 -2 665.58 468.95 100.18 o
1 -9 4 -2 645.11 544.17 127.60 o
1 9 4 -1 173.69 55.15 53.53 <
1 -9 4 -1 145.76 19.31 53.92 <
1 9 4 0 11763.00 11432.70 590.63 o
1 -9 4 0 11700.80 12883.60 526.34 o
1 9 4 1 182.21 111.51 65.77 <
1 -9 4 1 179.19 158.36 80.31 <
1 9 4 2 245.38 63.63 75.64 <
1 -9 4 2 261.29 -42.74 61.64 <
2 9 4 -2 78.44 121.10 61.40 <
2 -9 4 -2 73.41 228.34 99.98 <
2 9 4 -1 774.46 476.27 156.71 o
2 -9 4 -1 804.82 606.72 142.38 o
2 9 4 0 4352.10 4504.49 465.34 o
2 -9 4 0 4300.35 4729.24 357.85 o
2 9 4 1 125.19 342.15 182.43 <
2 -9 4 1 114.75 274.56 132.40 <
2 9 4 2 34.18 61.20 124.05 <
2 -9 4 2 40.00 102.51 92.37 <
3 9 4 -2 805.18 122.79 97.33 <
3 -9 4 -2 796.43 400.42 123.55 o
3 9 4 -1 522.57 563.49 185.36 o
3 -9 4 -1 522.40 478.07 135.49 o
3 9 4 0 2524.11 2918.74 471.55 o
3 -9 4 0 2515.27 2635.48 298.95 o
3 9 4 1 391.86 318.72 190.99 <
3 -9 4 1 384.24 201.97 105.29 <
3 9 4 2 109.93 -266.89 123.77 <
3 -9 4 2 110.74 -69.39 78.63 <
4 9 4 -2 13.64 -243.73 100.42 <
4 -9 4 -2 11.94 83.62 82.11 <
4 9 4 -1 177.95 146.64 85.88 <
4 -9 4 -1 193.44 116.57 108.47 <
4 -9 4 0 1148.79 1234.28 307.22 o
4 -9 4 1 501.58 549.73 240.93 <
4 -9 4 2 78.56 431.68 197.25 <
5 -9 4 -2 482.10 -112.62 168.51 <
5 -9 4 -1 226.69 247.63 182.03 <
5 -9 4 0 654.13 269.65 181.34 <
5 -9 4 1 80.40 -29.37 146.20 <
5 -9 4 2 167.62 -162.07 272.73 <
-5 10 4 -2 108.07 214.95 268.39 <
-5 -10 4 -2 108.48 276.80 378.15 <
-5 10 4 -1 35.64 23.89 111.88 <
-5 -10 4 -1 32.91 -136.99 352.89 <
-5 10 4 0 358.01 299.17 226.71 <
-5 -10 4 0 366.66 512.66 337.37 <
-5 10 4 1 59.35 177.19 129.94 <
-5 -10 4 1 54.29 63.74 222.47 <
-5 10 4 2 50.40 127.92 105.24 <
-5 -10 4 2 48.88 194.19 288.10 <
-4 10 4 -2 113.50 -15.24 261.93 <
-4 -10 4 -2 112.45 566.25 408.62 <
-4 10 4 -1 113.67 218.95 281.08 <
-4 -10 4 -1 115.23 -140.47 164.16 <
-4 10 4 0 119.66 98.85 140.01 <
-4 -10 4 0 120.83 29.46 149.36 <
-4 10 4 1 67.64 34.72 69.64 <
-4 -10 4 1 58.21 278.47 227.26 <
-4 10 4 2 184.55 92.77 162.93 <
-4 -10 4 2 190.53 136.64 221.82 <
-3 10 4 -2 139.25 299.70 209.93 <
-3 -10 4 -2 143.10 792.53 378.37 <
-3 10 4 -1 287.55 461.99 175.29 <
-3 -10 4 -1 309.93 510.27 194.40 <
-3 10 4 0 782.15 -149.58 124.53 <
-3 -10 4 0 757.96 108.27 128.40 <
-3 10 4 1 45.73 197.45 187.25 <
-3 -10 4 1 39.67 137.55 98.99 <
-3 10 4 2 73.20 226.12 207.69 <
-3 -10 4 2 69.59 168.51 142.09 <
-2 10 4 -2 198.99 190.97 124.81 <
-2 -10 4 -2 189.64 -23.85 69.03 <
-2 -10 4 -1 102.27 -40.87 67.39 <
-2 10 4 0 901.38 1825.81 424.57 o
-2 -10 4 0 944.98 970.80 171.23 o
-2 10 4 1 384.27 152.23 235.06 <
-2 -10 4 1 371.90 354.96 120.29 <
-2 10 4 2 320.58 68.11 113.18 <
-2 -10 4 2 313.40 -28.41 86.74 <
-1 10 4 -2 56.29 342.05 168.80 <
-1 -10 4 -2 60.96 67.20 55.27 <
-1 10 4 -1 916.41 1019.28 315.17 o
-1 -10 4 -1 866.82 587.50 126.55 o
-1 10 4 0 593.66 499.97 284.76 <
-1 -10 4 0 585.90 116.46 77.77 <
-1 10 4 1 148.85 594.30 300.09 <
-1 -10 4 1 156.09 391.98 92.64 o
-1 10 4 2 113.90 324.39 239.63 <
-1 -10 4 2 114.64 67.20 80.16 <
0 -10 4 -2 250.68 132.46 77.00 <
0 -10 4 -1 117.97 122.29 69.51 <
0 -10 4 0 621.25 635.37 141.18 o
0 -10 4 1 2793.31 2342.15 241.01 o
0 -10 4 2 243.73 129.40 73.22 <
1 -10 4 -2 72.55 86.03 60.03 <
1 10 4 -1 106.38 0.09 26.37 <
1 -10 4 -1 114.62 53.79 52.74 <
1 10 4 0 91.86 -84.33 58.46 <
1 -10 4 0 87.14 -88.37 46.94 <
1 10 4 1 226.49 191.93 86.51 <
1 -10 4 1 263.39 268.37 92.20 <
1 10 4 2 180.18 12.41 76.11 <
1 -10 4 2 188.87 100.61 74.70 <
2 10 4 -2 72.55 7.68 81.77 <
2 -10 4 -2 73.45 89.74 69.83 <
2 10 4 -1 78.40 62.83 69.46 <
2 -10 4 -1 94.21 84.96 80.61 <
2 10 4 0 418.72 443.49 158.16 <
2 -10 4 0 426.12 509.47 140.07 o
2 10 4 1 1615.31 1630.50 300.24 o
2 -10 4 1 1630.29 1849.43 240.52 o
2 10 4 2 1505.58 1545.38 333.67 o
2 -10 4 2 1472.06 1876.34 254.47 o
3 10 4 -2 176.06 315.61 158.84 <
3 -10 4 -2 178.91 161.32 85.98 <
3 10 4 -1 199.02 387.42 202.21 <
3 -10 4 -1 197.07 178.03 84.59 <
3 -10 4 0 456.04 550.93 134.64 o
3 -10 4 1 649.11 864.58 159.14 o
3 -10 4 2 5.90 285.32 109.81 <
4 -10 4 -2 32.27 60.68 77.38 <
4 -10 4 -1 68.52 15.76 94.29 <
4 -10 4 0 71.00 247.12 164.79 <
4 -10 4 1 707.51 658.13 238.45 <
4 -10 4 2 332.56 51.61 114.03 <
5 -10 4 -2 55.83 5.07 118.12 <
5 -10 4 -1 63.70 -135.90 206.29 <
5 -10 4 0 199.27 151.31 220.88 <
5 -10 4 1 5.49 191.95 207.29 <
-5 11 4 -2 56.00 -420.07 179.38 <
-5 11 4 -1 17.86 584.45 384.76 <
-5 -11 4 -1 18.18 335.80 189.56 <
-5 11 4 0 416.59 110.55 195.90 <
-5 -11 4 0 399.45 -128.33 328.26 <
-5 11 4 1 231.77 269.39 292.02 <
-5 -11 4 1 229.70 -3.20 263.47 <
-5 11 4 2 70.34 133.29 287.69 <
-5 -11 4 2 68.15 352.98 287.19 <
-4 11 4 -2 99.81 425.77 315.54 <
-4 -11 4 -2 109.31 489.32 389.05 <
-4 -11 4 -1 207.74 -3.54 157.36 <
-4 -11 4 0 312.03 604.97 331.41 <
-4 11 4 1 49.82 76.33 134.27 <
-4 -11 4 1 54.47 101.27 161.58 <
-4 11 4 2 254.62 397.63 231.71 <
-4 -11 4 2 263.22 -13.46 121.12 <
-3 11 4 -2 64.63 379.18 188.99 <
-3 -11 4 -2 56.12 -26.70 118.18 <
-3 11 4 -1 56.38 -241.23 124.88 <
-3 -11 4 -1 58.74 -27.68 103.44 <
-3 11 4 0 2263.57 2216.14 495.07 o
-3 -11 4 0 2227.75 2349.72 368.15 o
-3 11 4 1 166.51 82.53 68.81 <
-3 -11 4 1 171.88 305.91 177.66 <
-3 11 4 2 229.88 377.13 230.17 <
-3 -11 4 2 228.12 475.14 222.91 <
-2 11 4 -2 353.51 375.55 237.08 <
-2 -11 4 -2 326.11 470.94 132.88 o
-2 11 4 -1 206.75 708.20 288.76 <
-2 -11 4 -1 208.50 439.98 144.90 o
-2 11 4 0 3537.51 3609.13 571.78 o
-2 -11 4 0 3501.44 3564.86 333.32 o
-2 11 4 1 4.88 -71.37 172.92 <
-2 -11 4 1 3.49 -60.24 93.11 <
-2 11 4 2 318.77 411.38 182.32 <
-2 -11 4 2 342.81 340.85 126.03 <
-1 -11 4 -2 385.26 -33.42 72.63 <
-1 11 4 -1 963.60 1155.66 338.50 o
-1 -11 4 -1 963.01 864.40 164.31 o
-1 11 4 0 6590.06 5821.21 706.92 o
-1 -11 4 0 6550.80 5883.00 355.00 o
-1 11 4 1 22.29 219.45 194.56 <
-1 -11 4 1 19.23 96.44 79.92 <
-1 11 4 2 395.27 346.70 271.56 <
-1 -11 4 2 387.64 164.08 80.92 <
0 -11 4 -2 117.59 240.65 90.68 <
0 -11 4 -1 438.31 524.90 119.33 o
0 -11 4 0 295.01 -17.00 91.83 <
0 -11 4 1 273.60 183.23 90.09 <
0 -11 4 2 309.98 325.95 107.51 o
1 -11 4 -2 167.88 128.23 69.16 <
1 -11 4 -1 119.78 237.28 86.66 <
1 11 4 0 6955.12 5262.06 322.32 o
1 -11 4 0 6949.18 6895.50 373.18 o
1 11 4 1 1133.64 741.90 156.21 o
1 -11 4 1 1097.48 1253.37 166.43 o
1 -11 4 2 678.24 343.52 114.14 o
2 -11 4 -2 204.22 341.48 101.85 o
2 -11 4 -1 275.70 246.97 94.31 <
2 -11 4 0 3998.07 4238.78 310.19 o
2 -11 4 1 219.87 330.70 112.12 <
2 -11 4 2 1405.91 1513.23 238.63 o
3 -11 4 -2 135.74 -3.54 84.92 <
3 -11 4 -1 78.23 48.72 66.42 <
3 -11 4 0 2954.49 2939.65 284.58 o
3 -11 4 1 240.01 199.86 89.07 <
3 -11 4 2 45.70 65.51 86.18 <
4 -11 4 -2 123.46 127.25 101.38 <
4 -11 4 -1 114.69 234.99 128.88 <
4 -11 4 0 736.99 560.91 216.02 <
4 -11 4 1 249.65 127.57 82.01 <
4 -11 4 2 17.89 -44.65 142.07 <
5 -11 4 -2 87.66 170.92 168.77 <
5 -11 4 -1 128.05 294.11 214.62 <
5 -11 4 0 729.83 630.89 237.67 <
5 -11 4 1 382.74 193.73 226.80 <
-5 12 4 -2 16.17 478.99 420.74 <
-5 12 4 -1 53.93 -13.94 154.36 <
-5 12 4 0 662.18 123.90 254.39 <
-5 -12 4 0 679.22 1176.66 574.78 <
-5 12 4 1 93.08 156.40 289.23 <
-5 -12 4 1 101.32 -182.54 214.84 <
-5 12 4 2 99.37 188.23 276.34 <
-5 -12 4 2 94.51 -135.23 187.41 <
-4 -12 4 -2 345.95 421.81 347.31 <
-4 -12 4 -1 384.85 347.15 283.04 <
-4 -12 4 0 103.64 326.35 247.74 <
-4 -12 4 1 14.59 144.81 390.37 <
-4 12 4 2 165.70 -41.09 185.08 <
-4 -12 4 2 166.26 418.03 284.56 <
-3 12 4 -2 18.98 157.08 187.32 <
-3 -12 4 -2 16.95 535.14 443.96 <
-3 12 4 -1 233.70 -54.15 99.70 <
-3 -12 4 -1 250.92 73.59 116.05 <
-3 12 4 0 2310.19 2492.34 527.43 o
-3 -12 4 0 2324.34 2352.04 392.14 o
-3 12 4 1 175.79 75.00 179.16 <
-3 -12 4 1 181.51 -11.46 64.76 <
-3 12 4 2 123.79 257.93 191.73 <
-3 -12 4 2 117.82 192.23 139.34 <
-2 12 4 -2 1384.64 1724.79 396.61 o
-2 -12 4 -2 1352.42 1205.17 214.47 o
-2 12 4 -1 574.81 715.03 302.72 <
-2 -12 4 -1 510.16 639.54 163.93 o
-2 12 4 0 718.76 437.96 210.99 <
-2 -12 4 0 707.17 509.56 144.60 o
-2 12 4 1 35.61 199.82 135.77 <
-2 -12 4 1 36.57 94.66 110.20 <
-2 12 4 2 150.62 245.15 199.04 <
-2 -12 4 2 142.69 237.93 122.44 <
-1 12 4 -2 166.43 98.72 194.21 <
-1 -12 4 -2 158.13 67.59 105.77 <
-1 12 4 -1 1088.42 1326.22 406.90 o
-1 -12 4 -1 1012.94 859.47 165.42 o
-1 12 4 0 6188.35 5320.13 724.15 o
-1 -12 4 0 6083.95 4562.78 323.93 o
-1 12 4 1 542.48 1427.25 436.77 o
-1 -12 4 1 557.27 595.04 145.86 o
-1 12 4 2 190.69 223.38 315.20 <
-1 -12 4 2 188.55 159.40 87.62 <
0 -12 4 -2 23.33 113.40 79.88 <
0 -12 4 -1 844.42 777.03 141.62 o
0 -12 4 0 688.38 635.30 130.92 o
0 -12 4 1 33.31 134.09 97.55 <
0 -12 4 2 108.87 221.45 88.74 <
1 -12 4 -2 167.32 96.27 74.13 <
1 -12 4 -1 269.70 505.66 111.20 o
1 -12 4 0 6232.44 5091.77 334.70 o
1 -12 4 1 143.65 152.08 80.46 <
1 -12 4 2 142.64 170.99 87.27 <
2 -12 4 -2 40.93 34.16 61.55 <
2 -12 4 -1 293.06 256.02 94.74 <
2 -12 4 0 698.81 824.29 147.12 o
2 -12 4 1 246.69 206.69 94.92 <
2 -12 4 2 7.51 122.03 95.01 <
3 -12 4 -2 92.94 77.40 85.61 <
3 -12 4 -1 46.95 136.36 86.11 <
3 -12 4 0 2494.75 2980.81 292.50 o
3 -12 4 1 827.78 1226.32 198.54 o
3 -12 4 2 27.58 249.34 116.20 <
4 -12 4 -2 139.38 9.65 104.11 <
4 -12 4 -1 147.12 5.56 106.96 <
4 -12 4 0 161.55 -101.44 138.71 <
4 -12 4 1 254.79 255.21 175.14 <
4 -12 4 2 112.08 -175.40 199.23 <
5 -12 4 -2 18.91 65.96 96.94 <
5 -12 4 -1 1.31 -106.48 132.94 <
5 -12 4 0 738.79 698.09 281.58 <
5 -12 4 1 224.76 463.55 386.87 <
-5 13 4 -1 25.59 419.99 345.50 <
-5 13 4 0 62.83 204.01 197.23 <
-5 -13 4 0 56.40 138.86 307.56 <
-5 13 4 1 36.53 -54.15 130.86 <
-5 -13 4 1 35.79 -105.49 241.69 <
-5 -13 4 2 76.76 -12.22 399.92 <
-4 -13 4 -2 17.10 -186.38 245.43 <
-4 -13 4 -1 152.80 195.08 339.33 <
-4 -13 4 0 285.98 12.91 221.01 <
-4 -13 4 1 16.87 469.14 363.65 <
-4 13 4 2 65.62 51.40 189.45 <
-4 -13 4 2 62.86 -116.72 122.18 <
-3 -13 4 -2 33.06 413.01 336.54 <
-3 13 4 -1 46.56 247.69 137.86 <
-3 -13 4 -1 45.63 7.11 152.31 <
-3 13 4 0 53.05 87.94 160.82 <
-3 -13 4 0 42.81 221.06 175.66 <
-3 13 4 1 338.53 280.45 150.42 <
-3 -13 4 1 328.15 368.15 199.53 <
-3 13 4 2 115.85 489.79 270.84 <
-3 -13 4 2 120.36 349.83 206.91 <
-2 13 4 -2 49.84 182.19 157.44 <
-2 -13 4 -2 54.42 44.63 65.05 <
-2 13 4 -1 952.53 1029.02 355.22 <
-2 -13 4 -1 969.68 977.19 193.67 o
-2 13 4 0 632.09 428.51 93.20 o
-2 -13 4 0 642.95 201.82 92.40 <
-2 13 4 1 41.82 -199.95 182.23 <
-2 -13 4 1 34.71 12.61 104.42 <
-2 13 4 2 184.93 410.81 254.97 <
-2 -13 4 2 177.10 19.78 115.96 <
-1 13 4 -2 164.43 620.93 287.61 <
-1 -13 4 -2 157.41 134.01 103.42 <
-1 -13 4 -1 5.51 -21.00 68.18 <
-1 13 4 0 77.99 341.57 307.48 <
-1 -13 4 0 56.57 98.27 70.11 <
-1 -13 4 1 254.79 185.82 79.46 <
-1 13 4 2 72.11 218.71 268.58 <
-1 -13 4 2 75.97 27.79 77.09 <
0 -13 4 -2 256.89 264.98 100.96 <
0 -13 4 -1 1025.09 708.92 149.49 o
0 -13 4 0 690.69 148.66 91.29 <
0 -13 4 1 162.57 335.59 117.81 <
0 -13 4 2 58.58 24.98 51.42 <
1 -13 4 -2 190.23 231.56 100.68 <
1 -13 4 -1 41.54 99.16 86.25 <
1 -13 4 0 98.93 123.27 88.53 <
1 -13 4 1 3878.11 3344.42 289.02 o
1 -13 4 2 31.17 96.62 105.07 <
2 -13 4 -2 468.38 84.50 72.29 <
2 -13 4 -1 268.08 130.79 82.44 <
2 -13 4 0 611.94 395.94 104.48 o
2 -13 4 1 32.65 11.43 72.14 <
2 -13 4 2 6.61 78.87 84.35 <
3 -13 4 -2 193.94 107.47 66.53 <
3 -13 4 -1 110.98 -0.65 105.18 <
3 -13 4 0 77.04 131.62 92.20 <
3 -13 4 1 145.40 -105.24 93.16 <
3 -13 4 2 50.88 176.03 121.44 <
4 -13 4 -2 266.49 39.29 86.53 <
4 -13 4 -1 113.50 21.85 110.01 <
4 -13 4 0 171.85 56.92 153.08 <
4 -13 4 1 7.01 -123.36 170.82 <
4 -13 4 2 89.74 -243.91 158.29 <
5 -13 4 -2 140.88 -91.59 120.22 <
5 -13 4 -1 83.40 -144.40 151.08 <
5 -13 4 0 35.32 47.31 205.29 <
-5 14 4 -1 226.06 -58.63 118.86 <
-5 14 4 0 13.79 -138.14 122.07 <
-5 -14 4 1 125.23 325.11 351.28 <
-5 -14 4 2 159.01 183.45 279.89 <
-4 -14 4 -2 441.13 129.35 265.65 <
-4 -14 4 -1 121.56 458.14 360.57 <
-4 -14 4 0 2618.39 3222.43 846.93 o
-4 -14 4 1 206.93 293.60 339.59 <
-4 -14 4 2 63.46 509.32 536.84 <
-3 -14 4 -2 4.00 -15.68 320.50 <
-3 -14 4 -1 845.88 576.43 189.27 o
-3 14 4 0 141.55 -90.31 99.48 <
-3 -14 4 0 145.45 57.31 198.56 <
-3 14 4 1 178.42 -238.78 215.38 <
-3 -14 4 1 188.07 313.50 191.14 <
-3 14 4 2 197.37 328.22 339.87 <
-3 -14 4 2 201.26 373.61 219.90 <
-2 14 4 -2 1467.21 813.42 356.15 <
-2 -14 4 -2 1399.06 1211.73 245.30 o
-2 14 4 -1 160.70 348.41 221.43 <
-2 -14 4 -1 159.18 373.83 172.69 <
-2 14 4 0 4544.95 5039.53 760.55 o
-2 -14 4 0 4609.74 4882.00 449.36 o
-2 14 4 1 381.59 -116.53 127.85 <
-2 -14 4 1 371.88 82.16 97.77 <
-2 14 4 2 59.69 4.11 102.75 <
-2 -14 4 2 59.67 27.17 105.11 <
-1 14 4 -2 40.18 334.59 214.80 <
-1 -14 4 -2 34.91 193.64 123.07 <
-1 -14 4 -1 343.74 85.03 97.51 <
-1 14 4 0 1143.41 818.29 329.39 <
-1 -14 4 0 1121.93 589.34 171.34 o
-1 14 4 1 390.36 726.46 380.20 <
-1 -14 4 1 398.49 379.40 124.79 o
-1 14 4 2 178.89 863.19 350.68 <
-1 -14 4 2 181.80 249.39 107.33 <
0 -14 4 -2 121.64 174.06 83.74 <
0 -14 4 -1 158.66 272.95 89.27 o
0 -14 4 0 12176.70 13140.00 633.45 o
0 -14 4 1 353.78 145.57 95.48 <
0 -14 4 2 56.46 105.83 78.01 <
1 -14 4 -2 154.40 159.03 82.50 <
1 -14 4 -1 769.15 379.11 116.09 o
1 -14 4 0 1525.05 496.95 122.23 o
1 -14 4 1 69.15 118.79 75.35 <
1 -14 4 2 63.98 37.74 58.44 <
2 -14 4 -2 45.15 52.02 77.09 <
2 -14 4 -1 82.28 101.36 76.44 <
2 -14 4 0 3660.90 4119.46 346.52 o
2 -14 4 1 7.90 113.16 97.53 <
2 -14 4 2 88.55 127.88 103.16 <
3 -14 4 -2 161.28 219.36 99.59 <
3 -14 4 -1 343.33 185.16 97.27 <
3 -14 4 0 211.21 103.81 71.96 <
3 -14 4 1 54.26 319.19 117.81 <
3 -14 4 2 73.01 240.49 129.07 <
4 -14 4 -2 166.36 157.08 129.33 <
4 -14 4 -1 102.08 196.67 144.14 <
4 -14 4 0 1529.21 1650.39 382.00 o
4 -14 4 1 92.05 85.16 162.42 <
4 -14 4 2 53.15 303.50 266.95 <
5 -14 4 -2 90.61 41.20 142.55 <
5 -14 4 -1 124.73 167.64 156.70 <
-4 -15 4 -2 37.35 331.33 348.42 <
-4 -15 4 -1 22.46 264.50 363.78 <
-4 -15 4 0 380.34 478.38 436.03 <
-4 -15 4 1 172.04 177.56 368.07 <
-4 -15 4 2 29.66 -44.74 379.37 <
-3 -15 4 -2 235.95 595.50 398.13 <
-3 -15 4 -1 1012.14 967.82 277.02 o
-3 15 4 0 226.09 465.64 308.45 <
-3 -15 4 0 220.07 329.28 182.66 <
-3 15 4 1 251.90 374.42 337.93 <
-3 -15 4 1 258.95 121.62 136.18 <
-3 15 4 2 346.89 397.22 126.81 o
-3 -15 4 2 351.28 343.33 271.41 <
-2 15 4 -2 149.09 489.73 315.63 <
-2 -15 4 -2 139.28 79.14 130.29 <
-2 15 4 -1 3.70 -258.71 201.71 <
-2 -15 4 -1 7.06 73.18 80.09 <
-2 15 4 0 179.22 -20.26 146.36 <
-2 -15 4 0 180.98 234.43 154.66 <
-2 15 4 1 286.20 -5.68 121.68 <
-2 -15 4 1 278.02 -33.50 88.98 <
-2 15 4 2 24.66 103.88 207.64 <
-2 -15 4 2 26.98 -21.33 95.33 <
-1 15 4 -2 559.14 312.67 278.80 <
-1 -15 4 -2 581.53 448.40 156.77 <
-1 15 4 -1 386.77 576.62 272.26 <
-1 -15 4 -1 402.48 551.03 196.08 <
-1 15 4 0 187.15 536.53 329.39 <
-1 -15 4 0 170.60 228.93 159.95 <
-1 15 4 1 1223.14 959.52 369.35 <
-1 -15 4 1 1245.26 1050.46 221.30 o
-1 15 4 2 234.46 706.28 315.69 <
-1 -15 4 2 237.68 703.11 183.32 o
0 -15 4 -2 94.14 312.74 149.25 <
0 -15 4 -1 26.86 76.07 101.35 <
0 -15 4 0 2533.90 2012.41 268.37 o
0 -15 4 1 339.03 241.78 116.07 <
0 -15 4 2 91.13 -50.00 69.40 <
1 -15 4 -2 145.25 111.36 98.24 <
1 -15 4 -1 1451.09 908.39 170.32 o
1 -15 4 0 38.90 88.48 82.14 <
1 -15 4 1 44.40 112.83 95.01 <
1 -15 4 2 499.69 309.24 105.79 <
2 -15 4 -2 68.79 46.66 71.61 <
2 -15 4 -1 13.46 46.46 97.66 <
2 -15 4 0 262.32 185.58 86.62 <
2 -15 4 1 225.36 164.01 93.31 <
2 -15 4 2 173.83 36.03 95.44 <
3 -15 4 -2 49.62 -87.01 65.48 <
3 -15 4 -1 363.44 370.16 120.46 o
3 -15 4 0 29.06 105.88 106.44 <
3 -15 4 1 1304.71 894.71 192.73 o
3 -15 4 2 50.71 116.46 106.27 <
4 -15 4 -2 11.08 42.79 141.21 <
4 -15 4 -1 11.60 -38.91 117.40 <
4 -15 4 0 230.58 103.57 213.95 <
4 -15 4 1 13.83 69.31 148.25 <
4 -15 4 2 147.34 414.88 262.28 <
5 -15 4 -2 15.90 -191.54 178.27 <
5 -15 4 -1 87.22 -176.84 189.88 <
-4 -16 4 -2 88.70 304.83 306.58 <
-4 -16 4 -1 99.76 80.37 437.18 <
-4 -16 4 0 45.60 739.39 491.29 <
-4 -16 4 1 81.43 257.39 300.65 <
-4 -16 4 2 52.82 231.23 131.27 <
-3 -16 4 -2 18.64 571.58 362.09 <
-3 -16 4 -1 248.13 305.54 191.56 <
-3 -16 4 0 612.32 609.71 235.82 <
-3 16 4 1 5.91 203.91 371.76 <
-3 -16 4 1 8.18 256.21 185.29 <
-3 16 4 2 85.22 278.06 209.62 <
-3 -16 4 2 81.19 172.14 229.82 <
-2 16 4 -2 262.40 559.17 359.85 <
-2 -16 4 -2 247.70 89.46 93.46 <
-2 16 4 -1 386.15 488.66 228.73 <
-2 -16 4 -1 384.99 364.18 188.19 <
-2 16 4 0 123.56 -49.11 105.70 <
-2 -16 4 0 133.39 37.50 105.44 <
-2 16 4 1 265.96 11.81 149.55 <
-2 -16 4 1 267.28 50.31 114.88 <
-2 16 4 2 84.21 -50.85 98.35 <
-2 -16 4 2 96.34 66.74 108.31 <
-1 16 4 -2 150.53 749.66 298.02 <
-1 -16 4 -2 159.28 425.75 163.64 <
-1 16 4 -1 2580.48 3047.85 592.73 o
-1 -16 4 -1 2627.96 2501.66 351.57 o
-1 16 4 0 1825.56 1314.95 404.89 o
-1 -16 4 0 1834.48 1319.85 255.00 o
-1 16 4 1 55.94 131.97 253.36 <
-1 -16 4 1 56.71 340.17 154.66 <
-1 16 4 2 168.89 421.12 289.39 <
-1 -16 4 2 169.22 297.35 182.36 <
0 -16 4 -2 269.96 320.67 161.81 <
0 -16 4 -1 526.24 190.01 140.10 <
0 -16 4 0 253.02 324.07 142.07 <
0 -16 4 1 128.91 113.16 112.75 <
0 -16 4 2 99.83 54.05 146.57 <
1 -16 4 -2 222.83 230.97 138.86 <
1 -16 4 -1 245.76 -94.40 108.47 <
1 -16 4 0 1285.79 709.59 156.62 o
1 -16 4 1 580.58 598.39 149.68 o
1 -16 4 2 89.47 -21.26 73.51 <
2 -16 4 -2 308.35 -84.27 79.59 <
2 -16 4 -1 83.33 92.68 121.62 <
2 -16 4 0 228.37 78.31 76.00 <
2 -16 4 1 125.94 81.42 92.94 <
2 -16 4 2 393.59 536.47 161.95 o
3 -16 4 -2 121.31 183.60 107.49 <
3 -16 4 -1 47.64 188.71 112.79 <
3 -16 4 0 401.34 325.72 136.71 <
3 -16 4 1 203.32 364.20 139.64 <
3 -16 4 2 37.19 71.55 126.59 <
4 -16 4 -2 241.25 526.58 202.67 <
4 -16 4 -1 52.08 156.62 137.70 <
4 -16 4 0 113.77 265.32 156.29 <
4 -16 4 1 251.69 520.95 252.39 <
4 -16 4 2 87.70 224.80 143.01 <
5 -16 4 -2 69.10 162.18 217.95 <
-4 -17 4 -1 254.40 -95.05 132.81 <
-4 -17 4 0 134.75 171.88 228.01 <
-4 -17 4 1 144.82 568.21 378.29 <
-4 -17 4 2 6.76 554.86 451.70 <
-3 -17 4 -2 107.86 584.91 382.63 <
-3 -17 4 -1 66.40 113.46 185.45 <
-3 -17 4 0 1714.18 1694.59 436.99 o
-3 -17 4 1 111.36 46.53 160.92 <
-3 17 4 2 166.74 393.66 303.52 <
-3 -17 4 2 173.95 -54.26 148.03 <
-2 17 4 -2 0.72 392.48 278.93 <
-2 -17 4 -2 1.30 5.70 119.86 <
-2 17 4 -1 616.55 192.29 163.71 <
-2 -17 4 -1 593.93 490.68 200.29 <
-2 17 4 0 1026.51 1676.28 493.75 o
-2 -17 4 0 1043.56 861.27 220.67 o
-2 17 4 1 220.66 285.11 297.32 <
-2 -17 4 1 224.68 179.86 106.75 <
-2 17 4 2 34.35 89.87 128.75 <
-2 -17 4 2 36.04 12.76 105.53 <
-1 17 4 -2 566.03 1197.67 427.35 <
-1 -17 4 -2 598.80 764.72 202.17 o
-1 17 4 -1 3085.93 3334.26 656.74 o
-1 -17 4 -1 3134.57 3092.66 409.26 o
-1 17 4 0 3243.51 2951.19 613.17 o
-1 -17 4 0 3256.21 3153.56 397.31 o
-1 17 4 1 241.89 -35.59 121.27 <
-1 -17 4 1 239.58 311.95 147.60 <
-1 17 4 2 124.96 44.55 156.62 <
-1 -17 4 2 132.86 115.79 103.07 <
0 -17 4 -2 72.05 311.67 172.05 <
0 -17 4 -1 907.74 917.91 265.41 o
0 -17 4 0 799.37 712.87 217.88 o
0 -17 4 1 819.49 541.45 208.34 <
0 -17 4 2 77.74 127.42 120.53 <
1 -17 4 -2 669.11 617.76 176.99 o
1 -17 4 -1 57.30 75.74 68.94 <
1 -17 4 0 2197.06 2503.12 346.13 o
1 -17 4 1 797.53 339.70 130.88 <
1 -17 4 2 147.93 164.95 118.49 <
2 -17 4 -2 63.73 110.72 96.29 <
2 -17 4 -1 145.79 248.26 152.53 <
2 -17 4 0 1979.95 1781.77 266.23 o
2 -17 4 1 560.72 573.25 160.86 o
2 -17 4 2 96.67 132.60 153.86 <
3 -17 4 -2 468.09 76.22 70.40 <
3 -17 4 -1 9.84 -60.40 131.59 <
3 -17 4 0 787.35 1066.09 208.12 o
3 -17 4 1 94.30 57.90 103.72 <
3 -17 4 2 51.23 -6.28 153.71 <
4 -17 4 -2 35.28 113.59 158.79 <
4 -17 4 -1 50.21 14.98 99.51 <
4 -17 4 0 556.78 517.36 237.36 <
4 -17 4 1 87.10 507.21 227.08 <
4 -17 4 2 0.67 25.89 147.84 <
5 -17 4 -2 158.38 581.17 454.18 <
-4 -18 4 0 8.90 45.15 362.00 <
-4 -18 4 1 105.25 -17.70 261.11 <
-4 -18 4 2 180.65 635.32 469.14 <
-3 -18 4 -2 32.31 469.49 418.83 <
-3 -18 4 -1 8.68 14.48 210.27 <
-3 -18 4 0 153.19 38.03 163.70 <
-3 -18 4 1 36.82 73.88 155.90 <
-3 18 4 2 77.65 189.18 322.04 <
-3 -18 4 2 81.21 242.51 231.21 <
-2 -18 4 -2 135.25 350.35 136.62 <
-2 18 4 -1 578.15 77.90 98.92 <
-2 -18 4 -1 579.72 340.74 179.25 <
-2 18 4 0 304.46 233.67 120.38 <
-2 -18 4 0 310.36 470.55 190.30 <
-2 18 4 1 611.09 -244.36 273.89 <
-2 -18 4 1 609.63 245.49 150.70 <
-2 18 4 2 509.40 637.19 347.85 <
-2 -18 4 2 493.89 582.86 224.84 <
-1 18 4 -2 188.83 410.55 334.13 <
-1 -18 4 -2 191.51 165.42 151.12 <
-1 18 4 -1 51.54 462.07 327.46 <
-1 -18 4 -1 52.85 75.70 124.38 <
-1 18 4 0 462.35 698.79 366.61 <
-1 -18 4 0 446.92 366.67 158.08 <
-1 18 4 1 6.73 488.66 322.45 <
-1 -18 4 1 7.46 50.00 144.81 <
-1 18 4 2 148.75 475.88 344.70 <
-1 -18 4 2 151.65 65.39 125.18 <
0 -18 4 -2 75.01 262.47 189.95 <
0 -18 4 -1 570.97 426.53 207.12 <
0 -18 4 0 117.80 199.32 125.07 <
0 -18 4 1 1182.66 762.16 256.34 <
0 -18 4 2 453.21 169.58 168.57 <
1 -18 4 -2 157.17 503.10 228.60 <
1 -18 4 -1 67.33 5.54 74.11 <
1 -18 4 0 651.66 707.42 205.41 o
1 -18 4 1 139.69 410.59 153.07 <
1 -18 4 2 48.74 122.99 94.07 <
2 -18 4 -2 67.96 23.17 103.62 <
2 -18 4 -1 185.99 -30.11 112.97 <
2 -18 4 0 597.34 264.04 147.99 <
2 -18 4 1 1313.48 909.01 251.95 o
2 -18 4 2 1291.51 969.91 236.26 o
3 -18 4 -2 48.78 182.56 171.60 <
3 -18 4 -1 57.45 171.95 166.55 <
3 -18 4 0 214.27 452.68 154.97 <
3 -18 4 1 27.27 89.09 177.93 <
3 -18 4 2 47.89 -49.48 121.46 <
4 -18 4 -2 0.61 -108.12 126.29 <
4 -18 4 -1 47.88 -9.54 185.64 <
4 -18 4 0 31.26 187.32 135.92 <
4 -18 4 1 522.06 727.48 260.63 <
-4 -19 4 2 236.46 523.14 525.75 <
-3 -19 4 -2 38.12 235.56 298.48 <
-3 -19 4 -1 162.71 183.10 227.10 <
-3 -19 4 0 410.33 65.77 202.80 <
-3 -19 4 1 150.92 -41.24 249.74 <
-3 -19 4 2 86.71 324.00 245.04 <
-2 -19 4 -2 3.29 257.74 197.38 <
-2 -19 4 -1 234.19 71.27 118.36 <
-2 19 4 0 632.15 544.51 321.54 <
-2 -19 4 0 633.71 619.37 221.65 <
-2 19 4 1 6.40 244.10 253.99 <
-2 -19 4 1 6.31 131.03 148.68 <
-2 19 4 2 349.76 -357.85 256.26 <
-2 -19 4 2 337.83 226.78 157.81 <
-1 19 4 -2 4.60 338.50 275.48 <
-1 -19 4 -2 8.25 300.30 155.75 <
-1 19 4 -1 1052.74 1568.99 537.88 <
-1 -19 4 -1 981.27 1175.40 266.11 o
-1 19 4 0 1158.15 1261.15 466.60 <
-1 -19 4 0 1163.10 1195.53 277.08 o
-1 -19 4 1 103.92 -7.57 68.59 <
-1 19 4 2 294.38 960.58 387.14 <
-1 -19 4 2 312.93 281.37 195.51 <
0 -19 4 -2 35.28 379.26 230.88 <
0 -19 4 -1 34.20 151.51 160.08 <
0 -19 4 0 3162.46 3620.87 515.69 o
0 -19 4 1 20.22 202.36 170.38 <
0 -19 4 2 379.02 193.04 207.47 <
1 -19 4 -2 18.15 63.13 123.88 <
1 -19 4 -1 167.07 446.57 218.69 <
1 -19 4 0 1127.73 886.65 224.67 o
1 -19 4 1 94.45 349.30 172.12 <
1 -19 4 2 157.91 177.42 137.36 <
2 -19 4 -2 61.90 10.63 131.21 <
2 -19 4 -1 44.91 148.46 168.30 <
2 -19 4 0 699.60 529.40 193.84 <
2 -19 4 1 69.44 -9.02 138.47 <
2 -19 4 2 37.27 128.05 131.97 <
3 -19 4 -2 0.71 -45.48 150.01 <
3 -19 4 -1 190.10 203.06 144.40 <
3 -19 4 0 388.28 468.84 192.91 <
3 -19 4 1 13.84 114.77 105.35 <
3 -19 4 2 81.35 143.31 249.06 <
4 -19 4 -2 46.18 232.52 193.51 <
4 -19 4 -1 8.18 31.52 212.19 <
4 -19 4 0 314.14 479.55 402.90 <
-3 -20 4 -2 47.74 603.85 432.05 <
-3 -20 4 -1 88.09 293.41 302.46 <
-3 -20 4 0 178.15 -131.14 150.62 <
-3 -20 4 1 52.30 -47.90 185.38 <
-3 -20 4 2 97.64 98.48 204.64 <
-2 -20 4 -2 0.68 396.20 319.08 <
-2 -20 4 -1 661.11 401.42 209.41 <
-2 20 4 0 218.11 339.35 276.89 <
-2 -20 4 0 220.27 71.96 168.12 <
-2 20 4 1 95.55 172.88 104.64 <
-2 -20 4 1 98.18 407.74 230.73 <
-2 20 4 2 139.47 749.74 371.13 <
-2 -20 4 2 139.82 544.17 222.40 <
-1 20 4 -2 142.49 166.34 264.67 <
-1 -20 4 -2 144.96 0.43 133.25 <
-1 20 4 -1 970.69 1248.56 495.84 <
-1 -20 4 -1 984.89 1361.96 301.17 o
-1 20 4 0 944.78 111.62 170.34 <
-1 -20 4 0 959.50 732.03 343.54 <
-1 20 4 1 53.61 200.80 315.06 <
-1 -20 4 1 54.85 186.06 183.34 <
-1 20 4 2 178.42 112.20 264.76 <
-1 -20 4 2 178.10 272.87 203.08 <
0 -20 4 -2 196.97 298.85 211.40 <
0 -20 4 -1 346.16 492.93 210.29 <
0 -20 4 0 1124.16 1506.23 330.33 o
0 -20 4 1 604.02 610.69 249.49 <
0 -20 4 2 28.51 540.25 261.02 <
1 -20 4 -2 176.54 222.04 183.53 <
1 -20 4 -1 197.75 361.09 213.28 <
1 -20 4 0 1347.77 1701.03 384.52 o
1 -20 4 1 355.35 481.84 169.88 <
1 -20 4 2 26.36 174.32 161.20 <
2 -20 4 -2 177.23 295.82 159.95 <
2 -20 4 -1 165.17 360.52 180.84 <
2 -20 4 0 50.61 94.64 176.51 <
2 -20 4 1 413.35 565.84 232.15 <
2 -20 4 2 82.15 -135.51 140.86 <
3 -20 4 -2 104.09 -9.06 155.95 <
3 -20 4 -1 164.50 154.73 169.45 <
3 -20 4 0 588.34 671.91 304.67 <
3 -20 4 1 11.03 170.21 120.36 <
3 -20 4 2 22.61 339.09 132.86 <
4 -20 4 -2 66.26 333.85 209.21 <
4 -20 4 -1 10.50 304.00 314.13 <
-3 -21 4 0 299.32 365.26 281.43 <
-3 -21 4 1 104.24 -129.59 172.62 <
-3 -21 4 2 113.52 370.94 295.04 <
-2 -21 4 -2 124.03 296.83 330.28 <
-2 -21 4 -1 76.51 170.43 169.84 <
-2 -21 4 0 577.17 -3.41 174.01 <
-2 21 4 1 38.79 -37.66 156.31 <
-2 -21 4 1 37.42 42.50 140.38 <
-2 21 4 2 74.72 36.02 197.12 <
-2 -21 4 2 77.59 119.51 136.09 <
-1 21 4 -2 140.69 635.71 357.13 <
-1 -21 4 -2 136.98 421.49 175.80 <
-1 21 4 -1 72.40 244.30 342.92 <
-1 -21 4 -1 70.86 348.28 206.03 <
-1 21 4 0 681.68 1178.60 461.81 <
-1 -21 4 0 672.58 907.52 310.52 <
-1 21 4 1 435.60 593.54 371.50 <
-1 -21 4 1 412.53 341.05 158.71 <
-1 21 4 2 195.90 -184.06 297.89 <
-1 -21 4 2 186.69 89.14 150.05 <
0 -21 4 -2 46.89 -133.44 179.23 <
0 -21 4 -1 107.52 337.61 221.91 <
0 -21 4 0 381.27 254.56 219.64 <
0 -21 4 1 109.28 417.12 245.39 <
0 -21 4 2 85.89 246.69 209.43 <
1 -21 4 -2 75.08 -12.22 129.64 <
1 -21 4 -1 62.32 159.29 199.23 <
1 -21 4 0 668.66 796.81 269.00 <
1 -21 4 1 56.28 106.29 157.25 <
1 -21 4 2 88.53 187.73 163.82 <
2 -21 4 -2 63.55 11.30 161.36 <
2 -21 4 -1 119.15 -34.44 162.12 <
2 -21 4 0 201.23 23.59 107.14 <
2 -21 4 1 12.36 402.55 253.04 <
2 -21 4 2 169.35 183.97 159.81 <
3 -21 4 -2 119.77 104.94 146.99 <
3 -21 4 -1 27.44 73.11 149.25 <
3 -21 4 0 246.38 326.46 239.67 <
3 -21 4 1 449.36 -167.71 111.09 <
4 -21 4 -2 43.53 106.88 215.67 <
-3 -22 4 0 80.89 -240.45 121.75 <
-3 -22 4 1 16.70 -11.59 123.83 <
-3 -22 4 2 66.00 -33.02 195.75 <
-2 -22 4 -2 736.01 531.12 313.30 <
-2 -22 4 -1 55.11 426.85 299.74 <
-2 -22 4 0 813.84 1248.15 307.06 o
-2 -22 4 1 147.60 98.33 158.95 <
-2 22 4 2 34.84 95.33 197.75 <
-2 -22 4 2 32.48 175.93 178.79 <
-1 -22 4 -2 40.92 568.64 233.01 <
-1 22 4 -1 141.57 -216.36 233.38 <
-1 -22 4 -1 156.97 -3.81 223.23 <
-1 22 4 0 232.95 658.20 352.61 <
-1 -22 4 0 240.46 225.02 171.71 <
-1 22 4 1 6.15 167.07 326.95 <
-1 -22 4 1 4.29 -184.36 175.92 <
-1 22 4 2 68.72 674.48 413.01 <
-1 -22 4 2 65.54 311.96 224.45 <
0 -22 4 -2 76.56 317.91 253.99 <
0 -22 4 -1 64.57 83.64 155.75 <
0 -22 4 0 191.79 395.87 217.62 <
0 -22 4 1 111.63 198.38 195.19 <
0 -22 4 2 125.68 95.61 96.11 <
1 -22 4 -2 148.74 330.11 239.63 <
1 -22 4 -1 126.36 338.41 225.51 <
1 -22 4 0 349.88 43.92 134.92 <
1 -22 4 1 10.24 282.78 210.86 <
1 -22 4 2 271.15 352.98 219.65 <
2 -22 4 -2 70.72 274.13 143.84 <
2 -22 4 -1 55.25 104.72 158.18 <
2 -22 4 0 536.39 985.19 286.26 o
2 -22 4 1 15.81 90.88 230.21 <
2 -22 4 2 19.99 251.02 178.75 <
3 -22 4 -2 191.57 233.47 149.25 <
3 -22 4 -1 19.35 163.14 215.58 <
-2 -23 4 -2 23.97 -159.34 191.93 <
-2 -23 4 -1 101.40 352.11 261.26 <
-2 -23 4 0 16.75 -107.47 164.66 <
-2 -23 4 1 179.04 -29.41 90.09 <
-2 -23 4 2 74.98 -186.47 206.38 <
-1 -23 4 -2 142.85 -15.33 171.64 <
-1 -23 4 -1 225.64 150.68 82.22 <
-1 23 4 0 6.53 218.51 253.99 <
-1 -23 4 0 8.68 53.74 209.30 <
-1 23 4 1 172.43 228.15 303.32 <
-1 -23 4 1 173.30 142.42 203.80 <
-1 23 4 2 180.56 289.11 308.11 <
-1 -23 4 2 182.31 209.23 175.43 <
0 -23 4 -2 69.22 -125.81 130.88 <
0 -23 4 -1 124.89 203.93 145.23 <
0 -23 4 0 220.63 206.32 162.42 <
0 -23 4 1 100.50 -105.27 156.29 <
0 -23 4 2 131.22 621.19 265.39 <
1 -23 4 -2 92.14 138.71 141.07 <
1 -23 4 -1 88.43 157.55 181.92 <
1 -23 4 0 28.40 43.94 190.45 <
1 -23 4 1 881.17 367.46 241.58 <
1 -23 4 2 79.70 498.14 279.52 <
2 -23 4 -2 75.92 48.85 182.03 <
2 -23 4 -1 133.62 -107.88 205.47 <
2 -23 4 0 95.78 -47.11 147.16 <
2 -23 4 1 26.75 198.53 219.19 <
2 -23 4 2 105.23 748.40 377.37 <
3 -23 4 -2 5.92 -85.72 179.29 <
-2 -24 4 1 183.12 -268.17 231.95 <
-2 -24 4 2 43.41 -85.57 218.56 <
-1 -24 4 -2 16.27 33.89 98.46 <
-1 -24 4 -1 150.63 -9.39 226.21 <
-1 24 4 0 582.85 1170.80 501.71 <
-1 -24 4 0 592.72 799.23 294.21 <
-1 24 4 1 37.25 590.58 361.30 <
-1 -24 4 1 44.03 209.30 213.97 <
-1 24 4 2 147.28 478.99 462.75 <
-1 -24 4 2 156.58 -59.44 132.16 <
0 -24 4 -2 85.55 10.15 118.47 <
0 -24 4 -1 110.37 208.10 171.60 <
0 -24 4 0 201.47 195.99 239.02 <
0 -24 4 1 353.42 471.10 255.76 <
0 -24 4 2 102.32 72.00 148.58 <
1 -24 4 -2 40.76 136.60 118.18 <
1 -24 4 -1 260.40 63.70 197.25 <
1 -24 4 0 560.64 927.80 328.33 <
1 -24 4 1 245.43 406.50 334.93 <
2 -24 4 -2 177.22 524.71 239.47 <
2 -24 4 -1 75.11 110.49 113.96 <
-1 -25 4 -2 37.12 -358.37 330.63 <
-1 25 4 1 154.44 64.72 392.50 <
-1 25 4 2 16.40 269.78 227.67 <
0 25 4 -2 49.77 32.46 372.54 <
0 -25 4 -2 54.91 -96.94 167.99 <
-6 0 5 1 246.07 179.32 212.82 <
-6 0 5 2 6.07 79.66 104.90 <
-5 0 5 -2 174.00 134.27 129.27 <
-5 0 5 -1 20.84 84.53 158.49 <
-5 0 5 0 10.96 -16.52 150.58 <
-5 0 5 1 465.40 316.76 162.10 <
-5 0 5 2 5.09 -215.15 164.10 <
-4 0 5 -2 48.46 78.66 128.49 <
-4 0 5 -1 236.82 111.70 108.20 <
-4 0 5 0 178.41 72.00 115.66 <
-4 0 5 1 633.31 284.50 140.20 <
-4 0 5 2 141.93 -12.76 99.85 <
-3 0 5 -2 11.87 -56.57 95.86 <
-3 0 5 -1 362.38 176.42 92.03 <
-3 0 5 0 54.14 50.94 117.23 <
-3 0 5 1 427.76 195.67 116.11 <
-3 0 5 2 86.61 342.67 131.42 <
-2 0 5 -2 48.60 38.85 67.85 <
-2 0 5 -1 194.05 -3.04 73.90 <
-2 0 5 0 110.96 145.57 84.25 <
-2 0 5 1 646.16 1.48 47.83 <
-2 0 5 2 416.45 86.55 97.09 <
-1 0 5 -2 316.63 442.64 117.92 o
-1 0 5 -1 793.53 791.96 131.75 o
-1 0 5 0 894.20 1130.40 133.47 o
-1 0 5 1 266.52 525.45 98.36 o
-1 0 5 2 453.40 386.44 97.61 o
0 0 5 -2 1.53 50.89 44.81 <
0 0 5 -1 97.49 -7.83 64.27 <
0 0 5 0 111.76 56.70 63.18 <
0 0 5 1 233.00 7.17 50.81 <
0 0 5 2 63.36 32.29 42.46 <
1 0 5 -2 188.23 180.12 82.40 <
1 0 5 -1 464.32 257.19 75.16 o
1 0 5 0 872.78 692.41 134.03 o
1 0 5 1 306.40 350.72 111.49 o
1 0 5 2 1159.83 927.45 175.32 o
2 0 5 -2 2.02 -14.89 105.99 <
2 0 5 -1 28.62 31.39 50.79 <
2 0 5 0 18.51 98.38 173.23 <
2 0 5 1 296.12 389.33 225.75 <
2 0 5 2 15.30 219.47 137.25 <
3 0 5 -2 589.96 397.63 155.29 <
3 0 5 -1 509.40 206.99 127.42 <
3 0 5 0 180.54 115.36 105.48 <
3 0 5 1 3319.08 2649.46 382.03 o
3 0 5 2 443.93 527.64 207.90 <
4 0 5 -2 4.22 15.63 107.49 <
4 0 5 -1 9.09 33.05 111.38 <
4 0 5 0 66.76 290.61 184.12 <
4 0 5 1 305.51 310.43 187.38 <
4 0 5 2 7.09 -55.44 172.88 <
5 0 5 -2 299.32 92.59 72.13 <
5 0 5 -1 657.34 98.07 147.53 <
5 0 5 0 1.81 -188.73 145.75 <
5 0 5 1 767.54 461.62 268.63 <
5 0 5 2 69.66 296.54 187.82 <
6 0 5 -2 0.43 -391.76 233.91 <
6 0 5 -1 22.89 166.64 189.03 <
-6 1 5 1 46.81 -145.88 235.65 <
-6 -1 5 1 52.39 -105.49 194.73 <
-6 1 5 2 267.38 170.21 170.49 <
-6 -1 5 2 259.19 123.66 157.31 <
-5 1 5 -2 7.92 136.68 189.18 <
-5 -1 5 -2 9.75 467.10 232.89 <
-5 1 5 -1 52.99 25.09 103.31 <
-5 -1 5 -1 51.81 406.85 176.58 <
-5 1 5 0 56.63 89.07 139.16 <
-5 -1 5 0 53.25 248.13 145.49 <
-5 1 5 1 80.60 -58.52 128.97 <
-5 -1 5 1 84.77 66.66 157.31 <
-5 1 5 2 52.42 274.17 113.99 <
-5 -1 5 2 55.87 -95.66 87.98 <
-4 1 5 -2 563.30 401.48 190.99 <
-4 -1 5 -2 576.67 474.38 173.21 <
-4 1 5 -1 275.33 158.27 117.96 <
-4 -1 5 -1 293.59 280.56 144.99 <
-4 1 5 0 2943.08 1613.19 300.70 o
-4 -1 5 0 2917.37 2179.84 356.74 o
-4 1 5 1 62.17 179.16 119.23 <
-4 -1 5 1 64.15 107.18 84.98 <
-4 1 5 2 344.24 212.32 133.73 <
-4 -1 5 2 335.44 497.75 168.55 <
-3 1 5 -2 22.65 -49.29 107.90 <
-3 -1 5 -2 24.85 118.85 94.31 <
-3 1 5 -1 216.18 299.96 123.75 <
-3 -1 5 -1 213.19 449.49 149.90 <
-3 1 5 0 326.09 376.89 136.21 <
-3 -1 5 0 322.29 539.32 161.53 o
-3 1 5 1 315.01 158.70 104.29 <
-3 -1 5 1 320.52 106.27 77.13 <
-3 1 5 2 93.60 81.14 81.11 <
-3 -1 5 2 101.47 153.08 102.92 <
-2 1 5 -2 291.76 381.53 119.68 o
-2 -1 5 -2 265.90 227.21 97.33 <
-2 1 5 -1 98.71 145.92 98.14 <
-2 -1 5 -1 121.51 -5.04 62.57 <
-2 1 5 0 18856.80 17762.20 716.78 o
-2 -1 5 0 18693.60 18211.50 746.44 o
-2 1 5 1 339.14 465.60 122.35 o
-2 -1 5 1 322.70 389.48 118.27 o
-2 1 5 2 415.44 735.44 149.60 o
-2 -1 5 2 403.35 841.90 174.21 o
-1 1 5 -2 22.61 13.68 36.85 <
-1 -1 5 -2 22.25 67.59 76.14 <
-1 1 5 -1 1488.13 1466.62 176.29 o
-1 -1 5 -1 1490.19 1292.30 164.84 o
-1 1 5 0 1736.39 1603.32 161.73 o
-1 -1 5 0 1769.58 1624.21 172.53 o
-1 1 5 1 229.52 59.35 49.90 <
-1 -1 5 1 225.51 18.96 51.85 <
-1 1 5 2 111.31 31.50 45.76 <
-1 -1 5 2 115.01 4.41 48.78 <
0 1 5 -2 78.46 23.07 54.79 <
0 -1 5 -2 79.39 49.83 31.48 <
0 1 5 -1 10.12 44.79 56.37 <
0 -1 5 -1 17.16 -21.31 51.09 <
0 1 5 0 399.35 178.16 68.42 <
0 -1 5 0 458.89 187.36 97.88 <
0 1 5 1 1156.28 1403.35 205.67 o
0 -1 5 1 1139.35 1280.04 196.80 o
0 1 5 2 545.10 590.21 153.14 o
0 -1 5 2 540.88 544.49 157.49 o
1 1 5 -2 93.81 196.06 100.12 <
1 -1 5 -2 91.71 44.18 31.76 <
1 1 5 -1 289.82 13.61 86.33 <
1 -1 5 -1 305.98 0.65 55.20 <
1 1 5 0 1839.63 1622.15 211.15 o
1 -1 5 0 1883.73 1595.37 193.88 o
1 1 5 1 847.48 841.88 173.27 o
1 -1 5 1 826.04 749.05 141.38 o
1 1 5 2 138.79 276.61 115.75 <
1 -1 5 2 133.13 146.20 107.59 <
2 1 5 -2 25.28 32.70 95.81 <
2 -1 5 -2 24.73 123.05 82.29 <
2 1 5 -1 24.72 50.59 134.44 <
2 -1 5 -1 31.86 67.98 98.12 <
2 1 5 0 16970.40 18148.90 1149.31 o
2 -1 5 0 17071.60 17701.80 772.73 o
2 1 5 1 205.82 724.00 280.21 <
2 -1 5 1 215.57 597.56 175.38 o
2 1 5 2 5726.86 6370.50 778.57 o
2 -1 5 2 5677.58 5755.96 502.21 o
3 1 5 -2 186.16 298.39 178.19 <
3 -1 5 -2 185.01 171.47 92.49 <
3 1 5 -1 605.35 161.16 185.27 <
3 -1 5 -1 604.19 91.18 96.16 <
3 1 5 0 304.34 434.66 157.20 <
3 -1 5 0 309.04 172.92 117.36 <
3 1 5 1 272.86 166.88 137.51 <
3 -1 5 1 268.20 253.71 136.03 <
3 1 5 2 145.82 134.60 132.84 <
3 -1 5 2 150.19 108.38 105.48 <
4 1 5 -2 43.05 277.06 155.64 <
4 -1 5 -2 38.22 151.44 115.20 <
4 1 5 -1 38.45 408.11 180.14 <
4 -1 5 -1 27.49 117.99 119.83 <
4 1 5 0 2983.55 2102.94 382.77 o
4 -1 5 0 3029.06 2000.83 382.77 o
4 1 5 1 339.51 536.30 223.28 <
4 -1 5 1 353.30 617.95 219.06 <
4 1 5 2 253.25 -63.81 118.72 <
4 -1 5 2 336.83 53.61 122.21 <
5 1 5 -2 127.91 316.08 189.88 <
5 -1 5 -2 128.42 187.77 231.58 <
5 1 5 -1 203.93 321.00 196.80 <
5 -1 5 -1 198.59 -138.66 129.14 <
5 1 5 0 38.69 -144.21 253.43 <
5 -1 5 0 39.94 -56.07 90.24 <
5 1 5 1 71.33 220.56 142.09 <
5 -1 5 1 66.46 -140.66 164.18 <
5 1 5 2 258.34 -277.00 151.68 <
5 -1 5 2 273.15 -60.72 163.70 <
6 1 5 -2 111.02 -135.09 175.05 <
6 -1 5 -2 103.05 -116.75 161.95 <
6 1 5 -1 187.79 154.57 168.82 <
-6 2 5 1 18.13 1.33 224.32 <
-6 -2 5 1 15.02 -111.38 216.58 <
-6 2 5 2 16.89 351.31 136.77 <
-6 -2 5 2 17.68 26.24 124.07 <
-5 2 5 -2 132.51 95.64 326.57 <
-5 -2 5 -2 128.54 178.58 173.03 <
-5 2 5 -1 49.81 293.11 198.71 <
-5 -2 5 -1 43.27 316.30 182.18 <
-5 2 5 0 1922.46 1484.32 330.78 o
-5 -2 5 0 1953.54 1675.37 388.09 o
-5 2 5 1 38.96 27.11 149.86 <
-5 -2 5 1 39.38 54.18 113.44 <
-5 2 5 2 221.03 180.32 153.92 <
-5 -2 5 2 236.88 102.03 84.29 <
-4 2 5 -2 146.37 238.34 119.31 <
-4 -2 5 -2 152.30 122.25 120.88 <
-4 2 5 -1 118.27 156.38 93.87 <
-4 -2 5 -1 120.92 249.65 185.32 <
-4 2 5 0 591.38 335.15 147.92 <
-4 -2 5 0 594.63 530.75 209.58 <
-4 2 5 1 178.71 392.89 154.81 <
-4 -2 5 1 170.00 151.73 136.10 <
-4 2 5 2 52.01 190.10 133.36 <
-4 -2 5 2 51.28 1.02 132.68 <
-3 2 5 -2 369.74 280.34 125.97 <
-3 -2 5 -2 365.42 216.36 137.05 <
-3 2 5 -1 530.50 506.71 135.21 o
-3 -2 5 -1 522.03 690.55 170.99 o
-3 2 5 0 8220.17 7357.81 542.69 o
-3 -2 5 0 8359.99 7895.78 580.15 o
-3 2 5 1 115.56 162.27 103.92 <
-3 -2 5 1 125.56 175.38 87.11 <
-3 2 5 2 441.10 425.38 142.77 <
-3 -2 5 2 463.08 594.06 171.95 o
-2 2 5 -2 3627.21 3240.56 325.91 o
-2 -2 5 -2 3607.35 3171.23 238.63 o
-2 2 5 -1 601.18 461.66 121.70 o
-2 -2 5 -1 602.95 433.14 124.42 o
-2 2 5 0 678.14 303.37 93.18 o
-2 -2 5 0 642.01 443.83 129.49 o
-2 2 5 1 828.28 728.98 145.20 o
-2 -2 5 1 820.62 701.50 153.44 o
-2 2 5 2 67.48 84.90 60.63 <
-2 -2 5 2 66.73 -0.35 73.53 <
-1 2 5 -2 756.26 507.32 107.11 o
-1 -2 5 -2 748.03 438.33 103.42 o
-1 2 5 -1 329.88 433.70 102.31 o
-1 -2 5 -1 365.35 363.31 83.11 o
-1 2 5 0 23011.10 24672.10 682.39 o
-1 -2 5 0 23260.20 24489.40 659.41 o
-1 2 5 1 357.74 85.74 66.00 <
-1 -2 5 1 368.65 130.90 57.68 <
-1 2 5 2 523.82 542.21 139.94 o
-1 -2 5 2 518.40 577.06 120.92 o
0 2 5 -2 10.01 8.70 49.66 <
0 -2 5 -2 8.50 93.35 69.00 <
0 2 5 -1 1450.89 1236.23 170.45 o
0 -2 5 -1 1462.17 1285.11 146.31 o
0 2 5 0 4615.71 4812.64 359.74 o
0 -2 5 0 4596.92 4699.31 363.33 o
0 2 5 1 3550.64 3809.66 336.46 o
0 -2 5 1 3503.97 3718.50 330.82 o
0 2 5 2 2.37 62.31 81.29 <
0 -2 5 2 2.56 -22.24 37.55 <
1 2 5 -2 172.59 137.34 92.09 <
1 -2 5 -2 172.07 60.55 38.79 <
1 2 5 -1 555.90 329.48 146.42 <
1 -2 5 -1 525.26 439.99 69.94 o
1 2 5 0 22825.70 23000.20 1175.38 o
1 -2 5 0 22850.80 22764.00 552.10 o
1 2 5 1 2583.67 2616.65 401.07 o
1 -2 5 1 2598.41 2615.41 205.90 o
1 2 5 2 165.86 189.58 180.04 <
1 -2 5 2 154.38 267.30 92.38 <
2 2 5 -2 20.94 214.90 171.29 <
2 -2 5 -2 25.58 24.63 47.07 <
2 2 5 -1 435.79 662.61 224.23 <
2 -2 5 -1 445.07 548.64 109.11 o
2 2 5 0 207.96 206.45 138.84 <
2 -2 5 0 217.97 244.67 83.16 <
2 2 5 1 1959.00 2204.58 430.53 o
2 -2 5 1 1939.79 2155.90 218.73 o
2 2 5 2 1292.52 1211.17 355.52 o
2 -2 5 2 1245.07 1282.30 189.77 o
3 2 5 -2 11.27 -183.95 165.71 <
3 -2 5 -2 9.88 108.42 97.05 <
3 2 5 -1 33.02 168.97 163.82 <
3 -2 5 -1 42.72 55.98 93.79 <
3 2 5 0 8027.49 7910.50 878.30 o
3 -2 5 0 7972.12 7505.93 608.54 o
3 2 5 1 381.67 89.50 85.92 <
3 -2 5 1 333.48 332.61 153.01 <
3 2 5 2 67.53 97.31 142.10 <
3 -2 5 2 72.26 35.46 150.77 <
4 2 5 -2 53.08 46.72 153.84 <
4 -2 5 -2 52.95 236.88 167.12 <
4 2 5 -1 172.40 111.97 118.38 <
4 -2 5 -1 164.77 246.21 196.27 <
4 2 5 0 406.49 190.18 161.88 <
4 -2 5 0 423.71 1.07 133.09 <
4 2 5 1 245.71 507.40 219.43 <
4 -2 5 1 238.38 272.80 160.27 <
4 2 5 2 25.92 12.65 187.80 <
4 -2 5 2 17.53 209.90 162.14 <
5 2 5 -2 41.74 -211.69 120.20 <
5 -2 5 -2 43.25 149.40 132.97 <
5 2 5 -1 29.92 -136.90 103.48 <
5 -2 5 -1 35.23 -206.51 171.16 <
5 2 5 0 1896.18 1621.72 373.74 o
5 -2 5 0 1917.79 1267.58 360.33 o
5 2 5 1 487.84 698.96 286.93 <
5 -2 5 1 486.82 258.24 156.40 <
5 2 5 2 37.10 -110.61 130.85 <
5 -2 5 2 36.65 -199.86 184.64 <
6 2 5 -2 58.19 -59.37 163.21 <
6 -2 5 -2 58.68 238.36 205.41 <
6 2 5 -1 74.00 -463.96 313.02 <
-6 3 5 1 304.21 209.51 269.61 <
-6 -3 5 1 310.86 5.07 204.62 <
-6 3 5 2 39.23 -7.94 103.20 <
-6 -3 5 2 45.41 -14.04 190.51 <
-5 3 5 -2 168.90 361.44 325.61 <
-5 -3 5 -2 174.07 204.17 321.13 <
-5 3 5 -1 326.27 249.34 136.77 <
-5 -3 5 -1 317.13 719.33 264.08 <
-5 3 5 0 576.90 485.75 232.06 <
-5 -3 5 0 587.67 396.03 227.90 <
-5 3 5 1 125.66 228.95 133.68 <
-5 -3 5 1 120.12 76.64 170.14 <
-5 3 5 2 7.35 -43.40 98.53 <
-5 -3 5 2 7.17 183.32 143.64 <
-4 3 5 -2 19.98 211.32 162.29 <
-4 -3 5 -2 16.02 152.82 140.05 <
-4 3 5 -1 147.70 128.62 112.73 <
-4 -3 5 -1 151.71 216.62 98.59 <
-4 3 5 0 954.02 941.98 224.17 o
-4 -3 5 0 953.25 1076.11 249.74 o
-4 3 5 1 405.44 193.67 82.61 <
-4 -3 5 1 422.57 80.27 115.05 <
-4 3 5 2 39.87 98.64 131.51 <
-4 -3 5 2 47.48 95.79 88.46 <
-3 3 5 -2 198.01 156.75 106.16 <
-3 -3 5 -2 203.41 200.43 126.81 <
-3 3 5 -1 205.70 174.27 114.88 <
-3 -3 5 -1 232.04 208.45 131.86 <
-3 3 5 0 443.72 525.71 169.16 o
-3 -3 5 0 446.59 337.76 122.23 <
-3 3 5 1 187.98 180.90 84.83 <
-3 -3 5 1 169.32 95.42 63.72 <
-3 3 5 2 5.81 120.01 101.48 <
-3 -3 5 2 5.25 76.55 67.29 <
-2 3 5 -2 1695.01 1763.62 251.28 o
-2 -3 5 -2 1672.28 1446.60 168.77 o
-2 3 5 -1 130.12 246.86 87.31 <
-2 -3 5 -1 139.57 207.75 99.18 <
-2 3 5 0 3597.33 3956.02 342.72 o
-2 -3 5 0 3678.80 4261.37 377.29 o
-2 3 5 1 180.81 202.99 63.24 o
-2 -3 5 1 201.72 103.48 46.57 <
-2 3 5 2 52.16 -22.24 81.63 <
-2 -3 5 2 52.33 175.49 102.38 <
-1 3 5 -2 71.60 -74.05 67.00 <
-1 -3 5 -2 76.15 71.70 53.09 <
-1 3 5 -1 10218.90 12135.70 502.23 o
-1 -3 5 -1 10172.20 11813.00 471.97 o
-1 3 5 0 78.65 45.22 59.26 <
-1 -3 5 0 70.86 26.02 53.44 <
-1 3 5 1 387.92 180.54 73.92 <
-1 -3 5 1 362.63 188.38 85.51 <
-1 3 5 2 1.70 132.57 101.85 <
-1 -3 5 2 1.69 70.22 62.40 <
0 3 5 -2 91.90 71.03 89.31 <
0 -3 5 -2 97.57 109.22 53.15 <
0 3 5 -1 103.87 25.48 70.98 <
0 -3 5 -1 112.11 156.49 59.83 <
0 3 5 0 8475.04 8810.56 482.60 o
0 -3 5 0 8574.87 8759.42 496.38 o
0 3 5 1 196.87 348.09 109.31 o
0 -3 5 1 183.24 250.69 98.88 <
0 3 5 2 173.59 29.35 55.03 <
0 -3 5 2 181.14 -31.94 36.81 <
1 3 5 -2 133.10 174.80 131.35 <
1 -3 5 -2 131.89 132.21 47.89 <
1 3 5 -1 1374.15 1306.59 259.50 o
1 -3 5 -1 1392.33 1136.86 117.55 o
1 3 5 0 456.55 557.06 192.69 <
1 -3 5 0 494.92 320.33 75.74 o
1 3 5 1 196.55 65.29 88.42 <
1 -3 5 1 190.47 91.90 53.89 <
1 3 5 2 266.72 290.54 161.12 <
1 -3 5 2 279.26 422.09 78.87 o
2 3 5 -2 436.85 136.27 111.33 <
2 -3 5 -2 438.85 171.49 64.50 <
2 3 5 -1 586.89 304.95 140.12 <
2 -3 5 -1 615.91 350.70 88.22 o
2 3 5 0 2999.29 3282.22 490.31 o
2 -3 5 0 2989.21 3111.84 236.67 o
2 3 5 1 609.53 713.13 266.19 <
2 -3 5 1 614.06 587.60 123.71 o
2 3 5 2 114.46 1.81 131.86 <
2 -3 5 2 117.53 100.40 120.57 <
3 3 5 -2 344.48 298.91 152.21 <
3 -3 5 -2 351.57 46.57 69.26 <
3 3 5 -1 801.98 1163.42 332.46 o
3 -3 5 -1 815.27 932.13 214.40 o
3 3 5 0 407.99 0.22 71.07 <
3 -3 5 0 405.73 226.84 130.59 <
3 3 5 1 560.59 588.69 262.76 <
3 -3 5 1 550.82 251.04 121.20 <
3 -3 5 2 87.63 -74.63 85.66 <
4 3 5 -2 329.47 74.20 90.24 <
4 -3 5 -2 331.84 44.89 168.86 <
4 3 5 -1 830.27 719.07 233.32 o
4 -3 5 -1 876.08 463.84 142.77 o
4 3 5 0 1028.98 1302.58 296.98 o
4 -3 5 0 1009.66 1391.18 333.98 o
4 3 5 1 379.56 317.11 194.62 <
4 -3 5 1 370.53 108.49 122.49 <
4 3 5 2 143.01 36.85 111.25 <
4 -3 5 2 143.81 154.81 136.25 <
5 3 5 -2 200.58 38.66 108.57 <
5 -3 5 -2 205.87 261.32 157.86 <
5 3 5 -1 126.15 190.88 171.79 <
5 -3 5 -1 128.40 415.24 271.11 <
5 3 5 0 291.31 31.79 129.33 <
5 -3 5 0 296.05 -16.67 224.32 <
5 3 5 1 236.05 22.96 166.64 <
5 -3 5 1 246.77 292.06 209.99 <
5 3 5 2 93.62 -301.69 165.90 <
5 -3 5 2 81.35 149.92 286.04 <
6 3 5 -2 101.57 73.79 197.34 <
6 -3 5 -2 108.64 -255.02 263.58 <
6 3 5 -1 539.37 -332.33 306.74 <
-6 4 5 1 22.46 216.17 411.98 <
-6 4 5 2 1.85 67.64 132.10 <
-6 -4 5 2 2.06 122.68 201.38 <
-5 4 5 -2 118.49 -140.18 282.61 <
-5 -4 5 -2 115.43 204.54 294.61 <
-5 4 5 -1 112.11 -92.51 206.93 <
-5 -4 5 -1 102.27 -44.26 174.95 <
-5 4 5 0 299.02 115.96 115.14 <
-5 -4 5 0 306.48 296.83 204.27 <
-5 4 5 1 46.04 95.66 147.38 <
-5 -4 5 1 45.04 2.35 99.85 <
-5 4 5 2 281.15 282.39 187.77 <
-5 -4 5 2 285.42 -32.28 156.62 <
-4 4 5 -2 87.64 229.04 127.01 <
-4 -4 5 -2 89.19 302.02 169.29 <
-4 4 5 -1 169.17 119.44 82.61 <
-4 -4 5 -1 168.70 264.74 192.32 <
-4 4 5 0 737.29 699.48 199.53 o
-4 -4 5 0 752.56 894.82 224.23 o
-4 4 5 1 135.88 1.87 82.25 <
-4 -4 5 1 136.64 36.29 138.97 <
-4 4 5 2 16.84 43.39 104.62 <
-4 -4 5 2 20.34 184.93 127.85 <
-3 4 5 -2 122.03 334.09 124.75 <
-3 -4 5 -2 118.51 28.42 88.50 <
-3 4 5 -1 959.68 1041.33 209.60 o
-3 -4 5 -1 988.10 1270.10 265.24 o
-3 4 5 0 189.17 75.64 95.92 <
-3 -4 5 0 203.66 126.51 102.74 <
-3 4 5 1 135.17 314.69 145.68 <
-3 -4 5 1 137.51 488.99 120.51 o
-3 4 5 2 159.19 -8.65 67.64 <
-3 -4 5 2 169.42 25.65 78.01 <
-2 4 5 -2 502.21 388.63 123.70 o
-2 -4 5 -2 481.92 297.24 87.09 o
-2 4 5 -1 351.16 200.45 69.26 <
-2 -4 5 -1 353.76 440.22 108.62 o
-2 4 5 0 1525.47 1493.53 209.41 o
-2 -4 5 0 1567.62 1473.29 230.19 o
-2 4 5 1 536.83 312.09 100.22 o
-2 -4 5 1 537.69 436.85 128.29 o
-2 4 5 2 42.80 -69.76 45.46 <
-2 -4 5 2 44.77 -41.94 54.15 <
-1 4 5 -2 17.37 151.29 91.38 <
-1 -4 5 -2 21.99 47.07 55.61 <
-1 4 5 -1 5913.51 6375.03 368.35 o
-1 -4 5 -1 5891.06 6781.95 304.93 o
-1 4 5 0 118.93 115.12 68.33 <
-1 -4 5 0 116.77 29.83 49.94 <
-1 4 5 1 486.64 617.22 134.97 o
-1 -4 5 1 451.88 280.28 83.38 o
-1 4 5 2 7.25 71.81 59.35 <
-1 -4 5 2 7.66 -20.57 84.07 <
0 4 5 -2 30.41 73.85 36.02 <
0 -4 5 -2 27.92 29.50 42.28 <
0 4 5 -1 216.50 336.72 91.64 o
0 -4 5 -1 210.98 304.83 70.29 o
0 4 5 0 3288.15 3408.16 301.33 o
0 -4 5 0 3338.91 3314.52 246.39 o
0 4 5 1 1241.58 1341.80 212.45 o
0 -4 5 1 1265.93 1383.11 167.73 o
0 4 5 2 8.16 81.94 73.14 <
0 -4 5 2 5.94 81.16 50.42 <
1 4 5 -2 47.35 -13.87 73.59 <
1 -4 5 -2 49.06 43.35 41.98 <
1 4 5 -1 234.14 316.85 168.34 <
1 -4 5 -1 211.99 236.21 58.35 o
1 4 5 0 151.00 249.19 132.33 <
1 -4 5 0 135.17 166.01 61.20 <
1 4 5 1 7177.33 7906.45 711.52 o
1 -4 5 1 7224.14 8052.88 340.87 o
1 4 5 2 188.12 -10.50 66.31 <
1 -4 5 2 197.36 48.16 46.81 <
2 4 5 -2 247.37 111.57 138.57 <
2 -4 5 -2 232.70 129.66 74.83 <
2 4 5 -1 322.50 311.26 169.18 <
2 -4 5 -1 295.43 129.16 77.88 <
2 4 5 0 669.24 826.40 267.76 o
2 -4 5 0 707.89 471.40 135.38 o
2 4 5 1 390.15 739.22 265.23 <
2 -4 5 1 400.68 290.35 124.46 <
2 4 5 2 13.02 -23.13 79.98 <
2 -4 5 2 14.59 -1.87 59.02 <
3 4 5 -2 254.88 -9.24 137.55 <
3 -4 5 -2 261.33 -91.49 105.14 <
3 4 5 -1 393.10 39.76 131.38 <
3 -4 5 -1 399.78 202.56 129.14 <
3 4 5 0 137.90 68.87 99.68 <
3 -4 5 0 150.22 -100.79 92.66 <
3 4 5 1 2380.79 2251.73 473.57 o
3 -4 5 1 2384.43 1749.66 305.85 o
3 -4 5 2 180.60 -23.05 116.47 <
4 4 5 -2 286.32 189.95 183.73 <
4 -4 5 -2 281.35 257.82 155.12 <
4 4 5 -1 179.89 16.48 109.75 <
4 -4 5 -1 162.76 72.37 107.11 <
4 4 5 0 245.04 813.60 368.26 <
4 -4 5 0 247.61 407.53 195.38 <
4 4 5 1 2.99 39.31 187.79 <
4 -4 5 1 1.43 165.23 181.68 <
4 4 5 2 129.32 21.39 164.77 <
4 -4 5 2 139.97 86.88 162.99 <
5 4 5 -2 257.43 241.51 141.10 <
5 -4 5 -2 264.49 81.92 176.06 <
5 4 5 -1 438.73 173.99 148.16 <
5 -4 5 -1 419.07 424.14 327.37 <
5 4 5 0 467.95 0.35 151.44 <
5 -4 5 0 469.33 -88.74 139.57 <
5 4 5 1 91.83 -246.54 127.38 <
5 -4 5 1 114.82 -102.49 80.92 <
5 4 5 2 134.58 -58.87 132.77 <
5 -4 5 2 144.15 211.01 169.62 <
6 4 5 -2 192.38 51.26 201.32 <
6 -4 5 -2 192.87 44.05 209.64 <
6 4 5 -1 199.79 13.74 164.92 <
-6 5 5 1 220.65 167.23 284.87 <
-6 5 5 2 5.35 321.37 189.43 <
-6 -5 5 2 5.99 -85.24 149.86 <
-5 5 5 -2 67.50 -232.62 248.28 <
-5 -5 5 -2 63.68 131.03 116.77 <
-5 5 5 -1 62.18 -239.21 316.70 <
-5 -5 5 -1 63.22 216.88 314.02 <
-5 5 5 0 464.35 345.67 157.90 <
-5 -5 5 0 461.22 128.92 176.90 <
-5 5 5 1 156.84 217.88 121.71 <
-5 -5 5 1 141.70 46.13 117.62 <
-5 5 5 2 68.07 -74.77 95.20 <
-5 -5 5 2 67.77 -5.15 129.36 <
-4 5 5 -2 570.91 306.04 129.38 <
-4 -5 5 -2 572.93 608.52 221.65 <
-4 5 5 -1 115.97 -12.98 153.82 <
-4 -5 5 -1 108.08 68.27 151.12 <
-4 5 5 0 505.68 230.99 138.47 <
-4 -5 5 0 497.32 309.17 167.80 <
-4 5 5 1 145.10 219.75 103.55 <
-4 -5 5 1 134.38 224.64 152.75 <
-4 5 5 2 4.26 87.16 85.90 <
-4 -5 5 2 4.33 260.80 172.92 <
-3 5 5 -2 42.05 83.42 97.74 <
-3 -5 5 -2 42.76 106.07 129.68 <
-3 5 5 -1 253.39 302.85 148.20 <
-3 -5 5 -1 270.90 321.91 129.35 <
-3 5 5 0 1023.58 576.04 192.19 <
-3 -5 5 0 982.17 457.40 171.29 <
-3 5 5 1 764.04 586.45 166.21 o
-3 -5 5 1 740.17 695.48 152.32 o
-3 5 5 2 88.31 258.84 128.35 <
-3 -5 5 2 85.02 49.20 54.26 <
-2 5 5 -2 121.60 179.34 114.70 <
-2 -5 5 -2 147.21 142.31 72.68 <
-2 5 5 -1 529.48 578.34 148.07 o
-2 -5 5 -1 519.61 471.47 113.40 o
-2 5 5 0 1953.84 1523.53 223.78 o
-2 -5 5 0 1930.55 1815.05 261.50 o
-2 5 5 1 28.51 47.78 66.24 <
-2 -5 5 1 26.31 76.57 74.81 <
-2 5 5 2 28.38 234.49 119.40 <
-2 -5 5 2 29.92 149.88 87.81 <
-1 5 5 -2 257.16 606.11 245.13 <
-1 -5 5 -2 273.01 299.82 79.29 o
-1 5 5 -1 116.72 242.63 173.18 <
-1 -5 5 -1 96.14 79.64 48.05 <
-1 5 5 0 1061.19 915.17 212.84 o
-1 -5 5 0 1010.75 995.50 127.53 o
-1 5 5 1 1981.90 1603.23 189.27 o
-1 -5 5 1 1981.76 1724.01 175.05 o
-1 5 5 2 129.12 158.20 70.72 <
-1 -5 5 2 131.12 82.12 51.96 <
0 5 5 -2 34.60 16.83 39.87 <
0 -5 5 -2 36.38 -8.70 46.53 <
0 5 5 -1 174.40 132.79 46.05 <
0 -5 5 -1 169.75 82.25 52.53 <
0 5 5 0 8782.18 8724.23 479.55 o
0 -5 5 0 8726.30 8428.86 397.13 o
0 5 5 1 97.22 171.07 115.57 <
0 -5 5 1 85.50 61.00 59.89 <
0 5 5 2 60.42 131.05 96.72 <
0 -5 5 2 63.53 127.57 54.03 <
1 5 5 -2 384.39 347.24 134.92 <
1 -5 5 -2 390.98 323.22 58.92 o
1 5 5 -1 1688.82 1301.37 250.39 o
1 -5 5 -1 1719.88 1532.73 129.77 o
1 5 5 0 170.84 203.17 141.84 <
1 -5 5 0 144.05 169.71 58.96 <
1 5 5 1 1565.41 1901.38 378.57 o
1 -5 5 1 1556.95 1455.01 138.83 o
1 5 5 2 266.40 -24.78 70.76 <
1 -5 5 2 272.67 84.42 61.48 <
2 5 5 -2 43.99 138.70 120.62 <
2 -5 5 -2 42.63 136.55 87.85 <
2 5 5 -1 500.94 256.88 158.42 <
2 -5 5 -1 513.18 594.65 123.25 o
2 5 5 0 1858.64 1261.34 293.41 o
2 -5 5 0 1873.20 1502.92 202.75 o
2 5 5 1 435.43 418.55 209.10 <
2 -5 5 1 399.49 48.55 103.11 <
2 5 5 2 285.96 391.68 221.08 <
2 -5 5 2 286.24 370.16 161.31 <
3 5 5 -2 344.94 190.77 128.20 <
3 -5 5 -2 359.49 477.58 147.51 o
3 5 5 -1 772.29 725.52 250.26 <
3 -5 5 -1 773.59 612.39 182.66 o
3 5 5 0 279.41 187.88 158.70 <
3 -5 5 0 285.43 -0.30 136.46 <
3 5 5 1 768.30 646.00 286.24 <
3 -5 5 1 742.19 547.21 207.77 <
3 5 5 2 44.40 -72.92 73.05 <
3 -5 5 2 44.23 -72.44 71.53 <
4 5 5 -2 27.39 96.18 163.97 <
4 -5 5 -2 25.77 326.02 174.06 <
4 5 5 -1 361.94 -1.00 93.03 <
4 -5 5 -1 370.17 366.35 197.30 <
4 5 5 0 424.62 198.79 223.02 <
4 -5 5 0 428.21 151.12 170.90 <
4 5 5 1 279.26 -300.54 239.34 <
4 -5 5 1 251.68 82.42 183.49 <
4 5 5 2 85.59 125.86 138.94 <
4 -5 5 2 93.64 79.90 158.55 <
5 5 5 -2 101.61 389.64 198.21 <
5 -5 5 -2 107.15 239.65 151.51 <
5 5 5 -1 226.79 77.07 156.07 <
5 -5 5 -1 233.22 127.85 97.86 <
5 5 5 0 269.59 373.52 251.58 <
5 -5 5 0 276.23 422.11 238.47 <
5 5 5 1 248.75 -31.13 87.35 <
5 -5 5 1 230.33 538.17 268.84 <
5 5 5 2 150.07 -108.55 108.59 <
5 -5 5 2 149.02 103.92 143.92 <
6 5 5 -2 27.90 -10.65 154.90 <
6 -5 5 -2 23.91 304.93 193.40 <
6 5 5 -1 290.88 579.62 380.37 <
-6 6 5 1 126.96 106.64 177.10 <
-6 -6 5 2 15.07 -56.20 223.71 <
-5 6 5 -2 45.75 -353.20 322.33 <
-5 -6 5 -2 42.25 -175.88 172.23 <
-5 6 5 -1 467.31 335.22 182.01 <
-5 -6 5 -1 444.16 118.07 310.58 <
-5 6 5 0 2391.93 1829.99 545.64 o
-5 -6 5 0 2416.54 2060.85 571.02 o
-5 6 5 1 300.35 204.27 148.07 <
-5 -6 5 1 295.47 113.05 142.79 <
-5 6 5 2 300.00 169.38 126.27 <
-5 -6 5 2 308.53 466.94 197.45 <
-4 6 5 -2 869.57 639.41 216.91 <
-4 -6 5 -2 863.28 607.39 213.60 <
-4 6 5 -1 109.56 93.37 68.72 <
-4 -6 5 -1 120.86 -39.53 89.38 <
-4 6 5 0 229.50 55.48 88.51 <
-4 -6 5 0 227.11 387.72 169.93 <
-4 6 5 1 389.13 284.78 161.34 <
-4 -6 5 1 376.57 263.93 166.27 <
-4 6 5 2 101.24 186.01 131.96 <
-4 -6 5 2 101.99 -41.11 84.72 <
-3 6 5 -2 163.15 233.25 124.03 <
-3 -6 5 -2 158.66 219.54 148.53 <
-3 6 5 -1 538.07 461.25 163.29 <
-3 -6 5 -1 603.64 437.96 171.99 <
-3 6 5 0 12681.70 13285.40 750.85 o
-3 -6 5 0 12791.30 13005.00 608.71 o
-3 6 5 1 132.98 45.02 65.89 <
-3 -6 5 1 138.71 -26.92 62.20 <
-3 6 5 2 708.78 719.98 179.71 o
-3 -6 5 2 716.41 794.03 166.84 o
-2 6 5 -2 1058.24 934.80 254.54 o
-2 -6 5 -2 1126.78 941.15 154.70 o
-2 6 5 -1 252.13 18.31 150.51 <
-2 -6 5 -1 265.73 20.67 57.59 <
-2 6 5 0 728.59 487.36 197.41 <
-2 -6 5 0 737.22 858.49 122.66 o
-2 6 5 1 766.91 759.40 167.08 o
-2 -6 5 1 752.85 741.31 140.34 o
-2 6 5 2 305.38 242.23 113.64 <
-2 -6 5 2 326.55 94.25 79.66 <
-1 6 5 -2 297.80 257.34 182.32 <
-1 -6 5 -2 294.38 66.13 48.20 <
-1 6 5 -1 10138.60 11450.20 859.36 o
-1 -6 5 -1 10092.80 10945.50 417.92 o
-1 6 5 0 45185.60 45744.10 1766.23 o
-1 -6 5 0 45410.10 46894.80 878.34 o
-1 6 5 1 275.15 264.58 138.12 <
-1 -6 5 1 282.53 339.42 82.22 o
-1 6 5 2 874.62 503.42 120.53 o
-1 -6 5 2 863.52 749.11 123.51 o
0 6 5 -2 239.46 151.18 168.49 <
0 -6 5 -2 243.80 100.48 54.83 <
0 6 5 -1 165.96 188.43 99.75 <
0 -6 5 -1 161.91 123.25 65.03 <
0 6 5 0 367.84 441.85 138.86 o
0 -6 5 0 335.24 193.45 65.13 <
0 6 5 1 41.90 143.59 118.53 <
0 -6 5 1 41.60 79.64 54.81 <
0 6 5 2 279.28 144.66 92.85 <
0 -6 5 2 294.76 96.70 61.20 <
1 6 5 -2 24.83 19.42 50.44 <
1 -6 5 -2 25.16 -6.31 37.83 <
1 6 5 -1 40.24 -10.04 69.64 <
1 -6 5 -1 48.53 8.65 37.41 <
1 6 5 0 42642.10 44225.10 1549.51 o
1 -6 5 0 42718.00 43203.00 706.13 o
1 6 5 1 2894.45 3036.18 445.92 o
1 -6 5 1 2978.53 2736.57 186.88 o
1 6 5 2 19.41 -239.47 78.59 <
1 -6 5 2 18.25 -6.74 46.50 <
2 6 5 -2 347.49 313.04 162.55 <
2 -6 5 -2 342.83 145.27 70.05 <
2 6 5 -1 899.15 992.07 244.15 o
2 -6 5 -1 867.18 984.93 153.14 o
2 6 5 0 140.18 69.59 55.83 <
2 -6 5 0 136.37 72.66 77.35 <
2 6 5 1 48.11 182.10 159.42 <
2 -6 5 1 44.27 111.83 84.92 <
2 6 5 2 667.20 497.47 270.74 <
2 -6 5 2 708.22 634.35 177.36 o
3 6 5 -2 42.84 -205.19 201.60 <
3 -6 5 -2 43.65 92.87 73.66 <
3 6 5 -1 209.15 79.22 96.16 <
3 -6 5 -1 199.90 154.82 99.29 <
3 6 5 0 13844.00 14093.30 1122.18 o
3 -6 5 0 13822.30 14460.50 862.54 o
3 6 5 1 1017.34 1102.70 351.48 o
3 -6 5 1 952.66 985.95 224.56 o
3 6 5 2 49.55 37.28 144.90 <
3 -6 5 2 54.88 236.88 153.77 <
4 6 5 -2 162.60 -139.16 151.55 <
4 -6 5 -2 159.73 111.31 178.55 <
4 6 5 -1 296.47 443.11 178.53 <
4 -6 5 -1 280.73 181.42 143.86 <
4 6 5 0 325.21 161.14 105.90 <
4 -6 5 0 324.17 66.09 120.94 <
4 6 5 1 144.51 206.10 198.84 <
4 -6 5 1 143.99 -41.87 114.53 <
4 6 5 2 147.80 -112.07 149.40 <
4 -6 5 2 123.58 86.29 144.36 <
5 6 5 -2 100.84 150.46 205.90 <
5 -6 5 -2 107.25 112.25 152.18 <
5 6 5 -1 376.04 276.17 208.88 <
5 -6 5 -1 393.78 216.14 129.07 <
5 6 5 0 2539.88 2007.09 448.53 o
5 -6 5 0 2544.04 2233.43 455.81 o
5 6 5 1 38.27 250.82 213.36 <
5 -6 5 1 46.31 -9.59 147.55 <
5 6 5 2 212.19 59.83 235.62 <
5 -6 5 2 200.72 505.05 345.63 <
6 6 5 -2 78.19 193.64 272.60 <
6 -6 5 -2 80.85 -38.37 162.12 <
-5 7 5 -2 27.40 -62.09 238.47 <
-5 -7 5 -2 27.80 524.40 324.63 <
-5 7 5 -1 120.33 -195.73 285.08 <
-5 -7 5 -1 115.40 749.18 387.94 <
-5 7 5 0 68.05 21.65 177.79 <
-5 -7 5 0 68.48 238.93 313.89 <
-5 7 5 1 86.10 96.72 85.62 <
-5 -7 5 1 78.56 36.02 168.95 <
-5 7 5 2 123.86 -102.44 122.01 <
-5 -7 5 2 127.65 -26.81 172.88 <
-4 7 5 -2 157.38 39.63 103.99 <
-4 -7 5 -2 174.12 345.54 240.21 <
-4 7 5 -1 68.45 139.42 119.16 <
-4 -7 5 -1 69.93 -15.28 124.57 <
-4 7 5 0 1926.15 1914.43 330.17 o
-4 -7 5 0 1863.12 2102.66 396.16 o
-4 7 5 1 59.71 -60.24 117.88 <
-4 -7 5 1 61.25 109.88 124.73 <
-4 7 5 2 110.42 -44.22 64.09 <
-4 -7 5 2 104.21 225.41 203.88 <
-3 7 5 -2 57.83 69.77 113.49 <
-3 -7 5 -2 55.92 36.31 79.77 <
-3 7 5 -1 185.27 134.81 90.03 <
-3 -7 5 -1 221.58 141.60 123.94 <
-3 7 5 0 316.29 187.62 150.10 <
-3 -7 5 0 311.66 128.36 111.24 <
-3 7 5 1 120.39 -34.89 98.98 <
-3 -7 5 1 110.33 141.90 91.77 <
-3 7 5 2 218.23 273.89 123.59 <
-3 -7 5 2 228.51 130.53 88.85 <
-2 7 5 -2 671.42 428.29 215.30 <
-2 -7 5 -2 648.33 441.51 95.25 o
-2 7 5 -1 120.78 250.01 205.40 <
-2 -7 5 -1 127.77 60.53 55.55 <
-2 7 5 0 2777.37 2872.77 483.68 o
-2 -7 5 0 2691.04 2515.79 211.62 o
-2 7 5 1 564.93 517.88 238.04 <
-2 -7 5 1 568.11 743.76 132.23 o
-2 7 5 2 59.53 145.49 78.87 <
-2 -7 5 2 59.37 129.10 70.31 <
-1 7 5 -2 138.74 -109.94 133.42 <
-1 -7 5 -2 137.65 88.88 56.27 <
-1 7 5 -1 5486.59 5518.88 624.52 o
-1 -7 5 -1 5393.14 5752.40 315.50 o
-1 7 5 0 367.84 127.81 76.25 <
-1 -7 5 0 391.18 315.33 84.88 o
-1 7 5 1 112.80 61.53 71.18 <
-1 -7 5 1 101.40 34.02 57.64 <
-1 -7 5 2 210.97 9.83 39.33 <
0 7 5 -2 324.81 108.77 127.20 <
0 -7 5 -2 325.04 96.83 68.63 <
0 7 5 -1 351.11 278.19 120.79 <
0 -7 5 -1 345.18 404.24 86.50 o
0 7 5 0 20258.00 19171.50 735.39 o
0 -7 5 0 19992.20 19711.20 634.89 o
0 7 5 1 3029.23 3328.59 396.26 o
0 -7 5 1 3050.12 3220.88 266.61 o
0 7 5 2 71.72 -67.18 74.18 <
0 -7 5 2 72.25 86.96 55.65 <
1 7 5 -2 295.11 110.75 94.57 <
1 -7 5 -2 302.10 -17.94 47.70 <
1 7 5 -1 376.85 280.39 106.55 <
1 -7 5 -1 399.24 139.20 47.52 <
1 7 5 0 242.71 126.20 128.16 <
1 -7 5 0 265.26 140.01 48.33 <
1 7 5 1 105.41 333.59 186.53 <
1 -7 5 1 97.84 190.16 74.31 <
1 7 5 2 293.75 89.25 136.03 <
1 -7 5 2 270.38 172.92 75.51 <
2 7 5 -2 320.90 214.25 124.35 <
2 -7 5 -2 319.60 220.93 90.57 <
2 7 5 -1 160.05 -55.96 117.16 <
2 -7 5 -1 143.84 219.32 90.72 <
2 7 5 0 3646.44 3125.99 460.68 o
2 -7 5 0 3650.25 3601.87 307.39 o
2 7 5 1 2888.01 3146.75 477.20 o
2 -7 5 1 2959.52 2994.28 290.08 o
2 7 5 2 776.54 969.82 306.13 o
2 -7 5 2 726.17 714.22 158.07 o
3 7 5 -2 156.41 -10.96 119.85 <
3 -7 5 -2 161.50 81.79 84.44 <
3 7 5 -1 134.43 475.94 257.06 <
3 -7 5 -1 135.75 226.58 115.18 <
3 7 5 0 167.44 64.14 116.62 <
3 -7 5 0 149.73 122.77 90.94 <
3 7 5 1 63.20 339.92 225.69 <
3 -7 5 1 61.73 328.72 158.03 <
3 7 5 2 79.90 325.82 203.91 <
3 -7 5 2 92.94 205.82 154.84 <
4 7 5 -2 84.60 29.00 69.42 <
4 -7 5 -2 84.94 -26.04 119.38 <
4 7 5 -1 242.05 81.53 128.51 <
4 -7 5 -1 233.07 123.79 119.70 <
4 7 5 0 2481.73 1879.82 476.60 o
4 -7 5 0 2497.91 2458.23 435.48 o
4 7 5 1 729.18 1269.39 458.14 <
4 -7 5 1 744.19 463.60 209.99 <
4 7 5 2 218.72 387.94 234.54 <
4 -7 5 2 226.25 170.53 126.62 <
5 7 5 -2 76.95 31.91 82.40 <
5 -7 5 -2 74.42 195.51 189.06 <
5 7 5 -1 14.29 61.05 170.43 <
5 -7 5 -1 13.70 84.61 166.82 <
5 7 5 0 34.68 -58.27 228.36 <
5 -7 5 0 35.71 231.28 217.43 <
5 7 5 1 65.43 623.09 406.79 <
5 -7 5 1 66.34 83.94 160.77 <
5 -7 5 2 24.10 -262.08 221.34 <
6 -7 5 -2 61.46 172.62 233.15 <
-5 8 5 -2 53.76 -234.60 354.22 <
-5 -8 5 -2 55.83 239.41 275.95 <
-5 8 5 -1 54.60 6.76 240.19 <
-5 -8 5 -1 50.53 154.55 219.38 <
-5 8 5 0 58.82 188.47 288.82 <
-5 -8 5 0 60.29 11.09 164.58 <
-5 8 5 1 309.22 -253.10 170.16 <
-5 -8 5 1 298.78 -11.07 102.49 <
-5 8 5 2 166.62 165.81 151.23 <
-5 -8 5 2 169.38 -106.42 160.38 <
-4 8 5 -2 141.55 102.44 124.83 <
-4 -8 5 -2 146.21 124.51 261.91 <
-4 8 5 -1 83.16 61.90 96.55 <
-4 -8 5 -1 76.94 120.57 271.98 <
-4 8 5 0 353.24 589.56 204.36 <
-4 -8 5 0 354.87 402.85 209.58 <
-4 8 5 1 88.39 136.20 132.70 <
-4 -8 5 1 98.46 185.58 157.81 <
-4 8 5 2 40.24 49.92 102.25 <
-4 -8 5 2 38.62 226.90 117.44 <
-3 8 5 -2 45.99 144.86 92.07 <
-3 -8 5 -2 51.45 142.47 112.75 <
-3 8 5 -1 78.81 233.23 150.32 <
-3 -8 5 -1 87.31 185.66 124.88 <
-3 8 5 0 145.59 131.62 115.07 <
-3 -8 5 0 137.26 193.41 98.14 <
-3 8 5 1 343.25 153.10 110.31 <
-3 -8 5 1 325.11 150.58 86.46 <
-3 8 5 2 267.35 22.18 76.20 <
-3 -8 5 2 276.71 81.46 92.40 <
-2 8 5 -2 1274.22 1176.69 313.22 o
-2 -8 5 -2 1252.00 1434.05 166.51 o
-2 8 5 -1 73.50 95.86 205.65 <
-2 -8 5 -1 66.98 69.90 64.44 <
-2 8 5 0 1814.22 1627.19 394.96 o
-2 -8 5 0 1852.87 1589.02 182.01 o
-2 8 5 1 58.44 50.74 108.68 <
-2 -8 5 1 67.05 183.04 78.59 <
-2 8 5 2 194.86 114.38 212.88 <
-2 -8 5 2 184.82 51.18 83.62 <
-1 8 5 -2 241.87 -247.08 128.18 <
-1 -8 5 -2 259.48 84.48 73.50 <
-1 8 5 -1 1053.82 802.97 243.78 o
-1 -8 5 -1 1056.17 840.73 116.85 o
-1 8 5 0 222.38 -113.53 120.59 <
-1 -8 5 0 199.55 176.77 73.26 <
-1 -8 5 1 189.24 8.50 64.33 <
-1 8 5 2 291.54 126.70 217.02 <
-1 -8 5 2 306.67 167.29 79.27 <
0 8 5 -2 219.68 461.94 236.73 <
0 -8 5 -2 214.30 176.80 73.40 <
0 8 5 -1 119.90 265.32 215.23 <
0 -8 5 -1 118.29 24.63 57.76 <
0 8 5 0 7128.98 6403.86 543.60 o
0 -8 5 0 7065.11 7434.29 405.13 o
0 8 5 1 122.14 -6.44 44.89 <
0 -8 5 1 117.13 140.51 77.03 <
0 8 5 2 214.35 137.01 115.46 <
0 -8 5 2 222.68 205.17 70.59 <
1 8 5 -2 275.77 109.36 72.77 <
1 -8 5 -2 264.17 -11.61 46.59 <
1 8 5 -1 1234.91 681.29 162.12 o
1 -8 5 -1 1244.14 748.38 127.55 o
1 8 5 0 247.61 179.03 85.09 <
1 -8 5 0 231.88 138.46 61.96 <
1 8 5 1 487.55 508.30 185.38 <
1 -8 5 1 485.35 495.38 126.44 o
1 8 5 2 117.94 229.54 88.70 <
1 -8 5 2 124.79 -15.15 52.63 <
2 8 5 -2 192.77 92.22 89.55 <
2 -8 5 -2 197.34 133.57 64.81 <
2 8 5 -1 33.10 182.64 100.05 <
2 -8 5 -1 30.02 84.27 77.77 <
2 8 5 0 1982.47 1859.51 347.87 o
2 -8 5 0 2000.75 1878.45 230.10 o
2 8 5 1 567.82 449.44 172.01 <
2 -8 5 1 571.57 721.20 163.92 o
2 8 5 2 356.27 81.88 111.18 <
2 -8 5 2 383.46 162.38 92.75 <
3 8 5 -2 283.99 145.71 53.05 <
3 -8 5 -2 269.95 -43.74 61.39 <
3 8 5 -1 1257.14 1085.27 337.02 o
3 -8 5 -1 1225.17 1057.18 188.80 o
3 8 5 0 54.33 97.57 165.49 <
3 -8 5 0 52.76 149.07 105.12 <
3 8 5 1 177.52 247.58 142.59 <
3 -8 5 1 166.40 295.28 155.29 <
3 8 5 2 119.96 91.61 116.92 <
3 -8 5 2 127.08 146.57 138.62 <
4 8 5 -2 79.50 130.49 62.96 <
4 -8 5 -2 80.56 53.33 107.68 <
4 8 5 -1 28.85 162.07 178.03 <
4 -8 5 -1 30.48 212.93 162.86 <
4 8 5 0 342.39 245.51 136.66 <
4 -8 5 0 331.18 304.41 191.73 <
4 -8 5 1 502.51 542.95 217.17 <
4 -8 5 2 94.05 225.41 190.91 <
5 -8 5 -2 246.13 -205.10 113.53 <
5 -8 5 -1 569.19 35.16 157.21 <
5 8 5 0 33.17 530.12 405.61 <
5 -8 5 0 36.31 -5.41 152.21 <
5 8 5 1 244.57 302.17 344.48 <
5 -8 5 1 238.99 99.72 162.21 <
5 -8 5 2 88.39 -182.62 293.46 <
-5 9 5 -2 75.90 -185.99 214.10 <
-5 -9 5 -2 74.49 334.91 335.50 <
-5 9 5 -1 57.34 -132.84 289.48 <
-5 -9 5 -1 56.52 181.16 389.52 <
-5 9 5 0 109.62 -92.72 107.14 <
-5 -9 5 0 103.65 264.00 278.86 <
-5 9 5 1 135.69 -103.59 139.10 <
-5 -9 5 1 134.69 37.65 197.99 <
-5 -9 5 2 3.51 171.01 181.86 <
-4 9 5 -2 26.05 136.20 170.40 <
-4 -9 5 -2 27.37 53.37 156.77 <
-4 9 5 -1 590.04 603.06 212.52 <
-4 -9 5 -1 590.96 715.90 397.81 <
-4 9 5 0 4631.20 4778.97 543.45 o
-4 -9 5 0 4584.10 5032.66 914.04 o
-4 9 5 1 24.53 123.88 94.24 <
-4 -9 5 1 24.66 119.31 217.67 <
-4 9 5 2 595.92 626.35 203.86 o
-4 -9 5 2 576.25 772.92 237.10 o
-3 9 5 -2 112.06 197.17 242.34 <
-3 -9 5 -2 120.12 -116.99 117.57 <
-3 9 5 -1 154.63 68.46 128.16 <
-3 -9 5 -1 145.50 -110.74 118.62 <
-3 9 5 0 473.06 424.72 243.04 <
-3 -9 5 0 449.11 577.54 148.53 o
-3 9 5 1 223.77 164.58 199.54 <
-3 -9 5 1 208.73 89.50 88.12 <
-3 9 5 2 28.13 130.64 163.60 <
-3 -9 5 2 24.11 73.87 105.42 <
-2 9 5 -2 1052.26 1135.71 343.28 o
-2 -9 5 -2 1016.32 698.74 132.88 o
-2 9 5 -1 1791.05 1624.93 374.85 o
-2 -9 5 -1 1809.99 1569.56 181.06 o
-2 9 5 0 8392.51 9197.78 892.95 o
-2 -9 5 0 8400.54 8042.63 410.64 o
-2 9 5 1 22.63 542.93 281.02 <
-2 -9 5 1 25.36 144.20 73.18 <
-2 9 5 2 988.32 889.60 327.72 <
-2 -9 5 2 974.92 656.45 130.81 o
-1 9 5 -2 401.47 18.55 88.55 <
-1 -9 5 -2 415.04 276.39 74.40 o
-1 9 5 -1 233.32 16.18 83.03 <
-1 -9 5 -1 237.29 120.18 65.18 <
-1 9 5 0 500.86 538.21 228.60 <
-1 -9 5 0 492.06 381.26 88.37 o
-1 9 5 1 484.74 185.04 182.30 <
-1 -9 5 1 460.87 170.60 76.74 <
-1 9 5 2 22.89 131.86 162.10 <
-1 -9 5 2 21.15 99.38 71.92 <
0 -9 5 -2 333.84 -0.83 57.89 <
0 -9 5 -1 1675.98 1460.84 206.36 o
0 -9 5 0 57513.20 55368.90 1474.01 o
0 9 5 1 43.55 110.70 72.18 <
0 -9 5 1 43.59 -2.65 59.92 <
0 9 5 2 595.61 780.10 203.73 o
0 -9 5 2 612.90 913.38 146.08 o
1 9 5 -2 131.90 205.97 79.18 <
1 -9 5 -2 135.88 132.07 70.63 <
1 9 5 -1 99.21 83.16 39.48 <
1 -9 5 -1 106.47 77.40 71.57 <
1 9 5 0 319.00 374.05 141.49 <
1 -9 5 0 307.00 294.17 83.96 o
1 9 5 1 671.77 446.53 172.84 <
1 -9 5 1 675.66 409.98 101.31 o
1 9 5 2 62.47 398.87 176.12 <
1 -9 5 2 68.15 120.14 68.35 <
2 9 5 -2 392.82 109.57 98.12 <
2 -9 5 -2 397.31 112.14 82.83 <
2 9 5 -1 286.02 68.79 104.74 <
2 -9 5 -1 304.54 402.66 116.31 o
2 9 5 0 7549.99 7568.11 678.00 o
2 -9 5 0 7592.84 7141.06 453.71 o
2 9 5 1 144.09 316.26 157.23 <
2 -9 5 1 144.35 138.57 88.07 <
2 9 5 2 2098.17 1960.46 400.07 o
2 -9 5 2 2115.83 1709.16 236.08 o
3 9 5 -2 90.67 238.67 144.20 <
3 -9 5 -2 97.89 19.15 83.57 <
3 9 5 -1 60.46 171.12 168.19 <
3 -9 5 -1 65.56 106.11 67.63 <
3 9 5 0 257.30 144.97 177.77 <
3 -9 5 0 238.91 247.99 113.77 <
3 9 5 1 163.13 361.68 214.88 <
3 -9 5 1 158.24 218.17 118.49 <
3 -9 5 2 17.33 -52.24 143.36 <
4 9 5 -2 325.90 -109.24 162.16 <
4 -9 5 -2 333.62 256.08 134.14 <
4 -9 5 -1 29.84 148.42 154.82 <
4 -9 5 0 3957.68 4429.77 573.25 o
4 -9 5 1 42.03 -25.70 92.92 <
4 -9 5 2 123.35 598.87 282.00 <
5 -9 5 -2 74.07 85.57 146.14 <
5 -9 5 -1 26.72 -151.03 125.92 <
5 -9 5 0 52.15 -30.04 147.92 <
5 9 5 1 33.28 267.43 377.89 <
5 -9 5 1 36.29 230.52 173.10 <
-5 10 5 -2 226.32 651.59 400.83 <
-5 10 5 -1 2.08 290.71 335.32 <
-5 -10 5 -1 2.00 -126.38 237.25 <
-5 10 5 0 382.52 543.12 399.39 <
-5 -10 5 0 381.43 90.61 171.84 <
-5 -10 5 1 20.73 542.21 339.17 <
-5 -10 5 2 12.54 153.77 257.74 <
-4 10 5 -2 140.75 287.96 326.30 <
-4 -10 5 -2 146.21 264.47 269.08 <
-4 10 5 -1 252.52 279.10 224.26 <
-4 -10 5 -1 252.97 -153.05 144.96 <
-4 10 5 0 404.77 513.14 203.40 <
-4 -10 5 0 395.29 363.41 291.46 <
-4 10 5 1 33.84 44.52 132.16 <
-4 -10 5 1 36.02 46.85 152.68 <
-4 10 5 2 64.30 298.39 131.21 <
-4 -10 5 2 63.82 198.47 125.57 <
-3 10 5 -2 254.63 124.57 142.77 <
-3 -10 5 -2 250.53 117.16 209.47 <
-3 10 5 -1 358.57 334.20 211.54 <
-3 -10 5 -1 360.83 792.94 376.89 <
-3 10 5 0 1412.19 1201.67 348.65 o
-3 -10 5 0 1405.68 1360.83 297.21 o
-3 10 5 1 313.28 208.36 173.66 <
-3 -10 5 1 324.18 105.46 87.35 <
-3 10 5 2 24.78 344.67 232.73 <
-3 -10 5 2 25.99 40.63 97.07 <
-2 10 5 -2 904.72 1433.88 371.76 o
-2 -10 5 -2 916.46 995.57 172.60 o
-2 10 5 -1 505.41 458.85 297.63 <
-2 -10 5 -1 516.04 360.68 114.62 o
-2 10 5 0 535.55 447.55 245.88 <
-2 -10 5 0 587.74 149.96 79.83 <
-2 10 5 1 98.53 117.40 209.67 <
-2 -10 5 1 101.03 50.92 76.83 <
-2 10 5 2 131.92 163.55 137.57 <
-2 -10 5 2 133.41 260.97 94.20 <
-1 10 5 -2 308.84 16.09 87.20 <
-1 -10 5 -2 313.50 103.35 87.48 <
-1 10 5 -1 615.59 461.75 228.90 <
-1 -10 5 -1 600.20 446.85 101.96 o
-1 10 5 0 1512.77 1539.80 381.48 o
-1 -10 5 0 1521.63 1474.31 170.18 o
-1 10 5 1 791.07 593.06 292.24 <
-1 -10 5 1 809.45 653.63 113.20 o
-1 10 5 2 52.18 173.03 166.19 <
-1 -10 5 2 50.44 64.48 72.14 <
0 -10 5 -2 151.10 210.19 80.63 <
0 -10 5 -1 367.99 274.19 86.55 o
0 -10 5 0 1880.18 1502.14 251.89 o
0 -10 5 1 540.01 361.94 136.99 <
0 10 5 2 88.01 144.01 115.73 <
0 -10 5 2 84.38 184.58 79.03 <
1 10 5 -2 656.41 202.84 79.27 <
1 -10 5 -2 663.35 396.74 115.36 o
1 10 5 -1 705.08 502.71 133.94 o
1 -10 5 -1 688.14 376.37 100.18 o
1 10 5 0 1498.77 1247.73 220.93 o
1 -10 5 0 1519.14 1354.70 194.41 o
1 10 5 1 1129.31 876.91 209.62 o
1 -10 5 1 1149.42 1082.64 169.84 o
1 10 5 2 122.48 131.92 84.74 <
1 -10 5 2 112.24 -11.35 59.59 <
2 10 5 -2 126.93 180.27 118.23 <
2 -10 5 -2 121.99 88.46 73.18 <
2 10 5 -1 582.30 356.20 163.62 <
2 -10 5 -1 561.07 307.45 106.27 <
2 10 5 0 202.66 366.54 194.58 <
2 -10 5 0 215.18 142.66 81.77 <
2 10 5 1 626.54 466.88 153.57 o
2 -10 5 1 645.44 462.92 130.47 o
2 -10 5 2 147.33 163.99 106.49 <
3 10 5 -2 317.82 310.24 190.84 <
3 -10 5 -2 319.95 130.31 95.81 <
3 -10 5 -1 176.24 5.50 68.44 <
3 -10 5 0 1163.71 1258.76 228.26 o
3 -10 5 1 395.90 406.29 140.32 <
3 -10 5 2 110.36 134.18 150.79 <
4 -10 5 -2 30.83 -56.55 95.72 <
4 -10 5 -1 127.77 211.34 126.44 <
4 -10 5 0 140.36 232.32 185.99 <
4 -10 5 1 420.46 404.74 224.64 <
4 -10 5 2 119.61 584.41 263.52 <
5 -10 5 -2 40.41 -275.50 204.75 <
5 -10 5 -1 106.57 -114.38 120.03 <
5 -10 5 0 369.23 304.91 171.03 <
5 -10 5 1 402.52 168.60 116.59 <
-5 11 5 -2 110.59 202.23 236.08 <
-5 11 5 -1 178.57 -29.70 280.48 <
-5 -11 5 -1 177.88 -70.14 224.75 <
-5 -11 5 0 350.08 213.06 286.61 <
-5 -11 5 1 85.57 445.42 329.76 <
-5 -11 5 2 39.66 74.40 163.34 <
-4 11 5 -2 137.02 127.36 162.97 <
-4 -11 5 -2 150.03 365.78 299.58 <
-4 11 5 -1 36.07 22.83 101.57 <
-4 -11 5 -1 31.36 53.59 158.99 <
-4 11 5 0 579.61 599.10 223.71 <
-4 -11 5 0 577.87 522.29 373.40 <
-4 11 5 1 294.76 268.58 176.77 <
-4 -11 5 1 291.08 318.85 329.70 <
-4 11 5 2 12.39 179.10 157.49 <
-4 -11 5 2 11.23 107.64 244.10 <
-3 11 5 -2 159.69 168.32 154.60 <
-3 -11 5 -2 146.68 -101.35 184.82 <
-3 11 5 -1 1263.58 721.53 260.93 <
-3 -11 5 -1 1268.85 1318.63 494.16 <
-3 11 5 0 930.81 1179.92 392.16 o
-3 -11 5 0 890.22 900.15 218.51 o
-3 11 5 1 101.80 235.04 170.95 <
-3 -11 5 1 98.11 58.03 121.66 <
-3 11 5 2 87.46 212.06 194.90 <
-3 -11 5 2 78.76 11.70 130.16 <
-2 11 5 -2 779.58 1055.16 346.35 o
-2 -11 5 -2 727.34 940.17 190.30 o
-2 11 5 -1 405.80 497.60 255.43 <
-2 -11 5 -1 405.67 404.74 128.27 o
-2 11 5 0 2738.80 2828.77 532.14 o
-2 -11 5 0 2746.16 2462.53 289.21 o
-2 11 5 1 392.75 659.22 289.52 <
-2 -11 5 1 382.72 59.50 97.99 <
-2 11 5 2 40.59 1.87 187.08 <
-2 -11 5 2 45.19 -96.48 77.81 <
-1 11 5 -2 166.45 -38.20 133.83 <
-1 -11 5 -2 160.55 152.58 106.46 <
-1 11 5 -1 166.38 335.52 204.99 <
-1 -11 5 -1 181.57 225.97 86.53 <
-1 11 5 0 701.36 1183.75 344.70 o
-1 -11 5 0 645.55 894.45 147.25 o
-1 11 5 1 128.28 368.05 237.04 <
-1 -11 5 1 130.98 133.09 88.18 <
-1 11 5 2 237.46 602.74 331.02 <
-1 -11 5 2 223.77 332.41 123.44 <
0 -11 5 -2 161.38 128.47 80.33 <
0 -11 5 -1 483.32 390.98 114.75 o
0 -11 5 0 388.77 226.26 96.90 <
0 -11 5 1 569.36 497.68 159.20 o
0 -11 5 2 309.71 117.64 87.77 <
1 -11 5 -2 167.17 58.94 62.39 <
1 11 5 -1 503.06 755.77 149.49 o
1 -11 5 -1 498.08 690.92 150.23 o
1 11 5 0 440.10 745.59 155.97 o
1 -11 5 0 403.96 564.28 131.55 o
1 -11 5 1 326.82 -19.78 48.98 <
1 -11 5 2 135.54 36.41 58.05 <
2 -11 5 -2 276.26 348.65 105.88 o
2 -11 5 -1 204.90 135.53 88.44 <
2 -11 5 0 2990.66 2757.36 303.17 o
2 -11 5 1 8.39 24.92 75.59 <
2 -11 5 2 550.70 143.09 99.14 <
3 -11 5 -2 72.78 98.85 71.03 <
3 -11 5 -1 8.26 92.16 79.13 <
3 -11 5 0 239.39 506.66 125.42 o
3 -11 5 1 181.06 141.88 95.18 <
3 -11 5 2 102.17 138.66 147.60 <
4 -11 5 -2 288.80 73.44 147.27 <
4 -11 5 -1 256.71 95.94 86.18 <
4 -11 5 0 587.89 197.03 166.79 <
4 -11 5 1 90.04 109.20 143.66 <
4 -11 5 2 160.43 380.37 249.54 <
5 -11 5 -2 57.22 52.63 120.62 <
5 -11 5 -1 1.22 341.26 211.47 <
5 -11 5 0 72.34 100.92 165.34 <
5 -11 5 1 322.51 363.91 342.15 <
-5 12 5 -2 160.41 189.60 401.96 <
-5 -12 5 0 92.38 257.84 398.22 <
-5 -12 5 1 44.14 -189.77 111.61 <
-5 -12 5 2 66.90 158.99 324.19 <
-4 12 5 -2 70.82 148.53 320.74 <
-4 -12 5 -2 54.58 -22.05 243.02 <
-4 12 5 -1 69.49 293.19 304.24 <
-4 -12 5 -1 67.39 64.39 109.07 <
-4 12 5 0 199.13 701.50 398.92 <
-4 -12 5 0 212.85 505.36 365.94 <
-4 12 5 1 75.07 55.00 190.03 <
-4 -12 5 1 76.04 311.72 308.96 <
-4 12 5 2 137.12 61.13 229.06 <
-4 -12 5 2 136.26 240.43 273.95 <
-3 12 5 -2 97.11 189.41 231.26 <
-3 -12 5 -2 97.76 363.89 303.30 <
-3 12 5 -1 575.70 537.67 276.78 <
-3 -12 5 -1 578.12 600.17 308.26 <
-3 12 5 0 491.96 194.99 254.39 <
-3 -12 5 0 453.54 419.75 210.58 <
-3 12 5 1 275.15 327.35 279.65 <
-3 -12 5 1 261.66 197.58 141.55 <
-3 12 5 2 156.29 563.54 285.37 <
-3 -12 5 2 155.54 170.21 125.85 <
-2 12 5 -2 1506.30 1714.50 450.90 o
-2 -12 5 -2 1549.53 1244.63 222.56 o
-2 12 5 -1 173.63 146.60 214.86 <
-2 -12 5 -1 171.76 182.38 113.85 <
-2 12 5 0 562.36 1432.73 393.35 o
-2 -12 5 0 568.77 1096.12 210.79 o
-2 12 5 1 333.83 106.86 178.40 <
-2 -12 5 1 342.55 348.04 164.70 <
-2 12 5 2 302.63 265.73 251.47 <
-2 -12 5 2 302.33 298.33 117.85 <
-1 12 5 -2 27.01 131.79 105.20 <
-1 -12 5 -2 23.59 0.28 105.51 <
-1 12 5 -1 6046.40 6950.93 815.20 o
-1 -12 5 -1 6126.49 5923.02 375.57 o
-1 12 5 0 800.16 303.98 205.40 <
-1 -12 5 0 765.80 23.67 61.87 <
-1 12 5 1 197.92 421.88 317.46 <
-1 -12 5 1 195.86 96.57 65.31 <
-1 12 5 2 226.05 327.82 326.57 <
-1 -12 5 2 228.08 339.31 110.94 o
0 -12 5 -2 260.43 125.99 88.29 <
0 -12 5 -1 171.71 93.40 79.88 <
0 -12 5 0 26.35 53.11 81.59 <
0 -12 5 1 236.90 60.50 94.42 <
0 -12 5 2 254.64 204.36 108.12 <
1 -12 5 -2 303.92 392.02 108.01 o
1 -12 5 -1 610.07 242.73 84.51 <
1 -12 5 0 524.20 127.08 81.44 <
1 -12 5 1 4806.87 4822.62 399.68 o
1 -12 5 2 442.77 278.00 101.20 <
2 -12 5 -2 167.51 49.33 78.03 <
2 -12 5 -1 166.29 174.36 89.03 <
2 -12 5 0 248.50 184.04 91.12 <
2 -12 5 1 158.11 57.40 71.72 <
2 -12 5 2 592.86 683.24 182.90 o
3 -12 5 -2 287.63 218.12 78.33 <
3 -12 5 -1 229.02 365.39 105.92 o
3 -12 5 0 91.43 231.54 89.38 <
3 -12 5 1 72.61 -53.70 81.74 <
3 -12 5 2 250.02 396.76 159.75 <
4 -12 5 -2 121.89 7.04 131.18 <
4 -12 5 -1 99.32 -79.31 100.57 <
4 -12 5 0 152.58 433.64 250.67 <
4 -12 5 1 7.28 -235.26 227.95 <
4 -12 5 2 16.19 179.53 99.09 <
5 -12 5 -2 176.35 322.43 231.78 <
5 -12 5 -1 10.45 -182.06 185.86 <
5 -12 5 0 84.76 -55.35 137.83 <
-5 -13 5 1 58.25 461.18 327.20 <
-5 -13 5 2 49.24 -19.89 180.29 <
-4 13 5 -2 59.73 237.67 257.71 <
-4 -13 5 -2 73.15 -231.47 273.65 <
-4 -13 5 -1 168.24 102.85 196.25 <
-4 -13 5 0 65.27 111.94 276.98 <
-4 -13 5 1 140.96 31.31 190.90 <
-4 13 5 2 48.76 147.94 147.46 <
-4 -13 5 2 39.53 -265.08 292.10 <
-3 13 5 -2 23.01 20.61 179.73 <
-3 -13 5 -2 21.13 -36.20 107.42 <
-3 13 5 -1 1.65 186.47 174.80 <
-3 -13 5 -1 2.83 72.70 323.35 <
-3 13 5 0 357.72 175.58 175.43 <
-3 -13 5 0 362.20 305.54 210.34 <
-3 13 5 1 145.14 303.02 205.99 <
-3 -13 5 1 149.54 325.96 238.69 <
-3 13 5 2 182.77 178.62 161.23 <
-3 -13 5 2 187.36 94.20 187.36 <
-2 13 5 -2 791.62 1010.57 376.94 <
-2 -13 5 -2 749.25 821.95 196.23 o
-2 13 5 -1 450.29 462.42 282.17 <
-2 -13 5 -1 448.41 432.81 129.68 o
-2 13 5 0 198.66 60.26 116.81 <
-2 -13 5 0 198.80 4.76 93.55 <
-2 13 5 1 229.78 175.58 143.23 <
-2 -13 5 1 233.76 10.13 63.63 <
-2 13 5 2 79.53 174.21 221.41 <
-2 -13 5 2 70.30 -34.18 69.85 <
-1 13 5 -2 133.54 325.02 249.67 <
-1 -13 5 -2 113.13 73.24 92.72 <
-1 13 5 -1 70.23 79.87 216.77 <
-1 -13 5 -1 65.82 113.73 89.53 <
-1 13 5 0 389.25 282.54 239.49 <
-1 -13 5 0 371.12 125.09 86.68 <
-1 13 5 1 334.40 547.56 308.50 <
-1 -13 5 1 339.68 350.13 119.40 <
-1 13 5 2 331.10 421.75 260.26 <
-1 -13 5 2 328.70 225.14 107.90 <
0 -13 5 -2 204.81 235.51 102.74 <
0 -13 5 -1 456.27 345.50 119.12 <
0 -13 5 0 725.56 713.66 161.10 o
0 -13 5 1 51.19 214.19 106.68 <
0 -13 5 2 160.47 14.74 90.92 <
1 -13 5 -2 387.28 137.21 84.81 <
1 -13 5 -1 92.52 105.33 84.37 <
1 -13 5 0 145.59 280.69 114.38 <
1 -13 5 1 904.09 526.90 132.75 o
1 -13 5 2 52.02 -117.18 73.11 <
2 -13 5 -2 14.70 174.49 105.48 <
2 -13 5 -1 169.15 112.20 65.74 <
2 -13 5 0 210.42 235.84 90.85 <
2 -13 5 1 12.87 88.66 92.72 <
2 -13 5 2 34.12 255.58 84.53 o
3 -13 5 -2 69.68 294.41 118.83 <
3 -13 5 -1 97.10 159.75 100.20 <
3 -13 5 0 485.14 429.70 130.92 o
3 -13 5 1 262.65 224.84 104.40 <
3 -13 5 2 73.67 -87.88 89.50 <
4 -13 5 -2 16.71 -10.30 76.59 <
4 -13 5 -1 51.29 133.81 123.99 <
4 -13 5 0 90.29 -33.70 134.71 <
4 -13 5 1 55.81 870.67 330.68 <
4 -13 5 2 0.94 186.69 187.88 <
5 -13 5 -2 7.26 51.52 166.90 <
5 -13 5 -1 45.56 106.07 277.84 <
5 -13 5 0 146.90 85.27 141.60 <
-5 -14 5 2 195.08 432.16 447.51 <
-4 -14 5 -2 35.91 89.51 207.60 <
-4 -14 5 -1 141.27 104.07 179.73 <
-4 -14 5 0 37.25 223.93 270.63 <
-4 -14 5 1 6.35 239.95 237.76 <
-4 14 5 2 195.98 -398.14 316.13 <
-4 -14 5 2 206.09 -8.37 137.34 <
-3 -14 5 -2 62.33 237.78 359.44 <
-3 14 5 -1 552.27 1080.72 414.79 <
-3 -14 5 -1 545.85 724.87 237.30 o
-3 14 5 0 4060.17 3883.95 742.81 o
-3 -14 5 0 4076.60 3769.64 546.41 o
-3 14 5 1 283.33 78.90 107.99 <
-3 -14 5 1 287.66 336.13 239.43 <
-3 14 5 2 292.61 345.83 161.18 <
-3 -14 5 2 300.94 312.61 206.06 <
-2 14 5 -2 157.65 93.51 202.01 <
-2 -14 5 -2 143.70 128.44 88.51 <
-2 14 5 -1 189.92 694.78 328.17 <
-2 -14 5 -1 180.34 226.86 114.64 <
-2 14 5 0 54.58 -414.40 309.82 <
-2 -14 5 0 51.34 104.55 118.73 <
-2 14 5 1 33.64 29.57 129.79 <
-2 -14 5 1 33.63 62.85 117.16 <
-2 14 5 2 209.99 100.09 145.03 <
-2 -14 5 2 214.63 76.85 99.92 <
-1 14 5 -2 27.93 179.23 119.29 <
-1 -14 5 -2 24.57 89.50 145.18 <
-1 14 5 -1 860.36 681.39 322.13 <
-1 -14 5 -1 875.04 878.62 225.26 o
-1 14 5 0 8093.35 8719.18 971.95 o
-1 -14 5 0 8187.79 9108.29 504.21 o
-1 14 5 1 40.27 343.50 221.90 <
-1 -14 5 1 46.42 126.14 76.22 <
-1 14 5 2 219.68 295.54 221.82 <
-1 -14 5 2 234.95 143.53 79.25 <
0 -14 5 -2 152.38 138.07 104.18 <
0 -14 5 -1 284.81 148.38 98.72 <
0 -14 5 0 131.40 537.34 156.07 o
0 -14 5 1 54.52 74.35 89.24 <
0 -14 5 2 346.12 277.54 143.32 <
1 -14 5 -2 158.95 380.70 114.99 o
1 -14 5 -1 197.35 278.87 104.90 <
1 -14 5 0 8432.89 10164.50 520.30 o
1 -14 5 1 3300.58 2976.50 295.45 o
1 -14 5 2 220.23 272.54 121.79 <
2 -14 5 -2 131.28 53.29 77.96 <
2 -14 5 -1 12.30 -2.67 71.98 <
2 -14 5 0 121.90 -19.37 58.79 <
2 -14 5 1 164.73 118.11 125.33 <
2 -14 5 2 197.90 42.96 89.29 <
3 -14 5 -2 180.78 262.17 101.92 <
3 -14 5 -1 88.64 180.06 107.57 <
3 -14 5 0 3812.46 3886.26 366.59 o
3 -14 5 1 107.44 339.35 133.47 <
3 -14 5 2 19.57 63.53 108.74 <
4 -14 5 -2 53.47 340.05 154.36 <
4 -14 5 -1 18.30 53.11 137.57 <
4 -14 5 0 89.87 -0.30 219.25 <
4 -14 5 1 169.86 76.29 199.25 <
4 -14 5 2 104.39 328.98 232.84 <
5 -14 5 -2 135.69 157.75 241.38 <
5 -14 5 -1 83.53 -50.18 159.49 <
-4 -15 5 -2 1.18 524.01 374.07 <
-4 -15 5 -1 592.06 308.04 131.90 <
-4 -15 5 0 60.86 -231.02 223.80 <
-4 -15 5 1 17.90 -189.43 430.48 <
-4 -15 5 2 27.82 25.57 232.89 <
-3 -15 5 -2 12.23 156.49 412.33 <
-3 15 5 -1 106.66 635.65 295.33 <
-3 -15 5 -1 102.43 526.56 254.00 <
-3 15 5 0 133.79 -30.74 193.03 <
-3 -15 5 0 134.06 58.00 162.23 <
-3 15 5 1 137.31 -245.88 235.95 <
-3 -15 5 1 145.71 65.46 184.42 <
-3 15 5 2 76.28 -252.56 147.96 <
-3 -15 5 2 74.16 386.48 250.24 <
-2 15 5 -2 48.48 183.06 199.97 <
-2 -15 5 -2 51.35 140.34 85.50 <
-2 15 5 -1 725.37 680.61 315.96 <
-2 -15 5 -1 722.78 672.98 197.40 o
-2 15 5 0 419.16 665.89 325.48 <
-2 -15 5 0 421.59 325.56 139.34 <
-2 15 5 1 384.90 70.40 138.53 <
-2 -15 5 1 378.65 196.95 118.77 <
-2 15 5 2 20.22 270.06 221.69 <
-2 -15 5 2 22.64 141.81 120.09 <
-1 15 5 -2 3.52 669.11 321.04 <
-1 -15 5 -2 5.99 158.62 92.92 <
-1 15 5 -1 563.48 1170.34 396.22 <
-1 -15 5 -1 561.21 786.27 194.25 o
-1 15 5 0 119.85 88.25 199.29 <
-1 -15 5 0 115.00 131.35 115.75 <
-1 15 5 1 362.60 194.30 294.19 <
-1 -15 5 1 381.61 121.38 98.86 <
-1 15 5 2 134.51 401.44 343.94 <
-1 -15 5 2 131.46 198.67 113.03 <
0 -15 5 -2 152.16 191.90 132.29 <
0 -15 5 -1 491.30 483.21 148.49 o
0 -15 5 0 394.86 295.87 130.86 <
0 -15 5 1 595.71 663.76 172.88 o
0 -15 5 2 4.33 -46.29 91.96 <
1 -15 5 -2 90.88 102.31 67.01 <
1 -15 5 -1 154.93 298.71 111.97 <
1 -15 5 0 70.08 153.44 106.11 <
1 -15 5 1 268.35 282.84 120.77 <
1 -15 5 2 66.36 160.75 96.55 <
2 -15 5 -2 165.62 207.67 99.48 <
2 -15 5 -1 276.93 358.98 125.38 <
2 -15 5 0 777.57 875.60 170.55 o
2 -15 5 1 1042.60 1211.62 214.34 o
2 -15 5 2 111.39 208.21 108.42 <
3 -15 5 -2 64.75 106.35 85.16 <
3 -15 5 -1 30.30 256.60 116.07 <
3 -15 5 0 116.39 174.18 93.77 <
3 -15 5 1 50.14 -12.20 80.37 <
3 -15 5 2 30.35 182.68 161.03 <
4 -15 5 -2 94.20 127.16 125.29 <
4 -15 5 -1 15.42 282.10 165.47 <
4 -15 5 0 327.21 360.98 175.66 <
4 -15 5 1 886.06 644.13 283.23 <
4 -15 5 2 33.29 -137.18 201.80 <
5 -15 5 -2 38.03 145.12 242.78 <
5 -15 5 -1 0.84 -127.86 203.62 <
-4 -16 5 -2 154.28 737.27 441.01 <
-4 -16 5 -1 152.57 387.98 555.21 <
-4 -16 5 0 188.29 21.46 196.54 <
-4 -16 5 1 33.87 399.33 631.43 <
-4 -16 5 2 53.70 46.61 171.82 <
-3 -16 5 -2 25.39 138.42 243.36 <
-3 -16 5 -1 288.65 389.90 377.20 <
-3 16 5 0 254.91 -81.40 307.98 <
-3 -16 5 0 249.34 98.70 152.27 <
-3 16 5 1 241.71 -100.31 97.16 <
-3 -16 5 1 247.59 3.06 116.57 <
-3 16 5 2 89.30 102.01 109.16 <
-3 -16 5 2 91.47 322.41 256.47 <
-2 16 5 -2 98.61 173.08 195.30 <
-2 -16 5 -2 113.76 176.18 170.32 <
-2 16 5 -1 72.68 91.83 234.21 <
-2 -16 5 -1 66.52 267.06 143.70 <
-2 16 5 0 584.14 678.92 357.28 <
-2 -16 5 0 616.96 703.03 225.32 o
-2 16 5 1 78.23 -433.07 312.28 <
-2 -16 5 1 75.55 100.07 130.25 <
-2 16 5 2 158.95 132.51 179.51 <
-2 -16 5 2 156.15 63.64 99.33 <
-1 16 5 -2 16.65 545.23 270.24 <
-1 -16 5 -2 18.84 139.18 142.51 <
-1 16 5 -1 316.81 258.73 304.63 <
-1 -16 5 -1 358.48 195.10 151.51 <
-1 16 5 0 746.95 242.75 207.23 <
-1 -16 5 0 771.04 0.07 147.70 <
-1 16 5 1 183.11 536.66 287.32 <
-1 -16 5 1 192.48 57.33 120.55 <
-1 16 5 2 56.27 243.99 307.19 <
-1 -16 5 2 53.72 176.08 147.90 <
0 -16 5 -2 199.90 45.57 71.55 <
0 -16 5 -1 63.80 105.99 107.18 <
0 -16 5 0 424.96 175.29 132.62 <
0 -16 5 1 397.11 380.83 130.09 <
0 -16 5 2 116.16 367.44 138.33 <
1 -16 5 -2 173.22 -12.63 80.74 <
1 -16 5 -1 604.02 295.83 114.09 <
1 -16 5 0 657.38 73.38 83.92 <
1 -16 5 1 5.46 86.57 76.70 <
1 -16 5 2 139.21 99.49 113.49 <
2 -16 5 -2 51.51 302.89 128.83 <
2 -16 5 -1 75.25 -24.31 59.42 <
2 -16 5 0 727.21 816.99 179.93 o
2 -16 5 1 247.40 51.79 79.64 <
2 -16 5 2 161.84 373.68 180.36 <
3 -16 5 -2 169.44 -54.74 96.66 <
3 -16 5 -1 217.62 82.85 104.38 <
3 -16 5 0 186.24 82.27 105.74 <
3 -16 5 1 91.17 263.50 136.44 <
3 -16 5 2 31.95 -32.79 121.55 <
4 -16 5 -2 20.27 -9.96 134.36 <
4 -16 5 -1 58.27 -149.27 94.72 <
4 -16 5 0 167.93 131.53 144.25 <
4 -16 5 1 139.93 -45.18 125.20 <
5 -16 5 -2 132.10 89.83 167.80 <
-4 -17 5 0 712.65 728.74 476.95 <
-4 -17 5 1 61.20 407.22 485.40 <
-4 -17 5 2 240.23 515.23 448.01 <
-3 -17 5 -2 6.87 220.08 272.43 <
-3 -17 5 -1 245.91 572.02 400.74 <
-3 -17 5 0 236.79 330.82 292.78 <
-3 17 5 1 81.36 -15.78 156.51 <
-3 -17 5 1 82.51 75.37 153.75 <
-3 17 5 2 139.14 568.82 326.83 <
-3 -17 5 2 142.33 109.53 139.21 <
-2 17 5 -2 252.75 836.97 450.14 <
-2 -17 5 -2 275.41 273.30 156.34 <
-2 17 5 -1 442.70 -162.57 180.92 <
-2 -17 5 -1 424.28 239.21 159.84 <
-2 17 5 0 4877.12 3957.20 755.33 o
-2 -17 5 0 4912.24 4949.15 525.23 o
-2 17 5 1 59.32 314.15 230.80 <
-2 -17 5 1 57.95 245.32 174.69 <
-2 17 5 2 498.23 643.00 335.50 <
-2 -17 5 2 497.69 847.45 248.80 o
-1 17 5 -2 67.49 34.28 101.96 <
-1 -17 5 -2 68.16 188.10 166.79 <
-1 17 5 -1 214.37 64.50 213.38 <
-1 -17 5 -1 246.68 264.60 149.29 <
-1 17 5 0 402.65 938.43 364.94 <
-1 -17 5 0 410.28 436.48 148.99 <
-1 -17 5 1 269.06 141.36 100.46 <
-1 17 5 2 70.82 556.80 330.46 <
-1 -17 5 2 72.38 93.09 153.62 <
0 -17 5 -2 149.10 101.75 211.38 <
0 -17 5 -1 404.09 148.16 156.88 <
0 -17 5 0 1799.88 1250.63 301.45 o
0 -17 5 1 262.37 625.11 205.90 o
0 -17 5 2 368.88 352.55 174.64 <
1 -17 5 -2 80.71 312.09 192.80 <
1 -17 5 -1 89.20 265.24 133.53 <
1 -17 5 0 156.74 267.69 123.81 <
1 -17 5 1 604.45 500.99 170.53 <
1 -17 5 2 67.06 275.91 140.53 <
2 -17 5 -2 243.74 228.88 151.57 <
2 -17 5 -1 87.43 100.14 97.36 <
2 -17 5 0 4638.90 4780.53 425.35 o
2 -17 5 1 330.81 490.44 135.49 o
2 -17 5 2 936.36 799.79 215.30 o
3 -17 5 -2 67.25 101.24 117.57 <
3 -17 5 -1 7.41 25.79 101.12 <
3 -17 5 0 83.71 136.21 127.73 <
3 -17 5 1 77.56 160.51 134.01 <
3 -17 5 2 65.40 49.85 190.04 <
4 -17 5 -2 181.33 743.03 243.38 o
4 -17 5 -1 81.25 -81.40 149.96 <
4 -17 5 0 574.21 534.93 279.95 <
4 -17 5 1 54.83 1153.16 512.62 <
-4 -18 5 1 65.95 333.07 454.27 <
-4 -18 5 2 15.01 502.51 357.02 <
-3 -18 5 -2 98.27 651.04 493.57 <
-3 -18 5 -1 341.23 159.79 434.31 <
-3 -18 5 0 141.48 671.11 388.90 <
-3 -18 5 1 62.68 397.35 267.78 <
-3 18 5 2 91.28 473.38 386.63 <
-3 -18 5 2 93.13 676.70 350.39 <
-2 18 5 -2 72.07 133.34 221.97 <
-2 -18 5 -2 66.47 80.46 197.47 <
-2 18 5 -1 347.56 313.61 130.21 <
-2 -18 5 -1 347.97 399.18 210.99 <
-2 18 5 0 266.46 412.49 265.39 <
-2 -18 5 0 268.41 366.67 203.12 <
-2 18 5 1 114.76 -52.55 135.49 <
-2 -18 5 1 116.19 29.39 106.38 <
-2 18 5 2 60.27 107.24 198.45 <
-2 -18 5 2 60.32 359.52 183.99 <
-1 18 5 -2 136.44 486.71 290.78 <
-1 -18 5 -2 136.73 24.89 115.09 <
-1 18 5 -1 664.49 661.54 334.39 <
-1 -18 5 -1 666.97 669.20 216.28 o
-1 18 5 0 191.66 439.44 274.04 <
-1 -18 5 0 197.02 164.86 157.75 <
-1 18 5 1 389.64 1259.65 453.12 <
-1 -18 5 1 402.46 511.47 203.51 <
-1 18 5 2 89.37 663.87 401.90 <
-1 -18 5 2 91.08 192.43 140.03 <
0 -18 5 -2 230.30 112.88 151.20 <
0 -18 5 -1 882.53 761.92 236.15 o
0 -18 5 0 276.36 601.97 235.45 <
0 -18 5 1 181.39 215.77 141.64 <
0 -18 5 2 140.27 164.40 104.86 <
1 -18 5 -2 150.73 281.61 176.43 <
1 -18 5 -1 452.77 622.48 233.39 <
1 -18 5 0 116.14 140.31 115.97 <
1 -18 5 1 193.89 384.68 223.43 <
1 -18 5 2 116.21 -174.01 168.27 <
2 -18 5 -2 264.23 329.45 158.88 <
2 -18 5 -1 150.93 236.60 132.27 <
2 -18 5 0 42.07 36.15 131.55 <
2 -18 5 1 118.20 205.88 145.64 <
2 -18 5 2 105.52 177.10 129.33 <
3 -18 5 -2 80.61 137.73 165.36 <
3 -18 5 -1 134.69 36.24 153.03 <
3 -18 5 0 57.96 7.96 135.55 <
3 -18 5 1 329.98 366.13 182.92 <
3 -18 5 2 85.38 -216.71 216.58 <
4 -18 5 -2 159.06 331.57 207.29 <
4 -18 5 -1 78.31 100.61 149.32 <
4 -18 5 0 53.99 -178.93 188.06 <
-3 -19 5 -2 114.39 -248.65 351.87 <
-3 -19 5 -1 215.85 -71.03 254.89 <
-3 -19 5 0 348.60 170.62 241.19 <
-3 -19 5 1 21.36 -207.04 220.41 <
-3 19 5 2 195.58 -205.17 267.84 <
-3 -19 5 2 197.49 -183.10 308.63 <
-2 -19 5 -2 56.50 239.04 227.84 <
-2 19 5 -1 159.01 -78.57 243.84 <
-2 -19 5 -1 175.29 165.29 109.07 <
-2 19 5 0 839.92 519.54 371.18 <
-2 -19 5 0 814.62 677.87 274.69 <
-2 19 5 1 386.35 -234.56 172.12 <
-2 -19 5 1 377.62 192.93 179.90 <
-2 19 5 2 44.38 -22.05 193.58 <
-2 -19 5 2 40.71 102.38 150.84 <
-1 19 5 -2 245.50 -67.22 175.62 <
-1 -19 5 -2 220.01 240.51 157.45 <
-1 19 5 -1 575.86 1293.56 456.36 <
-1 -19 5 -1 653.39 673.70 225.99 <
-1 19 5 0 1015.43 1204.25 504.34 <
-1 -19 5 0 1013.11 1568.21 354.04 o
-1 19 5 1 31.88 128.42 232.21 <
-1 -19 5 1 30.22 22.26 194.79 <
-1 19 5 2 276.01 148.94 209.04 <
-1 -19 5 2 281.43 177.43 162.68 <
0 -19 5 -2 41.47 154.07 157.45 <
0 -19 5 -1 362.15 340.81 224.60 <
0 -19 5 0 4899.60 3818.06 523.40 o
0 -19 5 1 162.84 349.59 180.40 <
0 -19 5 2 111.65 177.40 155.08 <
1 -19 5 -2 91.15 7.43 144.99 <
1 -19 5 -1 22.36 -65.90 141.27 <
1 -19 5 0 833.22 1508.40 364.63 o
1 -19 5 1 158.23 41.91 104.16 <
1 -19 5 2 118.91 249.67 191.51 <
2 -19 5 -2 116.81 -121.85 128.07 <
2 -19 5 -1 303.56 109.97 185.14 <
2 -19 5 0 644.99 638.04 227.32 <
2 -19 5 1 148.15 402.37 191.14 <
2 -19 5 2 244.01 118.97 129.07 <
3 -19 5 -2 61.30 -15.09 150.27 <
3 -19 5 -1 36.05 -112.16 136.73 <
3 -19 5 0 183.09 411.44 212.91 <
3 -19 5 1 200.58 -223.34 283.45 <
3 -19 5 2 46.14 -75.66 123.38 <
4 -19 5 -2 108.64 268.15 194.84 <
4 -19 5 -1 74.56 90.59 212.15 <
-3 -20 5 -1 278.50 373.74 496.51 <
-3 -20 5 0 149.59 -39.29 226.73 <
-3 -20 5 1 11.35 -154.32 231.60 <
-3 -20 5 2 91.73 178.53 215.06 <
-2 -20 5 -2 88.30 -160.29 223.78 <
-2 -20 5 -1 134.26 91.25 181.88 <
-2 20 5 0 70.47 -14.70 132.70 <
-2 -20 5 0 71.41 178.25 128.73 <
-2 20 5 1 197.31 119.14 291.89 <
-2 -20 5 1 184.94 -17.42 138.05 <
-2 20 5 2 23.43 72.46 161.40 <
-2 -20 5 2 20.80 163.84 145.10 <
-1 20 5 -2 72.50 -81.61 263.95 <
-1 -20 5 -2 66.90 158.92 146.84 <
-1 20 5 -1 39.98 248.78 293.89 <
-1 -20 5 -1 42.17 -9.24 130.92 <
-1 20 5 0 567.39 685.52 462.49 <
-1 -20 5 0 547.04 494.64 206.15 <
-1 20 5 1 217.62 -18.54 126.21 <
-1 -20 5 1 213.76 114.59 138.51 <
-1 20 5 2 182.51 119.73 283.13 <
-1 -20 5 2 170.73 645.22 305.56 <
0 -20 5 -2 303.69 249.02 198.99 <
0 -20 5 -1 42.81 204.77 222.88 <
0 -20 5 0 263.23 604.32 215.34 <
0 -20 5 1 207.20 145.34 74.48 <
0 -20 5 2 97.64 409.39 209.88 <
1 -20 5 -2 279.62 526.78 255.43 <
1 -20 5 -1 118.25 429.94 231.76 <
1 -20 5 0 405.24 56.63 159.05 <
1 -20 5 1 29.55 -89.48 146.90 <
1 -20 5 2 107.68 309.22 183.45 <
2 -20 5 -2 238.57 174.84 132.55 <
2 -20 5 -1 12.16 177.19 172.23 <
2 -20 5 0 54.05 182.45 148.27 <
2 -20 5 1 74.42 21.33 136.96 <
2 -20 5 2 39.88 65.83 148.36 <
3 -20 5 -2 259.95 306.20 168.71 <
3 -20 5 -1 2.70 105.66 155.53 <
3 -20 5 0 53.79 300.93 223.28 <
3 -20 5 1 365.63 565.60 377.48 <
4 -20 5 -2 93.38 -430.05 288.08 <
-3 -21 5 0 89.65 -161.75 182.62 <
-3 -21 5 1 82.89 281.02 352.72 <
-3 -21 5 2 169.50 180.79 254.38 <
-2 -21 5 -2 290.66 193.27 271.37 <
-2 -21 5 -1 802.44 425.64 273.10 <
-2 -21 5 0 468.71 547.03 239.01 <
-2 21 5 1 121.93 -147.46 188.54 <
-2 -21 5 1 125.32 31.92 103.18 <
-2 21 5 2 333.78 178.40 185.84 <
-2 -21 5 2 338.09 163.92 176.36 <
-1 21 5 -2 295.42 133.83 235.34 <
-1 -21 5 -2 296.22 195.14 148.86 <
-1 21 5 -1 103.02 94.14 111.97 <
-1 -21 5 -1 88.36 219.69 191.21 <
-1 21 5 0 101.09 54.46 234.49 <
-1 -21 5 0 94.25 67.87 190.80 <
-1 21 5 1 117.89 396.37 405.81 <
-1 -21 5 1 116.10 84.72 155.05 <
-1 21 5 2 297.73 587.06 358.46 <
-1 -21 5 2 299.56 503.23 241.38 <
0 -21 5 -2 6.96 54.57 161.47 <
0 -21 5 -1 805.70 698.65 235.43 <
0 -21 5 0 1124.90 1160.31 323.91 o
0 -21 5 1 392.08 675.74 266.08 <
0 -21 5 2 283.77 272.00 192.04 <
1 -21 5 -2 303.89 505.14 233.73 <
1 -21 5 -1 36.59 89.53 189.06 <
1 -21 5 0 142.04 294.15 252.45 <
1 -21 5 1 27.77 -88.29 175.66 <
1 -21 5 2 528.68 153.66 182.30 <
2 -21 5 -2 14.25 221.60 187.40 <
2 -21 5 -1 202.40 40.33 104.35 <
2 -21 5 0 493.57 813.07 319.35 <
2 -21 5 1 156.26 130.40 203.27 <
2 -21 5 2 176.76 128.14 96.44 <
3 -21 5 -2 171.31 249.84 210.67 <
3 -21 5 -1 14.82 197.97 148.92 <
3 -21 5 0 50.64 246.38 274.13 <
-3 -22 5 1 39.46 137.92 245.02 <
-3 -22 5 2 107.06 -774.23 376.27 <
-2 -22 5 -2 11.08 330.13 239.76 <
-2 -22 5 -1 138.40 269.17 235.91 <
-2 -22 5 0 48.23 82.61 172.79 <
-2 22 5 1 33.08 363.41 233.43 <
-2 -22 5 1 32.98 251.89 176.88 <
-2 22 5 2 173.73 -82.16 239.89 <
-2 -22 5 2 160.90 63.92 118.55 <
-1 22 5 -2 4.93 230.69 252.38 <
-1 -22 5 -2 3.81 198.88 232.28 <
-1 22 5 -1 171.16 411.14 297.17 <
-1 -22 5 -1 230.39 363.00 208.52 <
-1 22 5 0 1188.51 1634.82 556.17 <
-1 -22 5 0 1184.80 1011.13 306.32 o
-1 22 5 1 279.18 285.97 302.45 <
-1 -22 5 1 275.76 376.22 243.82 <
-1 -22 5 2 229.20 -25.13 187.95 <
0 -22 5 -2 10.34 211.56 95.49 <
0 -22 5 -1 36.72 188.99 185.29 <
0 -22 5 0 20.46 137.51 171.79 <
0 -22 5 1 33.88 466.92 240.76 <
0 -22 5 2 181.13 239.04 215.97 <
1 -22 5 -2 53.40 574.56 301.15 <
1 -22 5 -1 208.06 416.24 273.08 <
1 -22 5 0 1017.87 840.99 289.48 <
1 -22 5 1 97.25 423.20 248.36 <
1 -22 5 2 245.76 426.11 236.58 <
2 -22 5 -2 2.00 79.61 166.53 <
2 -22 5 -1 5.54 -3.94 126.51 <
2 -22 5 0 7.05 -17.67 168.27 <
2 -22 5 1 42.86 16.31 124.42 <
2 -22 5 2 65.70 518.41 403.09 <
3 -22 5 -2 38.46 -185.88 199.91 <
3 -22 5 -1 47.76 789.33 464.12 <
-2 -23 5 -2 27.26 129.36 224.06 <
-2 -23 5 -1 683.66 676.05 264.15 <
-2 -23 5 0 3.25 99.29 120.01 <
-2 -23 5 1 82.45 50.03 165.88 <
-2 23 5 2 3.71 371.59 304.43 <
-2 -23 5 2 3.73 152.07 175.27 <
-1 -23 5 -2 418.04 437.11 254.63 <
-1 23 5 -1 66.65 315.32 217.67 <
-1 -23 5 -1 70.41 11.20 112.16 <
-1 23 5 0 133.17 -206.45 146.36 <
-1 -23 5 0 122.90 -104.61 123.85 <
-1 23 5 1 93.21 167.53 418.51 <
-1 -23 5 1 96.62 139.42 188.36 <
-1 23 5 2 22.27 781.46 477.58 <
-1 -23 5 2 24.73 128.92 183.69 <
0 23 5 -2 103.73 854.86 472.51 <
0 -23 5 -2 99.40 67.09 181.03 <
0 -23 5 -1 672.61 296.65 209.65 <
0 -23 5 0 3.46 233.28 210.54 <
0 -23 5 1 313.74 212.47 190.21 <
0 -23 5 2 9.14 163.45 175.80 <
1 -23 5 -2 156.79 258.95 233.02 <
1 -23 5 -1 5.71 55.65 175.66 <
1 -23 5 0 220.33 131.07 162.99 <
1 -23 5 1 31.66 140.71 174.10 <
1 -23 5 2 60.52 9.48 288.80 <
2 -23 5 -2 173.55 -60.48 100.98 <
2 -23 5 -1 222.58 89.16 222.12 <
2 -23 5 0 24.74 -18.72 187.30 <
3 -23 5 -2 73.30 896.04 459.55 <
-2 -24 5 1 44.41 4.18 223.26 <
-2 -24 5 2 158.02 137.49 357.76 <
-1 -24 5 -2 23.70 -189.56 237.47 <
-1 -24 5 -1 1054.89 731.79 362.89 <
-1 24 5 0 605.37 306.58 383.11 <
-1 -24 5 0 565.43 117.49 320.83 <
-1 24 5 1 240.64 43.16 412.35 <
-1 -24 5 1 234.26 278.74 299.35 <
-1 24 5 2 225.39 370.68 335.55 <
-1 -24 5 2 216.14 -127.33 253.60 <
0 24 5 -2 71.00 11.18 403.07 <
0 -24 5 -2 74.22 413.85 210.86 <
0 24 5 -1 83.72 673.52 431.38 <
0 -24 5 -1 76.56 121.47 176.32 <
0 24 5 0 151.58 703.72 455.51 <
0 -24 5 0 142.74 79.90 196.10 <
1 -24 5 -2 41.19 333.28 285.34 <
1 -24 5 -1 212.37 155.88 161.34 <
2 -24 5 -2 108.74 225.51 300.98 <
0 25 5 -2 112.79 -161.88 317.69 <
0 25 5 -1 57.99 552.40 477.77 <
-6 0 6 1 146.46 -164.82 184.62 <
-6 0 6 2 1.03 96.46 105.31 <
-5 0 6 -2 30.20 -45.50 162.90 <
-5 0 6 -1 35.03 -64.68 112.61 <
-5 0 6 0 387.34 132.49 126.47 <
-5 0 6 1 0.01 32.00 96.11 <
-5 0 6 2 0.44 -98.09 103.64 <
-4 0 6 -2 1581.37 902.43 248.76 o
-4 0 6 -1 287.23 167.75 138.62 <
-4 0 6 0 1388.33 1017.35 253.69 o
-4 0 6 1 274.30 311.98 139.59 <
-4 0 6 2 6.38 221.67 148.18 <
-3 0 6 -2 38.02 167.58 126.86 <
-3 0 6 -1 33.70 91.68 110.85 <
-3 0 6 0 341.39 26.81 62.76 <
-3 0 6 1 59.83 109.59 79.85 <
-3 0 6 2 2.31 17.81 88.42 <
-2 0 6 -2 5840.69 5669.22 441.27 o
-2 0 6 -1 1083.90 1180.21 199.86 o
-2 0 6 0 5888.20 5648.09 425.62 o
-2 0 6 1 798.93 693.09 154.82 o
-2 0 6 2 31.01 130.33 89.83 <
-1 0 6 -2 91.26 68.94 81.68 <
-1 0 6 -1 10.32 -55.24 49.68 <
-1 0 6 0 84.25 -55.89 48.31 <
-1 0 6 1 258.65 34.78 48.98 <
-1 0 6 2 4.08 -37.70 80.68 <
0 0 6 -2 203.06 214.25 71.01 o
0 0 6 -1 1861.60 2467.49 282.89 o
0 0 6 0 6182.66 6880.15 471.73 o
0 0 6 1 738.64 718.07 162.07 o
0 0 6 2 3.40 76.70 58.00 <
1 0 6 -2 145.27 68.07 75.74 <
1 0 6 -1 68.05 -20.26 56.52 <
1 0 6 0 16.36 -25.96 62.64 <
1 0 6 1 515.39 144.59 82.75 <
1 0 6 2 55.62 -22.30 106.62 <
2 0 6 -2 364.69 477.42 220.36 <
2 0 6 -1 3264.24 3974.50 563.78 o
2 0 6 0 2193.02 2183.86 275.23 o
2 0 6 1 585.83 891.90 188.69 o
2 0 6 2 46.40 348.41 129.10 <
3 0 6 -2 27.41 322.83 172.34 <
3 0 6 -1 363.37 472.34 185.51 <
3 0 6 0 252.32 392.77 185.32 <
3 0 6 1 219.51 184.73 159.31 <
3 0 6 2 14.22 163.10 168.10 <
4 0 6 -2 158.85 189.71 153.92 <
4 0 6 -1 1246.13 1172.95 279.30 o
4 0 6 0 180.38 110.61 135.46 <
4 0 6 1 561.73 509.19 200.25 <
4 0 6 2 208.93 116.70 149.79 <
5 0 6 -2 11.77 83.57 143.73 <
5 0 6 -1 305.89 32.87 79.75 <
5 0 6 0 283.76 -301.50 227.47 <
5 0 6 1 369.50 269.11 135.84 <
5 0 6 2 133.05 130.21 108.53 <
6 0 6 -2 51.35 102.96 192.64 <
-6 1 6 1 17.36 203.73 178.58 <
-6 -1 6 1 19.43 185.08 186.88 <
-6 1 6 2 208.14 374.66 245.32 <
-6 -1 6 2 209.56 -37.02 209.82 <
-5 1 6 -2 9.99 166.29 204.91 <
-5 -1 6 -2 9.40 77.24 173.95 <
-5 1 6 -1 355.21 249.84 190.97 <
-5 -1 6 -1 360.09 388.02 183.30 <
-5 1 6 0 135.62 61.79 108.59 <
-5 -1 6 0 130.30 130.03 141.64 <
-5 1 6 1 36.88 -184.42 137.20 <
-5 -1 6 1 42.75 59.24 147.23 <
-5 1 6 2 60.94 94.77 119.57 <
-5 -1 6 2 59.44 128.40 184.73 <
-4 1 6 -2 23.60 141.81 107.88 <
-4 -1 6 -2 25.51 -10.44 83.96 <
-4 1 6 -1 173.20 -59.72 125.55 <
-4 -1 6 -1 181.17 -123.90 111.64 <
-4 1 6 0 2138.46 2066.74 350.31 o
-4 -1 6 0 2198.63 2359.13 370.15 o
-4 1 6 1 31.20 -110.70 75.74 <
-4 -1 6 1 24.71 147.18 93.38 <
-4 1 6 2 467.89 327.98 114.61 <
-4 -1 6 2 467.20 467.70 156.70 <
-3 1 6 -2 32.21 102.49 117.36 <
-3 -1 6 -2 31.62 168.07 106.74 <
-3 1 6 -1 1607.25 1981.48 294.87 o
-3 -1 6 -1 1598.23 1989.07 298.28 o
-3 1 6 0 581.12 443.98 143.05 o
-3 -1 6 0 567.32 447.64 137.46 o
-3 1 6 1 357.49 327.24 143.59 <
-3 -1 6 1 377.87 380.98 138.29 <
-3 1 6 2 218.59 230.38 119.03 <
-3 -1 6 2 207.36 107.25 66.03 <
-2 1 6 -2 170.29 338.17 122.83 <
-2 -1 6 -2 172.74 174.29 85.25 <
-2 1 6 -1 363.39 469.81 143.59 o
-2 -1 6 -1 362.70 586.56 143.96 o
-2 1 6 0 6570.14 7277.83 476.44 o
-2 -1 6 0 6601.22 6538.04 464.51 o
-2 1 6 1 150.50 27.13 73.87 <
-2 -1 6 1 133.39 125.33 59.14 <
-2 1 6 2 479.73 517.01 127.66 o
-2 -1 6 2 478.90 582.19 143.40 o
-1 1 6 -2 74.69 16.00 85.83 <
-1 -1 6 -2 69.88 60.11 70.01 <
-1 1 6 -1 1384.12 1728.24 197.97 o
-1 -1 6 -1 1362.03 1714.07 187.12 o
-1 1 6 0 3450.48 3614.22 258.67 o
-1 -1 6 0 3428.63 3841.12 277.89 o
-1 1 6 1 688.04 693.53 132.60 o
-1 -1 6 1 695.41 618.52 121.73 o
-1 1 6 2 520.85 484.94 157.88 o
-1 -1 6 2 508.01 553.36 118.55 o
0 1 6 -2 103.52 43.63 66.79 <
0 -1 6 -2 102.77 49.00 44.63 <
0 1 6 -1 1015.47 1337.37 208.60 o
0 -1 6 -1 1015.08 1217.30 204.71 o
0 1 6 0 24569.60 24864.80 891.52 o
0 -1 6 0 24607.10 24771.80 893.80 o
0 1 6 1 208.35 106.66 94.94 <
0 -1 6 1 215.56 -14.50 87.29 <
0 1 6 2 62.02 71.26 79.90 <
0 -1 6 2 63.47 343.24 113.72 o
1 1 6 -2 197.82 299.85 108.49 <
1 -1 6 -2 189.12 107.14 89.12 <
1 1 6 -1 1564.35 1325.81 200.06 o
1 -1 6 -1 1553.67 1556.06 210.88 o
1 1 6 0 4865.04 5283.78 410.50 o
1 -1 6 0 4800.19 4706.90 372.22 o
1 1 6 1 1514.85 1258.02 212.82 o
1 -1 6 1 1557.30 1711.35 234.99 o
1 1 6 2 20.70 80.74 68.77 <
1 -1 6 2 30.26 94.55 76.70 <
2 1 6 -2 214.79 -79.07 111.99 <
2 -1 6 -2 214.03 188.19 71.29 <
2 1 6 -1 264.49 165.73 163.36 <
2 -1 6 -1 256.93 440.51 111.11 o
2 1 6 0 7286.57 7017.53 781.42 o
2 -1 6 0 7317.56 7016.94 385.37 o
2 1 6 1 262.83 592.80 254.47 <
2 -1 6 1 281.10 270.73 96.36 <
2 1 6 2 1720.50 1559.30 425.66 o
2 -1 6 2 1757.06 1366.70 195.38 o
3 -1 6 -2 189.07 131.81 111.44 <
3 1 6 -1 524.40 416.27 262.93 <
3 -1 6 -1 513.00 493.05 185.77 <
3 1 6 0 1937.74 2117.99 348.31 o
3 -1 6 0 1910.52 1912.08 337.35 o
3 1 6 1 134.31 348.68 184.79 <
3 -1 6 1 123.89 324.93 195.73 <
3 1 6 2 15.79 207.01 137.86 <
3 -1 6 2 16.07 341.61 186.49 <
4 1 6 -2 364.53 113.66 181.97 <
4 -1 6 -2 359.88 194.21 147.38 <
4 1 6 -1 27.12 11.15 88.09 <
4 -1 6 -1 21.77 290.13 136.14 <
4 1 6 0 2808.86 1973.56 364.48 o
4 -1 6 0 2821.18 2389.13 413.61 o
4 1 6 1 55.05 93.75 185.51 <
4 -1 6 1 65.71 -84.42 195.38 <
4 1 6 2 37.06 437.12 209.23 <
4 -1 6 2 34.36 300.43 257.34 <
5 1 6 -2 167.20 111.86 119.46 <
5 -1 6 -2 159.65 -18.80 192.16 <
5 1 6 -1 184.69 111.66 153.62 <
5 -1 6 -1 182.06 2.63 174.29 <
5 1 6 0 702.13 332.72 180.32 <
5 -1 6 0 692.24 40.09 166.68 <
5 1 6 1 13.24 85.12 162.93 <
5 -1 6 1 8.90 123.07 155.88 <
5 1 6 2 16.83 -103.62 174.19 <
5 -1 6 2 18.33 82.00 250.84 <
6 1 6 -2 338.20 31.22 101.46 <
6 -1 6 -2 325.32 40.89 188.32 <
-6 -2 6 1 70.83 141.64 399.96 <
-6 2 6 2 48.30 221.54 185.77 <
-6 -2 6 2 47.16 -78.85 95.72 <
-5 2 6 -2 8.44 130.51 99.92 <
-5 -2 6 -2 8.03 -36.57 124.35 <
-5 2 6 -1 90.81 -82.85 153.01 <
-5 -2 6 -1 91.41 176.55 165.64 <
-5 2 6 0 122.64 80.46 102.12 <
-5 -2 6 0 125.85 131.79 153.31 <
-5 2 6 1 19.93 206.51 102.75 <
-5 -2 6 1 20.00 139.68 147.82 <
-5 2 6 2 34.13 27.54 107.51 <
-5 -2 6 2 33.53 154.47 164.88 <
-4 2 6 -2 76.86 117.20 123.18 <
-4 -2 6 -2 92.99 71.50 100.49 <
-4 2 6 -1 227.38 2.15 71.70 <
-4 -2 6 -1 213.36 267.36 150.01 <
-4 2 6 0 634.85 405.96 158.32 <
-4 -2 6 0 594.91 668.89 215.67 o
-4 2 6 1 32.34 23.78 141.44 <
-4 -2 6 1 28.97 100.07 103.36 <
-4 2 6 2 113.89 126.51 96.53 <
-4 -2 6 2 113.89 374.44 153.25 <
-3 2 6 -2 16.51 22.17 69.61 <
-3 -2 6 -2 15.77 -51.05 57.94 <
-3 2 6 -1 226.67 125.07 102.53 <
-3 -2 6 -1 213.56 175.90 119.90 <
-3 2 6 0 115.01 220.90 105.88 <
-3 -2 6 0 119.56 68.64 67.33 <
-3 2 6 1 99.98 276.78 167.38 <
-3 -2 6 1 99.80 39.09 78.46 <
-3 2 6 2 49.04 321.78 146.31 <
-3 -2 6 2 45.80 99.79 115.85 <
-2 2 6 -2 2402.89 2321.89 289.76 o
-2 -2 6 -2 2404.09 2316.50 296.76 o
-2 2 6 -1 494.65 619.80 153.08 o
-2 -2 6 -1 476.47 461.18 120.66 o
-2 2 6 0 776.52 1011.30 187.43 o
-2 -2 6 0 771.91 844.32 175.58 o
-2 2 6 1 88.32 123.10 68.70 <
-2 -2 6 1 82.07 174.60 86.35 <
-2 2 6 2 124.76 -46.94 67.53 <
-2 -2 6 2 127.78 53.87 83.61 <
-1 2 6 -2 176.70 203.03 83.44 <
-1 -2 6 -2 165.68 110.11 67.63 <
-1 2 6 -1 1333.36 1926.13 211.19 o
-1 -2 6 -1 1340.21 1838.97 198.60 o
-1 2 6 0 594.17 521.71 99.33 o
-1 -2 6 0 628.14 743.77 134.27 o
-1 2 6 1 230.24 131.77 64.72 <
-1 -2 6 1 237.14 133.60 76.07 <
-1 2 6 2 4.97 49.05 67.03 <
-1 -2 6 2 2.87 34.24 48.65 <
0 2 6 -2 301.14 186.47 86.44 <
0 -2 6 -2 283.46 205.69 79.07 <
0 2 6 -1 290.02 242.43 81.53 <
0 -2 6 -1 283.79 330.30 98.74 o
0 2 6 0 12165.10 12932.00 638.89 o
0 -2 6 0 12219.80 12606.40 639.87 o
0 2 6 1 33.54 -65.48 63.98 <
0 -2 6 1 37.17 -34.83 90.14 <
0 2 6 2 55.90 19.05 70.68 <
0 -2 6 2 58.11 7.76 46.63 <
1 2 6 -2 89.25 2.44 68.55 <
1 -2 6 -2 101.14 -10.30 34.68 <
1 2 6 -1 311.41 472.73 127.77 o
1 -2 6 -1 312.03 285.48 85.16 o
1 2 6 0 649.20 942.15 189.51 o
1 -2 6 0 678.99 742.27 107.29 o
1 2 6 1 9110.26 9547.78 581.84 o
1 -2 6 1 9077.55 9108.19 401.96 o
1 2 6 2 284.97 315.69 141.34 <
1 -2 6 2 282.30 264.41 77.68 o
2 2 6 -2 151.64 184.97 137.31 <
2 -2 6 -2 143.89 192.41 67.09 <
2 2 6 -1 133.63 198.77 103.86 <
2 -2 6 -1 135.84 101.29 60.44 <
2 2 6 0 1634.59 1302.33 350.33 o
2 -2 6 0 1625.79 1478.21 176.32 o
2 2 6 1 101.33 -10.96 84.64 <
2 -2 6 1 100.68 89.83 77.96 <
2 2 6 2 191.57 378.90 284.21 <
2 -2 6 2 202.92 265.11 152.40 <
3 2 6 -2 57.93 209.14 236.62 <
3 -2 6 -2 64.37 116.29 102.12 <
3 2 6 -1 20.21 339.68 205.62 <
3 -2 6 -1 23.70 33.79 141.55 <
3 2 6 0 81.79 215.95 213.38 <
3 -2 6 0 76.59 72.79 140.86 <
3 2 6 1 264.14 394.26 214.67 <
3 -2 6 1 266.49 303.11 151.99 <
3 2 6 2 280.93 425.83 195.88 <
3 -2 6 2 263.48 366.09 159.94 <
4 2 6 -2 161.43 408.62 183.10 <
4 -2 6 -2 173.47 151.75 161.53 <
4 2 6 -1 204.97 156.79 137.77 <
4 -2 6 -1 209.91 198.45 112.92 <
4 2 6 0 1505.57 1587.58 342.33 o
4 -2 6 0 1402.78 1560.80 337.39 o
4 2 6 1 46.51 294.15 205.19 <
4 -2 6 1 48.74 74.27 113.35 <
4 2 6 2 165.91 323.72 211.25 <
4 -2 6 2 145.57 249.97 190.47 <
5 2 6 -2 31.37 70.11 118.62 <
5 -2 6 -2 36.31 254.21 178.64 <
5 2 6 -1 57.99 0.24 148.20 <
5 -2 6 -1 61.51 84.14 113.59 <
5 2 6 0 95.41 -69.70 103.42 <
5 -2 6 0 94.53 -193.54 204.53 <
5 2 6 1 880.52 1208.27 339.46 o
5 -2 6 1 875.85 900.93 338.00 <
5 2 6 2 248.45 413.48 251.69 <
5 -2 6 2 255.77 588.04 289.89 <
6 2 6 -2 169.01 -206.30 185.86 <
6 -2 6 -2 182.67 22.54 211.01 <
-6 3 6 2 86.69 -141.03 124.18 <
-6 -3 6 2 88.06 12.68 135.70 <
-5 3 6 -2 237.26 -121.27 149.27 <
-5 -3 6 -2 241.26 153.18 179.29 <
-5 3 6 -1 157.25 -83.74 142.01 <
-5 -3 6 -1 178.38 325.70 184.10 <
-5 3 6 0 584.89 649.32 238.80 <
-5 -3 6 0 579.18 691.74 235.63 <
-5 3 6 1 470.31 191.82 138.88 <
-5 -3 6 1 481.35 140.79 159.81 <
-5 3 6 2 62.44 121.75 92.40 <
-5 -3 6 2 60.85 30.78 139.79 <
-4 3 6 -2 130.19 148.79 147.79 <
-4 -3 6 -2 129.46 229.34 162.71 <
-4 3 6 -1 202.78 159.10 169.32 <
-4 -3 6 -1 209.16 136.71 102.27 <
-4 3 6 0 2123.65 2170.56 357.15 o
-4 -3 6 0 2126.92 2257.26 380.07 o
-4 3 6 1 6.51 72.72 129.16 <
-4 -3 6 1 6.60 -59.42 112.14 <
-4 3 6 2 257.10 297.83 166.51 <
-4 -3 6 2 250.50 229.10 143.10 <
-3 3 6 -2 239.43 66.70 97.66 <
-3 -3 6 -2 247.57 7.85 110.29 <
-3 3 6 -1 1046.02 448.66 130.64 o
-3 -3 6 -1 968.79 259.47 126.47 <
-3 3 6 0 1908.15 1842.99 280.54 o
-3 -3 6 0 1903.23 1943.35 303.59 o
-3 3 6 1 1071.69 1099.94 218.02 o
-3 -3 6 1 1104.49 1127.64 243.82 o
-3 3 6 2 167.01 85.88 76.27 <
-3 -3 6 2 172.54 64.16 81.83 <
-2 3 6 -2 59.57 160.18 106.92 <
-2 -3 6 -2 52.67 172.99 100.85 <
-2 3 6 -1 841.06 886.25 176.56 o
-2 -3 6 -1 856.35 924.86 192.97 o
-2 3 6 0 7267.30 7550.26 474.64 o
-2 -3 6 0 7338.54 7921.67 533.84 o
-2 3 6 1 377.21 433.05 110.46 o
-2 -3 6 1 376.35 358.63 120.92 <
-2 3 6 2 649.07 605.32 147.70 o
-2 -3 6 2 625.52 438.35 149.58 <
-1 3 6 -2 145.10 67.05 58.79 <
-1 -3 6 -2 146.59 8.54 52.13 <
-1 3 6 -1 6886.01 7252.67 398.18 o
-1 -3 6 -1 7113.67 7419.14 405.50 o
-1 3 6 0 5062.73 5107.83 335.93 o
-1 -3 6 0 5096.77 4759.60 329.59 o
-1 3 6 1 386.93 248.60 97.68 <
-1 -3 6 1 377.43 218.14 92.35 <
-1 3 6 2 214.37 166.69 119.14 <
-1 -3 6 2 221.06 168.73 93.27 <
0 3 6 -2 203.62 137.66 75.31 <
0 -3 6 -2 210.62 143.20 74.20 <
0 3 6 -1 1084.25 914.60 171.16 o
0 -3 6 -1 1102.63 973.98 186.25 o
0 3 6 0 31870.60 33487.80 1027.29 o
0 -3 6 0 31899.30 32827.60 1045.96 o
0 3 6 1 929.24 571.97 148.42 o
0 -3 6 1 956.97 1115.57 210.54 o
0 3 6 2 496.56 462.12 136.92 o
0 -3 6 2 482.58 382.90 137.51 <
1 3 6 -2 129.09 305.89 107.14 <
1 -3 6 -2 140.20 170.18 72.70 <
1 3 6 -1 295.61 356.48 126.59 <
1 -3 6 -1 296.87 201.88 67.11 o
1 3 6 0 4178.21 4018.68 376.37 o
1 -3 6 0 4190.81 4054.66 253.91 o
1 3 6 1 3810.80 4097.85 392.13 o
1 -3 6 1 3757.97 3513.95 247.32 o
1 3 6 2 173.98 208.71 126.12 <
1 -3 6 2 184.69 -74.70 69.40 <
2 3 6 -2 217.94 161.95 133.31 <
2 -3 6 -2 230.71 136.47 61.42 <
2 3 6 -1 82.04 314.85 203.90 <
2 -3 6 -1 86.83 56.98 47.18 <
2 3 6 0 6375.77 6256.91 718.15 o
2 -3 6 0 6346.64 5924.09 340.48 o
2 3 6 1 2047.93 1547.54 399.35 o
2 -3 6 1 2067.46 2058.07 301.06 o
2 3 6 2 939.46 1381.13 401.70 o
2 -3 6 2 974.05 1314.57 254.86 o
3 3 6 -2 122.00 38.02 142.97 <
3 -3 6 -2 123.08 315.95 124.55 <
3 3 6 -1 997.50 1663.41 435.38 o
3 -3 6 -1 1004.58 1106.07 250.76 o
3 3 6 0 641.61 802.07 318.46 <
3 -3 6 0 613.02 585.52 195.93 <
3 3 6 1 117.73 114.36 160.21 <
3 -3 6 1 101.24 58.33 57.22 <
3 3 6 2 197.84 -4.91 116.44 <
3 -3 6 2 208.87 352.94 200.25 <
4 3 6 -2 86.62 -9.41 95.11 <
4 -3 6 -2 96.55 151.49 105.33 <
4 3 6 -1 139.76 142.68 180.38 <
4 -3 6 -1 139.97 -28.54 114.33 <
4 3 6 0 1641.66 1134.88 290.96 o
4 -3 6 0 1643.48 1397.46 325.19 o
4 3 6 1 904.15 501.93 187.84 <
4 -3 6 1 925.71 983.76 299.89 o
4 3 6 2 279.73 94.35 184.45 <
4 -3 6 2 237.81 431.68 203.15 <
5 3 6 -2 57.08 62.27 90.98 <
5 -3 6 -2 47.07 136.51 147.70 <
5 3 6 -1 322.23 -21.39 96.99 <
5 -3 6 -1 301.65 400.63 212.52 <
5 3 6 0 288.87 91.53 122.70 <
5 -3 6 0 270.74 230.51 166.73 <
5 3 6 1 206.65 448.01 216.04 <
5 3 6 2 66.43 -23.39 129.38 <
5 -3 6 2 64.85 364.52 338.15 <
6 3 6 -2 40.37 -49.46 146.81 <
6 -3 6 -2 46.80 0.74 173.23 <
-6 -4 6 2 106.61 239.26 231.95 <
-5 4 6 -2 68.03 310.46 212.80 <
-5 -4 6 -2 67.96 -19.00 283.34 <
-5 4 6 -1 230.74 435.23 205.86 <
-5 -4 6 -1 232.37 244.54 159.79 <
-5 4 6 0 2084.57 2045.98 402.46 o
-5 -4 6 0 2107.26 1722.09 369.74 o
-5 4 6 1 95.01 195.21 169.10 <
-5 -4 6 1 99.50 92.59 142.77 <
-5 4 6 2 276.29 167.19 109.07 <
-5 -4 6 2 264.68 154.25 114.09 <
-4 4 6 -2 51.96 121.25 139.09 <
-4 -4 6 -2 60.19 252.56 128.05 <
-4 4 6 -1 235.06 192.64 163.75 <
-4 -4 6 -1 221.01 194.19 139.64 <
-4 4 6 0 303.85 366.11 168.71 <
-4 -4 6 0 299.63 216.34 150.08 <
-4 4 6 1 52.07 -7.07 120.75 <
-4 -4 6 1 44.21 -118.46 143.42 <
-4 4 6 2 203.11 104.61 126.85 <
-4 -4 6 2 210.32 36.22 94.55 <
-3 4 6 -2 185.52 178.88 118.85 <
-3 -4 6 -2 186.28 226.78 147.88 <
-3 4 6 -1 786.96 916.08 214.32 o
-3 -4 6 -1 797.26 596.86 174.47 o
-3 4 6 0 10406.70 9297.04 630.39 o
-3 -4 6 0 10439.30 10398.00 715.33 o
-3 4 6 1 486.68 334.52 150.40 <
-3 -4 6 1 483.68 256.15 84.81 o
-3 4 6 2 482.54 611.06 172.05 o
-3 -4 6 2 470.63 729.03 190.16 o
-2 4 6 -2 439.22 292.87 128.42 <
-2 -4 6 -2 424.51 468.88 110.81 o
-2 4 6 -1 838.67 614.98 148.90 o
-2 -4 6 -1 814.88 842.08 185.58 o
-2 4 6 0 815.19 709.16 157.32 o
-2 -4 6 0 823.34 609.74 147.57 o
-2 4 6 1 87.05 175.79 122.25 <
-2 -4 6 1 76.54 88.59 77.96 <
-2 4 6 2 234.18 126.51 95.64 <
-2 -4 6 2 231.89 -52.22 89.22 <
-1 4 6 -2 322.85 115.35 69.68 <
-1 -4 6 -2 312.69 141.47 83.68 <
-1 4 6 -1 592.18 699.18 139.21 o
-1 -4 6 -1 582.29 592.91 127.62 o
-1 4 6 0 23738.20 22142.70 694.91 o
-1 -4 6 0 23694.00 22106.20 738.85 o
-1 4 6 1 512.05 578.28 182.08 o
-1 -4 6 1 502.61 408.76 103.90 o
-1 4 6 2 481.36 914.45 203.91 o
-1 -4 6 2 458.99 561.93 120.36 o
0 4 6 -2 60.68 -10.67 79.61 <
0 -4 6 -2 60.67 128.18 64.76 <
0 4 6 -1 1348.50 1111.96 184.38 o
0 -4 6 -1 1331.42 1122.12 209.58 o
0 4 6 0 247.90 229.23 121.81 <
0 -4 6 0 240.92 290.06 115.70 <
0 4 6 1 827.33 777.64 172.36 o
0 -4 6 1 829.68 794.29 171.49 o
0 4 6 2 114.98 -42.52 81.00 <
0 -4 6 2 108.87 131.60 73.13 <
1 4 6 -2 180.97 125.75 142.44 <
1 -4 6 -2 178.09 60.24 45.68 <
1 4 6 -1 296.11 237.01 168.21 <
1 -4 6 -1 291.32 161.90 43.90 o
1 4 6 0 23823.50 25159.90 1334.07 o
1 -4 6 0 23780.60 22972.70 589.61 o
1 4 6 1 1379.01 2030.61 419.86 o
1 -4 6 1 1363.01 1391.29 152.51 o
1 4 6 2 512.90 432.61 236.04 <
1 -4 6 2 475.55 467.92 107.57 o
2 4 6 -2 91.61 20.00 50.63 <
2 -4 6 -2 91.56 115.14 62.24 <
2 4 6 -1 178.95 4.59 96.22 <
2 -4 6 -1 170.15 41.24 50.31 <
2 4 6 0 464.74 432.72 219.34 <
2 -4 6 0 462.92 473.01 143.42 o
2 4 6 1 195.62 429.25 248.38 <
2 -4 6 1 191.87 292.61 118.38 <
2 4 6 2 857.68 886.34 318.17 <
2 -4 6 2 846.07 1078.35 229.34 o
3 4 6 -2 87.98 389.35 284.43 <
3 -4 6 -2 81.89 234.75 129.86 <
3 4 6 -1 85.16 252.62 206.36 <
3 -4 6 -1 81.60 256.13 186.53 <
3 4 6 0 10106.70 9708.46 1000.56 o
3 -4 6 0 10059.00 9796.01 719.68 o
3 4 6 1 23.71 297.72 297.72 <
3 -4 6 1 29.68 146.94 171.01 <
3 4 6 2 72.16 273.08 264.00 <
3 -4 6 2 78.26 270.21 163.43 <
4 4 6 -2 60.63 78.03 111.16 <
4 -4 6 -2 57.12 -72.26 67.13 <
4 4 6 -1 22.41 319.82 261.15 <
4 -4 6 -1 23.22 94.16 145.92 <
4 4 6 0 245.49 116.01 187.14 <
4 -4 6 0 242.57 4.06 85.18 <
4 4 6 1 17.52 -124.99 122.99 <
4 -4 6 1 16.36 155.55 173.99 <
4 4 6 2 60.76 116.47 163.71 <
4 -4 6 2 43.39 -30.11 130.81 <
5 4 6 -2 262.33 -184.90 141.88 <
5 -4 6 -2 248.36 54.37 120.83 <
5 4 6 -1 219.51 121.03 117.40 <
5 -4 6 -1 213.22 136.90 154.31 <
5 4 6 0 2406.56 1908.82 439.18 o
5 -4 6 0 2405.50 1696.33 408.77 o
5 4 6 1 153.62 482.57 235.75 <
5 -4 6 1 150.75 604.52 307.30 <
5 4 6 2 81.35 136.46 146.92 <
5 -4 6 2 85.04 186.04 122.31 <
6 4 6 -2 25.68 -101.96 174.43 <
6 -4 6 -2 22.36 -254.93 190.21 <
-6 -5 6 2 42.53 -219.23 287.78 <
-5 5 6 -2 147.03 473.51 345.04 <
-5 -5 6 -2 150.81 166.57 115.38 <
-5 5 6 -1 63.19 258.78 313.24 <
-5 -5 6 -1 78.83 183.23 141.42 <
-5 5 6 0 623.16 521.53 217.97 <
-5 -5 6 0 648.32 610.11 239.08 <
-5 5 6 1 416.12 361.67 175.58 <
-5 -5 6 1 436.83 277.65 183.42 <
-5 5 6 2 23.40 47.42 112.42 <
-5 -5 6 2 22.64 288.89 192.73 <
-4 5 6 -2 31.49 10.26 129.38 <
-4 -5 6 -2 31.30 290.65 145.66 <
-4 5 6 -1 17.19 16.42 167.05 <
-4 -5 6 -1 14.82 -30.61 81.70 <
-4 5 6 0 253.93 390.37 154.86 <
-4 -5 6 0 242.99 130.23 144.66 <
-4 5 6 1 57.30 176.18 128.23 <
-4 -5 6 1 61.02 151.81 134.16 <
-4 5 6 2 26.94 81.29 89.27 <
-4 -5 6 2 26.64 253.06 164.90 <
-3 5 6 -2 322.21 442.49 176.25 <
-3 -5 6 -2 328.55 150.64 154.75 <
-3 5 6 -1 1899.39 1154.94 235.51 o
-3 -5 6 -1 1864.93 1171.97 249.86 o
-3 5 6 0 3064.16 2997.20 364.83 o
-3 -5 6 0 3135.48 2979.15 398.00 o
-3 5 6 1 541.98 84.48 99.92 <
-3 -5 6 1 571.90 234.58 105.92 <
-3 5 6 2 26.21 154.99 84.16 <
-3 -5 6 2 25.13 16.70 81.50 <
-2 5 6 -2 241.98 115.12 98.81 <
-2 -5 6 -2 230.12 150.81 68.72 <
-2 5 6 -1 52.94 -26.55 77.98 <
-2 -5 6 -1 47.57 96.85 97.24 <
-2 5 6 0 371.62 270.98 73.24 o
-2 -5 6 0 374.49 535.88 147.82 o
-2 5 6 1 135.64 78.44 89.00 <
-2 -5 6 1 144.97 99.98 62.72 <
-2 5 6 2 217.16 157.70 88.62 <
-2 -5 6 2 209.07 170.71 98.22 <
-1 5 6 -2 326.20 372.07 125.49 <
-1 -5 6 -2 328.12 289.69 86.48 o
-1 5 6 -1 4767.22 5029.50 353.59 o
-1 -5 6 -1 4948.64 5547.84 380.24 o
-1 5 6 0 7359.43 6376.88 390.87 o
-1 -5 6 0 7400.95 6522.60 417.83 o
-1 5 6 1 1119.20 836.47 255.63 o
-1 -5 6 1 1137.16 753.55 137.51 o
-1 5 6 2 42.23 -113.59 91.57 <
-1 -5 6 2 42.67 -27.46 86.05 <
0 5 6 -2 385.02 164.40 71.05 <
0 -5 6 -2 389.32 91.48 65.01 <
0 5 6 -1 61.27 129.33 91.44 <
0 -5 6 -1 71.98 -8.89 55.81 <
0 5 6 0 93.24 240.41 113.96 <
0 -5 6 0 96.59 318.08 97.86 o
0 5 6 1 840.07 863.25 183.75 o
0 -5 6 1 844.24 825.45 141.60 o
0 5 6 2 359.80 253.69 113.77 <
0 -5 6 2 356.79 117.51 113.42 <
1 5 6 -2 3.46 62.53 81.25 <
1 -5 6 -2 3.36 -16.63 35.13 <
1 5 6 -1 2829.41 3027.37 440.79 o
1 -5 6 -1 2790.61 2602.78 182.80 o
1 5 6 0 4370.87 4487.23 550.60 o
1 -5 6 0 4425.76 3980.96 228.93 o
1 5 6 1 1414.42 1580.28 377.03 o
1 -5 6 1 1419.18 1383.13 152.05 o
1 5 6 2 52.16 323.80 211.77 <
1 -5 6 2 69.11 53.52 46.90 <
2 5 6 -2 207.08 73.11 100.81 <
2 -5 6 -2 210.76 56.35 74.48 <
2 5 6 -1 204.62 211.62 107.49 <
2 -5 6 -1 207.96 189.97 102.22 <
2 5 6 0 337.19 95.94 95.16 <
2 -5 6 0 306.60 232.82 130.14 <
2 5 6 1 1585.20 1597.37 379.22 o
2 -5 6 1 1580.83 1735.33 291.46 o
2 5 6 2 853.22 448.94 230.06 <
2 -5 6 2 867.28 819.29 206.75 o
3 5 6 -2 139.04 126.01 156.75 <
3 -5 6 -2 142.59 319.09 163.14 <
3 5 6 -1 643.01 457.96 256.41 <
3 -5 6 -1 657.09 494.07 182.90 <
3 5 6 0 1307.51 1300.37 366.85 o
3 -5 6 0 1337.26 1226.60 289.78 o
3 5 6 1 142.86 212.01 219.54 <
3 -5 6 1 140.27 361.59 180.21 <
3 5 6 2 6.73 680.26 346.92 <
3 -5 6 2 9.05 108.44 143.96 <
4 5 6 -2 42.18 -182.29 202.80 <
4 -5 6 -2 40.74 20.46 176.73 <
4 5 6 -1 129.49 254.24 228.84 <
4 -5 6 -1 116.10 132.03 152.01 <
4 5 6 0 89.82 -221.56 206.25 <
4 -5 6 0 84.81 -48.33 89.59 <
4 5 6 1 1516.04 948.87 387.98 <
4 -5 6 1 1536.52 922.11 296.71 o
4 5 6 2 61.61 115.38 145.99 <
4 -5 6 2 58.63 312.50 232.34 <
5 5 6 -2 150.77 126.92 146.79 <
5 -5 6 -2 161.07 167.97 95.27 <
5 5 6 -1 472.36 158.88 188.54 <
5 -5 6 -1 477.14 233.10 157.94 <
5 5 6 0 140.58 321.02 210.19 <
5 -5 6 0 145.20 70.22 132.96 <
5 5 6 1 21.02 363.28 241.39 <
5 -5 6 1 20.72 387.46 211.34 <
5 5 6 2 8.99 492.25 356.72 <
5 -5 6 2 10.60 338.81 317.09 <
6 5 6 -2 25.43 -353.04 264.84 <
6 -5 6 -2 23.76 11.09 144.09 <
-5 6 6 -2 5.68 -218.40 274.86 <
-5 -6 6 -2 6.11 1428.79 566.32 <
-5 6 6 -1 77.89 -203.56 257.28 <
-5 -6 6 -1 81.46 374.35 334.85 <
-5 6 6 0 313.98 -130.49 178.75 <
-5 -6 6 0 332.16 230.32 193.29 <
-5 6 6 1 79.03 -96.48 167.79 <
-5 -6 6 1 80.75 103.33 137.25 <
-5 6 6 2 101.53 370.79 275.39 <
-5 -6 6 2 99.24 428.75 229.32 <
-4 6 6 -2 160.35 -72.27 96.94 <
-4 -6 6 -2 172.89 35.53 115.07 <
-4 6 6 -1 483.56 306.45 124.07 <
-4 -6 6 -1 464.89 612.48 209.19 <
-4 6 6 0 79.53 -54.72 83.64 <
-4 -6 6 0 75.84 -76.87 90.99 <
-4 6 6 1 301.15 13.26 104.81 <
-4 -6 6 1 293.23 37.02 99.29 <
-4 6 6 2 42.53 180.12 123.49 <
-4 -6 6 2 46.09 303.87 162.55 <
-3 6 6 -2 34.88 238.36 128.68 <
-3 -6 6 -2 26.33 92.64 140.27 <
-3 6 6 -1 50.93 -116.77 82.77 <
-3 -6 6 -1 56.98 133.94 110.79 <
-3 6 6 0 344.63 627.93 182.19 o
-3 -6 6 0 369.55 368.81 174.86 <
-3 6 6 1 225.99 159.79 121.66 <
-3 -6 6 1 227.55 100.94 72.37 <
-3 6 6 2 230.72 169.03 106.12 <
-3 -6 6 2 229.56 282.43 116.70 <
-2 6 6 -2 67.55 119.09 85.96 <
-2 -6 6 -2 66.56 3.04 59.29 <
-2 6 6 -1 1148.81 1089.11 211.49 o
-2 -6 6 -1 1100.61 1036.41 163.99 o
-2 6 6 0 871.68 1108.90 217.43 o
-2 -6 6 0 867.02 950.50 213.86 o
-2 6 6 1 221.78 128.18 89.33 <
-2 -6 6 1 213.65 24.85 71.81 <
-2 6 6 2 14.23 135.49 96.90 <
-2 -6 6 2 20.77 95.20 88.98 <
-1 6 6 -2 516.97 235.43 181.18 <
-1 -6 6 -2 489.14 405.11 93.83 o
-1 6 6 -1 324.52 123.99 230.15 <
-1 -6 6 -1 333.10 185.68 83.37 <
-1 6 6 0 975.03 670.35 75.40 o
-1 -6 6 0 979.21 840.34 138.29 o
-1 6 6 1 146.66 378.26 201.65 <
-1 -6 6 1 150.91 286.32 82.42 o
-1 6 6 2 329.40 189.69 89.05 <
-1 -6 6 2 336.01 118.85 77.94 <
0 6 6 -2 65.12 88.87 91.75 <
0 -6 6 -2 67.06 -17.20 57.27 <
0 6 6 -1 1426.62 1243.17 208.45 o
0 -6 6 -1 1394.78 978.43 147.05 o
0 6 6 0 228.51 257.04 112.88 <
0 -6 6 0 232.47 260.04 89.57 <
0 6 6 1 158.26 63.96 109.47 <
0 -6 6 1 164.51 0.41 71.14 <
0 6 6 2 61.44 412.38 152.57 <
0 -6 6 2 71.53 260.97 106.61 <
1 6 6 -2 439.76 141.46 103.20 <
1 -6 6 -2 463.98 148.36 51.29 <
1 6 6 -1 318.89 399.87 200.67 <
1 -6 6 -1 330.43 206.30 63.46 o
1 6 6 0 741.09 737.83 234.54 o
1 -6 6 0 760.72 673.63 89.75 o
1 6 6 1 676.63 504.38 240.88 <
1 -6 6 1 659.73 647.43 112.64 o
1 6 6 2 293.35 123.53 77.79 <
1 -6 6 2 265.29 12.83 56.37 <
2 6 6 -2 69.94 51.29 99.40 <
2 -6 6 -2 68.60 52.16 49.59 <
2 6 6 -1 216.02 219.32 130.20 <
2 -6 6 -1 224.82 232.49 89.85 <
2 6 6 0 1518.73 1925.06 409.66 o
2 -6 6 0 1522.01 1362.26 206.34 o
2 6 6 1 340.20 -125.83 100.62 <
2 -6 6 1 351.18 66.87 110.16 <
2 6 6 2 941.93 968.46 350.00 <
2 -6 6 2 935.67 925.52 212.62 o
3 6 6 -2 309.00 225.30 184.93 <
3 -6 6 -2 315.92 363.09 173.19 <
3 6 6 -1 344.84 162.38 188.60 <
3 -6 6 -1 350.86 257.67 161.68 <
3 6 6 0 186.19 560.10 282.74 <
3 -6 6 0 189.13 357.55 152.27 <
3 6 6 1 1087.16 1272.85 400.52 o
3 -6 6 1 1117.43 1656.43 335.54 o
3 6 6 2 466.26 -108.86 179.64 <
3 -6 6 2 408.99 191.56 146.71 <
4 6 6 -2 40.29 389.74 251.69 <
4 -6 6 -2 40.45 55.09 111.77 <
4 6 6 -1 8.80 239.52 190.68 <
4 -6 6 -1 10.70 124.21 124.46 <
4 6 6 0 326.23 484.58 272.00 <
4 -6 6 0 315.54 357.83 209.71 <
4 6 6 1 110.05 -145.51 94.74 <
4 -6 6 1 121.04 -105.49 69.85 <
4 6 6 2 49.69 -45.05 219.75 <
4 -6 6 2 63.33 120.96 178.34 <
5 6 6 -2 136.76 223.60 203.43 <
5 -6 6 -2 134.89 56.07 118.38 <
5 6 6 -1 192.98 269.36 233.45 <
5 -6 6 -1 196.23 180.60 139.23 <
5 6 6 0 172.40 185.58 205.86 <
5 -6 6 0 174.64 55.13 180.69 <
5 6 6 1 70.26 236.93 253.32 <
5 -6 6 1 70.21 -108.62 177.92 <
5 -6 6 2 241.07 206.03 227.80 <
6 -6 6 -2 27.03 172.82 168.95 <
-5 7 6 -2 41.96 -9.85 323.52 <
-5 -7 6 -2 39.40 -86.22 146.25 <
-5 7 6 -1 4.30 57.33 219.01 <
-5 -7 6 -1 6.15 25.59 106.14 <
-5 -7 6 0 171.59 427.51 344.46 <
-5 7 6 1 34.42 212.45 161.64 <
-5 -7 6 1 37.37 244.13 172.32 <
-5 7 6 2 39.14 -28.55 82.51 <
-5 -7 6 2 36.57 35.37 179.56 <
-4 7 6 -2 131.48 77.48 156.32 <
-4 -7 6 -2 141.77 307.72 209.90 <
-4 7 6 -1 302.85 269.37 152.66 <
-4 -7 6 -1 305.48 410.81 177.56 <
-4 7 6 0 1094.66 1004.83 250.84 o
-4 -7 6 0 1101.73 1113.83 305.54 o
-4 7 6 1 178.14 54.77 108.38 <
-4 -7 6 1 182.75 132.03 144.20 <
-4 7 6 2 87.19 233.01 194.91 <
-4 -7 6 2 81.76 58.03 90.14 <
-3 7 6 -2 40.79 356.44 182.16 <
-3 -7 6 -2 42.39 226.80 159.49 <
-3 7 6 -1 74.61 297.00 143.96 <
-3 -7 6 -1 76.22 149.46 151.23 <
-3 7 6 0 184.43 448.68 166.57 <
-3 -7 6 0 181.71 281.63 127.94 <
-3 7 6 1 7.89 78.68 78.96 <
-3 -7 6 1 12.20 96.33 102.88 <
-3 7 6 2 34.54 218.90 156.73 <
-3 -7 6 2 30.75 256.86 127.55 <
-2 7 6 -2 986.73 1088.18 299.67 o
-2 -7 6 -2 964.87 1059.64 172.43 o
-2 7 6 -1 158.54 354.59 121.64 <
-2 -7 6 -1 159.82 98.57 83.92 <
-2 7 6 0 5988.06 5267.37 440.49 o
-2 -7 6 0 5904.86 5433.20 395.35 o
-2 7 6 1 47.43 0.15 74.20 <
-2 -7 6 1 46.74 21.65 102.29 <
-2 7 6 2 249.86 239.47 191.41 <
-2 -7 6 2 226.65 294.00 139.92 <
-1 7 6 -2 13.31 135.10 162.07 <
-1 -7 6 -2 11.65 81.53 61.70 <
-1 7 6 -1 298.78 -23.11 114.79 <
-1 -7 6 -1 315.01 106.66 65.22 <
-1 7 6 0 270.79 52.37 133.59 <
-1 -7 6 0 282.57 183.71 78.79 <
-1 7 6 1 241.15 197.58 146.47 <
-1 -7 6 1 249.26 312.00 99.42 o
-1 7 6 2 95.40 37.53 145.94 <
-1 -7 6 2 91.18 163.55 92.31 <
0 7 6 -2 252.26 247.80 169.68 <
0 -7 6 -2 260.53 61.39 71.14 <
0 7 6 -1 32.90 104.22 103.77 <
0 -7 6 -1 33.42 147.90 81.98 <
0 7 6 0 1557.01 1156.64 212.45 o
0 -7 6 0 1634.12 1200.30 168.84 o
0 7 6 1 44.22 202.27 142.18 <
0 -7 6 1 59.42 -1.31 81.00 <
0 7 6 2 217.16 225.51 145.34 <
0 -7 6 2 213.56 86.50 70.55 <
1 7 6 -2 610.31 361.76 137.68 <
1 -7 6 -2 615.54 635.32 108.99 o
1 7 6 -1 413.45 385.83 160.40 <
1 -7 6 -1 402.55 173.77 59.96 <
1 7 6 0 172.96 108.62 122.18 <
1 -7 6 0 174.36 -39.42 45.48 <
1 7 6 1 253.71 186.43 162.12 <
1 -7 6 1 291.56 165.27 71.85 <
1 7 6 2 168.29 230.95 142.07 <
1 -7 6 2 166.68 121.62 91.20 <
2 7 6 -2 190.84 -78.20 100.59 <
2 -7 6 -2 191.36 43.79 63.22 <
2 7 6 -1 56.99 -4.41 64.63 <
2 -7 6 -1 48.07 120.90 96.33 <
2 7 6 0 4889.08 5403.44 642.52 o
2 -7 6 0 4896.68 5328.65 385.77 o
2 7 6 1 648.55 509.64 214.34 <
2 -7 6 1 667.97 464.60 135.99 o
2 7 6 2 1851.10 1442.72 388.81 o
2 -7 6 2 1848.54 2480.19 354.92 o
3 7 6 -2 644.34 301.82 119.72 <
3 -7 6 -2 631.59 680.00 154.27 o
3 7 6 -1 199.26 279.30 154.07 <
3 -7 6 -1 200.21 116.09 130.92 <
3 7 6 0 453.23 41.79 141.77 <
3 -7 6 0 466.75 245.13 194.99 <
3 7 6 1 67.88 26.85 175.68 <
3 -7 6 1 76.08 235.38 161.16 <
3 7 6 2 71.97 -14.04 133.94 <
3 -7 6 2 69.75 108.18 112.09 <
4 7 6 -2 244.12 621.24 293.87 <
4 -7 6 -2 251.34 217.19 167.27 <
4 7 6 -1 209.12 179.27 194.04 <
4 -7 6 -1 210.04 140.16 145.01 <
4 7 6 0 970.42 663.85 298.85 <
4 -7 6 0 991.99 1091.94 307.56 o
4 7 6 1 304.64 310.41 262.32 <
4 -7 6 1 329.30 343.52 170.32 <
4 7 6 2 209.67 208.62 243.91 <
4 -7 6 2 199.67 187.90 136.42 <
5 7 6 -2 332.42 471.25 321.43 <
5 -7 6 -2 314.37 46.55 153.34 <
5 7 6 -1 92.94 171.16 243.51 <
5 -7 6 -1 85.47 126.38 185.95 <
5 7 6 0 189.92 423.53 296.91 <
5 -7 6 0 199.91 700.57 317.13 <
5 7 6 1 110.53 438.61 253.36 <
5 -7 6 1 96.32 215.41 275.87 <
5 -7 6 2 29.14 390.94 258.82 <
-5 8 6 -2 12.73 -189.56 308.20 <
-5 -8 6 -2 14.53 -102.49 245.51 <
-5 -8 6 -1 75.28 -47.90 157.01 <
-5 -8 6 0 326.07 -25.04 155.34 <
-5 8 6 1 32.92 72.87 246.17 <
-5 -8 6 1 32.70 18.26 261.47 <
-5 8 6 2 44.09 -89.92 179.80 <
-5 -8 6 2 45.85 -256.47 229.02 <
-4 8 6 -2 111.82 119.05 146.57 <
-4 -8 6 -2 142.73 595.06 382.46 <
-4 8 6 -1 244.62 282.98 159.25 <
-4 -8 6 -1 236.66 381.48 210.82 <
-4 8 6 0 1989.00 2276.35 381.40 o
-4 -8 6 0 1998.42 2358.44 428.68 o
-4 8 6 1 726.03 224.49 232.04 <
-4 -8 6 1 705.45 453.64 207.71 <
-4 8 6 2 67.58 43.22 247.86 <
-4 -8 6 2 67.36 122.68 59.96 <
-3 8 6 -2 84.21 354.83 157.14 <
-3 -8 6 -2 89.33 82.00 89.87 <
-3 8 6 -1 85.85 248.63 134.40 <
-3 -8 6 -1 77.23 269.93 173.97 <
-3 8 6 0 724.66 558.93 167.55 o
-3 -8 6 0 707.88 873.10 244.39 o
-3 8 6 1 97.39 -25.26 74.53 <
-3 -8 6 1 97.27 8.20 85.66 <
-3 8 6 2 68.25 186.95 201.82 <
-3 -8 6 2 77.34 74.40 94.03 <
-2 8 6 -2 3366.97 2566.41 481.44 o
-2 -8 6 -2 3258.10 2792.53 242.60 o
-2 8 6 -1 1348.62 1106.31 321.13 o
-2 -8 6 -1 1331.63 1069.55 157.51 o
-2 8 6 0 1713.88 2233.04 467.49 o
-2 -8 6 0 1655.01 1616.26 189.84 o
-2 8 6 1 1175.45 1147.08 340.46 o
-2 -8 6 1 1170.18 732.98 134.25 o
-2 8 6 2 141.81 74.44 100.44 <
-2 -8 6 2 145.71 203.19 89.00 <
-1 8 6 -2 95.63 -279.24 230.28 <
-1 -8 6 -2 97.53 16.59 60.09 <
-1 8 6 -1 337.85 19.07 91.46 <
-1 -8 6 -1 352.13 292.15 83.50 o
-1 8 6 0 260.79 63.51 91.77 <
-1 -8 6 0 249.51 198.10 76.18 <
-1 8 6 1 557.07 297.02 201.08 <
-1 -8 6 1 581.07 417.03 109.16 o
-1 8 6 2 142.04 183.16 132.64 <
-1 -8 6 2 153.57 148.60 87.20 <
0 8 6 -2 135.84 215.36 210.08 <
0 -8 6 -2 131.07 110.79 75.26 <
0 8 6 -1 3921.58 3374.31 531.10 o
0 -8 6 -1 3890.84 3490.80 287.02 o
0 8 6 0 18662.40 18308.20 792.22 o
0 -8 6 0 18674.80 19920.20 695.46 o
0 8 6 1 1927.39 1776.57 264.71 o
0 -8 6 1 1971.61 1673.89 206.99 o
0 8 6 2 185.23 212.10 97.05 <
0 -8 6 2 193.26 168.92 102.27 <
1 8 6 -2 60.18 75.26 96.35 <
1 -8 6 -2 63.96 8.78 47.11 <
1 8 6 -1 68.84 31.28 73.11 <
1 -8 6 -1 59.94 56.76 86.62 <
1 8 6 0 413.25 474.71 171.36 <
1 -8 6 0 413.52 501.80 108.03 o
1 8 6 1 286.65 -61.59 80.18 <
1 -8 6 1 224.79 158.79 86.94 <
1 8 6 2 164.86 -41.03 60.20 <
1 -8 6 2 174.65 92.16 81.51 <
2 8 6 -2 315.32 113.86 110.68 <
2 -8 6 -2 310.60 97.59 67.81 <
2 8 6 -1 1778.17 1145.18 304.54 o
2 -8 6 -1 1756.07 1049.33 167.42 o
2 8 6 0 530.97 299.72 179.55 <
2 -8 6 0 490.85 457.18 139.25 o
2 8 6 1 949.09 467.07 199.30 <
2 -8 6 1 963.09 974.11 193.10 o
2 8 6 2 339.13 403.79 208.27 <
2 -8 6 2 335.89 443.36 140.47 o
3 8 6 -2 88.02 -81.88 115.97 <
3 -8 6 -2 93.86 14.91 101.29 <
3 8 6 -1 16.50 -6.31 91.16 <
3 -8 6 -1 16.15 151.58 98.35 <
3 8 6 0 1024.21 793.09 308.08 <
3 -8 6 0 1015.34 980.32 250.36 o
3 8 6 1 1023.78 905.45 355.04 <
3 -8 6 1 1040.94 610.85 233.23 <
3 8 6 2 39.32 99.11 111.74 <
3 -8 6 2 33.40 273.89 177.99 <
4 8 6 -2 358.35 267.36 231.43 <
4 -8 6 -2 371.53 408.16 174.08 <
4 8 6 -1 805.06 502.62 275.93 <
4 -8 6 -1 801.44 864.86 265.91 o
4 8 6 0 504.58 523.23 257.99 <
4 -8 6 0 529.16 416.57 214.95 <
4 -8 6 1 54.68 111.62 138.07 <
4 -8 6 2 81.39 105.75 141.71 <
5 -8 6 -2 113.50 -32.94 122.18 <
5 -8 6 -1 60.04 -75.85 207.97 <
5 8 6 0 437.81 476.62 347.83 <
5 -8 6 0 431.13 273.50 221.08 <
5 8 6 1 230.79 123.66 350.04 <
5 -8 6 1 232.66 -38.39 161.90 <
-5 -9 6 -1 291.07 217.08 409.29 <
-5 -9 6 0 94.68 -235.51 290.60 <
-5 -9 6 1 25.64 -50.42 177.64 <
-5 9 6 2 273.19 -149.44 232.34 <
-5 -9 6 2 270.95 203.77 272.76 <
-4 9 6 -2 74.97 93.57 135.25 <
-4 -9 6 -2 78.89 370.87 268.48 <
-4 9 6 -1 114.74 137.77 136.36 <
-4 -9 6 -1 116.55 189.10 187.16 <
-4 9 6 0 1154.52 1386.83 294.71 o
-4 -9 6 0 1154.09 1579.63 365.52 o
-4 9 6 1 212.85 614.35 351.78 <
-4 -9 6 1 209.15 159.86 180.45 <
-4 9 6 2 15.02 83.16 81.75 <
-4 -9 6 2 16.78 -79.74 187.60 <
-3 9 6 -2 167.45 137.40 147.86 <
-3 -9 6 -2 164.13 71.51 175.58 <
-3 9 6 -1 346.14 320.06 152.94 <
-3 -9 6 -1 349.68 282.41 160.10 <
-3 9 6 0 532.13 231.47 155.08 <
-3 -9 6 0 550.28 378.66 140.51 <
-3 9 6 1 55.35 266.50 156.99 <
-3 -9 6 1 60.43 22.76 105.01 <
-3 9 6 2 450.77 245.99 197.36 <
-3 -9 6 2 453.70 265.78 137.79 <
-2 9 6 -2 16.52 -139.46 99.36 <
-2 -9 6 -2 17.80 131.83 81.14 <
-2 9 6 -1 187.57 247.01 149.88 <
-2 -9 6 -1 173.76 142.01 76.88 <
-2 9 6 0 4941.80 6245.10 774.27 o
-2 -9 6 0 4979.60 5656.50 362.15 o
-2 9 6 1 717.44 146.07 168.82 <
-2 -9 6 1 712.82 222.76 100.11 <
-2 9 6 2 91.82 206.60 266.11 <
-2 -9 6 2 91.35 11.78 71.16 <
-1 9 6 -2 193.66 80.50 133.64 <
-1 -9 6 -2 200.74 125.10 85.64 <
-1 9 6 -1 2135.92 1816.27 394.42 o
-1 -9 6 -1 2155.50 1670.28 171.43 o
-1 9 6 0 1139.55 1088.72 274.48 o
-1 -9 6 0 1152.99 867.75 149.96 o
-1 9 6 1 174.30 -41.72 88.74 <
-1 -9 6 1 166.74 191.75 88.01 <
-1 9 6 2 479.36 37.74 121.29 <
-1 -9 6 2 482.49 152.51 86.64 <
0 9 6 -2 147.82 202.08 133.70 <
0 -9 6 -2 146.42 181.92 87.33 <
0 9 6 -1 190.75 734.89 329.15 <
0 -9 6 -1 186.15 183.38 70.14 <
0 9 6 0 10513.60 9532.41 930.98 o
0 -9 6 0 10568.90 10270.40 514.21 o
0 9 6 1 361.48 280.89 178.38 <
0 -9 6 1 389.61 263.74 116.70 <
0 9 6 2 236.51 93.16 130.23 <
0 -9 6 2 228.22 -54.89 69.26 <
1 9 6 -2 126.07 29.00 54.96 <
1 -9 6 -2 129.10 82.25 55.70 <
1 9 6 -1 314.91 105.14 76.01 <
1 -9 6 -1 324.57 185.30 77.92 <
1 9 6 0 1259.34 838.47 223.86 o
1 -9 6 0 1295.24 1137.45 174.03 o
1 9 6 1 110.83 222.80 108.68 <
1 -9 6 1 120.23 91.64 79.63 <
1 9 6 2 881.63 743.88 243.43 o
1 -9 6 2 899.99 708.83 152.27 o
2 9 6 -2 164.58 -21.26 56.24 <
2 -9 6 -2 155.48 133.20 83.81 <
2 9 6 -1 101.56 75.22 98.64 <
2 -9 6 -1 100.17 35.20 55.66 <
2 9 6 0 5588.17 6082.97 687.91 o
2 -9 6 0 5626.17 6279.21 439.61 o
2 9 6 1 339.67 272.89 240.39 <
2 -9 6 1 340.56 171.58 96.35 <
2 9 6 2 83.33 124.47 102.66 <
2 -9 6 2 84.89 16.68 81.29 <
3 9 6 -2 22.11 125.73 134.18 <
3 -9 6 -2 22.89 85.14 93.16 <
3 9 6 -1 186.71 425.12 217.41 <
3 -9 6 -1 188.17 228.82 111.66 <
3 9 6 0 1148.53 680.17 279.84 <
3 -9 6 0 1201.53 926.11 215.78 o
3 -9 6 1 198.15 212.97 146.29 <
3 -9 6 2 291.54 261.89 133.25 <
4 -9 6 -2 59.45 -124.97 79.13 <
4 -9 6 -1 75.38 202.49 147.36 <
4 -9 6 0 1670.21 1746.72 383.44 o
4 -9 6 1 218.03 549.90 229.69 <
4 -9 6 2 276.38 580.15 276.58 <
5 -9 6 -2 9.94 -55.90 98.74 <
5 -9 6 -1 121.17 177.99 180.97 <
5 -9 6 0 487.42 797.59 345.09 <
5 -9 6 1 67.06 -90.09 177.42 <
-5 -10 6 -1 34.21 195.16 139.31 <
-5 -10 6 0 51.20 442.64 423.07 <
-5 -10 6 1 43.01 -217.14 180.75 <
-5 -10 6 2 8.43 -39.59 157.94 <
-4 10 6 -2 315.16 821.77 340.18 <
-4 -10 6 -2 302.09 40.18 163.92 <
-4 10 6 -1 79.97 578.71 238.25 <
-4 -10 6 -1 76.37 297.95 277.61 <
-4 10 6 0 148.65 215.45 241.38 <
-4 -10 6 0 159.66 -50.52 110.59 <
-4 10 6 1 21.72 254.21 200.25 <
-4 -10 6 1 22.63 -7.56 161.47 <
-4 10 6 2 47.09 305.82 222.93 <
-4 -10 6 2 47.94 462.81 222.25 <
-3 10 6 -2 21.46 293.96 288.96 <
-3 -10 6 -2 23.23 371.33 287.32 <
-3 10 6 -1 115.37 -34.76 120.97 <
-3 -10 6 -1 126.48 557.56 216.17 <
-3 10 6 0 222.30 125.57 134.33 <
-3 -10 6 0 216.72 249.52 125.12 <
-3 10 6 1 37.33 354.78 183.14 <
-3 -10 6 1 32.36 109.05 105.68 <
-3 10 6 2 17.05 81.24 170.84 <
-3 -10 6 2 16.94 206.08 121.14 <
-2 10 6 -2 1404.09 1746.77 422.90 o
-2 -10 6 -2 1415.02 1375.33 190.40 o
-2 10 6 -1 119.65 568.97 267.69 <
-2 -10 6 -1 110.95 189.08 65.92 <
-2 10 6 0 1274.58 948.54 331.48 <
-2 -10 6 0 1213.13 868.86 154.16 o
-2 10 6 1 30.74 -17.11 149.92 <
-2 -10 6 1 34.37 75.46 87.38 <
-2 -10 6 2 183.46 64.74 67.24 <
-1 10 6 -2 24.52 84.18 122.97 <
-1 -10 6 -2 21.52 87.00 96.83 <
-1 10 6 -1 371.39 383.55 203.01 <
-1 -10 6 -1 384.59 191.73 86.05 <
-1 10 6 0 554.08 176.01 131.68 <
-1 -10 6 0 526.99 379.18 105.03 o
-1 10 6 1 1239.50 1159.01 373.42 o
-1 -10 6 1 1254.12 1128.94 169.29 o
-1 10 6 2 51.22 377.20 239.25 <
-1 -10 6 2 48.91 97.31 82.44 <
0 10 6 -2 362.49 561.73 307.33 <
0 -10 6 -2 361.82 619.93 159.99 o
0 10 6 -1 88.87 254.73 237.82 <
0 -10 6 -1 100.46 56.37 73.07 <
0 10 6 0 1086.39 1906.93 450.62 o
0 -10 6 0 1249.36 1233.08 243.56 o
0 10 6 1 112.78 70.51 110.72 <
0 -10 6 1 107.61 18.24 74.96 <
0 10 6 2 221.07 47.89 122.05 <
0 -10 6 2 217.73 -125.73 108.94 <
1 10 6 -2 24.88 41.44 40.35 <
1 -10 6 -2 22.87 80.14 72.90 <
1 10 6 -1 412.23 355.22 134.47 <
1 -10 6 -1 419.16 297.33 114.94 <
1 10 6 0 419.41 256.11 115.14 <
1 -10 6 0 390.00 311.46 101.61 o
1 10 6 1 168.08 -45.33 65.26 <
1 -10 6 1 175.77 126.07 62.37 <
1 10 6 2 123.25 58.44 64.35 <
1 -10 6 2 125.00 211.91 99.35 <
2 10 6 -2 435.83 148.66 125.23 <
2 -10 6 -2 435.04 200.86 108.03 <
2 10 6 -1 27.29 195.67 163.64 <
2 -10 6 -1 30.95 327.65 117.70 <
2 10 6 0 2273.41 1924.04 388.40 o
2 -10 6 0 2185.57 1845.79 252.69 o
2 -10 6 1 32.78 -8.78 101.27 <
2 -10 6 2 374.76 131.31 101.74 <
3 -10 6 -2 67.84 217.97 102.59 <
3 -10 6 -1 89.73 11.76 81.40 <
3 -10 6 0 108.88 287.19 136.33 <
3 -10 6 1 1912.25 1577.43 265.15 o
3 -10 6 2 179.87 216.51 151.27 <
4 -10 6 -2 324.36 347.42 160.38 <
4 -10 6 -1 1.79 159.94 212.40 <
4 -10 6 0 594.74 399.63 228.51 <
4 -10 6 1 62.25 184.32 223.28 <
4 -10 6 2 0.67 338.54 260.80 <
5 -10 6 -2 37.61 107.47 161.08 <
5 -10 6 -1 23.35 200.14 223.95 <
5 -10 6 0 65.62 302.22 216.08 <
5 -10 6 1 535.69 96.31 155.60 <
-5 -11 6 0 248.10 588.91 410.14 <
-5 -11 6 1 156.28 -75.44 393.05 <
-5 -11 6 2 105.21 -173.73 386.57 <
-4 11 6 -2 19.18 119.44 103.07 <
-4 -11 6 -2 25.65 170.53 268.36 <
-4 -11 6 -1 269.65 74.24 122.60 <
-4 11 6 0 1267.59 1281.00 460.46 <
-4 -11 6 0 1230.78 997.98 478.14 <
-4 11 6 1 1.79 -135.14 149.03 <
-4 -11 6 1 1.81 156.84 268.11 <
-4 11 6 2 386.45 148.53 200.99 <
-4 -11 6 2 386.64 112.09 171.23 <
-3 11 6 -2 5.54 46.85 228.12 <
-3 -11 6 -2 5.43 -70.88 245.86 <
-3 11 6 -1 31.63 220.15 116.29 <
-3 -11 6 -1 24.93 -83.46 169.30 <
-3 11 6 0 851.69 912.08 294.21 o
-3 -11 6 0 849.24 920.93 278.19 o
-3 11 6 1 145.62 234.89 284.08 <
-3 -11 6 1 156.61 127.33 119.47 <
-3 11 6 2 145.87 419.59 309.65 <
-3 -11 6 2 146.86 94.49 93.61 <
-2 11 6 -2 721.44 794.77 314.50 <
-2 -11 6 -2 732.14 481.95 134.20 o
-2 11 6 -1 536.31 301.87 253.84 <
-2 -11 6 -1 551.94 256.32 94.03 <
-2 11 6 0 5095.50 5454.03 761.75 o
-2 -11 6 0 5022.37 5286.65 373.29 o
-2 11 6 1 53.27 268.91 186.38 <
-2 -11 6 1 54.03 125.81 86.74 <
-2 11 6 2 596.98 174.08 170.95 <
-2 -11 6 2 596.38 396.42 111.31 o
-1 11 6 -2 515.08 172.55 128.51 <
-1 -11 6 -2 506.29 607.72 187.27 o
-1 11 6 -1 331.27 349.05 143.68 <
-1 -11 6 -1 382.69 516.25 132.60 o
-1 11 6 0 896.04 815.29 322.74 <
-1 -11 6 0 881.73 676.28 117.70 o
-1 11 6 1 426.98 579.06 309.19 <
-1 -11 6 1 438.40 399.44 100.18 o
-1 11 6 2 149.00 -9.37 115.86 <
-1 -11 6 2 152.23 40.89 63.59 <
0 11 6 -2 159.17 251.17 220.67 <
0 -11 6 -2 148.65 119.09 87.62 <
0 11 6 -1 442.34 499.01 272.52 <
0 -11 6 -1 459.49 125.16 100.94 <
0 11 6 0 2303.25 3206.58 595.30 o
0 -11 6 0 2360.09 2542.86 349.17 o
0 -11 6 1 84.54 159.01 136.14 <
0 -11 6 2 420.51 18.13 106.20 <
1 -11 6 -2 157.15 131.57 95.94 <
1 11 6 -1 451.27 264.78 110.07 <
1 -11 6 -1 439.57 227.45 96.85 <
1 11 6 0 599.26 387.48 137.47 <
1 -11 6 0 578.60 243.12 105.38 <
1 -11 6 1 67.57 138.10 80.87 <
1 -11 6 2 193.03 44.74 78.98 <
2 -11 6 -2 295.89 213.06 99.64 <
2 -11 6 -1 249.06 45.15 99.20 <
2 -11 6 0 4466.27 4862.80 411.42 o
2 -11 6 1 171.68 202.67 93.18 <
2 -11 6 2 1572.40 1061.05 224.19 o
3 -11 6 -2 115.34 172.88 106.57 <
3 -11 6 -1 231.31 221.26 115.46 <
3 -11 6 0 502.37 578.58 162.81 o
3 -11 6 1 667.58 1130.44 240.80 o
3 -11 6 2 5.68 318.02 197.86 <
4 -11 6 -2 261.57 35.07 102.72 <
4 -11 6 -1 90.57 14.50 126.01 <
4 -11 6 0 972.44 835.90 275.71 o
4 -11 6 1 103.62 -122.42 182.12 <
4 -11 6 2 78.28 1148.92 472.44 <
5 -11 6 -2 19.49 -17.72 146.70 <
5 -11 6 -1 189.45 449.81 264.87 <
5 -11 6 0 109.01 448.46 389.50 <
-5 -12 6 1 61.19 427.83 501.47 <
-5 -12 6 2 81.59 -155.86 192.54 <
-4 -12 6 -2 12.89 645.65 467.49 <
-4 -12 6 -1 266.38 215.58 104.11 <
-4 12 6 0 552.62 -204.97 192.12 <
-4 -12 6 0 546.61 355.72 388.85 <
-4 12 6 1 43.05 105.96 117.27 <
-4 -12 6 1 46.59 190.01 198.95 <
-4 12 6 2 124.92 305.04 258.26 <
-4 -12 6 2 114.40 320.08 344.61 <
-3 12 6 -2 181.97 -102.09 131.59 <
-3 -12 6 -2 180.33 249.21 209.95 <
-3 12 6 -1 29.86 -98.57 166.95 <
-3 -12 6 -1 27.40 -70.09 308.06 <
-3 12 6 0 3006.07 3742.20 692.29 o
-3 -12 6 0 3050.37 2858.25 453.36 o
-3 12 6 1 184.26 111.05 159.84 <
-3 -12 6 1 181.76 504.93 226.15 <
-3 12 6 2 194.86 720.40 350.98 <
-3 -12 6 2 198.73 291.67 131.92 <
-2 12 6 -2 8.05 190.54 288.15 <
-2 -12 6 -2 9.82 -12.09 72.59 <
-2 12 6 -1 266.98 274.67 275.13 <
-2 -12 6 -1 260.12 170.05 120.49 <
-2 12 6 0 1964.07 2270.41 506.10 o
-2 -12 6 0 1912.72 1781.94 263.41 o
-2 12 6 1 251.15 461.20 304.95 <
-2 -12 6 1 266.50 272.17 115.42 <
-2 12 6 2 339.14 275.73 136.25 <
-2 -12 6 2 324.10 111.40 92.05 <
-1 12 6 -2 273.84 164.25 169.66 <
-1 -12 6 -2 266.12 9.04 95.12 <
-1 12 6 -1 167.69 169.14 240.04 <
-1 -12 6 -1 154.96 217.04 105.70 <
-1 12 6 0 8952.39 7847.58 921.34 o
-1 -12 6 0 9087.96 8644.57 479.25 o
-1 12 6 1 914.89 690.02 312.22 <
-1 -12 6 1 916.61 691.65 143.59 o
-1 12 6 2 234.72 468.77 308.56 <
-1 -12 6 2 239.71 157.94 104.79 <
0 12 6 -2 49.78 453.35 261.74 <
0 -12 6 -2 52.35 170.68 92.22 <
0 12 6 -1 49.52 381.14 312.17 <
0 -12 6 -1 40.47 226.54 125.77 <
0 -12 6 0 2120.39 1830.53 252.21 o
0 -12 6 1 257.37 275.65 132.10 <
0 -12 6 2 333.98 250.56 105.72 <
1 -12 6 -2 281.15 171.77 85.35 <
1 -12 6 -1 35.20 149.29 94.66 <
1 -12 6 0 7832.01 7245.41 495.99 o
1 -12 6 1 108.12 63.37 109.96 <
1 -12 6 2 89.71 153.60 133.23 <
2 -12 6 -2 120.63 243.10 94.98 <
2 -12 6 -1 2.53 53.00 95.66 <
2 -12 6 0 1124.59 1149.55 216.45 o
2 -12 6 1 229.94 272.98 128.12 <
2 -12 6 2 683.78 517.29 165.95 o
3 -12 6 -2 93.01 85.16 89.38 <
3 -12 6 -1 34.47 156.25 107.46 <
3 -12 6 0 3015.96 3347.94 330.89 o
3 -12 6 1 1323.66 1247.73 214.21 o
3 -12 6 2 28.65 159.34 115.35 <
4 -12 6 -2 75.09 264.39 148.27 <
4 -12 6 -1 38.63 169.30 157.36 <
4 -12 6 0 167.16 318.74 193.32 <
4 -12 6 1 80.90 217.75 190.82 <
4 -12 6 2 5.62 228.21 344.31 <
5 -12 6 -2 55.28 493.42 258.32 <
5 -12 6 -1 87.01 395.85 241.10 <
5 -12 6 0 878.22 1171.95 528.91 <
-5 -13 6 2 2.67 -298.46 379.18 <
-4 -13 6 -2 52.77 -72.03 128.79 <
-4 -13 6 -1 54.08 -67.20 313.91 <
-4 -13 6 0 28.82 -56.02 222.21 <
-4 13 6 1 40.28 14.83 152.55 <
-4 -13 6 1 36.34 -205.75 217.34 <
-4 13 6 2 45.35 210.45 264.36 <
-4 -13 6 2 44.84 247.34 149.29 <
-3 13 6 -2 160.71 -39.03 128.47 <
-3 -13 6 -2 165.81 536.80 452.96 <
-3 13 6 -1 7.04 -46.31 167.38 <
-3 -13 6 -1 14.27 842.38 484.34 <
-3 13 6 0 621.50 607.06 285.35 <
-3 -13 6 0 601.63 801.57 269.08 <
-3 13 6 1 81.58 85.33 172.60 <
-3 -13 6 1 86.99 211.28 119.12 <
-3 13 6 2 6.19 49.90 126.05 <
-3 -13 6 2 5.35 83.50 173.93 <
-2 13 6 -2 185.82 414.90 275.91 <
-2 -13 6 -2 176.91 284.28 152.57 <
-2 -13 6 -1 534.49 217.97 110.64 <
-2 13 6 0 59.94 -47.65 167.99 <
-2 -13 6 0 61.72 16.91 102.20 <
-2 13 6 1 174.86 280.95 221.65 <
-2 -13 6 1 160.23 155.92 111.16 <
-2 13 6 2 138.17 -258.67 220.93 <
-2 -13 6 2 131.40 -0.06 98.33 <
-1 13 6 -2 309.42 -47.13 76.37 <
-1 -13 6 -2 308.31 239.91 141.49 <
-1 13 6 -1 6368.34 5506.06 779.64 o
-1 -13 6 -1 6341.38 5534.17 392.55 o
-1 13 6 0 999.93 1300.82 381.59 o
-1 -13 6 0 1002.56 1105.62 176.29 o
-1 13 6 1 16.12 357.74 269.26 <
-1 -13 6 1 13.66 225.97 110.29 <
-1 13 6 2 51.69 163.32 243.28 <
-1 -13 6 2 45.62 126.42 102.72 <
0 13 6 -2 440.62 300.59 222.67 <
0 -13 6 -2 433.98 82.72 76.29 <
0 -13 6 -1 882.74 612.91 142.31 o
0 -13 6 0 1131.86 1002.89 198.30 o
0 -13 6 1 1718.08 1121.79 206.93 o
0 -13 6 2 204.21 188.03 123.96 <
1 -13 6 -2 162.70 93.98 68.29 <
1 -13 6 -1 203.48 178.95 94.46 <
1 -13 6 0 923.38 998.04 173.19 o
1 -13 6 1 1428.63 1702.85 330.07 o
1 -13 6 2 196.90 -83.14 115.59 <
2 -13 6 -2 449.26 46.94 77.37 <
2 -13 6 -1 127.42 92.88 90.55 <
2 -13 6 0 205.96 190.97 109.79 <
2 -13 6 1 1550.89 1237.43 205.95 o
2 -13 6 2 144.42 325.37 170.08 <
3 -13 6 -2 21.57 248.84 117.86 <
3 -13 6 -1 513.68 572.69 149.38 o
3 -13 6 0 288.85 198.16 88.37 <
3 -13 6 1 20.35 -27.98 105.53 <
3 -13 6 2 174.11 41.79 100.62 <
4 -13 6 -2 177.48 196.03 135.18 <
4 -13 6 -1 16.20 -79.42 103.53 <
4 -13 6 0 59.59 148.90 219.78 <
4 -13 6 1 604.82 790.83 439.77 <
4 -13 6 2 177.24 416.61 348.31 <
5 -13 6 -2 22.64 397.05 245.01 <
5 -13 6 -1 84.22 155.94 225.30 <
-4 -14 6 -2 37.56 420.51 414.13 <
-4 -14 6 -1 355.94 637.54 502.21 <
-4 -14 6 0 131.35 -150.57 132.23 <
-4 -14 6 1 135.15 445.11 426.72 <
-4 14 6 2 74.30 -239.56 117.18 <
-4 -14 6 2 75.79 -136.14 409.40 <
-3 14 6 -2 158.20 -227.73 152.71 <
-3 -14 6 -2 156.21 417.44 453.29 <
-3 14 6 -1 558.09 315.33 200.64 <
-3 -14 6 -1 551.52 525.17 454.21 <
-3 14 6 0 405.61 707.72 309.41 <
-3 -14 6 0 417.78 740.12 315.30 <
-3 14 6 1 47.01 -133.34 189.14 <
-3 -14 6 1 50.21 92.44 168.45 <
-3 14 6 2 317.43 24.70 120.27 <
-3 -14 6 2 320.67 13.22 131.20 <
-2 14 6 -2 63.64 328.17 301.02 <
-2 -14 6 -2 60.40 150.12 118.07 <
-2 14 6 -1 494.47 427.23 332.94 <
-2 -14 6 -1 504.18 444.99 140.38 o
-2 14 6 0 672.71 496.03 304.72 <
-2 -14 6 0 653.30 265.13 130.94 <
-2 14 6 1 62.76 48.48 116.86 <
-2 -14 6 1 69.99 197.54 128.31 <
-2 14 6 2 180.28 521.79 262.17 <
-2 -14 6 2 176.30 490.05 134.86 o
-1 14 6 -2 233.93 204.38 186.10 <
-1 -14 6 -2 243.59 79.53 101.42 <
-1 14 6 -1 1091.94 397.70 285.10 <
-1 -14 6 -1 1062.03 505.10 158.70 o
-1 14 6 0 1840.05 2249.49 545.14 o
-1 -14 6 0 1852.61 1331.06 212.56 o
-1 14 6 1 400.62 423.79 189.71 <
-1 -14 6 1 399.31 524.47 136.96 o
-1 14 6 2 669.45 497.93 287.65 <
-1 -14 6 2 672.62 152.05 125.75 <
0 14 6 -2 22.35 202.51 276.76 <
0 -14 6 -2 17.83 26.31 79.88 <
0 -14 6 -1 236.72 45.20 63.14 <
0 -14 6 0 1350.60 965.47 195.23 o
0 -14 6 1 92.86 331.06 119.29 <
0 -14 6 2 103.36 411.77 166.93 <
1 -14 6 -2 168.03 65.72 64.31 <
1 -14 6 -1 397.67 429.20 127.55 o
1 -14 6 0 1487.27 1478.10 214.40 o
1 -14 6 1 101.95 382.31 140.42 <
1 -14 6 2 346.98 60.68 107.77 <
2 -14 6 -2 18.62 -16.57 64.72 <
2 -14 6 -1 44.17 22.39 63.07 <
2 -14 6 0 701.56 670.59 166.99 o
2 -14 6 1 31.59 48.96 99.35 <
2 -14 6 2 574.97 132.01 117.59 <
3 -14 6 -2 209.23 76.70 103.88 <
3 -14 6 -1 118.38 176.19 98.36 <
3 -14 6 0 173.16 224.34 123.36 <
3 -14 6 1 263.48 440.64 179.38 <
3 -14 6 2 170.23 -26.07 66.85 <
4 -14 6 -2 41.33 59.70 89.83 <
4 -14 6 -1 27.94 44.70 100.49 <
4 -14 6 0 233.50 531.78 207.08 <
4 -14 6 1 106.24 514.34 378.35 <
4 -14 6 2 33.54 -384.81 264.73 <
5 -14 6 -2 191.38 182.01 179.95 <
-4 -15 6 -2 127.59 650.87 495.32 <
-4 -15 6 -1 20.06 -36.52 241.25 <
-4 -15 6 0 270.81 -13.26 309.09 <
-4 -15 6 1 82.69 166.31 219.64 <
-4 15 6 2 34.69 187.84 260.63 <
-4 -15 6 2 32.01 26.89 251.86 <
-3 -15 6 -2 15.16 -16.31 387.83 <
-3 15 6 -1 578.54 696.85 354.70 <
-3 -15 6 -1 598.01 439.66 365.05 <
-3 15 6 0 726.84 300.06 313.00 <
-3 -15 6 0 717.53 805.33 327.72 <
-3 15 6 1 51.85 219.52 328.59 <
-3 -15 6 1 46.54 11.72 149.82 <
-3 15 6 2 8.58 13.20 102.42 <
-3 -15 6 2 8.48 288.67 216.54 <
-2 15 6 -2 347.33 113.27 237.01 <
-2 -15 6 -2 379.02 398.70 174.29 <
-2 15 6 -1 239.59 680.65 328.87 <
-2 -15 6 -1 229.84 353.46 191.99 <
-2 15 6 0 463.01 466.57 294.54 <
-2 -15 6 0 492.21 147.16 146.05 <
-2 15 6 1 110.70 94.94 108.55 <
-2 -15 6 1 109.92 195.27 159.12 <
-2 15 6 2 118.88 -14.50 124.07 <
-2 -15 6 2 119.45 239.34 140.21 <
-1 15 6 -2 405.02 407.76 288.58 <
-1 -15 6 -2 413.52 333.94 144.36 <
-1 15 6 -1 382.32 243.51 253.97 <
-1 -15 6 -1 314.73 342.00 159.42 <
-1 15 6 0 340.15 561.58 327.85 <
-1 -15 6 0 343.40 418.70 134.77 o
-1 15 6 1 230.99 388.42 291.13 <
-1 -15 6 1 239.94 230.82 115.05 <
-1 15 6 2 62.01 158.31 205.69 <
-1 -15 6 2 58.91 94.85 106.01 <
0 15 6 -2 252.07 551.69 360.63 <
0 -15 6 -2 248.22 104.98 112.46 <
0 -15 6 -1 143.82 -6.52 82.31 <
0 -15 6 0 2475.81 2637.07 319.30 o
0 -15 6 1 91.21 -10.72 88.50 <
0 -15 6 2 231.10 323.93 148.16 <
1 -15 6 -2 308.91 415.96 134.44 o
1 -15 6 -1 383.93 269.41 112.16 <
1 -15 6 0 110.27 131.60 104.44 <
1 -15 6 1 110.10 260.08 129.21 <
1 -15 6 2 82.40 295.95 124.86 <
2 -15 6 -2 171.66 69.59 96.09 <
2 -15 6 -1 73.48 52.77 74.11 <
2 -15 6 0 300.99 271.37 128.55 <
2 -15 6 1 43.60 78.90 175.29 <
2 -15 6 2 473.50 203.04 163.49 <
3 -15 6 -2 350.95 282.73 114.55 <
3 -15 6 -1 65.14 -44.39 81.64 <
3 -15 6 0 92.02 87.33 120.64 <
3 -15 6 1 214.24 225.71 118.57 <
3 -15 6 2 21.33 74.98 142.82 <
4 -15 6 -2 59.51 -81.98 168.07 <
4 -15 6 -1 46.89 125.31 126.85 <
4 -15 6 0 119.51 212.73 195.80 <
4 -15 6 1 67.14 84.81 225.80 <
5 -15 6 -2 165.04 130.99 183.86 <
-4 -16 6 -1 292.54 128.59 316.04 <
-4 -16 6 0 433.55 27.98 211.62 <
-4 -16 6 1 273.90 49.78 389.63 <
-4 -16 6 2 85.32 -47.83 293.50 <
-3 -16 6 -2 5.50 80.46 259.32 <
-3 16 6 -1 96.41 636.58 366.96 <
-3 -16 6 -1 96.18 208.34 378.53 <
-3 16 6 0 1261.97 1396.88 471.83 <
-3 -16 6 0 1283.24 1583.21 413.59 o
-3 16 6 1 59.88 -3.00 190.30 <
-3 -16 6 1 66.49 174.38 197.41 <
-3 16 6 2 233.35 14.98 305.72 <
-3 -16 6 2 223.33 -8.18 118.86 <
-2 16 6 -2 391.08 360.55 241.30 <
-2 -16 6 -2 436.36 695.07 284.84 <
-2 16 6 -1 258.15 408.22 232.19 <
-2 -16 6 -1 281.24 68.14 94.44 <
-2 16 6 0 1313.82 1041.50 388.11 <
-2 -16 6 0 1353.75 1490.03 282.24 o
-2 16 6 1 397.33 146.42 179.62 <
-2 -16 6 1 394.52 192.71 145.86 <
-2 16 6 2 187.32 -224.10 207.97 <
-2 -16 6 2 190.38 114.27 104.49 <
-1 16 6 -2 76.89 231.15 220.14 <
-1 -16 6 -2 81.47 53.66 101.62 <
-1 16 6 -1 224.53 428.42 259.50 <
-1 -16 6 -1 215.49 59.24 136.36 <
-1 16 6 0 3785.65 3825.66 710.72 o
-1 -16 6 0 3778.78 3837.19 422.64 o
-1 16 6 1 36.93 56.53 215.12 <
-1 -16 6 1 34.19 -100.88 90.77 <
-1 -16 6 2 321.85 26.65 99.53 <
0 16 6 -2 131.37 175.99 247.47 <
0 -16 6 -2 136.67 116.99 137.29 <
0 -16 6 -1 154.03 134.21 157.70 <
0 -16 6 0 189.39 88.18 111.24 <
0 -16 6 1 133.57 211.49 147.84 <
0 -16 6 2 104.85 83.87 74.38 <
1 -16 6 -2 168.98 105.59 107.33 <
1 -16 6 -1 46.14 53.11 93.14 <
1 -16 6 0 4007.93 4098.09 424.05 o
1 -16 6 1 1144.31 843.97 229.04 o
1 -16 6 2 107.77 291.43 164.03 <
2 -16 6 -2 81.14 256.65 119.59 <
2 -16 6 -1 609.98 151.71 96.57 <
2 -16 6 0 590.47 738.76 191.47 o
2 -16 6 1 6.41 -39.22 109.36 <
2 -16 6 2 5.96 61.31 123.57 <
3 -16 6 -2 50.12 192.47 96.18 <
3 -16 6 -1 2.61 136.01 120.60 <
3 -16 6 0 1623.60 1927.30 324.19 o
3 -16 6 1 42.37 256.99 133.46 <
3 -16 6 2 49.53 108.16 179.90 <
4 -16 6 -2 24.93 26.72 135.73 <
4 -16 6 -1 209.21 409.61 283.21 <
4 -16 6 0 67.48 230.36 387.24 <
4 -16 6 1 56.32 123.97 224.14 <
-4 -17 6 1 149.35 -155.40 436.57 <
-4 -17 6 2 69.69 -98.98 188.23 <
-3 -17 6 -2 94.54 -193.91 227.91 <
-3 -17 6 -1 118.72 155.10 259.23 <
-3 17 6 0 166.63 -109.42 193.34 <
-3 -17 6 0 174.71 260.45 201.51 <
-3 17 6 1 84.36 44.92 119.31 <
-3 -17 6 1 84.92 80.24 244.10 <
-3 17 6 2 236.83 382.44 279.76 <
-3 -17 6 2 252.38 267.30 213.91 <
-2 17 6 -2 14.34 446.38 298.15 <
-2 -17 6 -2 16.89 438.57 267.28 <
-2 -17 6 -1 138.56 82.44 132.68 <
-2 17 6 0 826.82 784.81 383.20 <
-2 -17 6 0 798.80 795.51 211.21 o
-2 17 6 1 248.13 -134.03 266.41 <
-2 -17 6 1 248.70 80.48 145.07 <
-2 17 6 2 148.45 182.54 202.67 <
-2 -17 6 2 149.96 59.55 121.53 <
-1 -17 6 -2 105.54 21.74 92.72 <
-1 17 6 -1 29.56 197.69 158.36 <
-1 -17 6 -1 30.57 154.36 165.99 <
-1 17 6 0 419.56 -16.05 147.31 <
-1 -17 6 0 438.93 239.95 95.35 <
-1 17 6 1 82.74 79.11 221.14 <
-1 -17 6 1 80.86 -13.07 125.70 <
-1 17 6 2 293.96 448.40 266.84 <
-1 -17 6 2 310.69 110.46 114.79 <
0 17 6 -2 10.81 439.99 317.32 <
0 -17 6 -2 11.14 316.61 183.88 <
0 -17 6 -1 163.38 137.12 154.20 <
0 -17 6 0 288.02 274.50 160.90 <
0 -17 6 1 800.93 656.28 246.04 <
0 -17 6 2 192.31 67.85 106.36 <
1 -17 6 -2 4.28 265.28 195.01 <
1 -17 6 -1 60.15 85.29 127.08 <
1 -17 6 0 483.85 519.95 221.90 <
1 -17 6 1 104.45 207.71 145.84 <
1 -17 6 2 255.49 197.84 123.88 <
2 -17 6 -2 33.74 132.23 106.92 <
2 -17 6 -1 142.87 7.11 101.64 <
2 -17 6 0 867.42 864.45 230.99 o
2 -17 6 1 363.98 44.28 79.05 <
2 -17 6 2 410.52 -145.27 129.09 <
3 -17 6 -2 4.42 0.39 93.96 <
3 -17 6 -1 9.42 -24.54 95.07 <
3 -17 6 0 210.22 136.36 125.27 <
3 -17 6 1 103.95 -13.31 137.03 <
3 -17 6 2 135.63 202.21 142.97 <
4 -17 6 -2 25.62 355.37 232.51 <
4 -17 6 -1 38.72 -111.59 156.07 <
4 -17 6 0 282.64 473.64 378.18 <
-3 -18 6 -2 9.84 -231.36 185.62 <
-3 -18 6 -1 3.34 381.05 471.44 <
-3 -18 6 0 23.29 -9.15 197.90 <
-3 -18 6 1 130.68 225.99 213.65 <
-3 18 6 2 57.27 624.71 329.24 <
-3 -18 6 2 53.78 204.60 199.47 <
-2 18 6 -2 1063.35 782.33 376.90 <
-2 -18 6 -2 1064.71 805.60 335.20 <
-2 18 6 -1 1054.11 1617.56 538.67 o
-2 -18 6 -1 1059.51 1611.04 342.83 o
-2 18 6 0 79.07 147.36 187.73 <
-2 -18 6 0 72.90 308.30 137.03 <
-2 18 6 1 158.57 -583.50 443.22 <
-2 -18 6 1 157.54 279.84 185.77 <
-2 18 6 2 45.40 313.06 247.32 <
-2 -18 6 2 41.26 54.48 82.24 <
-1 18 6 -2 42.32 125.40 185.06 <
-1 -18 6 -2 49.95 126.90 126.44 <
-1 18 6 -1 34.82 98.77 183.64 <
-1 -18 6 -1 42.20 396.57 203.41 <
-1 18 6 0 233.70 203.29 250.49 <
-1 -18 6 0 243.79 519.25 203.10 <
-1 18 6 1 93.79 38.72 256.21 <
-1 -18 6 1 93.48 -102.99 125.60 <
-1 18 6 2 99.81 432.72 261.67 <
-1 -18 6 2 98.37 162.42 196.38 <
0 -18 6 -2 367.76 59.00 114.53 <
0 -18 6 -1 1232.91 1847.45 374.15 o
0 -18 6 0 1587.33 1267.82 313.26 o
0 -18 6 1 250.46 226.43 176.30 <
0 -18 6 2 85.52 372.29 207.27 <
1 -18 6 -2 84.81 253.12 188.32 <
1 -18 6 -1 2.27 138.31 149.46 <
1 -18 6 0 347.62 252.82 168.80 <
1 -18 6 1 110.85 -32.04 115.11 <
1 -18 6 2 32.72 122.83 163.58 <
2 -18 6 -2 628.71 459.55 196.04 <
2 -18 6 -1 351.48 64.55 153.86 <
2 -18 6 0 48.49 98.64 154.55 <
2 -18 6 1 139.71 -46.42 110.22 <
2 -18 6 2 11.40 -42.63 104.25 <
3 -18 6 -2 46.14 -35.16 173.06 <
3 -18 6 -1 10.45 187.75 153.42 <
3 -18 6 0 40.25 113.61 159.14 <
3 -18 6 1 150.42 -70.76 154.90 <
3 -18 6 2 13.64 157.14 202.30 <
4 -18 6 -2 267.97 10.00 118.97 <
4 -18 6 -1 59.75 427.18 252.74 <
4 -18 6 0 134.02 546.08 399.76 <
-3 -19 6 -2 5.63 589.52 582.39 <
-3 -19 6 -1 66.08 257.78 188.79 <
-3 -19 6 0 119.48 960.71 695.63 <
-3 -19 6 1 189.92 702.94 298.76 <
-3 19 6 2 93.98 525.21 430.01 <
-3 -19 6 2 95.40 757.38 242.26 o
-2 19 6 -2 11.80 211.58 291.54 <
-2 -19 6 -2 16.06 646.37 340.70 <
-2 19 6 -1 127.52 464.16 355.09 <
-2 -19 6 -1 122.49 -30.72 125.96 <
-2 19 6 0 1601.37 581.45 334.78 <
-2 -19 6 0 1592.24 1446.73 308.39 o
-2 19 6 1 127.08 -136.83 164.43 <
-2 -19 6 1 131.11 -15.18 111.46 <
-2 19 6 2 238.11 124.44 190.99 <
-2 -19 6 2 241.68 386.63 238.38 <
-1 19 6 -2 21.26 -240.88 253.32 <
-1 -19 6 -2 25.75 -64.81 105.11 <
-1 19 6 -1 158.81 138.77 249.12 <
-1 -19 6 -1 165.36 186.25 146.90 <
-1 19 6 0 222.12 618.45 337.65 <
-1 -19 6 0 244.00 185.29 161.18 <
-1 19 6 1 248.29 231.02 277.34 <
-1 -19 6 1 247.23 120.42 110.18 <
-1 19 6 2 113.08 676.07 360.59 <
-1 -19 6 2 117.87 346.61 167.57 <
0 19 6 -2 91.15 542.71 403.83 <
0 -19 6 -2 95.47 -94.74 182.54 <
0 19 6 -1 114.63 497.27 324.46 <
0 -19 6 -1 106.47 130.94 176.84 <
0 -19 6 0 3025.01 3927.37 561.84 o
0 -19 6 1 50.22 -69.44 116.92 <
0 -19 6 2 213.70 203.71 155.25 <
1 -19 6 -2 141.69 159.68 155.05 <
1 -19 6 -1 119.65 -77.77 99.83 <
1 -19 6 0 239.70 553.93 197.23 <
1 -19 6 1 684.08 752.38 257.10 <
1 -19 6 2 5.70 -53.46 143.57 <
2 -19 6 -2 115.49 31.41 213.88 <
2 -19 6 -1 49.98 -97.05 111.20 <
2 -19 6 0 1644.59 1948.04 399.76 o
2 -19 6 1 35.35 45.76 174.23 <
2 -19 6 2 18.85 84.50 150.32 <
3 -19 6 -2 46.27 115.57 202.36 <
3 -19 6 -1 79.04 287.46 236.63 <
3 -19 6 0 158.83 -37.41 221.08 <
3 -19 6 1 30.12 -354.05 288.80 <
4 -19 6 -2 77.50 683.29 426.86 <
-3 -20 6 0 312.08 412.74 450.23 <
-3 -20 6 1 137.01 80.83 233.75 <
-3 -20 6 2 21.81 78.42 222.14 <
-2 -20 6 -2 159.81 170.69 283.61 <
-2 20 6 -1 286.12 469.07 277.04 <
-2 -20 6 -1 291.83 21.44 178.86 <
-2 20 6 0 280.99 -377.16 369.61 <
-2 -20 6 0 296.25 197.71 175.68 <
-2 20 6 1 10.34 151.45 173.73 <
-2 -20 6 1 11.44 469.34 231.63 <
-2 20 6 2 143.55 -4.43 182.25 <
-2 -20 6 2 146.77 187.47 172.38 <
-1 20 6 -2 52.00 405.14 231.47 <
-1 -20 6 -2 49.81 180.18 174.86 <
-1 20 6 -1 404.12 42.92 202.23 <
-1 -20 6 -1 391.17 471.47 226.82 <
-1 20 6 0 412.72 351.52 362.96 <
-1 -20 6 0 408.51 863.28 295.60 <
-1 20 6 1 212.03 377.57 347.78 <
-1 -20 6 1 217.93 233.51 183.68 <
-1 20 6 2 49.07 83.66 251.15 <
-1 -20 6 2 49.27 123.40 90.40 <
0 20 6 -2 122.81 1031.35 458.27 <
0 -20 6 -2 117.61 325.76 219.67 <
0 20 6 -1 257.70 405.09 327.82 <
0 -20 6 -1 279.34 102.33 158.27 <
0 -20 6 0 811.84 896.65 283.73 o
0 -20 6 1 8.30 -7.24 173.79 <
0 -20 6 2 168.87 260.37 174.36 <
1 -20 6 -2 55.44 19.67 182.40 <
1 -20 6 -1 113.37 526.25 229.28 <
1 -20 6 0 509.84 1077.12 341.57 o
1 -20 6 1 943.00 1313.35 340.72 o
1 -20 6 2 81.77 -137.44 131.96 <
2 -20 6 -2 224.72 161.23 153.47 <
2 -20 6 -1 18.50 116.83 100.35 <
2 -20 6 0 164.09 43.33 91.01 <
2 -20 6 1 2.96 12.41 203.82 <
2 -20 6 2 82.00 126.92 162.75 <
3 -20 6 -2 50.69 195.25 191.36 <
3 -20 6 -1 46.82 -284.67 216.38 <
3 -20 6 0 190.60 62.13 272.17 <
-3 -21 6 1 59.76 -214.34 210.88 <
-3 -21 6 2 67.52 168.16 310.50 <
-2 -21 6 -2 212.57 399.57 316.22 <
-2 -21 6 -1 87.32 -140.46 210.54 <
-2 21 6 0 124.82 376.24 193.04 <
-2 -21 6 0 135.35 835.16 381.66 <
-2 21 6 1 200.52 -133.03 267.37 <
-2 -21 6 1 203.16 186.18 166.92 <
-2 21 6 2 49.67 -439.03 291.96 <
-2 -21 6 2 57.49 283.87 197.49 <
-1 21 6 -2 133.22 386.76 283.47 <
-1 -21 6 -2 159.44 59.44 167.58 <
-1 21 6 -1 118.89 65.01 202.06 <
-1 -21 6 -1 130.10 82.50 213.84 <
-1 21 6 0 18.86 -366.72 271.02 <
-1 -21 6 0 20.48 85.92 221.67 <
-1 21 6 1 188.68 296.35 330.46 <
-1 -21 6 1 184.91 377.70 236.41 <
-1 21 6 2 110.67 162.73 183.21 <
-1 -21 6 2 112.63 287.84 216.91 <
0 21 6 -2 187.90 133.53 206.51 <
0 -21 6 -2 188.40 -3.78 160.66 <
0 21 6 -1 73.07 594.91 319.09 <
0 -21 6 -1 72.44 401.13 233.28 <
0 -21 6 0 178.05 32.20 112.83 <
0 21 6 1 125.78 -84.74 150.40 <
0 -21 6 1 118.87 -56.90 121.55 <
0 -21 6 2 114.66 445.92 213.69 <
1 -21 6 -2 315.29 123.59 174.68 <
1 -21 6 -1 740.16 914.30 281.61 o
1 -21 6 0 36.18 394.63 193.58 <
1 -21 6 1 16.32 49.72 170.84 <
1 -21 6 2 151.49 -202.71 184.77 <
2 -21 6 -2 136.15 312.83 206.65 <
2 -21 6 -1 27.92 54.89 182.06 <
2 -21 6 0 154.14 109.61 161.68 <
2 -21 6 1 32.65 -12.05 157.88 <
2 -21 6 2 253.48 -25.54 159.20 <
3 -21 6 -2 163.37 183.79 203.29 <
3 -21 6 -1 100.87 75.01 136.83 <
-2 -22 6 -2 16.27 -44.52 259.54 <
-2 -22 6 -1 83.73 -116.38 194.08 <
-2 -22 6 0 151.81 207.43 226.43 <
-2 22 6 1 31.49 211.78 265.32 <
-2 -22 6 1 28.95 -137.18 100.98 <
-2 22 6 2 79.04 -120.25 216.84 <
-2 -22 6 2 79.50 463.38 211.97 <
-1 22 6 -2 85.12 6.83 242.36 <
-1 -22 6 -2 76.52 184.80 225.06 <
-1 22 6 -1 204.16 51.48 316.91 <
-1 -22 6 -1 236.60 71.37 148.46 <
-1 22 6 0 733.50 47.55 302.91 <
-1 -22 6 0 759.07 253.76 218.49 <
-1 22 6 1 426.34 511.45 409.55 <
-1 -22 6 1 423.60 354.78 252.41 <
-1 22 6 2 231.78 282.95 384.16 <
-1 -22 6 2 242.16 161.97 185.95 <
0 22 6 -2 39.61 649.98 372.54 <
0 -22 6 -2 34.32 255.24 215.54 <
0 22 6 -1 43.53 531.78 444.62 <
0 -22 6 -1 34.65 307.35 210.21 <
0 22 6 0 347.58 94.14 133.81 <
0 -22 6 0 333.67 17.20 156.68 <
0 22 6 1 13.93 440.22 376.26 <
0 -22 6 1 10.60 146.25 150.58 <
0 22 6 2 136.43 336.54 487.68 <
0 -22 6 2 135.24 306.69 203.99 <
1 -22 6 -2 163.76 181.58 205.73 <
1 -22 6 -1 136.99 332.83 235.02 <
1 -22 6 0 499.58 613.98 278.54 <
1 -22 6 1 334.77 768.05 299.74 <
1 -22 6 2 216.52 305.20 208.58 <
2 -22 6 -2 28.06 242.36 208.25 <
2 -22 6 -1 1.11 52.37 167.21 <
2 -22 6 0 236.04 235.76 250.32 <
2 -22 6 1 9.34 114.20 186.75 <
3 -22 6 -2 137.39 24.87 260.10 <
-2 23 6 2 3.65 170.51 141.34 <
-2 -23 6 2 4.86 -46.31 203.21 <
-1 23 6 -2 236.30 231.25 239.95 <
-1 -23 6 -2 230.87 69.37 195.95 <
-1 23 6 -1 791.61 619.82 321.04 <
-1 -23 6 -1 814.05 517.38 233.54 <
-1 23 6 0 196.17 560.91 451.44 <
-1 -23 6 0 189.12 -67.55 199.69 <
-1 23 6 1 19.57 74.77 305.50 <
-1 -23 6 1 16.47 -215.97 190.58 <
-1 23 6 2 41.25 331.87 391.63 <
-1 -23 6 2 44.19 208.51 181.18 <
0 23 6 -2 72.96 -155.47 183.99 <
0 -23 6 -2 77.04 -131.66 182.10 <
0 23 6 -1 128.29 583.71 306.61 <
0 -23 6 -1 123.10 272.45 238.76 <
0 23 6 0 42.28 -317.37 424.94 <
0 -23 6 0 40.57 314.52 226.26 <
0 23 6 1 109.80 392.72 386.29 <
0 -23 6 1 125.57 8.26 193.66 <
0 23 6 2 38.98 -43.18 447.35 <
1 -23 6 -2 368.42 159.16 242.78 <
1 -23 6 -1 67.69 470.92 269.19 <
1 -23 6 0 49.05 256.26 242.93 <
2 -23 6 -2 83.51 -151.75 184.62 <
-1 -24 6 -2 17.52 -133.25 220.25 <
-1 24 6 -1 200.83 47.53 248.39 <
-1 -24 6 -1 203.73 123.51 108.03 <
-1 24 6 0 1077.43 1289.56 603.60 <
0 24 6 -2 174.46 415.20 373.89 <
0 -24 6 -2 175.14 17.67 173.27 <
0 24 6 -1 344.74 764.18 512.82 <
0 24 6 0 133.80 734.27 465.62 <
-5 0 7 -2 52.52 53.77 141.55 <
-5 0 7 -1 70.95 234.02 176.82 <
-5 0 7 0 1456.88 1314.48 317.54 o
-5 0 7 1 229.80 147.81 159.03 <
-5 0 7 2 117.67 126.79 191.88 <
-4 0 7 -2 35.84 91.57 87.90 <
-4 0 7 -1 284.15 93.66 93.20 <
-4 0 7 0 73.76 7.22 52.92 <
-4 0 7 1 171.22 184.42 119.90 <
-4 0 7 2 165.45 18.61 98.94 <
-3 0 7 -2 219.69 171.93 104.51 <
-3 0 7 -1 7.61 34.29 100.81 <
-3 0 7 0 5639.31 5813.95 515.40 o
-3 0 7 1 1048.95 330.56 126.12 <
-3 0 7 2 339.81 409.35 141.70 <
-2 0 7 -2 2.52 -6.20 107.29 <
-2 0 7 -1 508.32 187.99 119.92 <
-2 0 7 0 316.93 1.78 96.83 <
-2 0 7 1 64.31 7.67 74.59 <
-2 0 7 2 225.17 110.79 82.59 <
-1 0 7 -2 577.17 250.67 108.70 <
-1 0 7 -1 44.21 81.38 65.05 <
-1 0 7 0 21611.90 21496.90 698.57 o
-1 0 7 1 7570.48 7602.93 414.37 o
-1 0 7 2 549.57 685.48 179.29 o
0 0 7 -2 10.61 -69.16 79.22 <
0 0 7 -1 148.52 -1.52 73.20 <
0 0 7 0 38.42 39.29 97.77 <
0 0 7 1 0.28 20.98 74.92 <
0 0 7 2 4.61 35.89 105.99 <
1 0 7 -2 6.53 95.46 91.64 <
1 0 7 -1 1452.68 1973.98 276.41 o
1 0 7 0 16301.80 15547.50 753.53 o
1 0 7 1 270.86 63.90 88.75 <
1 0 7 2 60.46 120.20 180.45 <
2 0 7 -2 1.36 28.91 94.81 <
2 0 7 -1 17.96 302.30 122.85 <
2 0 7 0 194.12 111.18 150.79 <
2 0 7 1 1.25 10.68 71.51 <
2 0 7 2 68.98 447.35 162.93 <
3 0 7 -2 1.09 4.91 102.33 <
3 0 7 -1 522.02 713.37 205.82 o
3 0 7 0 3012.26 2974.32 419.68 o
3 0 7 1 6779.10 6824.43 662.48 o
3 0 7 2 260.32 344.11 203.65 <
4 0 7 -2 17.11 -63.94 165.12 <
4 0 7 -1 99.56 196.06 175.51 <
4 0 7 0 313.75 339.63 220.10 <
4 0 7 1 3.19 122.23 147.53 <
4 0 7 2 77.29 99.12 158.14 <
5 0 7 -2 7.77 328.65 187.66 <
5 0 7 -1 266.70 255.26 242.02 <
5 0 7 0 426.68 253.52 222.93 <
5 0 7 1 668.03 547.12 258.52 <
5 0 7 2 84.03 110.44 153.51 <
6 0 7 -2 6.30 5.54 192.62 <
-5 1 7 -2 82.73 318.26 218.41 <
-5 -1 7 -2 83.47 -81.50 153.21 <
-5 1 7 -1 524.83 233.34 177.10 <
-5 -1 7 -1 515.58 401.81 199.64 <
-5 1 7 0 606.22 326.74 177.08 <
-5 -1 7 0 594.14 334.52 170.69 <
-5 1 7 1 156.36 -228.56 233.32 <
-5 -1 7 1 160.93 -18.04 104.25 <
-5 1 7 2 156.86 -12.96 222.41 <
-5 -1 7 2 160.15 74.87 126.01 <
-4 1 7 -2 93.25 16.63 91.33 <
-4 -1 7 -2 122.96 -129.73 98.92 <
-4 1 7 -1 121.38 -34.76 107.16 <
-4 -1 7 -1 121.83 146.34 125.46 <
-4 1 7 0 1629.50 1984.63 343.63 o
-4 -1 7 0 1616.11 1724.42 329.85 o
-4 1 7 1 112.10 163.08 102.05 <
-4 -1 7 1 104.48 10.22 63.29 <
-4 1 7 2 170.60 77.77 93.49 <
-4 -1 7 2 174.23 250.89 154.75 <
-3 1 7 -2 317.81 255.06 134.77 <
-3 -1 7 -2 321.58 691.72 195.10 o
-3 1 7 -1 335.18 268.91 130.14 <
-3 -1 7 -1 346.31 125.55 53.39 <
-3 1 7 0 3565.56 2621.46 348.50 o
-3 -1 7 0 3566.23 3277.09 391.96 o
-3 1 7 1 275.99 216.04 94.22 <
-3 -1 7 1 269.34 252.91 149.21 <
-3 1 7 2 199.88 219.52 93.99 <
-3 -1 7 2 207.88 402.53 142.46 <
-2 1 7 -2 4657.90 4619.45 411.68 o
-2 -1 7 -2 4655.21 4389.64 409.46 o
-2 1 7 -1 43.13 62.33 103.53 <
-2 -1 7 -1 38.70 88.59 89.46 <
-2 1 7 0 3465.19 3361.09 335.87 o
-2 -1 7 0 3481.10 3379.33 346.00 o
-2 1 7 1 293.77 387.00 149.58 <
-2 -1 7 1 271.71 234.47 130.79 <
-2 1 7 2 418.57 332.89 87.03 o
-2 -1 7 2 418.95 318.30 112.53 <
-1 1 7 -2 400.75 331.76 92.77 o
-1 -1 7 -2 412.91 464.25 126.16 o
-1 1 7 -1 3714.84 3981.20 292.19 o
-1 -1 7 -1 3631.95 3756.23 293.08 o
-1 1 7 0 11082.90 11494.90 508.32 o
-1 -1 7 0 11174.40 10990.30 519.30 o
-1 1 7 1 287.85 295.17 149.20 <
-1 -1 7 1 291.39 175.32 75.01 <
-1 1 7 2 152.22 147.01 106.25 <
-1 -1 7 2 153.81 126.79 83.87 <
0 1 7 -2 424.01 234.21 104.61 <
0 -1 7 -2 405.71 54.50 84.88 <
0 1 7 -1 156.93 152.88 83.31 <
0 -1 7 -1 174.50 7.57 100.66 <
0 1 7 0 10295.50 9861.34 608.22 o
0 -1 7 0 10249.00 10696.80 638.61 o
0 1 7 1 836.61 995.89 218.28 o
0 -1 7 1 799.86 737.24 194.08 o
0 1 7 2 412.60 194.03 98.85 <
0 -1 7 2 400.63 159.58 74.22 <
1 1 7 -2 22.60 32.76 57.87 <
1 -1 7 -2 22.61 44.90 72.26 <
1 1 7 -1 250.19 133.07 77.90 <
1 -1 7 -1 230.84 44.15 66.72 <
1 1 7 0 10333.80 10375.70 625.85 o
1 -1 7 0 10343.40 10470.80 611.82 o
1 1 7 1 778.48 664.48 172.53 o
1 -1 7 1 776.16 1059.50 160.42 o
1 1 7 2 255.82 589.13 193.99 o
1 -1 7 2 259.11 274.93 92.27 <
2 1 7 -2 382.98 125.38 103.74 <
2 -1 7 -2 356.55 83.20 65.24 <
2 1 7 -1 85.20 -24.29 108.99 <
2 -1 7 -1 77.55 136.10 78.51 <
2 1 7 0 2645.11 2962.02 342.92 o
2 -1 7 0 2605.51 2509.73 243.78 o
2 1 7 1 532.33 473.83 133.12 o
2 -1 7 1 522.53 598.85 146.92 o
2 1 7 2 567.35 582.73 189.47 o
2 -1 7 2 526.86 529.41 188.29 <
3 1 7 -2 18.28 202.84 223.97 <
3 -1 7 -2 20.23 117.99 119.55 <
3 1 7 -1 274.69 139.70 122.81 <
3 -1 7 -1 260.22 111.61 137.64 <
3 1 7 0 4905.37 4989.28 535.97 o
3 -1 7 0 4914.25 5334.63 552.27 o
3 1 7 1 65.19 304.19 179.23 <
3 -1 7 1 55.84 278.98 158.44 <
3 1 7 2 59.63 226.19 179.60 <
3 -1 7 2 63.66 25.65 65.01 <
4 1 7 -2 222.35 286.82 128.92 <
4 -1 7 -2 214.68 298.43 196.14 <
4 1 7 -1 45.51 339.46 182.08 <
4 -1 7 -1 45.59 190.19 154.57 <
4 1 7 0 980.64 1147.18 330.74 o
4 -1 7 0 948.62 1133.75 315.91 o
4 1 7 1 376.16 530.69 228.49 <
4 -1 7 1 370.01 229.91 188.27 <
4 1 7 2 84.69 459.12 220.84 <
4 -1 7 2 94.52 153.94 197.84 <
5 1 7 -2 41.00 264.37 162.97 <
5 -1 7 -2 47.51 218.60 193.32 <
5 1 7 -1 282.60 52.57 134.33 <
5 -1 7 -1 297.94 123.88 268.37 <
5 1 7 0 1365.77 667.82 276.54 <
5 -1 7 0 1376.38 955.24 340.65 <
5 1 7 1 31.88 -115.68 141.86 <
5 -1 7 1 37.69 248.38 235.73 <
5 1 7 2 79.62 -247.02 272.48 <
5 -1 7 2 70.75 658.24 457.16 <
6 1 7 -2 85.57 39.96 195.79 <
6 -1 7 -2 83.79 268.21 306.67 <
-5 2 7 -2 11.64 -78.35 92.40 <
-5 -2 7 -2 12.81 -20.42 159.08 <
-5 2 7 -1 72.83 131.62 180.75 <
-5 -2 7 -1 71.18 249.08 193.84 <
-5 2 7 0 283.99 40.85 127.14 <
-5 -2 7 0 277.19 -26.98 133.25 <
-5 2 7 1 60.51 320.43 211.34 <
-5 -2 7 1 66.60 178.38 135.55 <
-5 2 7 2 131.05 68.03 159.88 <
-5 -2 7 2 125.81 39.72 114.55 <
-4 2 7 -2 10.29 112.96 117.29 <
-4 -2 7 -2 10.54 76.66 121.83 <
-4 2 7 -1 324.13 77.38 96.68 <
-4 -2 7 -1 331.83 -38.55 106.81 <
-4 2 7 0 1206.62 1356.50 288.78 o
-4 -2 7 0 1224.78 1010.87 253.43 o
-4 2 7 1 536.44 299.54 159.68 <
-4 -2 7 1 539.63 311.13 172.16 <
-4 2 7 2 113.75 415.14 266.48 <
-4 -2 7 2 114.57 126.73 115.18 <
-3 2 7 -2 74.11 -13.61 95.18 <
-3 -2 7 -2 70.00 178.69 108.75 <
-3 2 7 -1 94.11 105.61 111.29 <
-3 -2 7 -1 100.12 164.43 109.53 <
-3 2 7 0 616.87 1033.72 225.10 o
-3 -2 7 0 601.24 673.02 177.36 o
-3 2 7 1 110.02 36.26 95.46 <
-3 -2 7 1 113.95 340.30 130.59 <
-3 2 7 2 287.89 284.02 123.18 <
-3 -2 7 2 276.59 106.74 95.38 <
-2 2 7 -2 1984.34 1650.56 253.78 o
-2 -2 7 -2 1998.77 1919.13 278.58 o
-2 2 7 -1 911.59 368.94 115.72 o
-2 -2 7 -1 954.95 444.01 135.75 o
-2 2 7 0 1757.81 1768.05 251.36 o
-2 -2 7 0 1773.18 1739.42 258.19 o
-2 2 7 1 512.26 293.83 114.25 <
-2 -2 7 1 512.59 585.10 170.05 o
-2 2 7 2 102.36 230.10 189.27 <
-2 -2 7 2 107.29 18.31 82.31 <
-1 2 7 -2 235.74 -9.24 78.75 <
-1 -2 7 -2 230.15 100.92 60.09 <
-1 2 7 -1 1442.66 1384.87 178.60 o
-1 -2 7 -1 1374.83 1307.11 178.49 o
-1 2 7 0 1386.13 1415.90 186.51 o
-1 -2 7 0 1361.77 1461.64 194.73 o
-1 2 7 1 620.92 835.01 207.40 o
-1 -2 7 1 633.23 489.64 131.29 o
-1 2 7 2 429.47 265.74 137.34 <
-1 -2 7 2 413.32 229.13 145.47 <
0 2 7 -2 105.63 130.03 87.25 <
0 -2 7 -2 105.03 196.10 110.24 <
0 2 7 -1 1912.40 1291.13 215.25 o
0 -2 7 -1 1944.75 1256.34 229.56 o
0 2 7 0 18451.40 18797.60 835.16 o
0 -2 7 0 18524.10 18845.30 844.42 o
0 2 7 1 200.81 -45.90 76.33 <
0 -2 7 1 184.95 67.94 125.55 <
0 2 7 2 126.53 79.00 129.71 <
0 -2 7 2 133.12 -118.70 95.98 <
1 2 7 -2 171.71 38.11 86.27 <
1 -2 7 -2 166.51 16.76 50.74 <
1 2 7 -1 4.32 -37.74 69.29 <
1 -2 7 -1 5.03 -27.83 46.16 <
1 2 7 0 1011.60 939.34 200.67 o
1 -2 7 0 985.54 1055.74 147.34 o
1 2 7 1 186.32 73.37 127.23 <
1 -2 7 1 117.29 319.65 101.27 o
1 2 7 2 225.97 -3.37 91.33 <
1 -2 7 2 232.03 104.75 68.26 <
2 2 7 -2 698.10 503.23 168.95 <
2 -2 7 -2 697.99 569.38 104.22 o
2 2 7 -1 1501.10 1444.18 375.63 o
2 -2 7 -1 1527.85 1347.48 173.84 o
2 2 7 0 834.09 821.44 197.19 o
2 -2 7 0 825.29 508.01 104.68 o
2 2 7 1 134.90 194.14 154.21 <
2 -2 7 1 122.86 107.53 99.46 <
2 2 7 2 287.57 264.11 136.25 <
2 -2 7 2 306.77 87.48 59.74 <
3 2 7 -2 106.30 181.04 155.40 <
3 -2 7 -2 101.57 8.00 108.29 <
3 2 7 -1 104.53 470.29 330.30 <
3 -2 7 -1 115.67 701.81 221.19 o
3 2 7 0 517.49 704.70 333.20 <
3 -2 7 0 504.28 482.51 153.62 o
3 2 7 1 1625.46 1258.08 301.54 o
3 -2 7 1 1628.96 809.10 214.88 o
3 2 7 2 8.98 252.95 226.26 <
3 -2 7 2 7.10 199.21 127.21 <
4 2 7 -2 620.35 477.40 238.58 <
4 -2 7 -2 632.67 623.87 231.43 <
4 2 7 -1 975.73 555.75 222.19 <
4 -2 7 -1 986.36 690.04 233.62 <
4 2 7 0 609.69 609.84 262.19 <
4 -2 7 0 619.52 446.23 196.17 <
4 2 7 1 451.69 243.62 193.23 <
4 -2 7 1 460.90 231.08 124.85 <
4 2 7 2 49.37 311.17 179.03 <
4 -2 7 2 54.26 -111.01 221.67 <
5 2 7 -2 94.36 149.84 171.69 <
5 -2 7 -2 89.82 107.40 128.12 <
5 2 7 -1 12.45 145.36 224.58 <
5 -2 7 -1 10.64 174.73 179.88 <
5 2 7 0 116.87 287.19 222.93 <
5 -2 7 0 111.30 210.75 187.27 <
5 2 7 1 292.69 -11.50 156.70 <
5 -2 7 1 280.56 -330.07 246.88 <
5 -2 7 2 61.66 174.88 323.83 <
6 2 7 -2 262.31 529.95 382.53 <
6 -2 7 -2 269.08 387.11 263.02 <
-5 3 7 -2 67.73 3.43 137.60 <
-5 -3 7 -2 64.29 229.25 183.80 <
-5 3 7 -1 414.56 330.43 192.25 <
-5 -3 7 -1 405.11 254.69 143.51 <
-5 3 7 0 173.72 -172.68 213.67 <
-5 -3 7 0 177.83 106.83 105.16 <
-5 3 7 1 215.16 -57.64 152.68 <
-5 -3 7 1 212.72 267.43 195.10 <
-5 3 7 2 53.82 391.63 258.69 <
-5 -3 7 2 53.13 27.33 148.36 <
-4 3 7 -2 12.34 1.35 56.63 <
-4 -3 7 -2 13.98 195.69 143.68 <
-4 3 7 -1 23.95 152.88 119.49 <
-4 -3 7 -1 26.37 -48.63 111.35 <
-4 3 7 0 663.40 709.76 221.34 o
-4 -3 7 0 677.17 754.68 216.01 o
-4 3 7 1 52.40 131.55 115.83 <
-4 -3 7 1 52.43 -65.83 92.64 <
-4 3 7 2 32.31 -118.53 82.61 <
-4 -3 7 2 36.87 84.20 103.83 <
-3 3 7 -2 41.49 138.94 96.85 <
-3 -3 7 -2 43.22 179.10 129.94 <
-3 3 7 -1 129.78 51.09 81.88 <
-3 -3 7 -1 134.22 20.61 118.31 <
-3 3 7 0 430.92 286.45 114.92 <
-3 -3 7 0 437.46 92.37 106.61 <
-3 3 7 1 392.71 360.55 136.40 <
-3 -3 7 1 372.35 307.69 151.62 <
-3 3 7 2 158.03 427.79 253.74 <
-3 -3 7 2 157.99 84.03 92.74 <
-2 3 7 -2 95.76 -14.76 87.66 <
-2 -3 7 -2 94.44 42.68 57.05 <
-2 3 7 -1 94.93 90.99 98.55 <
-2 -3 7 -1 104.73 51.26 51.46 <
-2 3 7 0 205.75 93.22 65.57 <
-2 -3 7 0 209.49 -4.24 86.87 <
-2 3 7 1 466.34 351.50 118.22 <
-2 -3 7 1 448.49 245.38 126.18 <
-2 3 7 2 6.33 -62.22 101.70 <
-2 -3 7 2 6.30 5.20 74.31 <
-1 3 7 -2 243.58 494.49 119.72 o
-1 -3 7 -2 241.59 473.94 117.88 o
-1 3 7 -1 7886.38 7778.23 427.20 o
-1 -3 7 -1 7850.30 7497.14 441.53 o
-1 3 7 0 292.22 105.49 96.51 <
-1 -3 7 0 305.93 96.92 63.11 <
-1 3 7 1 261.06 346.76 145.62 <
-1 -3 7 1 263.44 123.71 67.09 <
-1 3 7 2 198.53 337.94 141.66 <
-1 -3 7 2 204.68 426.79 156.62 <
0 3 7 -2 184.64 102.92 89.22 <
0 -3 7 -2 181.05 113.53 81.53 <
0 3 7 -1 184.64 43.03 76.07 <
0 -3 7 -1 184.59 195.77 90.05 <
0 3 7 0 4689.75 4885.02 427.64 o
0 -3 7 0 4646.59 4541.95 418.22 o
0 3 7 1 1672.95 1254.19 227.82 o
0 -3 7 1 1628.17 1575.41 260.86 o
0 3 7 2 183.79 -128.75 130.36 <
0 -3 7 2 182.61 67.55 111.92 <
1 3 7 -2 53.38 89.61 66.55 <
1 -3 7 -2 49.23 14.17 42.07 <
1 3 7 -1 1167.84 887.06 187.40 o
1 -3 7 -1 1180.25 961.11 133.92 o
1 3 7 0 73.01 98.70 99.07 <
1 -3 7 0 81.18 48.48 77.72 <
1 3 7 1 2657.85 2890.17 360.39 o
1 -3 7 1 2653.61 2695.02 233.08 o
1 3 7 2 553.66 914.99 237.51 o
1 -3 7 2 569.63 613.50 125.40 o
2 3 7 -2 254.74 123.77 137.33 <
2 -3 7 -2 248.28 61.89 54.63 <
2 3 7 -1 373.89 591.43 234.56 <
2 -3 7 -1 387.29 251.84 81.24 o
2 3 7 0 58.78 62.24 135.97 <
2 -3 7 0 70.66 -163.53 128.55 <
2 3 7 1 2373.57 2319.11 528.99 o
2 -3 7 1 2364.41 2270.13 342.22 o
2 3 7 2 1188.78 1133.46 370.85 o
2 -3 7 2 1275.39 1016.24 239.52 o
3 3 7 -2 78.72 68.20 171.12 <
3 -3 7 -2 74.04 198.17 138.83 <
3 3 7 -1 1118.19 1283.71 396.48 o
3 -3 7 -1 1121.79 1304.83 264.43 o
3 3 7 0 324.66 87.61 145.23 <
3 -3 7 0 326.03 111.88 141.53 <
3 3 7 1 17.81 276.86 187.97 <
3 -3 7 1 22.95 185.73 80.87 <
3 3 7 2 283.06 636.76 294.45 <
3 -3 7 2 284.27 209.47 145.64 <
4 3 7 -2 145.32 -3.72 323.67 <
4 -3 7 -2 138.31 345.87 217.51 <
4 3 7 -1 127.09 264.89 170.01 <
4 -3 7 -1 131.36 31.00 62.98 <
4 3 7 0 137.37 212.38 132.86 <
4 -3 7 0 141.54 336.67 181.10 <
4 3 7 1 768.34 759.73 269.13 <
4 -3 7 1 748.62 802.33 307.80 <
4 3 7 2 519.21 258.17 187.45 <
4 -3 7 2 521.52 609.39 282.41 <
5 3 7 -2 84.56 333.00 206.27 <
5 -3 7 -2 83.58 213.04 154.25 <
5 3 7 -1 486.62 237.80 172.21 <
5 -3 7 -1 494.44 186.88 244.41 <
5 3 7 0 275.84 203.10 181.69 <
5 -3 7 0 266.00 -64.76 165.84 <
5 3 7 1 18.76 -164.03 145.32 <
5 -3 7 1 16.76 143.10 169.92 <
5 -3 7 2 144.07 499.47 316.32 <
6 3 7 -2 48.35 198.25 304.63 <
6 -3 7 -2 45.31 7.80 145.53 <
-5 4 7 -2 92.53 57.87 100.53 <
-5 -4 7 -2 97.74 -37.55 201.62 <
-5 4 7 -1 83.73 321.48 285.80 <
-5 -4 7 -1 93.84 -28.78 176.36 <
-5 4 7 0 31.13 123.21 213.95 <
-5 -4 7 0 27.24 47.35 123.31 <
-5 4 7 1 24.33 -280.58 292.91 <
-5 -4 7 1 25.78 105.14 173.21 <
-5 4 7 2 7.03 -85.53 95.57 <
-5 -4 7 2 8.20 88.14 162.43 <
-4 4 7 -2 47.56 266.43 156.84 <
-4 -4 7 -2 40.88 246.74 170.82 <
-4 4 7 -1 977.73 1023.37 254.63 o
-4 -4 7 -1 970.96 780.03 216.52 o
-4 4 7 0 1610.10 1604.67 314.74 o
-4 -4 7 0 1593.60 1576.73 333.24 o
-4 4 7 1 4.33 235.12 238.63 <
-4 -4 7 1 4.51 -49.57 105.07 <
-4 -4 7 2 375.08 75.64 117.94 <
-3 4 7 -2 177.56 86.61 119.35 <
-3 -4 7 -2 191.83 95.98 71.61 <
-3 4 7 -1 115.21 -28.78 89.42 <
-3 -4 7 -1 115.53 249.04 158.25 <
-3 4 7 0 52.54 135.31 143.34 <
-3 -4 7 0 51.40 202.19 109.40 <
-3 4 7 1 201.00 109.57 100.99 <
-3 -4 7 1 195.47 -63.01 111.88 <
-3 4 7 2 101.64 272.19 193.54 <
-3 -4 7 2 94.80 -0.20 71.27 <
-2 4 7 -2 9.88 153.82 121.29 <
-2 -4 7 -2 10.92 90.40 121.20 <
-2 4 7 -1 1779.60 2008.18 262.76 o
-2 -4 7 -1 1787.75 1982.98 284.56 o
-2 4 7 0 7392.81 7786.19 503.42 o
-2 -4 7 0 7374.10 8213.58 583.67 o
-2 4 7 1 126.12 -67.74 76.51 <
-2 -4 7 1 125.03 176.79 134.40 <
-2 4 7 2 653.37 996.72 308.50 o
-2 -4 7 2 675.74 978.91 219.21 o
-1 4 7 -2 197.73 182.53 108.53 <
-1 -4 7 -2 226.64 -51.15 77.22 <
-1 4 7 -1 2844.03 3248.04 290.17 o
-1 -4 7 -1 2815.53 3103.94 298.48 o
-1 4 7 0 769.63 148.31 160.38 <
-1 -4 7 0 796.06 405.96 118.16 o
-1 4 7 1 530.41 276.45 135.99 <
-1 -4 7 1 522.62 62.18 81.03 <
-1 4 7 2 146.15 49.29 64.22 <
-1 -4 7 2 145.41 -29.96 62.79 <
0 4 7 -2 394.15 302.80 94.49 o
0 -4 7 -2 398.72 269.39 88.50 o
0 4 7 -1 1933.87 2228.78 276.91 o
0 -4 7 -1 1941.85 1983.83 271.06 o
0 4 7 0 8663.81 8706.85 567.67 o
0 -4 7 0 8760.24 8625.93 584.99 o
0 4 7 1 176.71 120.83 80.14 <
0 -4 7 1 183.81 188.30 101.22 <
0 4 7 2 398.13 544.82 170.95 o
0 -4 7 2 402.95 508.38 166.99 o
1 4 7 -2 110.92 149.96 98.05 <
1 -4 7 -2 110.83 115.27 81.50 <
1 4 7 -1 45.52 128.90 110.46 <
1 -4 7 -1 42.74 55.02 60.07 <
1 4 7 0 560.72 452.23 154.53 <
1 -4 7 0 569.45 305.96 90.40 o
1 4 7 1 353.79 291.87 142.34 <
1 -4 7 1 392.57 237.93 101.12 <
1 4 7 2 74.02 78.88 109.88 <
1 -4 7 2 82.20 112.88 76.88 <
2 4 7 -2 348.87 204.34 130.86 <
2 -4 7 -2 334.17 300.02 72.57 o
2 4 7 -1 1204.16 1179.06 311.08 o
2 -4 7 -1 1184.38 837.23 197.30 o
2 4 7 0 10085.40 9685.81 982.19 o
2 -4 7 0 9958.04 9455.40 627.87 o
2 4 7 1 25.10 -172.06 185.60 <
2 -4 7 1 27.98 7.37 113.88 <
2 4 7 2 119.98 305.09 242.84 <
2 -4 7 2 121.53 24.29 59.18 <
3 4 7 -2 158.79 -166.43 139.62 <
3 -4 7 -2 148.52 -146.49 83.85 <
3 4 7 -1 2.99 279.98 165.32 <
3 -4 7 -1 1.57 70.53 140.92 <
3 -4 7 0 21.27 -53.48 63.16 <
3 4 7 1 302.11 409.64 202.62 <
3 -4 7 1 310.53 119.14 130.59 <
3 4 7 2 18.89 92.70 158.44 <
3 -4 7 2 21.49 80.07 148.25 <
4 4 7 -2 72.51 78.07 195.21 <
4 -4 7 -2 65.01 81.98 126.57 <
4 4 7 -1 163.36 560.75 339.83 <
4 -4 7 -1 162.47 277.08 208.41 <
4 4 7 0 3283.94 2392.64 433.31 o
4 -4 7 0 3245.40 2826.18 466.47 o
4 4 7 1 41.01 -137.07 198.93 <
4 -4 7 1 31.51 59.70 117.16 <
4 4 7 2 38.22 44.35 213.12 <
4 -4 7 2 34.74 513.84 239.08 <
5 4 7 -2 172.86 149.90 218.60 <
5 -4 7 -2 169.30 263.61 169.53 <
5 4 7 -1 4.36 179.77 184.95 <
5 -4 7 -1 5.53 190.56 180.08 <
5 4 7 0 75.02 78.98 197.45 <
5 -4 7 0 70.70 302.83 245.28 <
5 4 7 1 36.82 203.73 196.43 <
5 -4 7 1 33.69 338.57 263.84 <
5 4 7 2 118.17 -79.72 101.90 <
5 -4 7 2 110.61 210.47 271.24 <
6 4 7 -2 11.02 1005.48 520.36 <
6 -4 7 -2 10.32 -90.37 230.56 <
-5 -5 7 -2 90.17 -5.13 135.71 <
-5 5 7 -1 70.47 -81.09 171.38 <
-5 -5 7 -1 65.41 -33.15 192.06 <
-5 5 7 0 217.94 -131.99 233.91 <
-5 -5 7 0 211.37 130.81 315.82 <
-5 5 7 1 310.25 124.96 103.62 <
-5 -5 7 1 310.53 180.64 124.96 <
-5 5 7 2 0.53 530.04 291.13 <
-5 -5 7 2 0.28 35.83 142.25 <
-4 5 7 -2 26.86 -9.07 98.68 <
-4 -5 7 -2 26.32 129.81 179.49 <
-4 5 7 -1 58.89 111.51 123.42 <
-4 -5 7 -1 57.63 335.98 170.16 <
-4 5 7 0 608.72 79.72 86.96 <
-4 -5 7 0 599.61 472.90 227.19 <
-4 5 7 1 65.76 -50.63 100.81 <
-4 -5 7 1 61.85 -124.23 121.18 <
-4 5 7 2 0.62 176.36 220.95 <
-4 -5 7 2 0.76 -125.14 103.22 <
-3 5 7 -2 33.89 -16.00 119.38 <
-3 -5 7 -2 30.22 -48.26 91.22 <
-3 5 7 -1 310.30 206.51 133.44 <
-3 -5 7 -1 307.41 100.77 92.66 <
-3 5 7 0 728.69 622.91 175.53 o
-3 -5 7 0 732.58 705.94 214.10 o
-3 5 7 1 301.59 380.72 216.34 <
-3 -5 7 1 296.92 27.87 125.68 <
-3 5 7 2 1.20 -19.09 176.62 <
-3 -5 7 2 0.38 50.74 81.05 <
-2 5 7 -2 124.58 -8.72 50.59 <
-2 -5 7 -2 126.30 211.12 131.10 <
-2 5 7 -1 414.44 374.02 120.60 o
-2 -5 7 -1 430.11 272.13 138.16 <
-2 5 7 0 1954.71 2115.77 263.41 o
-2 -5 7 0 1960.05 2016.72 304.80 o
-2 5 7 1 91.28 215.86 184.79 <
-2 -5 7 1 81.81 24.57 125.42 <
-2 5 7 2 54.71 86.68 108.46 <
-2 -5 7 2 59.46 69.24 101.62 <
-1 5 7 -2 31.02 57.20 56.77 <
-1 -5 7 -2 32.23 1.57 59.31 <
-1 5 7 -1 68.76 -14.91 44.70 <
-1 -5 7 -1 81.38 59.40 80.83 <
-1 5 7 0 812.44 1146.53 345.87 o
-1 -5 7 0 832.96 992.56 182.49 o
-1 5 7 1 184.65 389.07 145.29 <
-1 -5 7 1 175.59 92.35 96.03 <
-1 5 7 2 82.48 8.78 80.51 <
-1 -5 7 2 84.17 -10.43 77.57 <
0 5 7 -2 100.03 142.60 84.18 <
0 -5 7 -2 99.62 -49.05 59.22 <
0 5 7 -1 779.38 688.65 167.27 o
0 -5 7 -1 786.01 784.92 169.86 o
0 5 7 0 1494.88 1348.83 225.15 o
0 -5 7 0 1460.01 1374.33 245.84 o
0 5 7 1 567.18 656.28 171.25 o
0 -5 7 1 524.87 303.15 103.83 <
0 5 7 2 122.42 118.09 114.61 <
0 -5 7 2 127.49 198.93 116.27 <
1 5 7 -2 449.33 482.58 157.62 o
1 -5 7 -2 450.03 418.05 81.11 o
1 5 7 -1 477.12 772.85 184.88 o
1 -5 7 -1 495.60 607.69 109.05 o
1 5 7 0 374.62 650.13 171.16 o
1 -5 7 0 364.15 609.37 108.99 o
1 5 7 1 633.36 856.95 224.04 o
1 -5 7 1 654.96 680.28 130.62 o
1 5 7 2 162.57 265.08 137.09 <
1 -5 7 2 161.69 -3.11 197.19 <
2 5 7 -2 70.90 -66.53 135.70 <
2 -5 7 -2 71.89 -17.68 72.57 <
2 5 7 -1 238.94 512.27 234.88 <
2 -5 7 -1 227.10 224.32 108.38 <
2 5 7 0 1767.90 1745.11 419.72 o
2 -5 7 0 1814.84 1816.32 278.43 o
2 5 7 1 377.66 376.40 227.41 <
2 -5 7 1 342.90 503.19 166.32 o
2 5 7 2 3281.13 3001.15 595.34 o
2 -5 7 2 3310.53 2663.50 371.54 o
3 5 7 -2 845.08 449.98 225.71 <
3 -5 7 -2 854.58 574.28 190.03 o
3 5 7 -1 392.02 306.52 200.43 <
3 -5 7 -1 412.43 623.84 169.69 o
3 5 7 0 314.79 25.24 219.82 <
3 -5 7 0 315.50 141.34 112.31 <
3 5 7 1 288.68 703.16 336.22 <
3 -5 7 1 279.13 363.18 199.23 <
3 5 7 2 160.22 45.26 109.33 <
3 -5 7 2 156.67 174.66 146.29 <
4 5 7 -2 32.77 128.18 147.18 <
4 -5 7 -2 36.41 422.36 217.77 <
4 5 7 -1 83.16 291.45 200.40 <
4 -5 7 -1 73.34 299.91 214.69 <
4 5 7 0 280.90 211.88 193.38 <
4 -5 7 0 280.71 193.29 129.14 <
4 5 7 1 705.66 586.11 218.08 <
4 -5 7 1 688.43 698.59 270.02 <
4 5 7 2 233.31 296.28 179.55 <
4 -5 7 2 228.98 536.25 225.73 <
5 5 7 -2 507.70 303.19 220.99 <
5 -5 7 -2 527.60 270.54 198.32 <
5 5 7 -1 394.72 151.70 229.10 <
5 -5 7 -1 411.93 12.37 181.62 <
5 5 7 0 328.74 -50.89 164.88 <
5 -5 7 0 327.74 43.70 92.01 <
5 5 7 1 214.33 183.79 136.46 <
5 -5 7 1 238.07 166.43 122.79 <
-5 -6 7 -2 158.27 -89.92 169.57 <
-5 -6 7 -1 80.33 -26.50 193.01 <
-5 6 7 0 503.87 198.80 201.21 <
-5 -6 7 0 492.10 440.16 224.51 <
-5 6 7 1 72.48 380.96 293.89 <
-5 -6 7 1 76.95 895.62 311.54 <
-5 6 7 2 67.21 124.18 181.97 <
-5 -6 7 2 67.47 18.57 190.06 <
-4 6 7 -2 92.87 86.94 125.96 <
-4 -6 7 -2 74.86 37.52 148.29 <
-4 6 7 -1 277.88 363.42 241.56 <
-4 -6 7 -1 283.33 18.17 107.90 <
-4 6 7 0 192.56 273.87 197.53 <
-4 -6 7 0 185.71 58.92 110.66 <
-4 6 7 1 361.29 455.70 314.43 <
-4 -6 7 1 344.32 87.33 164.05 <
-4 6 7 2 345.99 294.33 210.08 <
-4 -6 7 2 356.78 0.78 128.60 <
-3 6 7 -2 171.66 189.77 124.86 <
-3 -6 7 -2 162.90 19.13 124.49 <
-3 6 7 -1 174.85 117.14 111.53 <
-3 -6 7 -1 148.96 -35.85 66.94 <
-3 6 7 0 1444.95 1689.20 453.86 o
-3 -6 7 0 1422.19 1712.96 316.39 o
-3 6 7 1 284.22 287.60 199.12 <
-3 -6 7 1 297.72 167.43 90.29 <
-3 6 7 2 85.61 8.26 146.29 <
-3 -6 7 2 84.99 80.92 138.25 <
-2 6 7 -2 1094.73 921.28 184.75 o
-2 -6 7 -2 1137.66 1258.15 191.45 o
-2 6 7 -1 421.10 90.51 76.35 <
-2 -6 7 -1 441.87 133.05 103.36 <
-2 6 7 0 901.99 1461.64 390.72 o
-2 -6 7 0 912.00 739.51 194.79 o
-2 6 7 1 529.32 435.25 195.34 <
-2 -6 7 1 500.45 333.33 130.70 <
-2 6 7 2 329.80 216.25 204.15 <
-2 -6 7 2 345.99 56.92 77.22 <
-1 6 7 -2 30.93 0.70 57.72 <
-1 -6 7 -2 27.74 166.25 98.20 <
-1 6 7 -1 874.31 1004.91 195.60 o
-1 -6 7 -1 899.14 995.85 185.19 o
-1 6 7 0 4797.67 5080.31 675.02 o
-1 -6 7 0 4758.27 4155.90 362.24 o
-1 6 7 1 398.94 332.61 270.52 <
-1 -6 7 1 421.29 145.27 96.90 <
-1 6 7 2 147.47 -63.94 128.49 <
-1 -6 7 2 151.23 121.77 96.12 <
0 6 7 -2 65.79 89.03 84.31 <
0 -6 7 -2 73.47 82.92 64.79 <
0 6 7 -1 288.61 361.72 115.05 o
0 -6 7 -1 302.20 440.79 122.36 o
0 6 7 0 2043.88 1738.94 258.08 o
0 -6 7 0 2011.88 1779.64 220.38 o
0 6 7 1 102.86 197.32 122.29 <
0 -6 7 1 96.47 93.92 82.48 <
0 6 7 2 266.10 148.73 81.07 <
0 -6 7 2 266.29 -49.90 95.66 <
1 6 7 -2 244.91 131.94 93.51 <
1 -6 7 -2 246.82 89.00 61.31 <
1 6 7 -1 262.55 344.98 161.64 <
1 -6 7 -1 280.35 282.45 84.00 o
1 6 7 0 5288.74 5865.21 496.64 o
1 -6 7 0 5264.05 5175.64 315.28 o
1 6 7 1 730.42 1175.19 255.15 o
1 -6 7 1 737.43 680.15 128.59 o
1 6 7 2 62.48 338.81 171.86 <
1 -6 7 2 53.51 27.05 116.03 <
2 6 7 -2 137.31 261.84 236.99 <
2 -6 7 -2 133.29 121.96 98.74 <
2 6 7 -1 716.53 454.92 195.86 <
2 -6 7 -1 695.98 472.77 151.05 o
2 6 7 0 362.16 305.02 199.88 <
2 -6 7 0 360.75 444.22 157.53 <
2 6 7 1 17.63 -174.79 171.07 <
2 -6 7 1 15.97 190.95 114.70 <
2 6 7 2 210.41 -6.94 105.25 <
2 -6 7 2 217.82 -7.83 102.94 <
3 6 7 -2 147.58 126.07 160.99 <
3 -6 7 -2 143.28 97.96 117.23 <
3 6 7 -1 82.01 4.89 75.53 <
3 -6 7 -1 81.16 27.78 94.98 <
3 6 7 0 1626.53 1605.00 447.14 o
3 -6 7 0 1625.31 1783.60 325.32 o
3 6 7 1 132.85 52.81 125.33 <
3 -6 7 1 142.17 87.61 142.21 <
3 6 7 2 103.69 213.12 227.75 <
3 -6 7 2 107.74 60.76 143.71 <
4 6 7 -2 206.99 104.07 189.16 <
4 -6 7 -2 203.41 32.63 107.01 <
4 6 7 -1 529.87 328.93 237.82 <
4 -6 7 -1 505.84 384.96 203.69 <
4 6 7 0 155.44 -104.46 111.53 <
4 -6 7 0 161.31 237.89 156.10 <
4 6 7 1 121.00 1.74 119.59 <
4 -6 7 1 134.75 492.57 270.13 <
4 6 7 2 350.38 223.28 172.73 <
4 -6 7 2 356.72 300.54 211.06 <
5 6 7 -2 5.80 493.47 221.26 <
5 -6 7 -2 4.15 -18.98 105.70 <
5 6 7 -1 27.94 283.06 232.28 <
5 -6 7 -1 30.07 37.05 209.45 <
5 6 7 0 371.66 820.10 492.42 <
5 -6 7 0 362.99 1070.40 360.59 <
5 6 7 1 150.61 75.09 117.57 <
5 -6 7 1 138.85 -57.13 251.47 <
-5 -7 7 -2 64.59 -1.41 252.36 <
-5 -7 7 -1 122.74 -221.45 240.75 <
-5 7 7 0 868.05 332.17 256.36 <
-5 -7 7 0 869.63 876.91 304.54 <
-5 7 7 1 46.31 -19.89 137.92 <
-5 -7 7 1 43.19 276.24 172.56 <
-5 7 7 2 195.90 -340.96 352.15 <
-5 -7 7 2 193.93 144.23 189.79 <
-4 7 7 -2 77.37 147.58 169.95 <
-4 -7 7 -2 77.50 305.04 203.29 <
-4 7 7 -1 139.86 164.40 150.23 <
-4 -7 7 -1 147.75 224.08 153.51 <
-4 7 7 0 806.58 582.78 264.04 <
-4 -7 7 0 812.33 685.92 252.23 <
-4 7 7 1 61.59 393.44 265.30 <
-4 -7 7 1 58.22 182.54 144.59 <
-4 7 7 2 31.12 470.47 239.15 <
-4 -7 7 2 35.47 241.51 183.38 <
-3 7 7 -2 61.79 129.55 89.96 <
-3 -7 7 -2 63.05 -140.60 189.14 <
-3 7 7 -1 1497.25 1842.43 309.85 o
-3 -7 7 -1 1511.61 1816.60 349.00 o
-3 7 7 0 3216.42 3674.41 663.32 o
-3 -7 7 0 3238.69 3079.42 433.51 o
-3 7 7 1 70.29 -98.83 92.57 <
-3 -7 7 1 59.63 52.15 87.62 <
-3 7 7 2 396.73 -196.54 194.90 <
-3 -7 7 2 396.06 306.50 141.60 <
-2 7 7 -2 1099.04 919.06 196.08 o
-2 -7 7 -2 1102.26 1054.89 189.79 o
-2 7 7 -1 361.40 350.65 125.38 <
-2 -7 7 -1 365.79 531.90 146.46 o
-2 7 7 0 4484.23 4066.94 639.00 o
-2 -7 7 0 4482.78 4222.69 485.16 o
-2 7 7 1 408.27 254.89 175.16 <
-2 -7 7 1 387.28 144.09 91.96 <
-2 7 7 2 134.73 38.96 70.94 <
-2 -7 7 2 143.72 115.01 89.74 <
-1 7 7 -2 45.06 132.75 120.64 <
-1 -7 7 -2 47.99 79.16 67.31 <
-1 7 7 -1 366.09 453.14 268.15 <
-1 -7 7 -1 321.20 175.99 89.77 <
-1 7 7 0 6608.48 5197.54 688.05 o
-1 -7 7 0 6602.13 4995.24 338.52 o
-1 7 7 1 213.88 290.93 164.82 <
-1 -7 7 1 214.07 310.39 117.70 <
-1 7 7 2 537.55 580.36 242.86 <
-1 -7 7 2 541.65 357.68 185.56 <
0 7 7 -2 56.47 194.79 127.68 <
0 -7 7 -2 61.76 207.73 71.53 <
0 7 7 -1 429.74 607.58 173.38 o
0 -7 7 -1 428.47 310.22 96.07 o
0 7 7 0 1204.34 1193.84 223.45 o
0 -7 7 0 1153.39 1397.66 198.38 o
0 7 7 1 901.83 600.45 176.23 o
0 -7 7 1 827.98 567.73 123.35 o
0 7 7 2 344.67 435.73 169.36 <
0 -7 7 2 347.92 134.84 81.70 <
1 7 7 -2 130.48 54.26 129.59 <
1 -7 7 -2 135.37 52.53 46.76 <
1 7 7 -1 1120.20 885.62 243.76 o
1 -7 7 -1 1128.54 1191.99 143.27 o
1 7 7 0 7088.56 6763.36 703.57 o
1 -7 7 0 7021.32 6887.32 332.83 o
1 7 7 1 600.00 792.14 268.19 <
1 -7 7 1 605.56 722.11 208.36 o
1 7 7 2 77.81 195.08 136.42 <
1 -7 7 2 68.53 42.07 202.41 <
2 7 7 -2 115.55 105.64 123.27 <
2 -7 7 -2 122.61 191.58 88.88 <
2 7 7 -1 18.43 348.91 233.97 <
2 -7 7 -1 22.48 97.88 81.59 <
2 7 7 0 3682.58 3157.84 554.40 o
2 -7 7 0 3665.43 3160.27 377.35 o
2 7 7 1 603.63 820.62 306.15 <
2 -7 7 1 559.29 524.23 184.43 <
2 7 7 2 372.90 229.10 281.93 <
2 -7 7 2 351.73 569.99 184.32 o
3 7 7 -2 33.11 113.79 62.03 <
3 -7 7 -2 30.79 30.85 101.14 <
3 7 7 -1 36.11 280.41 228.90 <
3 -7 7 -1 36.04 139.96 143.88 <
3 7 7 0 3109.84 2934.72 593.78 o
3 -7 7 0 3125.17 3223.60 443.59 o
3 7 7 1 105.40 -1.44 161.32 <
3 -7 7 1 90.03 -22.70 129.40 <
3 7 7 2 18.09 -210.73 158.77 <
3 -7 7 2 14.24 49.11 100.57 <
4 7 7 -2 71.77 483.20 282.58 <
4 -7 7 -2 72.57 283.73 187.73 <
4 7 7 -1 10.57 -190.04 194.29 <
4 -7 7 -1 11.18 -47.98 85.88 <
4 7 7 0 436.12 787.22 381.29 <
4 -7 7 0 437.55 349.20 239.45 <
4 7 7 1 407.04 405.48 307.61 <
4 -7 7 1 383.57 436.12 225.80 <
4 -7 7 2 14.67 818.81 524.29 <
5 -7 7 -2 58.65 109.92 174.97 <
5 7 7 -1 19.68 323.74 291.11 <
5 -7 7 -1 18.21 -12.26 199.30 <
5 7 7 0 1005.79 1222.99 533.06 <
5 -7 7 0 1008.04 1283.50 368.70 o
-5 -8 7 -1 36.94 -331.28 322.87 <
-5 -8 7 0 890.22 987.02 468.94 <
-5 -8 7 1 85.60 4.06 92.88 <
-5 8 7 2 91.07 150.90 212.90 <
-5 -8 7 2 89.55 -49.26 104.79 <
-4 8 7 -2 84.47 225.80 92.51 <
-4 -8 7 -2 82.43 18.61 283.54 <
-4 8 7 -1 618.08 324.26 216.71 <
-4 -8 7 -1 634.73 497.86 205.58 <
-4 8 7 0 98.96 -59.61 109.85 <
-4 -8 7 0 99.12 157.47 138.14 <
-4 8 7 1 2.58 -203.29 210.56 <
-4 -8 7 1 2.31 40.31 105.29 <
-4 8 7 2 121.61 372.89 258.86 <
-4 -8 7 2 120.61 -74.51 207.99 <
-3 8 7 -2 208.40 -44.24 98.57 <
-3 -8 7 -2 210.63 -26.50 159.95 <
-3 -8 7 -1 85.51 54.98 84.81 <
-3 8 7 0 2398.47 2432.10 534.91 o
-3 -8 7 0 2388.04 2655.06 404.07 o
-3 8 7 1 467.67 503.14 220.47 <
-3 -8 7 1 501.54 300.39 118.94 <
-3 8 7 2 195.54 149.82 170.95 <
-3 -8 7 2 191.76 222.36 113.92 <
-2 8 7 -2 654.06 478.29 157.38 o
-2 -8 7 -2 651.41 376.96 119.53 o
-2 8 7 -1 825.29 1101.40 367.35 <
-2 -8 7 -1 861.94 901.64 181.36 o
-2 8 7 0 737.51 1048.00 339.44 o
-2 -8 7 0 703.29 914.60 190.56 o
-2 8 7 1 95.22 321.67 276.50 <
-2 -8 7 1 98.74 -51.31 134.03 <
-2 8 7 2 75.86 142.57 232.75 <
-2 -8 7 2 71.72 213.73 126.20 <
-1 -8 7 -2 381.51 70.51 71.37 <
-1 8 7 -1 659.65 64.35 215.15 <
-1 -8 7 -1 680.23 532.40 128.23 o
-1 8 7 0 2760.66 1955.34 441.96 o
-1 -8 7 0 2756.02 2342.61 241.95 o
-1 8 7 1 432.85 -87.50 163.43 <
-1 -8 7 1 447.30 291.41 99.07 <
-1 8 7 2 283.79 321.95 170.18 <
-1 -8 7 2 292.24 215.21 111.59 <
0 8 7 -2 202.26 217.71 203.45 <
0 -8 7 -2 196.66 166.12 83.01 <
0 8 7 -1 705.61 908.56 203.23 o
0 -8 7 -1 727.74 790.57 167.73 o
0 8 7 0 179.21 85.72 128.20 <
0 -8 7 0 190.40 23.09 66.00 <
0 8 7 1 98.20 236.51 160.47 <
0 -8 7 1 98.14 132.60 104.66 <
0 8 7 2 35.06 129.38 115.66 <
0 -8 7 2 37.72 135.21 85.42 <
1 8 7 -2 257.95 54.24 92.35 <
1 -8 7 -2 262.13 49.81 50.40 <
1 8 7 -1 120.39 210.99 124.86 <
1 -8 7 -1 116.73 189.19 84.70 <
1 8 7 0 2249.65 1773.53 344.46 o
1 -8 7 0 2287.24 2147.51 247.04 o
1 8 7 1 6826.15 6679.57 720.18 o
1 -8 7 1 6783.44 5987.18 565.67 o
1 8 7 2 155.19 17.87 104.35 <
1 -8 7 2 166.55 380.57 167.42 <
2 8 7 -2 119.63 24.39 109.51 <
2 -8 7 -2 119.54 60.77 79.01 <
2 8 7 -1 337.26 134.27 120.46 <
2 -8 7 -1 337.07 0.81 72.22 <
2 8 7 0 734.42 1370.53 376.20 o
2 -8 7 0 736.66 796.31 164.51 o
2 8 7 1 104.76 136.03 221.54 <
2 -8 7 1 92.58 286.26 161.45 <
2 8 7 2 6.32 92.29 141.73 <
2 -8 7 2 9.62 -266.08 229.47 <
3 8 7 -2 116.56 -134.03 62.00 <
3 -8 7 -2 122.67 25.22 83.37 <
3 8 7 -1 229.12 702.41 282.69 <
3 -8 7 -1 228.71 481.18 189.38 <
3 8 7 0 979.75 318.80 166.05 <
3 -8 7 0 996.96 826.40 252.10 o
3 8 7 1 296.49 16.04 179.36 <
3 -8 7 1 301.62 79.31 86.33 <
3 8 7 2 39.16 -154.36 95.09 <
3 -8 7 2 43.34 528.91 316.15 <
4 8 7 -2 107.26 195.43 214.06 <
4 -8 7 -2 109.96 58.87 168.23 <
4 8 7 -1 132.79 59.42 250.51 <
4 -8 7 -1 134.18 340.65 218.49 <
4 -8 7 0 173.97 100.46 164.68 <
4 -8 7 1 52.49 280.47 221.40 <
4 -8 7 2 77.09 759.33 443.53 <
5 -8 7 -2 33.26 202.40 222.06 <
5 -8 7 -1 37.17 -16.76 176.45 <
5 8 7 0 224.45 577.56 423.99 <
5 -8 7 0 225.04 756.64 428.59 <
-5 -9 7 -1 65.23 -159.86 216.08 <
-5 -9 7 0 85.33 238.58 289.45 <
-5 9 7 1 79.00 -137.09 201.64 <
-5 -9 7 1 83.42 -29.15 205.97 <
-5 9 7 2 95.33 4.94 271.60 <
-5 -9 7 2 94.68 228.45 183.27 <
-4 9 7 -2 384.63 282.54 180.32 <
-4 -9 7 -2 331.83 198.29 225.71 <
-4 9 7 -1 34.82 -235.51 192.80 <
-4 -9 7 -1 32.94 -87.05 162.55 <
-4 9 7 0 523.91 335.15 289.45 <
-4 -9 7 0 517.69 678.76 268.48 <
-4 9 7 1 74.62 63.13 84.57 <
-4 -9 7 1 70.23 213.34 174.66 <
-4 9 7 2 217.21 358.85 247.91 <
-4 -9 7 2 231.26 241.95 232.84 <
-3 9 7 -2 10.99 35.28 150.44 <
-3 -9 7 -2 12.13 163.79 168.55 <
-3 9 7 -1 166.36 442.03 309.19 <
-3 -9 7 -1 177.48 398.79 169.53 <
-3 9 7 0 259.95 316.50 249.78 <
-3 -9 7 0 261.61 478.27 196.29 <
-3 9 7 1 208.99 88.51 284.85 <
-3 -9 7 1 218.32 232.51 137.44 <
-3 9 7 2 89.07 586.65 285.08 <
-3 -9 7 2 87.71 205.51 113.31 <
-2 9 7 -2 2178.62 1867.08 461.70 o
-2 -9 7 -2 2282.11 2102.22 237.02 o
-2 9 7 -1 47.03 146.66 184.64 <
-2 -9 7 -1 38.32 123.42 82.48 <
-2 9 7 0 1853.53 1857.40 453.25 o
-2 -9 7 0 1834.99 1761.48 216.36 o
-2 9 7 1 139.25 367.61 249.17 <
-2 -9 7 1 127.54 331.13 114.86 <
-2 9 7 2 230.08 233.88 231.13 <
-2 -9 7 2 244.86 198.56 129.25 <
-1 9 7 -2 30.21 83.79 202.14 <
-1 -9 7 -2 34.11 -21.55 65.13 <
-1 9 7 -1 85.42 -253.47 203.84 <
-1 -9 7 -1 95.32 76.75 71.22 <
-1 9 7 0 1553.10 1508.05 357.11 o
-1 -9 7 0 1532.15 1412.83 197.62 o
-1 9 7 1 259.54 210.54 90.22 <
-1 -9 7 1 268.13 166.51 79.96 <
-1 9 7 2 19.37 -254.62 180.56 <
-1 -9 7 2 19.88 -75.09 69.46 <
0 9 7 -2 537.22 72.98 134.71 <
0 -9 7 -2 543.30 191.08 88.50 <
0 9 7 -1 170.30 63.59 197.25 <
0 -9 7 -1 169.70 -7.61 88.87 <
0 9 7 0 1465.87 1156.01 244.82 o
0 -9 7 0 1519.72 1326.43 205.03 o
0 9 7 1 252.71 325.82 152.08 <
0 -9 7 1 264.00 252.73 92.29 <
0 9 7 2 244.36 234.25 168.03 <
0 -9 7 2 239.55 101.74 81.66 <
1 9 7 -2 146.81 295.00 153.71 <
1 -9 7 -2 152.97 74.37 56.77 <
1 9 7 -1 18.54 26.46 94.70 <
1 -9 7 -1 23.76 -38.83 54.16 <
1 9 7 0 2100.00 1915.36 365.15 o
1 -9 7 0 2129.34 2196.10 348.07 o
1 9 7 1 544.80 513.29 227.63 <
1 -9 7 1 579.67 438.70 171.05 <
1 9 7 2 40.21 166.08 157.34 <
1 -9 7 2 42.62 194.54 130.44 <
2 9 7 -2 396.22 -62.07 102.24 <
2 -9 7 -2 409.13 191.43 90.61 <
2 9 7 -1 47.46 -68.68 114.83 <
2 -9 7 -1 52.38 41.50 62.51 <
2 9 7 0 1780.03 2194.17 441.12 o
2 -9 7 0 1757.18 1628.19 227.86 o
2 9 7 1 421.01 770.51 294.69 <
2 -9 7 1 432.03 582.78 188.27 o
2 9 7 2 446.20 167.05 138.38 <
2 -9 7 2 474.73 646.52 351.20 <
3 9 7 -2 210.85 162.97 182.51 <
3 -9 7 -2 222.54 127.68 107.49 <
3 9 7 -1 66.28 -22.70 121.86 <
3 -9 7 -1 58.58 259.93 123.75 <
3 -9 7 0 777.63 879.30 230.54 o
3 -9 7 1 334.13 353.55 213.45 <
3 -9 7 2 56.09 333.37 293.10 <
4 -9 7 -2 121.77 224.28 175.97 <
4 -9 7 -1 6.26 -76.01 71.35 <
4 -9 7 0 404.33 691.37 277.84 <
4 -9 7 1 92.26 389.89 165.43 <
4 -9 7 2 84.34 170.21 423.70 <
5 -9 7 -2 158.19 834.30 312.43 <
5 -9 7 -1 117.98 671.55 297.02 <
-5 -10 7 0 94.11 -58.61 213.58 <
-5 -10 7 1 1.16 96.79 200.62 <
-5 10 7 2 3.39 454.01 330.35 <
-5 -10 7 2 3.78 143.53 333.76 <
-4 10 7 -2 238.87 -163.40 188.14 <
-4 -10 7 -2 232.32 341.61 301.06 <
-4 10 7 -1 45.86 -55.20 176.29 <
-4 -10 7 -1 41.42 -0.87 102.07 <
-4 10 7 0 1317.04 1312.24 481.31 <
-4 -10 7 0 1295.77 568.43 360.92 <
-4 10 7 1 157.67 -82.16 204.03 <
-4 -10 7 1 152.06 40.28 135.62 <
-4 10 7 2 30.45 -60.96 149.32 <
-4 -10 7 2 27.06 663.15 258.95 <
-3 10 7 -2 91.96 84.81 182.19 <
-3 -10 7 -2 95.52 169.80 176.62 <
-3 10 7 -1 442.95 354.44 251.06 <
-3 -10 7 -1 433.14 510.38 235.47 <
-3 10 7 0 229.57 -37.83 91.49 <
-3 -10 7 0 226.24 401.90 209.95 <
-3 10 7 1 65.00 360.37 201.79 <
-3 -10 7 1 66.04 344.48 159.49 <
-3 10 7 2 26.76 23.87 120.96 <
-3 -10 7 2 26.62 -6.76 59.22 <
-2 10 7 -2 130.88 217.75 229.08 <
-2 -10 7 -2 135.64 115.14 90.94 <
-2 10 7 -1 211.80 405.24 292.63 <
-2 -10 7 -1 207.86 128.47 92.88 <
-2 10 7 0 4383.69 4867.04 751.44 o
-2 -10 7 0 4311.09 4532.23 348.04 o
-2 10 7 1 177.82 -241.51 167.38 <
-2 -10 7 1 171.29 115.35 95.14 <
-2 10 7 2 62.89 358.42 272.43 <
-2 -10 7 2 60.66 7.57 73.64 <
-1 10 7 -2 233.29 -177.90 244.04 <
-1 -10 7 -2 229.80 58.16 65.48 <
-1 10 7 -1 124.09 -82.85 171.79 <
-1 -10 7 -1 145.29 304.95 115.77 <
-1 10 7 0 160.04 148.38 194.91 <
-1 -10 7 0 167.92 177.30 87.18 <
-1 10 7 1 34.64 34.31 82.66 <
-1 -10 7 1 39.10 45.85 67.09 <
-1 10 7 2 149.67 107.05 149.68 <
-1 -10 7 2 155.97 184.80 88.35 <
0 10 7 -2 72.93 344.28 217.80 <
0 -10 7 -2 65.74 70.09 67.40 <
0 10 7 -1 216.46 110.42 233.04 <
0 -10 7 -1 225.50 54.57 82.18 <
0 10 7 0 868.47 1365.57 383.79 o
0 -10 7 0 896.24 905.88 174.68 o
0 10 7 1 208.29 209.90 145.49 <
0 -10 7 1 218.82 161.07 95.96 <
0 10 7 2 37.86 221.67 165.40 <
0 -10 7 2 37.44 196.67 91.05 <
1 10 7 -2 379.51 53.02 94.62 <
1 -10 7 -2 375.43 70.63 83.51 <
1 10 7 -1 160.18 434.22 168.99 <
1 -10 7 -1 166.86 341.28 107.09 o
1 10 7 0 121.09 314.98 130.38 <
1 -10 7 0 118.30 352.46 164.51 <
1 10 7 1 3489.72 2654.87 423.05 o
1 -10 7 1 3472.39 3278.82 425.22 o
1 10 7 2 464.16 49.57 79.27 <
1 -10 7 2 452.91 250.74 172.71 <
2 10 7 -2 289.32 250.89 99.40 <
2 -10 7 -2 282.82 283.28 109.01 <
2 10 7 -1 473.89 125.20 153.82 <
2 -10 7 -1 467.29 541.16 145.40 o
2 -10 7 0 2302.53 2704.15 302.43 o
2 -10 7 1 298.78 118.86 131.01 <
2 -10 7 2 40.58 141.60 144.40 <
3 -10 7 -2 357.41 196.80 119.62 <
3 -10 7 -1 18.19 166.82 145.31 <
3 -10 7 0 42.40 77.09 83.83 <
3 -10 7 1 16.13 63.24 135.09 <
3 -10 7 2 116.87 622.35 376.15 <
4 -10 7 -2 192.26 446.29 205.14 <
4 -10 7 -1 299.08 384.03 198.93 <
4 -10 7 0 401.94 350.15 237.21 <
4 -10 7 1 179.75 500.10 423.31 <
4 -10 7 2 25.61 194.16 302.70 <
5 -10 7 -2 176.96 485.44 208.43 <
5 -10 7 -1 5.27 380.39 261.69 <
-5 -11 7 1 28.98 104.81 171.40 <
-5 -11 7 2 191.32 13.28 172.01 <
-4 -11 7 -2 247.93 378.11 316.09 <
-4 11 7 -1 46.30 220.49 230.08 <
-4 -11 7 -1 43.92 -44.98 142.42 <
-4 11 7 0 87.80 3.87 266.74 <
-4 -11 7 0 77.15 -131.07 164.27 <
-4 11 7 1 266.21 174.60 204.36 <
-4 -11 7 1 249.20 309.22 290.95 <
-4 -11 7 2 24.69 -87.96 123.20 <
-3 11 7 -2 27.78 -166.40 212.32 <
-3 -11 7 -2 28.98 119.29 261.52 <
-3 11 7 -1 2830.72 2036.70 501.66 o
-3 -11 7 -1 2832.83 2631.48 720.29 o
-3 11 7 0 380.14 271.58 158.40 <
-3 -11 7 0 401.02 491.66 243.26 <
-3 11 7 1 161.46 261.78 212.04 <
-3 -11 7 1 171.10 32.07 107.07 <
-3 11 7 2 446.90 271.19 247.41 <
-3 -11 7 2 429.52 580.54 210.84 <
-2 11 7 -2 357.42 640.59 293.35 <
-2 -11 7 -2 404.37 452.16 130.03 o
-2 11 7 -1 68.87 -43.03 105.81 <
-2 -11 7 -1 70.44 52.31 68.31 <
-2 11 7 0 339.25 615.37 364.13 <
-2 -11 7 0 320.71 475.88 123.21 o
-2 11 7 1 540.44 432.51 333.11 <
-2 -11 7 1 528.60 184.62 95.20 <
-2 11 7 2 180.67 318.26 320.08 <
-2 -11 7 2 188.27 221.90 110.99 <
-1 11 7 -2 48.85 337.72 165.21 <
-1 -11 7 -2 46.58 120.60 77.05 <
-1 11 7 -1 274.95 -108.64 120.23 <
-1 -11 7 -1 360.27 177.77 93.20 <
-1 11 7 0 1431.26 1069.85 348.17 o
-1 -11 7 0 1451.92 1026.46 155.95 o
-1 11 7 1 1092.28 538.41 283.34 <
-1 -11 7 1 1101.16 751.16 156.08 o
-1 11 7 2 659.01 402.98 254.95 <
-1 -11 7 2 640.52 573.56 152.77 o
0 -11 7 -2 352.53 25.65 106.75 <
0 11 7 -1 58.15 243.32 246.17 <
0 -11 7 -1 55.56 124.18 132.23 <
0 11 7 0 107.50 417.77 279.10 <
0 -11 7 0 134.22 73.61 96.49 <
0 11 7 1 217.47 507.23 330.28 <
0 -11 7 1 203.14 -24.35 140.23 <
0 11 7 2 307.70 285.32 147.38 <
0 -11 7 2 324.31 145.86 122.55 <
1 11 7 -2 145.68 67.53 99.62 <
1 -11 7 -2 143.98 49.79 61.03 <
1 11 7 -1 2433.81 1516.40 274.04 o
1 -11 7 -1 2473.75 1896.30 336.33 o
1 -11 7 0 2036.80 2060.51 348.78 o
1 -11 7 1 59.90 60.46 115.61 <
1 -11 7 2 83.03 413.01 199.64 <
2 -11 7 -2 190.61 38.28 90.83 <
2 -11 7 -1 127.70 152.99 117.38 <
2 -11 7 0 65.23 173.23 136.44 <
2 -11 7 1 138.26 187.95 130.27 <
2 -11 7 2 488.45 365.29 200.90 <
3 -11 7 -2 26.79 123.27 104.90 <
3 -11 7 -1 467.57 -52.44 103.35 <
3 -11 7 0 564.43 412.77 194.67 <
3 -11 7 1 500.51 707.48 412.49 <
3 -11 7 2 11.41 -268.58 288.30 <
4 -11 7 -2 61.35 406.53 223.52 <
4 -11 7 -1 85.21 90.11 121.47 <
4 -11 7 0 89.38 460.53 331.33 <
4 -11 7 1 156.61 259.28 361.63 <
4 -11 7 2 68.82 166.40 350.15 <
5 -11 7 -2 8.74 206.54 181.43 <
-5 -12 7 2 60.99 177.49 287.21 <
-4 -12 7 -2 46.02 -37.83 98.22 <
-4 -12 7 -1 65.76 -239.02 339.89 <
-4 12 7 0 576.73 343.28 276.76 <
-4 -12 7 0 564.51 1045.66 549.16 <
-4 12 7 1 119.82 427.38 290.30 <
-4 -12 7 1 124.78 -13.67 246.52 <
-4 12 7 2 118.88 478.21 319.04 <
-4 -12 7 2 122.84 267.06 337.91 <
-3 12 7 -2 195.56 75.63 200.69 <
-3 -12 7 -2 194.30 -7.13 256.80 <
-3 12 7 -1 339.36 162.64 211.97 <
-3 -12 7 -1 344.96 550.80 335.55 <
-3 12 7 0 571.96 569.28 294.52 <
-3 -12 7 0 573.06 509.93 354.41 <
-3 12 7 1 32.48 203.47 218.45 <
-3 -12 7 1 37.39 139.96 112.03 <
-3 -12 7 2 187.66 98.92 157.16 <
-2 12 7 -2 946.99 834.79 324.19 <
-2 -12 7 -2 923.07 612.13 165.79 o
-2 12 7 -1 199.85 193.56 129.79 <
-2 -12 7 -1 200.41 161.99 111.24 <
-2 12 7 0 1707.04 1663.57 498.68 o
-2 -12 7 0 1729.66 1191.34 227.60 o
-2 12 7 1 140.37 331.59 269.73 <
-2 -12 7 1 142.29 157.53 113.03 <
-2 12 7 2 313.63 108.24 195.17 <
-2 -12 7 2 311.13 190.54 96.75 <
-1 12 7 -2 466.35 444.79 234.38 <
-1 -12 7 -2 434.52 407.26 140.42 <
-1 12 7 -1 444.30 362.04 230.93 <
-1 -12 7 -1 513.22 439.96 124.62 o
-1 12 7 0 934.75 298.80 296.37 <
-1 -12 7 0 953.11 344.89 120.88 <
-1 12 7 1 273.03 563.45 344.02 <
-1 -12 7 1 289.12 138.36 108.97 <
-1 12 7 2 314.46 126.23 181.23 <
-1 -12 7 2 328.87 144.29 101.01 <
0 -12 7 -2 138.27 9.87 98.48 <
0 -12 7 -1 125.25 4.85 108.66 <
0 12 7 0 10156.20 7949.26 962.17 o
0 -12 7 0 10133.10 8863.50 691.74 o
0 12 7 1 58.79 417.99 284.91 <
0 -12 7 1 63.70 43.55 89.38 <
0 12 7 2 330.96 538.21 395.72 <
0 -12 7 2 325.70 661.67 220.49 o
1 -12 7 -2 241.87 186.12 100.27 <
1 -12 7 -1 271.76 178.64 72.59 <
1 -12 7 0 639.75 134.10 133.79 <
1 -12 7 1 215.17 277.13 167.40 <
1 -12 7 2 257.51 68.03 129.44 <
2 -12 7 -2 43.52 22.05 85.16 <
2 -12 7 -1 130.67 -26.63 86.51 <
2 -12 7 0 2865.72 2479.07 412.01 o
2 -12 7 1 192.15 46.16 102.05 <
2 -12 7 2 166.40 120.46 126.66 <
3 -12 7 -2 90.88 105.29 91.49 <
3 -12 7 -1 20.06 58.77 71.03 <
3 -12 7 0 311.89 268.21 187.90 <
3 -12 7 1 404.84 65.20 133.09 <
3 -12 7 2 160.10 17.26 171.77 <
4 -12 7 -2 13.51 301.58 185.10 <
4 -12 7 -1 108.90 -387.98 296.22 <
4 -12 7 0 1411.65 1373.20 577.02 <
4 -12 7 1 154.40 255.88 295.10 <
5 -12 7 -2 39.48 99.25 219.84 <
-4 -13 7 -2 4.50 336.17 282.87 <
-4 -13 7 -1 151.65 435.98 392.96 <
-4 13 7 0 754.71 1339.00 523.56 <
-4 -13 7 0 775.89 729.64 467.12 <
-4 13 7 1 16.59 -0.39 198.40 <
-4 -13 7 1 14.40 42.09 137.23 <
-4 13 7 2 37.93 179.73 189.75 <
-4 -13 7 2 38.51 -504.19 368.42 <
-3 13 7 -2 12.13 -142.44 110.96 <
-3 -13 7 -2 16.16 28.94 225.76 <
-3 13 7 -1 12.15 -150.21 152.92 <
-3 -13 7 -1 10.79 308.56 387.37 <
-3 13 7 0 984.36 1124.47 410.88 <
-3 -13 7 0 996.55 672.61 465.44 <
-3 13 7 1 215.58 642.76 337.54 <
-3 -13 7 1 232.18 175.40 117.42 <
-3 13 7 2 64.31 4.18 210.99 <
-3 -13 7 2 62.94 77.05 66.66 <
-2 13 7 -2 8.32 238.51 258.86 <
-2 -13 7 -2 7.29 48.79 72.42 <
-2 13 7 -1 178.35 130.36 178.49 <
-2 -13 7 -1 172.94 177.93 111.85 <
-2 13 7 0 1937.26 1831.62 495.73 o
-2 -13 7 0 1921.38 1354.57 234.71 o
-2 13 7 1 84.32 628.13 384.72 <
-2 -13 7 1 81.79 163.95 119.14 <
-2 13 7 2 53.69 22.46 215.58 <
-2 -13 7 2 50.40 97.48 130.55 <
-1 13 7 -2 4.93 -81.24 112.70 <
-1 -13 7 -2 6.98 -13.55 68.07 <
-1 13 7 -1 150.96 205.49 228.99 <
-1 -13 7 -1 164.47 127.29 95.31 <
-1 13 7 0 2706.54 3631.28 654.24 o
-1 -13 7 0 2723.94 3167.43 309.65 o
-1 13 7 1 159.16 31.68 109.12 <
-1 -13 7 1 164.17 26.33 101.81 <
-1 13 7 2 83.21 -98.85 149.64 <
-1 -13 7 2 82.32 265.17 142.66 <
0 13 7 -2 154.63 430.88 339.61 <
0 -13 7 -2 154.98 159.47 103.29 <
0 13 7 -1 157.25 548.99 286.58 <
0 -13 7 -1 157.55 205.58 121.31 <
0 13 7 0 10212.00 9677.74 1086.44 o
0 -13 7 0 10267.90 10389.30 625.65 o
0 -13 7 1 93.88 5.48 107.03 <
0 13 7 2 79.21 259.26 281.52 <
0 -13 7 2 78.86 -16.83 96.51 <
1 -13 7 -2 386.38 207.64 131.18 <
1 -13 7 -1 208.99 94.96 108.36 <
1 -13 7 0 1707.72 2221.88 365.39 o
1 -13 7 1 367.62 288.69 158.47 <
1 -13 7 2 136.79 196.16 134.27 <
2 -13 7 -2 96.71 171.68 137.86 <
2 -13 7 -1 222.43 111.27 171.12 <
2 -13 7 0 2063.64 1640.50 341.11 o
2 -13 7 1 167.20 451.03 215.06 <
2 -13 7 2 1067.29 1124.88 319.37 o
3 -13 7 -2 337.01 256.06 92.85 <
3 -13 7 -1 189.19 52.57 118.79 <
3 -13 7 0 413.96 653.22 209.97 o
3 -13 7 1 219.92 171.55 117.46 <
3 -13 7 2 128.05 -64.33 191.40 <
4 -13 7 -2 18.02 26.07 119.51 <
4 -13 7 -1 42.59 634.54 403.76 <
4 -13 7 0 1045.37 1181.67 599.17 <
4 -13 7 1 71.00 430.79 441.01 <
5 -13 7 -2 152.84 -142.62 117.12 <
-4 -14 7 -2 82.11 -84.74 210.62 <
-4 -14 7 -1 332.32 458.27 311.80 <
-4 -14 7 0 155.20 316.83 409.01 <
-4 14 7 1 229.76 218.71 257.32 <
-4 -14 7 1 220.68 326.39 296.60 <
-4 14 7 2 233.33 -68.01 243.06 <
-4 -14 7 2 227.23 216.82 291.06 <
-3 14 7 -2 19.52 -171.25 203.73 <
-3 -14 7 -2 21.11 329.04 351.85 <
-3 14 7 -1 148.08 410.16 357.54 <
-3 -14 7 -1 180.82 136.23 258.91 <
-3 14 7 0 996.60 804.09 345.02 <
-3 -14 7 0 1002.79 1404.53 595.56 <
-3 14 7 1 58.81 162.97 241.10 <
-3 -14 7 1 63.28 -99.92 109.59 <
-3 14 7 2 116.42 51.98 227.12 <
-3 -14 7 2 106.85 265.34 268.54 <
-2 14 7 -2 42.72 185.23 242.71 <
-2 -14 7 -2 41.27 101.01 102.40 <
-2 14 7 -1 1083.68 904.67 377.74 <
-2 -14 7 -1 1108.42 782.70 213.36 o
-2 14 7 0 827.10 31.70 157.68 <
-2 -14 7 0 791.69 551.45 198.69 <
-2 14 7 1 526.15 261.54 189.14 <
-2 -14 7 1 521.45 154.34 142.77 <
-2 14 7 2 448.64 68.79 145.42 <
-2 -14 7 2 439.29 189.97 128.64 <
-1 14 7 -2 15.08 31.24 223.65 <
-1 -14 7 -2 14.59 50.50 113.44 <
-1 14 7 -1 796.36 482.97 207.80 <
-1 -14 7 -1 734.67 695.81 160.99 o
-1 14 7 0 1756.54 1499.90 489.75 o
-1 -14 7 0 1771.37 2175.01 269.86 o
-1 14 7 1 39.49 -33.72 268.93 <
-1 -14 7 1 34.38 101.96 88.00 <
-1 14 7 2 125.60 -37.28 158.44 <
-1 -14 7 2 119.31 121.53 131.10 <
0 14 7 -2 47.74 188.88 269.76 <
0 -14 7 -2 45.00 30.35 68.76 <
0 14 7 -1 1894.03 1465.75 501.27 <
0 -14 7 -1 1919.00 1082.24 206.15 o
0 14 7 0 645.07 923.93 414.49 <
0 -14 7 0 714.25 354.80 141.82 <
0 14 7 1 1107.70 928.98 439.07 <
0 -14 7 1 1090.55 1365.50 249.36 o
0 14 7 2 552.35 1021.52 431.61 <
0 -14 7 2 550.80 500.53 192.66 <
1 -14 7 -2 25.81 -64.83 112.96 <
1 -14 7 -1 77.30 223.06 150.68 <
1 -14 7 0 1752.80 1950.06 282.48 o
1 -14 7 1 52.97 287.48 146.32 <
1 -14 7 2 134.96 174.69 123.42 <
2 -14 7 -2 67.14 124.86 107.88 <
2 -14 7 -1 373.78 285.61 141.47 <
2 -14 7 0 548.31 309.43 142.68 <
2 -14 7 1 887.09 867.34 211.56 o
2 -14 7 2 580.74 267.13 148.70 <
3 -14 7 -2 25.42 74.31 106.46 <
3 -14 7 -1 3.65 122.47 118.09 <
3 -14 7 0 908.50 1254.52 265.36 o
3 -14 7 1 27.20 199.43 143.92 <
3 -14 7 2 10.20 205.21 164.18 <
4 -14 7 -2 105.08 -112.81 156.29 <
4 -14 7 -1 131.07 194.49 177.12 <
4 -14 7 0 42.71 73.14 148.86 <
4 -14 7 1 158.48 1099.16 596.36 <
-4 -15 7 -1 49.67 1633.24 675.96 <
-4 -15 7 0 388.92 416.62 378.90 <
-4 -15 7 1 6.53 -169.80 332.54 <
-4 15 7 2 86.72 71.55 280.17 <
-4 -15 7 2 86.67 272.50 169.93 <
-3 15 7 -2 77.15 599.00 340.00 <
-3 -15 7 -2 77.98 -303.08 361.35 <
-3 15 7 -1 237.82 673.78 355.96 <
-3 -15 7 -1 235.68 280.30 422.55 <
-3 15 7 0 1301.70 915.97 413.48 <
-3 -15 7 0 1318.82 1246.60 688.09 <
-3 15 7 1 88.10 -270.37 301.63 <
-3 -15 7 1 91.68 67.03 160.10 <
-3 15 7 2 125.13 218.88 214.54 <
-3 -15 7 2 129.24 78.94 129.21 <
-2 15 7 -2 75.22 478.97 292.22 <
-2 -15 7 -2 67.03 120.75 137.03 <
-2 15 7 -1 129.82 604.91 374.48 <
-2 -15 7 -1 139.13 -53.68 121.86 <
-2 15 7 0 794.87 1410.74 472.16 <
-2 -15 7 0 791.68 980.67 256.65 o
-2 15 7 1 183.54 -241.51 301.39 <
-2 -15 7 1 168.15 136.97 103.72 <
-2 -15 7 2 46.25 -92.57 78.70 <
-1 15 7 -2 125.29 66.40 89.57 <
-1 -15 7 -2 127.91 -86.68 143.99 <
-1 15 7 -1 106.10 -85.24 155.60 <
-1 -15 7 -1 142.50 203.56 109.29 <
-1 15 7 0 2061.67 1279.61 442.31 <
-1 -15 7 0 2101.05 1484.69 230.63 o
-1 15 7 1 77.60 179.95 114.77 <
-1 -15 7 1 76.37 248.93 122.27 <
-1 15 7 2 149.31 154.88 180.23 <
-1 -15 7 2 150.03 -27.15 119.44 <
0 15 7 -2 196.28 537.88 355.52 <
0 -15 7 -2 196.49 108.01 77.44 <
0 15 7 -1 66.47 277.41 203.80 <
0 -15 7 -1 64.55 65.00 132.66 <
0 15 7 0 4774.34 4676.28 811.90 o
0 -15 7 0 4821.97 5407.03 477.73 o
0 15 7 1 304.76 476.86 371.33 <
0 -15 7 1 325.77 137.79 120.07 <
0 15 7 2 7.93 572.67 292.93 <
0 -15 7 2 7.53 117.79 130.23 <
1 -15 7 -2 224.80 120.36 102.16 <
1 -15 7 -1 341.87 649.87 178.82 o
1 -15 7 0 1774.28 1578.02 283.36 o
1 -15 7 1 246.20 40.59 116.70 <
1 -15 7 2 232.77 262.32 137.09 <
2 -15 7 -2 210.50 185.42 114.36 <
2 -15 7 -1 1.10 114.79 98.86 <
2 -15 7 0 361.44 1011.11 275.08 o
2 -15 7 1 548.34 388.20 174.47 <
2 -15 7 2 376.46 323.89 172.51 <
3 -15 7 -2 71.11 45.63 136.73 <
3 -15 7 -1 142.24 289.02 136.16 <
3 -15 7 0 1081.58 1296.04 267.80 o
3 -15 7 1 96.93 111.72 132.38 <
3 -15 7 2 53.47 73.88 101.14 <
4 -15 7 -2 66.48 -113.14 187.06 <
4 -15 7 -1 6.77 288.93 245.62 <
4 -15 7 0 287.96 166.69 189.43 <
-4 -16 7 0 170.28 677.24 535.06 <
-4 -16 7 1 36.82 4.18 337.85 <
-4 16 7 2 53.85 -209.30 214.25 <
-4 -16 7 2 58.48 -220.30 391.79 <
-3 -16 7 -2 31.05 219.95 343.67 <
-3 16 7 -1 281.51 212.67 147.03 <
-3 -16 7 -1 286.31 -100.94 347.80 <
-3 16 7 0 530.56 129.99 122.88 <
-3 -16 7 0 544.67 1027.07 679.70 <
-3 -16 7 1 57.39 -103.20 165.55 <
-3 16 7 2 40.67 -89.88 172.29 <
-3 -16 7 2 35.93 241.32 234.78 <
-2 16 7 -2 286.86 578.43 315.37 <
-2 -16 7 -2 304.88 122.51 189.73 <
-2 16 7 -1 495.57 927.63 424.42 <
-2 -16 7 -1 478.95 550.49 179.43 o
-2 16 7 0 135.99 240.88 309.32 <
-2 -16 7 0 138.02 556.90 186.42 <
-2 16 7 1 84.37 -235.78 236.91 <
-2 -16 7 1 90.91 -90.38 118.64 <
-2 16 7 2 68.74 -239.75 126.42 <
-2 -16 7 2 74.93 -23.41 140.97 <
-1 16 7 -2 204.00 35.41 105.35 <
-1 -16 7 -2 185.53 105.44 140.44 <
-1 16 7 -1 108.15 -252.06 195.66 <
-1 -16 7 -1 98.04 62.24 92.88 <
-1 16 7 0 746.03 657.67 319.17 <
-1 -16 7 0 743.28 1263.76 292.95 o
-1 16 7 1 233.43 247.84 232.30 <
-1 -16 7 1 236.05 197.32 159.95 <
-1 16 7 2 129.72 636.22 367.42 <
-1 -16 7 2 121.19 157.27 188.95 <
0 16 7 -2 159.15 474.58 320.83 <
0 -16 7 -2 158.48 143.64 120.73 <
0 16 7 -1 434.89 587.45 301.78 <
0 -16 7 -1 412.93 299.59 163.12 <
0 16 7 0 2593.66 3212.15 675.17 o
0 -16 7 0 2617.59 3295.17 379.89 o
0 16 7 1 133.03 212.82 350.67 <
0 -16 7 1 146.12 81.72 107.92 <
0 16 7 2 130.72 611.65 362.31 <
0 -16 7 2 135.40 344.91 160.51 <
1 -16 7 -2 316.27 -35.89 102.98 <
1 -16 7 -1 213.97 362.65 140.09 <
1 -16 7 0 821.90 1105.14 243.15 o
1 -16 7 1 3.14 -154.18 115.12 <
1 -16 7 2 183.38 145.12 150.32 <
2 -16 7 -2 206.16 241.52 138.34 <
2 -16 7 -1 187.21 386.26 159.88 <
2 -16 7 0 234.68 483.12 160.20 o
2 -16 7 1 34.18 306.52 183.23 <
2 -16 7 2 55.12 142.53 145.64 <
3 -16 7 -2 171.48 -110.86 93.74 <
3 -16 7 -1 14.57 147.03 130.73 <
3 -16 7 0 572.94 651.96 201.41 o
3 -16 7 1 308.07 368.07 189.29 <
3 -16 7 2 159.95 17.59 88.01 <
4 -16 7 -2 106.45 212.08 211.52 <
4 -16 7 -1 20.16 -6.39 167.75 <
4 -16 7 0 262.72 321.13 274.60 <
-4 -17 7 2 59.87 303.39 319.04 <
-3 -17 7 -2 123.34 -346.83 433.51 <
-3 17 7 -1 154.61 -79.74 207.12 <
-3 -17 7 -1 167.98 271.24 395.83 <
-3 17 7 0 109.27 167.07 277.65 <
-3 -17 7 0 110.58 -355.39 448.05 <
-3 17 7 1 174.69 315.43 175.16 <
-3 -17 7 1 156.59 245.76 275.80 <
-3 17 7 2 54.52 -41.42 144.49 <
-3 -17 7 2 57.57 -43.50 130.27 <
-2 17 7 -2 599.28 573.39 379.96 <
-2 -17 7 -2 560.11 892.54 331.61 <
-2 17 7 -1 427.41 641.61 413.48 <
-2 -17 7 -1 402.23 11.18 214.69 <
-2 -17 7 0 530.85 275.58 177.08 <
-2 17 7 1 27.85 38.85 136.10 <
-2 -17 7 1 30.65 -147.07 179.77 <
-2 17 7 2 252.86 -144.62 305.02 <
-2 -17 7 2 234.35 50.50 106.49 <
-1 17 7 -2 144.78 210.43 315.32 <
-1 -17 7 -2 132.02 -31.41 164.95 <
-1 17 7 -1 890.34 432.85 286.52 <
-1 -17 7 -1 903.39 730.29 214.84 o
-1 17 7 0 174.18 69.14 215.78 <
-1 -17 7 0 174.04 45.22 114.22 <
-1 17 7 1 354.28 607.34 456.66 <
-1 -17 7 1 341.00 108.27 151.12 <
-1 17 7 2 122.61 317.37 251.00 <
-1 -17 7 2 125.05 229.12 184.92 <
0 -17 7 -2 105.42 111.97 97.05 <
0 17 7 -1 330.16 388.53 320.65 <
0 -17 7 -1 322.44 -27.76 153.23 <
0 17 7 0 1160.97 2704.81 666.85 o
0 -17 7 0 1083.25 1399.44 323.00 o
0 17 7 1 36.18 565.36 425.96 <
0 -17 7 1 44.76 162.68 134.49 <
0 17 7 2 282.84 745.05 414.61 <
0 -17 7 2 287.57 276.06 166.29 <
1 -17 7 -2 184.26 393.72 213.19 <
1 -17 7 -1 86.51 140.88 163.27 <
1 -17 7 0 186.46 157.34 122.70 <
1 -17 7 1 455.77 680.33 213.84 o
1 -17 7 2 203.44 55.53 105.46 <
2 -17 7 -2 91.71 263.91 177.77 <
2 -17 7 -1 14.07 -83.96 91.25 <
2 -17 7 0 243.42 514.08 174.30 <
2 -17 7 1 13.34 128.27 113.12 <
2 -17 7 2 146.39 -52.96 96.55 <
3 -17 7 -2 248.01 218.78 120.01 <
3 -17 7 -1 40.03 269.43 146.03 <
3 -17 7 0 86.77 -83.48 189.29 <
3 -17 7 1 264.50 -63.22 159.42 <
3 -17 7 2 67.87 -74.42 206.77 <
4 -17 7 -2 64.08 27.79 200.21 <
4 -17 7 -1 2.65 379.03 207.77 <
-3 -18 7 -2 66.48 -256.61 275.71 <
-3 -18 7 -1 144.40 -20.20 162.92 <
-3 18 7 0 6.24 700.70 386.16 <
-3 -18 7 0 5.52 39.78 362.98 <
-3 18 7 1 47.95 35.55 159.07 <
-3 -18 7 1 45.70 -289.39 229.47 <
-3 18 7 2 3.74 -307.39 264.50 <
-3 -18 7 2 4.13 -349.57 311.65 <
-2 18 7 -2 69.48 103.46 199.06 <
-2 -18 7 -2 84.81 -19.54 213.23 <
-2 18 7 -1 265.77 156.62 229.62 <
-2 -18 7 -1 238.65 576.84 370.22 <
-2 18 7 0 732.76 834.62 281.21 <
-2 -18 7 0 738.10 859.40 257.93 o
-2 18 7 1 147.88 -120.03 162.73 <
-2 -18 7 1 143.63 -24.50 132.51 <
-2 18 7 2 13.37 -342.42 330.13 <
-2 -18 7 2 14.71 63.39 177.82 <
-1 18 7 -2 153.63 318.67 171.53 <
-1 -18 7 -2 154.90 32.59 123.49 <
-1 18 7 -1 487.90 254.93 240.17 <
-1 -18 7 -1 504.12 354.83 171.69 <
-1 18 7 0 67.91 -309.52 226.17 <
-1 -18 7 0 76.25 97.16 124.44 <
-1 18 7 1 81.21 283.24 207.14 <
-1 -18 7 1 69.40 -20.68 102.29 <
-1 18 7 2 67.01 -108.20 121.68 <
-1 -18 7 2 66.13 -99.20 136.33 <
0 18 7 -2 153.68 177.79 163.88 <
0 -18 7 -2 167.73 -38.42 134.12 <
0 18 7 -1 482.89 377.35 215.04 <
0 -18 7 -1 442.00 419.40 171.47 <
0 18 7 0 751.47 1582.41 540.32 <
0 -18 7 0 752.36 1034.74 271.15 o
0 18 7 1 146.63 987.09 538.64 <
0 -18 7 1 139.65 505.73 213.64 <
0 -18 7 2 50.26 283.28 215.23 <
1 -18 7 -2 293.23 257.61 147.46 <
1 -18 7 -1 44.02 430.72 191.38 <
1 -18 7 0 40.09 -46.02 149.46 <
1 -18 7 1 624.23 1102.23 326.11 o
1 -18 7 2 138.07 67.92 121.01 <
2 -18 7 -2 136.62 95.24 147.40 <
2 -18 7 -1 142.68 76.50 161.82 <
2 -18 7 0 283.23 675.50 251.91 <
2 -18 7 1 13.64 154.90 161.99 <
2 -18 7 2 21.22 -22.78 145.70 <
3 -18 7 -2 178.49 167.43 162.51 <
3 -18 7 -1 18.07 160.25 158.95 <
3 -18 7 0 41.99 91.03 184.01 <
3 -18 7 1 142.26 -73.87 141.21 <
3 -18 7 2 70.00 -126.12 239.25 <
4 -18 7 -2 133.59 -286.37 200.45 <
4 -18 7 -1 63.16 -534.03 395.70 <
-3 -19 7 -1 422.29 384.27 572.47 <
-3 -19 7 0 186.87 -265.80 542.58 <
-3 19 7 1 107.81 -605.04 303.74 <
-3 -19 7 1 112.12 -170.51 137.14 <
-3 19 7 2 345.07 594.26 359.91 <
-3 -19 7 2 346.62 232.08 240.34 <
-2 19 7 -2 240.26 322.61 268.39 <
-2 -19 7 -2 205.02 542.38 335.63 <
-2 19 7 -1 24.46 389.90 437.72 <
-2 -19 7 -1 27.51 -337.76 207.23 <
-2 19 7 0 68.67 292.37 242.49 <
-2 -19 7 0 69.11 418.12 206.58 <
-2 -19 7 1 245.60 385.40 182.68 <
-2 19 7 2 159.58 34.18 174.53 <
-2 -19 7 2 163.02 -54.03 167.36 <
-1 19 7 -2 99.96 328.18 129.18 <
-1 -19 7 -2 93.33 165.12 161.42 <
-1 19 7 -1 1739.01 838.36 422.20 <
-1 -19 7 -1 1693.57 1207.84 338.59 o
-1 19 7 0 338.29 140.25 252.69 <
-1 -19 7 0 352.65 155.32 151.95 <
-1 19 7 1 195.21 289.67 310.06 <
-1 -19 7 1 198.99 9.80 179.34 <
-1 19 7 2 346.20 241.76 274.89 <
-1 -19 7 2 354.02 222.58 198.08 <
0 19 7 -2 239.74 388.81 279.36 <
0 -19 7 -2 234.66 403.50 212.60 <
0 19 7 -1 25.08 556.93 340.00 <
0 -19 7 -1 27.11 30.96 140.66 <
0 19 7 0 14.78 641.32 424.38 <
0 -19 7 0 12.86 126.57 162.70 <
0 19 7 1 112.18 513.23 398.11 <
0 -19 7 1 127.60 278.65 187.73 <
0 19 7 2 172.55 192.38 387.55 <
0 -19 7 2 167.06 241.62 159.68 <
1 -19 7 -2 64.23 -20.04 99.38 <
1 -19 7 -1 496.49 -28.00 154.84 <
1 -19 7 0 242.60 339.00 252.34 <
1 -19 7 1 732.43 1345.94 344.13 o
1 -19 7 2 258.26 193.79 181.12 <
2 -19 7 -2 155.71 96.68 190.69 <
2 -19 7 -1 21.06 -199.58 187.01 <
2 -19 7 0 87.31 27.81 110.83 <
2 -19 7 1 12.04 115.79 120.68 <
2 -19 7 2 103.84 199.43 150.92 <
3 -19 7 -2 20.15 61.59 181.16 <
3 -19 7 -1 238.71 61.63 183.42 <
3 -19 7 0 343.65 458.23 267.32 <
-3 20 7 2 140.23 -149.62 199.25 <
-3 -20 7 2 140.39 -691.20 347.68 <
-2 20 7 -2 36.07 389.92 231.58 <
-2 -20 7 -2 25.78 180.12 192.10 <
-2 20 7 -1 119.36 498.53 345.31 <
-2 -20 7 -1 110.20 265.24 269.50 <
-2 20 7 0 154.30 38.79 250.52 <
-2 -20 7 0 153.22 522.71 320.80 <
-2 20 7 1 181.07 -540.80 381.66 <
-2 -20 7 1 184.07 92.83 129.42 <
-2 20 7 2 93.35 -378.13 296.43 <
-2 -20 7 2 95.81 184.60 232.47 <
-1 20 7 -2 11.42 102.64 205.03 <
-1 -20 7 -2 17.06 63.68 183.36 <
-1 -20 7 -1 202.21 39.37 93.68 <
-1 20 7 0 269.88 118.01 116.03 <
-1 -20 7 0 260.81 340.31 237.49 <
-1 20 7 1 107.03 164.21 308.45 <
-1 -20 7 1 112.31 -218.90 119.49 <
-1 20 7 2 246.23 316.19 352.87 <
-1 -20 7 2 231.50 135.60 147.70 <
0 20 7 -2 42.63 334.93 317.82 <
0 -20 7 -2 48.49 251.82 191.90 <
0 20 7 -1 77.97 336.35 329.78 <
0 -20 7 -1 68.42 56.77 153.94 <
0 20 7 0 22.06 344.89 336.57 <
0 -20 7 0 23.37 -100.74 163.51 <
0 -20 7 1 282.27 -131.49 184.54 <
0 20 7 2 176.15 64.14 230.49 <
0 -20 7 2 176.48 251.12 191.10 <
1 -20 7 -2 2.22 99.49 83.37 <
1 -20 7 -1 13.14 119.22 119.72 <
1 -20 7 0 203.88 437.44 218.97 <
1 -20 7 1 614.84 634.11 306.06 <
1 -20 7 2 464.99 200.90 224.23 <
2 -20 7 -2 64.24 25.65 156.32 <
2 -20 7 -1 48.49 269.37 173.55 <
2 -20 7 0 262.21 552.17 231.17 <
2 -20 7 1 237.74 132.23 97.92 <
2 -20 7 2 206.05 157.58 225.86 <
3 -20 7 -2 4.43 161.99 157.45 <
3 -20 7 -1 13.78 -74.81 189.77 <
3 -20 7 0 105.75 -199.12 243.58 <
-2 -21 7 -2 131.47 -294.39 195.56 <
-2 21 7 -1 195.48 840.66 502.84 <
-2 -21 7 -1 196.79 309.67 289.82 <
-2 21 7 0 754.69 1002.74 462.58 <
-2 -21 7 0 747.05 864.67 307.83 <
-2 21 7 1 20.09 -343.76 349.54 <
-2 -21 7 1 21.09 36.89 200.30 <
-2 21 7 2 97.74 13.31 142.01 <
-2 -21 7 2 100.43 -13.59 121.07 <
-1 21 7 -2 305.13 179.10 238.19 <
-1 -21 7 -2 301.36 97.46 143.42 <
-1 21 7 -1 253.72 193.71 250.32 <
-1 -21 7 -1 197.63 -28.11 185.95 <
-1 21 7 0 226.89 516.66 294.37 <
-1 -21 7 0 225.69 670.07 271.74 <
-1 21 7 1 133.35 767.03 380.37 <
-1 -21 7 1 127.73 266.11 182.27 <
-1 21 7 2 4.24 473.10 402.76 <
-1 -21 7 2 5.75 -220.21 204.17 <
0 21 7 -2 199.55 -101.90 112.07 <
0 -21 7 -2 197.75 35.57 132.27 <
0 21 7 -1 204.30 247.38 355.05 <
0 -21 7 -1 206.00 116.03 223.51 <
0 21 7 0 571.25 557.49 325.76 <
0 -21 7 0 570.36 647.33 271.13 <
0 21 7 1 46.30 654.78 491.23 <
0 -21 7 1 50.96 388.39 268.71 <
0 21 7 2 65.20 120.73 234.86 <
0 -21 7 2 67.23 138.49 191.27 <
1 -21 7 -2 312.84 329.63 169.82 <
1 -21 7 -1 309.67 226.84 162.97 <
1 -21 7 0 210.52 547.49 295.19 <
1 -21 7 1 25.00 -100.31 233.86 <
1 -21 7 2 14.11 36.96 185.47 <
2 -21 7 -2 171.38 167.79 183.38 <
2 -21 7 -1 99.32 76.42 158.95 <
2 -21 7 0 926.93 828.90 316.15 <
2 -21 7 1 21.91 -57.03 256.08 <
3 -21 7 -2 180.00 217.15 286.80 <
3 -21 7 -1 67.55 -618.59 425.94 <
-2 -22 7 -2 2.62 -298.28 246.88 <
-2 -22 7 -1 370.10 369.40 245.86 <
-2 22 7 0 352.53 -69.55 219.93 <
-2 22 7 1 318.54 -384.16 331.70 <
-2 22 7 2 436.43 391.26 366.02 <
-2 -22 7 2 429.61 464.08 320.78 <
-1 22 7 -2 91.04 235.02 137.66 <
-1 -22 7 -2 88.62 228.40 182.08 <
-1 22 7 -1 51.65 100.27 162.42 <
-1 -22 7 -1 39.84 254.78 171.99 <
-1 22 7 0 414.90 667.32 411.98 <
-1 -22 7 0 433.54 427.36 190.27 <
-1 22 7 1 111.58 95.66 229.84 <
-1 -22 7 1 107.61 -38.96 153.62 <
-1 22 7 2 131.46 880.12 572.21 <
-1 -22 7 2 138.09 32.00 198.60 <
0 22 7 -2 19.22 619.72 491.84 <
0 -22 7 -2 22.96 183.21 195.27 <
0 22 7 -1 186.93 -186.19 232.91 <
0 -22 7 -1 195.54 -239.65 197.86 <
0 22 7 0 698.03 404.89 324.78 <
0 -22 7 0 694.09 678.31 302.17 <
0 22 7 1 293.88 319.17 330.61 <
0 -22 7 1 305.69 221.95 144.40 <
0 22 7 2 319.85 365.20 533.32 <
0 -22 7 2 320.65 350.24 209.40 <
1 -22 7 -2 45.68 205.29 200.03 <
1 -22 7 -1 21.61 380.39 261.84 <
1 -22 7 0 422.12 484.55 257.41 <
2 -22 7 -2 15.84 23.67 133.09 <
2 -22 7 -1 137.54 259.45 319.09 <
-1 23 7 -2 143.38 222.60 271.23 <
-1 -23 7 -2 126.07 -295.65 297.63 <
-1 23 7 -1 167.87 1252.34 470.20 <
-1 -23 7 -1 171.34 684.15 339.11 <
-1 23 7 0 257.08 150.42 144.68 <
-1 -23 7 0 245.21 410.09 301.00 <
0 23 7 -2 141.85 154.18 406.46 <
0 -23 7 -2 144.11 179.49 167.01 <
0 23 7 -1 38.91 440.90 319.80 <
0 -23 7 -1 45.86 169.14 191.88 <
0 23 7 0 19.00 293.43 358.72 <
1 -23 7 -2 128.90 590.63 289.71 <
-5 0 8 -2 0.48 -169.45 169.84 <
-5 0 8 -1 2.91 72.79 223.26 <
-5 0 8 0 66.28 -118.64 168.38 <
-5 0 8 1 59.88 224.52 107.81 <
-5 0 8 2 31.56 382.31 250.06 <
-4 0 8 -2 7.65 24.54 154.36 <
-4 0 8 -1 157.45 7.17 149.14 <
-4 0 8 0 38.54 -15.13 141.07 <
-4 0 8 1 197.12 449.16 331.35 <
-4 0 8 2 43.92 187.06 226.49 <
-3 0 8 -2 50.17 31.31 84.61 <
-3 0 8 -1 14.98 80.61 81.46 <
-3 0 8 0 97.85 163.73 94.55 <
-3 0 8 1 142.82 -162.01 163.75 <
-3 0 8 2 7.41 21.63 83.24 <
-2 0 8 -2 0.89 -37.29 60.74 <
-2 0 8 -1 306.57 133.51 81.98 <
-2 0 8 0 1184.66 1388.61 238.43 o
-2 0 8 1 145.28 28.87 71.07 <
-2 0 8 2 82.27 -42.15 208.41 <
-1 0 8 -2 167.26 23.33 80.96 <
-1 0 8 -1 25.46 51.05 75.55 <
-1 0 8 0 371.42 74.18 52.46 <
-1 0 8 1 292.01 -58.27 86.85 <
-1 0 8 2 103.42 206.34 142.51 <
0 0 8 -2 278.39 162.68 113.72 <
0 0 8 -1 622.00 469.49 145.86 o
0 0 8 0 192.42 288.46 139.09 <
0 0 8 1 15.43 -53.77 94.96 <
0 0 8 2 490.31 237.06 120.92 <
1 0 8 -2 329.78 141.59 91.07 <
1 0 8 -1 264.42 213.71 144.23 <
1 0 8 0 313.36 159.97 127.73 <
1 0 8 1 123.37 84.74 76.14 <
1 0 8 2 335.86 287.23 178.14 <
2 0 8 -2 367.89 48.78 81.16 <
2 0 8 -1 551.49 498.23 154.47 o
2 0 8 0 576.20 599.24 139.90 o
2 0 8 1 266.01 430.92 177.06 <
2 0 8 2 390.88 469.57 161.32 <
3 0 8 -2 435.09 153.57 133.34 <
3 0 8 -1 300.33 135.36 122.70 <
3 0 8 0 65.54 243.86 165.58 <
3 0 8 1 53.57 57.42 125.73 <
3 0 8 2 185.26 62.05 80.50 <
4 0 8 -2 163.41 105.92 149.47 <
4 0 8 -1 396.45 291.45 165.05 <
4 0 8 0 24.60 213.30 198.45 <
4 0 8 1 326.54 13.67 135.38 <
4 0 8 2 252.83 323.54 170.29 <
5 0 8 -2 369.85 83.51 171.42 <
5 0 8 -1 384.31 319.65 268.06 <
5 0 8 0 247.68 90.68 190.41 <
5 0 8 1 85.07 -95.12 108.46 <
-5 1 8 -2 5.04 -28.91 103.68 <
-5 -1 8 -2 4.63 -120.20 186.53 <
-5 1 8 -1 468.12 204.34 198.56 <
-5 -1 8 -1 456.78 179.55 233.17 <
-5 1 8 0 231.29 551.58 294.82 <
-5 -1 8 0 234.15 150.68 208.93 <
-5 1 8 1 57.63 -0.74 214.36 <
-5 -1 8 1 58.25 427.11 274.24 <
-5 1 8 2 271.16 -133.70 165.58 <
-5 -1 8 2 279.00 13.93 158.58 <
-4 1 8 -2 22.41 99.01 131.10 <
-4 -1 8 -2 30.68 91.16 161.01 <
-4 1 8 -1 77.49 257.50 196.73 <
-4 -1 8 -1 76.88 103.61 94.31 <
-4 1 8 0 328.55 431.66 289.19 <
-4 -1 8 0 306.77 327.30 170.57 <
-4 1 8 1 134.73 -29.26 222.65 <
-4 -1 8 1 126.54 89.01 136.60 <
-4 1 8 2 25.74 429.64 318.67 <
-4 -1 8 2 24.37 -66.81 132.34 <
-3 1 8 -2 0.04 57.64 123.53 <
-3 -1 8 -2 0.06 40.07 57.77 <
-3 1 8 -1 4377.48 3159.51 386.94 o
-3 -1 8 -1 4376.51 3591.80 422.72 o
-3 1 8 0 1350.71 1289.89 388.81 o
-3 -1 8 0 1377.39 1339.30 291.82 o
-3 1 8 1 40.40 6.35 97.81 <
-3 -1 8 1 38.95 103.24 77.22 <
-3 1 8 2 671.11 700.83 332.30 <
-3 -1 8 2 672.51 920.87 378.59 <
-2 1 8 -2 1506.82 1401.57 241.36 o
-2 -1 8 -2 1473.13 1120.57 210.43 o
-2 1 8 -1 189.42 472.40 152.21 o
-2 -1 8 -1 200.85 314.28 120.12 <
-2 1 8 0 1139.89 1354.20 379.07 o
-2 -1 8 0 1126.52 1161.25 215.34 o
-2 1 8 1 110.07 360.04 248.60 <
-2 -1 8 1 109.04 156.81 94.88 <
-2 1 8 2 138.46 347.20 180.45 <
-2 -1 8 2 139.47 149.01 122.16 <
-1 1 8 -2 43.07 170.64 74.64 <
-1 -1 8 -2 42.46 182.01 105.18 <
-1 1 8 -1 200.37 10.33 56.46 <
-1 -1 8 -1 74.38 90.09 97.75 <
-1 1 8 0 4231.47 3829.01 420.09 o
-1 -1 8 0 4328.19 3664.50 323.13 o
-1 1 8 1 533.71 434.59 158.86 <
-1 -1 8 1 523.73 371.24 158.84 <
-1 1 8 2 905.81 813.38 205.41 o
-1 -1 8 2 913.03 1063.81 249.26 o
0 1 8 -2 342.84 126.18 91.48 <
0 -1 8 -2 345.73 -17.05 92.01 <
0 1 8 -1 28.71 60.96 101.29 <
0 -1 8 -1 42.09 91.88 74.07 <
0 1 8 0 2276.38 2466.25 331.43 o
0 -1 8 0 2282.73 2327.68 322.30 o
0 1 8 1 163.96 -34.63 95.64 <
0 -1 8 1 189.51 50.74 53.37 <
0 1 8 2 188.91 166.18 112.33 <
0 -1 8 2 201.06 337.04 144.16 <
1 1 8 -2 618.44 348.83 114.83 o
1 -1 8 -2 635.03 231.71 120.59 <
1 1 8 -1 5136.54 4707.79 452.07 o
1 -1 8 -1 5153.29 4962.13 325.43 o
1 1 8 0 6437.70 5734.72 501.82 o
1 -1 8 0 6505.92 5329.31 340.76 o
1 1 8 1 3497.35 3571.69 411.64 o
1 -1 8 1 3506.21 3650.48 295.85 o
1 1 8 2 98.99 173.75 106.62 <
1 -1 8 2 103.29 282.47 165.99 <
2 1 8 -2 173.44 15.05 106.77 <
2 -1 8 -2 172.48 0.39 65.64 <
2 1 8 -1 38.57 81.74 97.62 <
2 -1 8 -1 32.26 138.92 106.68 <
2 1 8 0 1269.81 872.47 193.58 o
2 -1 8 0 1273.80 898.38 161.08 o
2 1 8 1 400.36 213.64 130.33 <
2 -1 8 1 416.12 273.32 161.57 <
2 1 8 2 428.15 444.31 187.04 <
2 -1 8 2 396.05 304.59 132.33 <
3 1 8 -2 312.63 260.52 133.21 <
3 -1 8 -2 317.65 234.97 134.73 <
3 1 8 -1 794.24 564.64 198.36 <
3 -1 8 -1 792.18 590.78 197.45 <
3 1 8 0 2270.84 1887.43 356.85 o
3 -1 8 0 2286.77 1920.23 332.04 o
3 1 8 1 112.15 18.35 106.01 <
3 -1 8 1 138.51 320.67 217.69 <
3 1 8 2 40.46 90.99 145.27 <
3 -1 8 2 34.90 170.62 120.47 <
4 1 8 -2 24.31 265.97 163.71 <
4 -1 8 -2 24.86 550.64 231.99 <
4 1 8 -1 225.67 468.79 224.17 <
4 -1 8 -1 198.72 247.04 175.42 <
4 1 8 0 462.09 110.09 134.73 <
4 -1 8 0 454.32 -122.94 143.66 <
4 1 8 1 266.30 -153.66 147.62 <
4 -1 8 1 256.51 236.06 148.96 <
4 1 8 2 242.12 173.29 187.21 <
4 -1 8 2 268.44 -84.16 171.49 <
5 1 8 -2 109.60 370.70 232.67 <
5 -1 8 -2 109.74 46.26 184.32 <
5 1 8 -1 276.38 330.94 263.87 <
5 -1 8 -1 271.46 254.21 195.95 <
5 1 8 0 699.63 496.93 239.19 <
5 -1 8 0 703.72 696.76 304.69 <
5 1 8 1 144.78 22.04 223.01 <
5 -1 8 1 140.81 250.78 182.90 <
-5 2 8 -2 120.78 -217.99 205.43 <
-5 -2 8 -2 122.89 85.62 236.28 <
-5 2 8 -1 50.75 -148.82 178.25 <
-5 -2 8 -1 50.70 486.38 271.23 <
-5 2 8 0 1602.98 1382.35 477.16 <
-5 -2 8 0 1586.69 1162.86 440.16 <
-5 2 8 1 200.95 -36.89 147.73 <
-5 -2 8 1 206.55 -119.47 199.10 <
-5 2 8 2 98.19 -220.21 306.28 <
-5 -2 8 2 95.69 -9.57 251.06 <
-4 2 8 -2 130.83 131.36 134.09 <
-4 -2 8 -2 127.19 311.74 173.40 <
-4 2 8 -1 947.50 494.32 274.89 <
-4 -2 8 -1 936.05 406.50 175.42 <
-4 2 8 0 394.80 245.80 165.79 <
-4 -2 8 0 377.99 508.84 215.58 <
-4 2 8 1 8.60 320.65 228.28 <
-4 -2 8 1 10.87 209.23 163.88 <
-4 2 8 2 130.26 175.32 198.32 <
-4 -2 8 2 121.23 460.71 271.97 <
-3 2 8 -2 264.29 192.47 101.99 <
-3 -2 8 -2 264.23 145.08 85.87 <
-3 2 8 -1 36.89 47.85 102.27 <
-3 -2 8 -1 27.49 83.92 123.25 <
-3 2 8 0 6194.14 5907.23 820.05 o
-3 -2 8 0 6162.11 5743.88 550.21 o
-3 2 8 1 574.28 193.86 111.29 <
-3 -2 8 1 581.93 396.31 142.99 <
-3 2 8 2 300.33 428.79 256.73 <
-3 -2 8 2 290.84 370.76 246.67 <
-2 2 8 -2 70.62 -80.35 56.07 <
-2 -2 8 -2 82.66 63.92 82.09 <
-2 2 8 -1 2045.45 1922.76 267.23 o
-2 -2 8 -1 2050.55 1949.00 294.43 o
-2 2 8 0 2830.32 3259.54 587.04 o
-2 -2 8 0 2768.81 2981.78 354.55 o
-2 2 8 1 6.23 229.02 176.69 <
-2 -2 8 1 6.40 71.48 78.37 <
-2 2 8 2 311.11 253.63 195.80 <
-2 -2 8 2 315.57 303.52 203.21 <
-1 2 8 -2 141.11 -73.40 67.03 <
-1 -2 8 -2 121.96 102.09 97.20 <
-1 2 8 -1 1000.88 1121.57 232.38 o
-1 -2 8 -1 1059.78 1042.35 182.12 o
-1 2 8 0 9295.00 9764.90 675.41 o
-1 -2 8 0 9278.88 8816.90 497.21 o
-1 2 8 1 1024.66 714.29 201.14 o
-1 -2 8 1 1031.27 562.52 179.66 o
-1 2 8 2 425.39 634.48 189.04 o
-1 -2 8 2 411.08 420.09 171.51 <
0 2 8 -2 240.11 73.51 85.62 <
0 -2 8 -2 235.72 225.76 120.40 <
0 2 8 -1 2117.49 2179.95 302.67 o
0 -2 8 -1 2139.06 1791.88 275.74 o
0 2 8 0 1746.33 2019.70 296.83 o
0 -2 8 0 1722.00 1453.07 246.82 o
0 2 8 1 36.03 151.66 115.14 <
0 -2 8 1 35.54 98.92 85.37 <
0 2 8 2 601.52 1065.14 338.30 o
0 -2 8 2 616.61 457.42 150.03 o
1 2 8 -2 216.82 -3.04 100.09 <
1 -2 8 -2 214.84 -12.96 64.27 <
1 2 8 -1 671.74 490.60 134.55 o
1 -2 8 -1 650.45 753.66 130.68 o
1 2 8 0 7536.80 7310.26 578.06 o
1 -2 8 0 7497.59 7532.41 408.12 o
1 2 8 1 3459.31 2636.98 339.31 o
1 -2 8 1 3437.70 3002.24 254.91 o
1 2 8 2 515.63 236.99 119.47 <
1 -2 8 2 533.75 463.70 156.97 <
2 2 8 -2 180.48 95.29 77.03 <
2 -2 8 -2 173.19 103.40 83.50 <
2 2 8 -1 416.85 395.64 136.88 <
2 -2 8 -1 425.80 144.21 77.75 <
2 2 8 0 3997.67 4150.75 445.77 o
2 -2 8 0 3999.08 3739.46 416.76 o
2 2 8 1 175.50 52.11 144.20 <
2 -2 8 1 184.47 262.28 128.27 <
2 2 8 2 916.59 1150.44 262.28 o
2 -2 8 2 940.07 792.47 191.88 o
3 2 8 -2 272.12 125.21 91.57 <
3 -2 8 -2 258.38 115.64 108.16 <
3 2 8 -1 522.21 383.83 272.95 <
3 -2 8 -1 505.40 461.64 174.51 <
3 2 8 0 4503.26 3916.43 735.33 o
3 -2 8 0 4521.25 4023.72 512.82 o
3 2 8 1 659.42 350.74 201.30 <
3 -2 8 1 678.34 304.98 176.60 <
3 2 8 2 63.19 142.96 146.79 <
3 -2 8 2 61.62 465.99 202.41 <
4 2 8 -2 36.46 354.42 231.17 <
4 -2 8 -2 33.20 168.55 143.01 <
4 2 8 -1 74.44 202.17 147.62 <
4 -2 8 -1 83.60 50.74 152.62 <
4 2 8 0 895.89 863.14 260.02 o
4 -2 8 0 878.66 145.58 118.18 <
4 2 8 1 87.85 -30.33 142.59 <
4 -2 8 1 98.35 18.46 162.31 <
4 2 8 2 56.05 -194.91 160.34 <
4 -2 8 2 45.58 133.84 158.84 <
5 2 8 -2 118.05 253.52 195.45 <
5 -2 8 -2 106.37 243.47 179.92 <
5 2 8 -1 343.66 450.10 210.38 <
5 -2 8 -1 336.62 383.90 179.75 <
5 2 8 0 969.13 352.80 190.82 <
5 -2 8 0 965.59 867.60 354.83 <
5 2 8 1 535.58 801.51 288.50 <
-5 3 8 -2 3.32 -276.26 241.21 <
-5 -3 8 -2 3.38 279.73 221.19 <
-5 3 8 -1 171.62 -64.37 176.08 <
-5 -3 8 -1 159.48 291.17 221.08 <
-5 3 8 0 54.91 -134.03 159.71 <
-5 -3 8 0 57.43 -30.05 129.03 <
-5 3 8 1 39.42 269.39 244.06 <
-5 -3 8 1 37.06 122.53 222.54 <
-5 3 8 2 204.38 -27.78 114.99 <
-5 -3 8 2 200.95 -117.40 129.10 <
-4 3 8 -2 203.85 288.91 189.66 <
-4 -3 8 -2 189.38 -117.73 172.69 <
-4 3 8 -1 48.98 -41.22 137.46 <
-4 -3 8 -1 48.69 -87.68 134.25 <
-4 3 8 0 1256.74 625.39 300.39 <
-4 -3 8 0 1233.83 1282.78 312.95 o
-4 3 8 1 406.14 195.10 171.47 <
-4 -3 8 1 409.17 303.43 188.99 <
-4 3 8 2 91.71 480.55 301.09 <
-4 -3 8 2 87.78 122.83 147.90 <
-3 3 8 -2 48.60 43.18 104.44 <
-3 -3 8 -2 45.59 52.87 104.86 <
-3 3 8 -1 423.77 135.01 129.18 <
-3 -3 8 -1 416.46 98.70 172.60 <
-3 3 8 0 312.19 612.21 286.19 <
-3 -3 8 0 308.40 402.87 150.49 <
-3 3 8 1 19.94 45.90 167.68 <
-3 -3 8 1 18.70 261.43 114.61 <
-3 3 8 2 212.60 79.29 204.41 <
-3 -3 8 2 212.60 64.37 135.90 <
-2 3 8 -2 953.50 1089.03 208.25 o
-2 -3 8 -2 969.53 1625.24 280.60 o
-2 3 8 -1 173.99 229.08 181.62 <
-2 -3 8 -1 165.59 201.58 119.94 <
-2 3 8 0 4485.03 3513.64 613.74 o
-2 -3 8 0 4462.10 4192.67 431.86 o
-2 3 8 1 1776.94 1461.83 405.14 o
-2 -3 8 1 1783.99 1220.36 253.95 o
-2 3 8 2 56.35 82.87 77.64 <
-2 -3 8 2 54.62 -49.55 77.74 <
-1 3 8 -2 180.56 253.99 102.61 <
-1 -3 8 -2 172.21 63.64 60.66 <
-1 3 8 -1 376.20 288.54 226.21 <
-1 -3 8 -1 352.50 336.33 125.97 <
-1 3 8 0 887.26 1011.57 247.21 o
-1 -3 8 0 864.64 1060.33 190.88 o
-1 3 8 1 80.13 21.91 90.27 <
-1 -3 8 1 85.56 131.79 106.36 <
-1 3 8 2 73.90 76.75 114.81 <
-1 -3 8 2 73.75 54.59 111.44 <
0 3 8 -2 26.21 109.44 84.09 <
0 -3 8 -2 26.48 -23.96 57.33 <
0 3 8 -1 174.85 516.51 183.34 <
0 -3 8 -1 174.24 356.94 168.92 <
0 3 8 0 6117.12 5806.82 497.68 o
0 -3 8 0 6142.50 6059.18 515.12 o
0 3 8 1 1185.52 1026.87 223.56 o
0 -3 8 1 1202.19 814.94 197.38 o
0 3 8 2 21.73 83.11 134.01 <
0 -3 8 2 25.98 83.22 119.29 <
1 3 8 -2 76.37 107.16 117.72 <
1 -3 8 -2 73.86 23.24 55.26 <
1 3 8 -1 37.75 65.96 81.05 <
1 -3 8 -1 40.55 47.57 83.64 <
1 3 8 0 992.13 1371.74 254.58 o
1 -3 8 0 985.58 1342.31 171.30 o
1 3 8 1 357.76 350.46 151.94 <
1 -3 8 1 368.80 271.65 119.55 <
1 3 8 2 510.39 509.40 187.75 <
1 -3 8 2 509.48 795.23 221.78 o
2 3 8 -2 38.28 24.63 84.16 <
2 -3 8 -2 36.62 59.68 52.26 <
2 3 8 -1 642.87 1049.13 246.39 o
2 -3 8 -1 612.28 592.73 156.32 o
2 3 8 0 2887.39 3166.51 406.46 o
2 -3 8 0 2841.00 2808.34 359.76 o
2 3 8 1 1084.89 1051.05 268.48 o
2 -3 8 1 1107.00 903.10 217.36 o
2 3 8 2 864.64 537.25 201.40 <
2 -3 8 2 829.40 729.05 355.98 <
3 3 8 -2 140.69 378.77 277.24 <
3 -3 8 -2 142.49 384.20 146.77 <
3 3 8 -1 2.97 307.48 274.36 <
3 -3 8 -1 2.65 130.46 100.01 <
3 3 8 0 478.88 713.57 330.80 <
3 -3 8 0 472.51 297.45 159.14 <
3 3 8 1 137.97 93.14 112.46 <
3 -3 8 1 149.46 157.44 154.90 <
3 3 8 2 392.40 471.36 215.19 <
3 -3 8 2 410.76 32.83 193.01 <
4 3 8 -2 186.48 -2.91 108.40 <
4 -3 8 -2 184.80 102.46 123.14 <
4 3 8 -1 478.32 387.85 175.40 <
4 -3 8 -1 463.23 48.11 170.97 <
4 3 8 0 716.65 676.78 246.32 <
4 -3 8 0 696.63 1040.31 318.24 o
4 3 8 1 443.71 671.07 231.89 <
4 -3 8 1 445.59 524.34 232.75 <
4 3 8 2 126.91 303.56 188.73 <
4 -3 8 2 122.75 832.07 478.47 <
5 3 8 -2 105.06 202.27 153.14 <
5 -3 8 -2 104.22 521.21 278.91 <
5 3 8 -1 72.73 -83.70 80.40 <
5 -3 8 -1 72.61 163.23 244.32 <
5 3 8 0 193.41 66.81 105.68 <
5 -3 8 0 189.43 65.42 136.55 <
5 3 8 1 308.45 132.68 132.12 <
-5 4 8 -2 80.39 130.90 290.24 <
-5 -4 8 -2 83.42 497.49 233.63 <
-5 4 8 -1 15.37 -263.93 138.18 <
-5 -4 8 -1 15.18 -125.21 111.38 <
-5 4 8 0 41.68 221.82 271.60 <
-5 -4 8 0 43.45 347.59 204.25 <
-5 4 8 1 19.24 278.13 239.21 <
-5 -4 8 1 19.64 469.08 396.89 <
-5 4 8 2 13.34 2.61 120.85 <
-5 -4 8 2 12.28 24.07 237.60 <
-4 4 8 -2 200.66 143.36 116.35 <
-4 -4 8 -2 190.65 147.21 146.46 <
-4 4 8 -1 515.16 -154.53 137.36 <
-4 -4 8 -1 500.09 202.14 136.68 <
-4 4 8 0 58.02 -97.70 106.24 <
-4 -4 8 0 65.60 70.09 118.22 <
-4 4 8 1 74.90 -18.65 248.82 <
-4 -4 8 1 72.52 64.03 78.74 <
-4 4 8 2 186.29 -136.51 129.64 <
-4 -4 8 2 170.92 -73.50 108.57 <
-3 4 8 -2 62.57 199.86 172.55 <
-3 -4 8 -2 63.53 -80.37 75.44 <
-3 4 8 -1 54.18 58.07 182.79 <
-3 -4 8 -1 58.47 258.24 170.03 <
-3 4 8 0 21.78 190.34 171.23 <
-3 -4 8 0 24.27 169.32 134.53 <
-3 4 8 1 55.03 60.66 162.40 <
-3 -4 8 1 55.78 -37.79 86.44 <
-3 4 8 2 65.00 126.40 197.66 <
-3 -4 8 2 64.00 142.94 132.12 <
-2 4 8 -2 1184.42 1331.00 239.65 o
-2 -4 8 -2 1196.23 1141.08 242.78 o
-2 4 8 -1 583.82 185.69 161.36 <
-2 -4 8 -1 530.44 134.66 106.94 <
-2 4 8 0 1708.09 1329.39 373.37 o
-2 -4 8 0 1640.19 1638.85 288.17 o
-2 4 8 1 213.89 13.05 127.05 <
-2 -4 8 1 211.20 -60.35 68.53 <
-2 4 8 2 336.67 575.78 275.97 <
-2 -4 8 2 325.09 590.63 173.49 o
-1 4 8 -2 72.09 264.26 194.49 <
-1 -4 8 -2 70.84 129.90 90.94 <
-1 4 8 -1 52.91 12.72 176.68 <
-1 -4 8 -1 52.66 43.85 88.94 <
-1 4 8 0 9.90 230.90 143.57 <
-1 -4 8 0 13.54 -52.29 99.57 <
-1 4 8 1 344.11 787.34 216.80 o
-1 -4 8 1 340.77 662.72 224.80 <
-1 4 8 2 215.72 97.12 111.44 <
-1 -4 8 2 215.25 43.74 88.83 <
0 4 8 -2 76.91 16.94 74.29 <
0 -4 8 -2 73.98 -12.52 98.57 <
0 4 8 -1 768.77 262.58 131.44 <
0 -4 8 -1 745.76 439.29 142.34 o
0 4 8 0 5260.18 5203.86 479.21 o
0 -4 8 0 5525.92 4609.17 448.51 o
0 4 8 1 234.52 128.92 150.12 <
0 -4 8 1 238.88 84.61 122.36 <
0 4 8 2 91.34 -4.37 121.68 <
0 -4 8 2 91.30 127.40 70.20 <
1 4 8 -2 178.82 123.44 100.18 <
1 -4 8 -2 180.95 128.47 97.92 <
1 4 8 -1 104.40 131.47 115.57 <
1 -4 8 -1 109.84 116.72 90.85 <
1 4 8 0 43.89 185.30 139.01 <
1 -4 8 0 55.06 61.89 71.26 <
1 4 8 1 1331.22 1303.50 248.65 o
1 -4 8 1 1280.56 895.27 208.40 o
1 4 8 2 332.85 258.43 150.90 <
1 -4 8 2 310.95 48.72 196.34 <
2 4 8 -2 84.09 412.20 167.55 <
2 -4 8 -2 84.56 153.79 76.35 <
2 4 8 -1 332.34 310.52 179.29 <
2 -4 8 -1 327.90 141.70 97.94 <
2 4 8 0 1392.49 1528.16 297.02 o
2 -4 8 0 1343.33 1434.27 262.87 o
2 4 8 1 203.59 364.31 175.27 <
2 -4 8 1 208.02 173.21 160.92 <
2 4 8 2 975.26 727.22 216.43 o
2 -4 8 2 938.69 873.34 366.15 <
3 4 8 -2 168.48 115.05 204.65 <
3 -4 8 -2 174.59 295.65 163.60 <
3 4 8 -1 88.26 108.07 220.49 <
3 -4 8 -1 81.56 122.53 115.75 <
3 4 8 0 31.49 -206.08 151.05 <
3 -4 8 0 37.95 63.63 139.81 <
3 4 8 1 572.54 298.58 256.39 <
3 -4 8 1 556.58 249.02 170.51 <
3 4 8 2 17.17 166.77 201.60 <
3 -4 8 2 14.13 164.68 352.74 <
4 4 8 -2 31.94 -286.41 246.15 <
4 -4 8 -2 30.02 352.68 188.08 <
4 4 8 -1 56.65 44.83 140.34 <
4 -4 8 -1 60.94 265.50 183.88 <
4 4 8 0 27.46 -17.02 137.53 <
4 -4 8 0 23.04 404.27 200.27 <
4 4 8 1 7.64 -20.02 161.99 <
4 -4 8 1 7.59 -228.52 312.11 <
4 4 8 2 335.03 371.90 197.10 <
4 -4 8 2 366.33 473.70 402.89 <
5 4 8 -2 74.11 65.51 113.57 <
5 -4 8 -2 81.22 89.14 158.10 <
5 4 8 -1 110.10 251.02 175.40 <
5 -4 8 -1 102.18 275.97 232.62 <
5 4 8 0 147.38 153.49 189.21 <
5 -4 8 0 142.96 511.73 409.11 <
5 4 8 1 279.23 326.37 283.78 <
-5 5 8 -2 17.96 386.29 338.07 <
-5 -5 8 -2 18.62 -179.64 156.81 <
-5 5 8 -1 209.31 192.82 251.19 <
-5 -5 8 -1 210.17 246.93 200.99 <
-5 5 8 0 88.79 54.11 249.47 <
-5 -5 8 0 87.43 -160.47 119.94 <
-5 5 8 1 47.32 -130.55 184.86 <
-5 -5 8 1 50.43 -10.06 225.08 <
-5 5 8 2 66.17 105.62 131.92 <
-5 -5 8 2 64.62 482.31 246.41 <
-4 5 8 -2 26.23 324.87 242.32 <
-4 -5 8 -2 25.31 115.88 145.07 <
-4 5 8 -1 66.45 -147.70 178.60 <
-4 -5 8 -1 63.28 215.88 192.79 <
-4 5 8 0 1878.84 1300.39 418.27 o
-4 -5 8 0 1840.51 1885.71 367.48 o
-4 5 8 1 183.27 11.55 92.53 <
-4 -5 8 1 193.97 130.05 109.74 <
-4 5 8 2 146.71 271.02 212.32 <
-4 -5 8 2 136.10 396.09 212.14 <
-3 5 8 -2 28.32 -28.98 174.73 <
-3 -5 8 -2 25.51 21.31 116.57 <
-3 5 8 -1 386.02 124.42 159.68 <
-3 -5 8 -1 402.29 210.52 127.75 <
-3 5 8 0 106.79 56.77 151.01 <
-3 -5 8 0 111.29 35.63 107.72 <
-3 5 8 1 40.78 -108.35 135.68 <
-3 -5 8 1 40.57 -173.86 103.88 <
-3 5 8 2 83.03 10.68 120.35 <
-3 -5 8 2 88.14 273.10 160.45 <
-2 5 8 -2 527.24 391.96 241.89 <
-2 -5 8 -2 540.28 512.97 178.77 <
-2 5 8 -1 8.32 -200.56 118.11 <
-2 -5 8 -1 7.65 80.07 98.57 <
-2 5 8 0 3970.17 4579.58 691.35 o
-2 -5 8 0 3941.53 4456.20 475.95 o
-2 5 8 1 528.85 917.58 326.33 <
-2 -5 8 1 517.72 880.38 310.37 <
-2 5 8 2 325.84 353.39 222.12 <
-2 -5 8 2 301.72 34.20 82.09 <
-1 5 8 -2 132.24 219.52 184.54 <
-1 -5 8 -2 129.07 190.45 130.03 <
-1 5 8 -1 233.05 348.59 213.04 <
-1 -5 8 -1 279.88 130.70 81.85 <
-1 5 8 0 32.12 63.74 176.77 <
-1 -5 8 0 47.27 65.70 94.01 <
-1 5 8 1 38.04 225.93 150.53 <
-1 -5 8 1 31.99 267.56 113.03 <
-1 5 8 2 62.66 251.99 138.94 <
-1 -5 8 2 65.57 119.12 131.05 <
0 5 8 -2 176.02 30.33 71.27 <
0 -5 8 -2 176.78 -58.61 100.94 <
0 5 8 -1 313.68 130.83 59.29 <
0 -5 8 -1 292.65 370.78 153.42 <
0 5 8 0 5769.94 5699.98 498.08 o
0 -5 8 0 5775.11 6065.98 521.47 o
0 5 8 1 1184.03 1022.87 220.97 o
0 -5 8 1 1160.12 1085.51 230.71 o
0 5 8 2 203.74 69.70 82.24 <
0 -5 8 2 197.59 61.40 74.14 <
1 5 8 -2 47.55 135.57 115.36 <
1 -5 8 -2 49.40 60.81 76.13 <
1 5 8 -1 341.72 212.91 152.20 <
1 -5 8 -1 346.70 695.87 328.57 <
1 5 8 0 34.92 228.26 170.29 <
1 -5 8 0 25.46 -123.59 100.33 <
1 5 8 1 1193.73 1301.17 264.43 o
1 -5 8 1 1178.69 934.84 204.60 o
1 5 8 2 21.43 -25.52 91.88 <
1 -5 8 2 25.41 229.32 257.73 <
2 5 8 -2 264.66 384.64 284.78 <
2 -5 8 -2 265.55 -3.24 100.64 <
2 5 8 -1 249.67 504.93 272.06 <
2 -5 8 -1 234.39 94.42 134.94 <
2 5 8 0 2351.45 2862.23 587.23 o
2 -5 8 0 2351.16 2555.04 340.20 o
2 5 8 1 983.96 1497.81 487.08 o
2 -5 8 1 995.54 1208.47 461.68 <
2 5 8 2 219.17 203.86 185.92 <
2 -5 8 2 199.15 -62.85 141.92 <
3 5 8 -2 126.81 -45.92 93.29 <
3 -5 8 -2 128.76 109.70 148.51 <
3 5 8 -1 192.48 83.64 181.42 <
3 -5 8 -1 188.00 186.79 147.99 <
3 5 8 0 51.16 -196.53 170.77 <
3 -5 8 0 45.71 203.80 147.84 <
3 5 8 1 575.74 525.36 328.35 <
3 -5 8 1 605.43 469.77 320.59 <
3 5 8 2 45.69 19.17 186.21 <
3 -5 8 2 48.28 7.11 154.55 <
4 5 8 -2 265.58 420.72 303.69 <
4 -5 8 -2 253.51 144.21 132.25 <
4 5 8 -1 326.98 333.83 252.10 <
4 -5 8 -1 309.36 218.52 174.36 <
4 5 8 0 768.78 225.71 202.34 <
4 -5 8 0 760.53 1212.90 356.35 o
4 5 8 1 470.53 154.81 204.54 <
4 -5 8 1 483.79 639.80 337.26 <
4 5 8 2 141.41 551.38 246.10 <
4 -5 8 2 152.40 190.53 325.20 <
5 5 8 -2 146.71 20.41 154.92 <
5 -5 8 -2 151.26 555.97 269.32 <
5 5 8 -1 163.34 98.48 163.66 <
5 -5 8 -1 162.98 381.63 257.10 <
5 5 8 0 28.87 182.88 154.58 <
-5 -6 8 -2 130.55 -87.42 162.86 <
-5 6 8 -1 18.25 418.27 333.26 <
-5 -6 8 -1 18.27 498.71 357.11 <
-5 6 8 0 419.61 -210.43 291.08 <
-5 -6 8 0 444.20 563.47 250.08 <
-5 6 8 1 87.79 262.47 194.25 <
-5 -6 8 1 95.26 140.75 190.14 <
-5 6 8 2 68.30 -373.40 317.24 <
-5 -6 8 2 71.99 214.36 289.06 <
-4 6 8 -2 95.37 539.19 274.69 <
-4 -6 8 -2 98.14 -193.97 166.73 <
-4 6 8 -1 420.46 103.51 87.20 <
-4 -6 8 -1 410.62 225.36 157.99 <
-4 6 8 0 661.07 508.66 276.32 <
-4 -6 8 0 630.07 443.57 176.99 <
-4 6 8 1 53.85 102.75 176.99 <
-4 -6 8 1 52.90 112.11 157.12 <
-4 6 8 2 301.67 543.14 293.54 <
-4 -6 8 2 289.98 238.65 176.93 <
-3 6 8 -2 312.87 -14.94 91.07 <
-3 -6 8 -2 287.40 -101.79 62.81 <
-3 6 8 -1 47.82 119.20 135.81 <
-3 -6 8 -1 44.98 97.86 125.03 <
-3 6 8 0 902.68 1097.88 412.09 <
-3 -6 8 0 933.87 960.35 252.76 o
-3 6 8 1 398.04 543.19 312.70 <
-3 -6 8 1 422.50 430.90 190.08 <
-3 6 8 2 102.67 78.94 193.27 <
-3 -6 8 2 98.48 66.85 92.51 <
-2 6 8 -2 1440.44 1642.22 410.44 o
-2 -6 8 -2 1429.24 1542.43 304.87 o
-2 6 8 -1 1187.20 847.08 241.99 o
-2 -6 8 -1 1121.83 1198.91 255.08 o
-2 6 8 0 713.04 161.49 225.71 <
-2 -6 8 0 692.98 502.05 190.71 <
-2 6 8 1 146.58 442.51 244.43 <
-2 -6 8 1 148.48 267.65 151.82 <
-2 6 8 2 167.37 293.06 186.38 <
-2 -6 8 2 159.65 95.88 104.24 <
-1 6 8 -2 515.09 483.70 244.47 <
-1 -6 8 -2 468.24 84.62 122.20 <
-1 6 8 -1 3041.71 2982.96 541.84 o
-1 -6 8 -1 3014.94 2108.85 279.86 o
-1 6 8 0 2391.47 2433.83 526.77 o
-1 -6 8 0 2392.03 1984.02 265.04 o
-1 6 8 1 1754.30 1472.84 426.42 o
-1 -6 8 1 1808.10 1104.09 199.60 o
-1 6 8 2 240.09 104.22 133.88 <
-1 -6 8 2 216.94 122.73 121.55 <
0 6 8 -2 62.22 -101.99 61.03 <
0 -6 8 -2 55.33 -207.69 143.60 <
0 6 8 -1 1548.60 1221.77 242.78 o
0 -6 8 -1 1464.52 1030.68 232.63 o
0 6 8 0 9693.99 9647.89 650.13 o
0 -6 8 0 9531.64 10209.00 678.83 o
0 6 8 1 412.14 323.15 158.79 <
0 -6 8 1 425.97 396.76 141.49 <
0 6 8 2 69.27 201.27 136.46 <
0 -6 8 2 66.65 333.35 167.32 <
1 6 8 -2 235.12 404.35 140.82 <
1 -6 8 -2 236.15 125.05 110.14 <
1 6 8 -1 553.28 369.15 171.64 <
1 -6 8 -1 562.05 233.65 105.14 <
1 6 8 0 2048.96 2149.55 335.00 o
1 -6 8 0 2039.07 1710.53 255.10 o
1 6 8 1 865.68 838.73 230.80 o
1 -6 8 1 839.45 989.50 389.27 <
1 6 8 2 298.70 256.91 154.45 <
1 -6 8 2 295.26 245.12 301.83 <
2 -6 8 -2 13.17 21.33 70.83 <
2 6 8 -1 855.99 1166.10 355.07 o
2 -6 8 -1 824.68 808.68 196.17 o
2 6 8 0 835.35 1401.38 410.98 o
2 -6 8 0 836.19 399.63 238.34 <
2 6 8 1 140.39 251.43 171.27 <
2 -6 8 1 144.07 293.60 192.04 <
2 6 8 2 259.31 120.40 194.25 <
2 -6 8 2 272.40 52.61 168.60 <
3 6 8 -2 95.39 83.98 169.60 <
3 -6 8 -2 96.08 50.79 106.96 <
3 6 8 -1 405.32 369.40 206.69 <
3 -6 8 -1 446.73 199.38 118.49 <
3 6 8 0 477.78 207.41 196.17 <
3 -6 8 0 492.29 680.54 231.80 <
3 6 8 1 1021.89 1026.66 397.76 <
3 -6 8 1 1042.67 1450.12 565.04 <
3 6 8 2 51.59 -23.67 194.86 <
3 -6 8 2 53.24 -352.55 360.96 <
4 6 8 -2 36.59 -12.43 163.84 <
4 -6 8 -2 36.95 79.42 162.31 <
4 6 8 -1 117.60 293.19 200.91 <
4 -6 8 -1 111.99 -9.85 138.92 <
4 6 8 0 1434.28 1995.43 596.04 o
4 -6 8 0 1426.66 2654.11 733.61 o
4 6 8 1 96.99 35.41 119.51 <
4 -6 8 1 90.22 311.83 380.00 <
4 6 8 2 29.84 137.57 202.71 <
4 -6 8 2 27.89 -193.51 229.69 <
5 6 8 -2 72.34 173.80 246.23 <
5 -6 8 -2 72.34 120.36 155.79 <
5 6 8 -1 165.14 153.01 267.11 <
5 -6 8 -1 187.82 475.08 405.81 <
5 6 8 0 186.15 533.91 288.43 <
-5 -7 8 -1 355.75 0.00 169.36 <
-5 7 8 0 28.01 -114.05 184.56 <
-5 -7 8 0 27.99 169.80 266.48 <
-5 7 8 1 45.03 59.20 238.13 <
-5 -7 8 1 47.10 281.32 201.86 <
-5 7 8 2 38.08 -1.57 117.51 <
-5 -7 8 2 41.73 303.59 350.00 <
-4 7 8 -2 272.39 257.99 228.90 <
-4 -7 8 -2 261.92 -175.19 256.23 <
-4 7 8 -1 7.78 247.02 273.10 <
-4 -7 8 -1 6.91 -97.79 123.12 <
-4 7 8 0 628.18 362.44 243.26 <
-4 -7 8 0 617.86 710.78 246.58 <
-4 7 8 1 92.28 -89.88 250.32 <
-4 -7 8 1 88.85 212.60 206.36 <
-4 7 8 2 93.88 398.11 264.28 <
-4 -7 8 2 93.12 25.31 167.93 <
-3 7 8 -2 24.91 48.74 147.18 <
-3 -7 8 -2 24.25 168.57 132.62 <
-3 7 8 -1 80.15 244.97 182.01 <
-3 -7 8 -1 86.16 146.10 124.49 <
-3 7 8 0 180.11 471.27 270.93 <
-3 -7 8 0 188.01 239.69 160.53 <
-3 7 8 1 49.47 -55.92 137.16 <
-3 -7 8 1 52.37 73.57 152.40 <
-3 7 8 2 81.21 -123.27 213.77 <
-3 -7 8 2 84.18 239.91 131.79 <
-2 7 8 -2 1067.67 1057.18 338.89 o
-2 -7 8 -2 1059.27 1197.08 209.15 o
-2 7 8 -1 42.60 152.44 234.78 <
-2 -7 8 -1 44.67 87.05 140.27 <
-2 7 8 0 2750.03 2327.76 526.12 o
-2 -7 8 0 2744.74 2180.56 365.13 o
-2 7 8 1 122.81 311.15 147.49 <
-2 -7 8 1 115.65 227.41 137.86 <
-2 7 8 2 312.62 123.59 158.51 <
-2 -7 8 2 314.32 131.96 129.85 <
-1 7 8 -2 17.19 -23.33 71.98 <
-1 -7 8 -2 15.97 75.57 69.59 <
-1 7 8 -1 2417.41 2838.43 564.08 o
-1 -7 8 -1 2324.47 1975.52 269.48 o
-1 7 8 0 397.65 427.42 284.58 <
-1 -7 8 0 399.55 106.49 95.22 <
-1 7 8 1 97.89 256.32 261.45 <
-1 -7 8 1 103.15 201.56 116.03 <
-1 7 8 2 74.70 -15.61 80.75 <
-1 -7 8 2 74.78 78.31 108.25 <
0 7 8 -2 164.72 33.92 100.90 <
0 -7 8 -2 165.80 86.18 69.64 <
0 7 8 -1 70.36 252.91 127.16 <
0 -7 8 -1 68.88 56.72 109.70 <
0 7 8 0 3505.12 2851.25 359.35 o
0 -7 8 0 3513.56 3510.36 396.76 o
0 7 8 1 240.05 240.45 116.55 <
0 -7 8 1 248.69 170.86 107.07 <
0 7 8 2 197.75 -102.22 94.51 <
0 -7 8 2 205.78 14.44 87.51 <
1 7 8 -2 81.45 192.04 161.42 <
1 -7 8 -2 88.40 154.94 106.59 <
1 7 8 -1 471.52 661.50 191.62 o
1 -7 8 -1 472.98 441.12 145.92 o
1 7 8 0 292.71 329.37 142.75 <
1 -7 8 0 290.45 242.80 216.64 <
1 7 8 1 325.67 666.26 202.58 o
1 -7 8 1 294.86 139.96 169.42 <
1 7 8 2 140.87 471.92 213.23 <
1 -7 8 2 138.02 304.24 242.62 <
2 7 8 -2 116.55 -138.47 62.63 <
2 -7 8 -2 119.00 67.59 67.64 <
2 7 8 -1 111.72 39.74 119.46 <
2 -7 8 -1 121.07 340.57 218.65 <
2 7 8 0 2251.57 1774.77 460.16 o
2 -7 8 0 2199.28 1818.31 500.49 o
2 7 8 1 120.41 292.13 215.21 <
2 -7 8 1 114.81 -252.38 127.12 <
2 7 8 2 561.14 767.38 331.33 <
2 -7 8 2 563.47 357.13 261.45 <
3 7 8 -2 105.64 -83.37 187.03 <
3 -7 8 -2 113.56 104.11 117.47 <
3 7 8 -1 512.98 496.51 264.76 <
3 -7 8 -1 505.53 478.16 157.64 o
3 7 8 0 448.74 1017.09 349.57 <
3 -7 8 0 458.49 584.69 412.46 <
3 7 8 1 1110.29 863.04 377.42 <
3 -7 8 1 1132.38 1648.85 588.34 <
3 7 8 2 112.03 -328.07 241.88 <
3 -7 8 2 118.15 213.43 268.58 <
4 7 8 -2 126.29 250.15 243.60 <
4 -7 8 -2 135.15 95.05 157.12 <
4 7 8 -1 90.59 39.33 243.28 <
4 -7 8 -1 92.94 374.81 218.71 <
4 7 8 0 778.60 1099.77 458.12 <
4 -7 8 0 741.84 884.82 523.79 <
4 -7 8 1 39.87 -50.05 257.47 <
4 -7 8 2 230.07 638.02 319.46 <
5 -7 8 -2 80.08 452.42 267.87 <
5 7 8 -1 37.86 227.62 293.98 <
5 -7 8 -1 34.86 106.38 205.99 <
5 7 8 0 184.37 -51.18 120.07 <
-5 -8 8 -1 157.49 -238.04 179.45 <
-5 8 8 0 27.52 193.58 313.41 <
-5 -8 8 0 29.47 547.19 355.28 <
-5 8 8 1 130.47 170.57 171.77 <
-5 -8 8 1 132.01 -265.41 330.50 <
-5 8 8 2 12.81 176.01 208.49 <
-5 -8 8 2 13.70 -421.94 247.56 <
-4 8 8 -2 33.55 -1.04 200.64 <
-4 -8 8 -2 31.29 115.62 180.42 <
-4 8 8 -1 218.49 489.58 331.82 <
-4 -8 8 -1 213.54 421.07 199.88 <
-4 8 8 0 19.19 -113.86 252.56 <
-4 -8 8 0 18.23 -53.11 126.99 <
-4 8 8 1 130.86 14.98 108.85 <
-4 -8 8 1 132.57 229.23 196.97 <
-4 8 8 2 53.71 85.35 204.30 <
-4 -8 8 2 46.59 98.20 165.07 <
-3 8 8 -2 47.32 73.55 165.99 <
-3 -8 8 -2 49.61 13.11 107.97 <
-3 8 8 -1 475.07 924.80 412.37 <
-3 -8 8 -1 467.47 444.62 191.14 <
-3 8 8 0 38.83 -9.59 237.43 <
-3 -8 8 0 38.84 456.35 189.88 <
-3 8 8 1 113.77 267.26 112.97 <
-3 -8 8 1 109.61 201.40 157.58 <
-3 8 8 2 47.37 120.01 164.29 <
-3 -8 8 2 47.59 201.08 131.53 <
-2 8 8 -2 218.47 398.77 242.26 <
-2 -8 8 -2 231.10 255.78 117.77 <
-2 8 8 -1 446.27 490.45 277.24 <
-2 -8 8 -1 429.30 197.66 123.90 <
-2 8 8 0 96.47 11.55 135.83 <
-2 -8 8 0 98.67 184.58 144.90 <
-2 8 8 1 101.78 -143.20 151.62 <
-2 -8 8 1 95.64 87.87 114.44 <
-2 8 8 2 136.19 264.32 290.21 <
-2 -8 8 2 126.72 221.75 151.03 <
-1 8 8 -2 149.33 104.59 189.36 <
-1 -8 8 -2 155.64 6.67 50.31 <
-1 8 8 -1 118.05 634.59 285.08 <
-1 -8 8 -1 130.31 299.33 113.33 <
-1 8 8 0 278.02 640.67 288.26 <
-1 -8 8 0 275.88 168.42 114.97 <
-1 8 8 1 56.51 -40.16 163.49 <
-1 -8 8 1 53.87 142.03 133.66 <
-1 8 8 2 107.02 -283.48 253.00 <
-1 -8 8 2 103.94 -36.74 53.66 <
0 8 8 -2 262.87 266.97 176.34 <
0 -8 8 -2 269.46 209.73 105.33 <
0 8 8 -1 512.44 272.87 111.31 <
0 -8 8 -1 495.29 440.01 134.77 o
0 8 8 0 67.19 268.08 149.81 <
0 -8 8 0 85.90 57.39 76.98 <
0 8 8 1 76.31 -106.62 84.50 <
0 -8 8 1 62.46 45.13 88.05 <
0 8 8 2 133.48 297.96 133.16 <
0 -8 8 2 127.62 114.64 115.25 <
1 8 8 -2 173.21 108.24 129.35 <
1 -8 8 -2 176.81 119.07 98.83 <
1 8 8 -1 266.57 432.59 162.71 <
1 -8 8 -1 271.13 405.22 133.73 o
1 8 8 0 78.62 359.05 150.94 <
1 -8 8 0 77.30 166.05 117.11 <
1 8 8 1 1046.52 1121.75 253.32 o
1 -8 8 1 1031.47 916.34 399.77 <
1 8 8 2 296.29 59.87 87.29 <
1 -8 8 2 282.51 -56.05 226.23 <
2 8 8 -2 507.70 381.48 206.93 <
2 -8 8 -2 508.62 337.35 112.96 <
2 8 8 -1 263.73 513.10 278.32 <
2 -8 8 -1 258.74 165.53 92.64 <
2 8 8 0 137.02 76.70 160.49 <
2 -8 8 0 139.28 234.39 332.54 <
2 8 8 1 239.64 231.36 243.52 <
2 -8 8 1 232.95 135.94 196.30 <
2 8 8 2 197.69 460.10 308.59 <
2 -8 8 2 190.83 160.43 261.54 <
3 8 8 -2 167.78 198.43 138.36 <
3 -8 8 -2 165.97 279.24 172.95 <
3 8 8 -1 32.24 38.89 148.88 <
3 -8 8 -1 37.36 51.55 211.51 <
3 8 8 0 164.75 4.81 212.38 <
3 -8 8 0 164.70 307.63 336.52 <
3 8 8 1 136.74 178.01 188.32 <
3 -8 8 1 153.15 187.75 364.76 <
3 -8 8 2 84.36 165.97 253.19 <
4 8 8 -2 265.45 112.40 151.99 <
4 -8 8 -2 269.73 464.44 243.99 <
4 -8 8 -1 141.88 260.95 180.93 <
4 -8 8 0 67.57 293.85 437.07 <
4 -8 8 1 473.56 47.16 258.67 <
4 -8 8 2 227.83 113.47 160.42 <
5 -8 8 -2 119.55 664.17 437.66 <
5 8 8 -1 61.37 -159.10 101.16 <
5 -8 8 -1 64.84 -27.02 172.30 <
-5 -9 8 0 358.67 199.80 308.48 <
-5 9 8 1 16.78 111.29 134.20 <
-5 -9 8 1 15.61 -395.50 190.12 <
-5 9 8 2 212.00 106.11 197.23 <
-5 -9 8 2 221.96 252.17 306.09 <
-4 9 8 -2 125.95 -332.11 284.71 <
-4 -9 8 -2 122.56 275.69 276.23 <
-4 9 8 -1 4.98 89.90 208.25 <
-4 -9 8 -1 4.09 177.66 179.27 <
-4 9 8 0 34.22 66.76 187.69 <
-4 -9 8 0 31.43 103.35 155.68 <
-4 9 8 1 146.23 259.80 239.54 <
-4 -9 8 1 142.49 -16.20 136.03 <
-4 9 8 2 54.60 48.46 214.77 <
-4 -9 8 2 59.84 291.06 222.01 <
-3 9 8 -2 372.32 991.78 383.44 <
-3 -9 8 -2 383.36 552.10 182.34 o
-3 9 8 -1 138.35 247.32 192.23 <
-3 -9 8 -1 154.89 160.97 187.30 <
-3 9 8 0 1392.55 1234.51 456.55 <
-3 -9 8 0 1424.02 992.80 310.63 o
-3 9 8 1 115.24 181.51 205.79 <
-3 -9 8 1 122.80 231.23 141.66 <
-3 9 8 2 376.13 539.53 281.63 <
-3 -9 8 2 377.86 502.55 165.21 o
-2 9 8 -2 159.89 412.48 342.91 <
-2 -9 8 -2 167.43 101.20 109.09 <
-2 9 8 -1 15.04 -160.25 191.54 <
-2 -9 8 -1 13.56 177.73 98.79 <
-2 9 8 0 25.33 505.19 278.73 <
-2 -9 8 0 23.59 154.79 100.62 <
-2 9 8 1 164.94 90.40 196.40 <
-2 -9 8 1 168.15 68.96 75.26 <
-2 9 8 2 105.30 385.00 247.43 <
-2 -9 8 2 118.68 270.93 123.25 <
-1 9 8 -2 750.60 1224.10 368.89 o
-1 -9 8 -2 746.31 574.39 124.97 o
-1 9 8 -1 8322.79 7125.03 872.62 o
-1 -9 8 -1 8135.33 6744.94 425.12 o
-1 9 8 0 3944.74 3532.80 620.84 o
-1 -9 8 0 3971.43 3705.63 315.45 o
-1 9 8 1 38.90 -185.30 205.27 <
-1 -9 8 1 40.38 132.12 106.94 <
-1 9 8 2 513.16 -73.18 202.65 <
-1 -9 8 2 493.98 270.34 160.29 <
0 9 8 -2 142.45 10.31 133.40 <
0 -9 8 -2 142.73 111.31 85.77 <
0 9 8 -1 17.11 403.40 279.45 <
0 -9 8 -1 16.10 33.26 92.18 <
0 9 8 0 20.26 159.31 105.14 <
0 -9 8 0 36.32 173.53 90.11 <
0 9 8 1 107.32 104.90 119.36 <
0 -9 8 1 116.99 -48.42 103.75 <
0 9 8 2 158.06 519.36 180.71 <
0 -9 8 2 161.00 196.08 97.18 <
1 9 8 -2 252.82 338.24 175.47 <
1 -9 8 -2 261.66 168.90 112.44 <
1 9 8 -1 460.35 469.68 197.17 <
1 -9 8 -1 457.70 157.36 131.75 <
1 9 8 0 3316.44 3406.05 412.20 o
1 -9 8 0 3349.14 3086.36 425.49 o
1 9 8 1 5353.04 5215.10 517.53 o
1 -9 8 1 5311.55 5834.54 599.26 o
1 9 8 2 691.42 466.16 195.23 <
1 -9 8 2 680.88 459.33 299.95 <
2 9 8 -2 78.93 211.25 156.18 <
2 -9 8 -2 81.66 125.21 106.77 <
2 9 8 -1 298.99 12.98 108.99 <
2 -9 8 -1 311.13 183.38 152.38 <
2 9 8 0 105.53 -66.50 80.05 <
2 -9 8 0 118.53 199.40 236.32 <
2 9 8 1 43.72 122.42 209.77 <
2 -9 8 1 51.98 119.85 178.40 <
2 -9 8 2 25.92 5.33 264.13 <
3 9 8 -2 86.14 151.62 191.30 <
3 -9 8 -2 89.02 -6.44 110.38 <
3 -9 8 -1 397.40 102.18 249.30 <
3 -9 8 0 2009.08 1978.24 617.02 o
3 -9 8 1 32.94 707.68 399.26 <
3 -9 8 2 262.91 20.04 245.06 <
4 -9 8 -2 44.52 171.36 208.49 <
4 -9 8 -1 161.50 243.75 296.08 <
4 -9 8 0 31.95 -64.05 107.74 <
4 -9 8 1 50.45 291.04 292.82 <
4 -9 8 2 19.00 -287.04 296.74 <
5 -9 8 -2 39.17 223.21 266.58 <
-5 10 8 1 167.83 -91.92 125.44 <
-5 -10 8 1 171.66 16.05 174.73 <
-5 10 8 2 109.78 66.35 174.97 <
-5 -10 8 2 112.38 131.38 225.51 <
-4 10 8 -2 15.66 -58.31 186.18 <
-4 -10 8 -2 18.22 -72.74 196.01 <
-4 10 8 -1 225.56 -1.85 130.99 <
-4 -10 8 -1 227.52 131.29 150.23 <
-4 10 8 0 75.62 -211.23 243.28 <
-4 -10 8 0 77.54 -157.97 280.80 <
-4 10 8 1 46.61 283.69 309.76 <
-4 -10 8 1 48.32 356.22 253.15 <
-4 10 8 2 92.71 30.04 132.49 <
-4 -10 8 2 91.54 295.65 232.12 <
-3 10 8 -2 51.94 253.39 270.37 <
-3 -10 8 -2 46.91 221.21 182.90 <
-3 10 8 -1 109.78 -5.15 193.53 <
-3 -10 8 -1 109.21 432.03 213.36 <
-3 10 8 0 5500.94 5634.69 880.25 o
-3 -10 8 0 5583.77 5575.84 679.02 o
-3 10 8 1 387.76 76.00 163.95 <
-3 -10 8 1 394.95 83.94 127.85 <
-3 10 8 2 262.15 8.31 102.05 <
-3 -10 8 2 265.34 25.46 145.40 <
-2 10 8 -2 120.52 230.99 113.81 <
-2 -10 8 -2 117.39 226.06 133.90 <
-2 10 8 -1 283.11 -107.70 103.99 <
-2 -10 8 -1 269.74 138.36 116.73 <
-2 10 8 0 365.92 339.87 307.41 <
-2 -10 8 0 365.78 341.87 126.99 <
-2 10 8 1 34.13 -52.52 140.29 <
-2 -10 8 1 33.20 76.33 104.18 <
-2 10 8 2 212.39 86.94 197.71 <
-2 -10 8 2 207.75 95.49 102.35 <
-1 10 8 -2 200.60 41.37 121.10 <
-1 -10 8 -2 192.28 107.85 68.29 <
-1 10 8 -1 573.71 254.02 229.38 <
-1 -10 8 -1 564.08 455.18 129.38 o
-1 10 8 0 13214.30 12526.60 1190.42 o
-1 -10 8 0 13233.10 12076.30 577.82 o
-1 10 8 1 729.08 687.04 305.50 <
-1 -10 8 1 745.14 612.63 149.08 o
-1 10 8 2 350.81 89.94 124.57 <
-1 -10 8 2 353.73 182.97 94.37 <
0 10 8 -2 174.10 106.75 125.79 <
0 -10 8 -2 178.62 103.49 92.29 <
0 10 8 -1 248.16 178.77 80.90 <
0 -10 8 -1 253.38 300.48 121.79 <
0 10 8 0 556.63 646.67 329.67 <
0 -10 8 0 574.89 229.41 103.83 <
0 10 8 1 127.48 368.94 152.77 <
0 -10 8 1 120.99 70.14 63.57 <
0 10 8 2 148.77 217.23 163.16 <
0 -10 8 2 145.80 244.43 133.12 <
1 10 8 -2 37.13 607.98 210.84 <
1 -10 8 -2 35.05 57.50 152.75 <
1 10 8 -1 98.59 489.25 182.18 <
1 -10 8 -1 102.22 304.61 158.73 <
1 10 8 0 12004.40 12346.80 764.35 o
1 -10 8 0 12045.20 11699.40 832.36 o
1 10 8 1 342.27 226.65 164.16 <
1 -10 8 1 343.26 62.57 139.70 <
1 10 8 2 176.01 33.57 152.10 <
1 -10 8 2 171.35 324.59 194.21 <
2 10 8 -2 74.28 -8.83 59.39 <
2 -10 8 -2 77.68 91.98 124.86 <
2 -10 8 -1 303.12 130.05 110.20 <
2 -10 8 0 577.66 329.72 161.84 <
2 -10 8 1 332.80 36.46 134.36 <
2 -10 8 2 22.67 -110.90 168.47 <
3 -10 8 -2 110.14 267.80 162.88 <
3 -10 8 -1 271.64 106.14 100.11 <
3 -10 8 0 3607.48 3529.36 814.03 o
3 -10 8 1 288.39 662.93 370.40 <
3 -10 8 2 32.32 271.65 335.82 <
4 -10 8 -2 28.84 -7.00 254.36 <
4 -10 8 -1 62.93 101.61 109.20 <
4 -10 8 0 297.05 145.46 182.21 <
4 -10 8 1 266.25 167.68 225.49 <
5 -10 8 -2 116.81 391.79 340.07 <
-5 11 8 2 41.22 169.19 249.45 <
-5 -11 8 2 41.52 -445.83 314.06 <
-4 11 8 -2 135.53 442.46 370.31 <
-4 -11 8 -2 154.75 -458.60 294.72 <
-4 11 8 -1 212.37 255.97 279.63 <
-4 -11 8 -1 208.08 -54.83 182.95 <
-4 11 8 0 594.93 510.08 339.30 <
-4 -11 8 0 590.36 460.57 336.39 <
-4 11 8 1 141.33 -124.38 215.12 <
-4 -11 8 1 142.80 102.27 231.63 <
-4 11 8 2 41.49 1316.19 461.73 <
-4 -11 8 2 42.59 630.85 337.54 <
-3 11 8 -2 57.60 338.94 256.99 <
-3 -11 8 -2 60.32 107.51 150.07 <
-3 11 8 -1 257.90 160.60 154.44 <
-3 -11 8 -1 255.71 639.06 266.04 <
-3 11 8 0 271.58 762.35 346.02 <
-3 -11 8 0 274.99 302.76 196.23 <
-3 11 8 1 250.53 10.65 109.92 <
-3 -11 8 1 257.55 340.13 177.23 <
-3 11 8 2 17.04 -318.19 243.34 <
-3 -11 8 2 19.35 143.73 139.18 <
-2 11 8 -2 1258.52 955.22 373.83 <
-2 -11 8 -2 1232.85 1047.11 228.73 o
-2 11 8 -1 649.91 733.35 357.00 <
-2 -11 8 -1 662.36 531.99 131.35 o
-2 11 8 0 1793.81 1968.96 520.86 o
-2 -11 8 0 1798.32 1769.86 226.45 o
-2 11 8 1 362.06 441.59 322.37 <
-2 -11 8 1 359.25 305.04 113.29 <
-2 11 8 2 131.41 390.39 341.09 <
-2 -11 8 2 135.80 32.96 136.75 <
-1 11 8 -2 304.53 -36.16 155.62 <
-1 -11 8 -2 299.12 175.14 105.49 <
-1 11 8 -1 349.65 -79.25 129.42 <
-1 -11 8 -1 310.92 261.41 94.01 <
-1 11 8 0 611.73 457.27 280.23 <
-1 -11 8 0 607.63 878.64 175.58 o
-1 11 8 1 48.75 -31.89 165.18 <
-1 -11 8 1 50.45 171.27 100.46 <
-1 11 8 2 15.37 283.71 241.34 <
-1 -11 8 2 14.51 5.07 75.66 <
0 11 8 -2 364.96 -233.21 142.38 <
0 -11 8 -2 370.71 -2.63 104.14 <
0 11 8 -1 1377.86 870.28 333.65 <
0 -11 8 -1 1377.15 1108.35 197.45 o
0 11 8 0 3302.42 3052.64 618.37 o
0 -11 8 0 3261.53 2892.02 314.52 o
0 11 8 1 1208.22 1351.74 487.97 <
0 -11 8 1 1189.57 1021.54 260.93 o
0 -11 8 2 68.51 -57.11 102.27 <
1 11 8 -2 401.01 297.54 136.07 <
1 -11 8 -2 396.63 185.34 147.10 <
1 -11 8 -1 215.97 148.75 97.42 <
1 -11 8 0 772.74 893.58 229.93 o
1 -11 8 1 158.60 264.24 154.45 <
1 -11 8 2 65.22 475.77 216.75 <
2 -11 8 -2 211.96 -73.09 144.79 <
2 -11 8 -1 670.00 545.38 197.17 <
2 -11 8 0 1614.59 1447.16 342.50 o
2 -11 8 1 740.26 715.52 218.69 o
2 -11 8 2 272.84 -205.77 212.40 <
3 -11 8 -2 234.97 213.25 154.99 <
3 -11 8 -1 35.76 -162.51 180.34 <
3 -11 8 0 362.12 314.00 273.13 <
3 -11 8 1 190.05 287.60 118.01 <
3 -11 8 2 111.26 862.38 446.18 <
4 -11 8 -2 29.10 408.64 335.35 <
4 -11 8 -1 328.51 406.90 331.52 <
4 -11 8 0 491.29 838.42 447.73 <
4 -11 8 1 551.37 426.14 390.26 <
5 -11 8 -2 79.13 363.55 384.14 <
-4 -12 8 -2 48.54 205.64 365.59 <
-4 12 8 -1 5.68 -303.35 208.97 <
-4 -12 8 -1 6.00 10.85 179.45 <
-4 12 8 0 511.06 439.40 338.81 <
-4 -12 8 0 526.59 1033.02 552.53 <
-4 12 8 1 47.54 367.96 307.33 <
-4 -12 8 1 49.18 439.35 365.65 <
-4 12 8 2 115.48 812.08 381.68 <
-4 -12 8 2 117.23 -184.42 428.48 <
-3 12 8 -2 139.87 102.35 103.70 <
-3 -12 8 -2 149.40 227.26 231.73 <
-3 12 8 -1 150.09 381.18 271.26 <
-3 -12 8 -1 148.41 180.77 208.82 <
-3 12 8 0 54.73 -306.06 209.51 <
-3 -12 8 0 55.90 296.93 305.52 <
-3 12 8 1 76.16 108.09 153.12 <
-3 -12 8 1 80.13 456.94 290.74 <
-3 12 8 2 33.97 5.76 162.03 <
-3 -12 8 2 38.41 -16.05 91.25 <
-2 12 8 -2 905.39 993.83 405.48 <
-2 -12 8 -2 893.84 1045.11 223.71 o
-2 12 8 -1 5.80 274.39 236.54 <
-2 -12 8 -1 4.47 59.46 63.46 <
-2 12 8 0 575.70 244.67 245.47 <
-2 -12 8 0 648.76 313.61 130.09 <
-2 12 8 1 131.65 131.21 188.79 <
-2 -12 8 1 141.16 29.79 88.85 <
-2 12 8 2 181.78 -8.31 114.92 <
-2 -12 8 2 180.19 97.18 86.44 <
-1 12 8 -2 221.35 -75.90 208.45 <
-1 -12 8 -2 223.02 96.14 94.55 <
-1 12 8 -1 92.13 112.35 136.23 <
-1 -12 8 -1 108.09 158.58 79.24 <
-1 12 8 0 93.54 454.18 218.12 <
-1 -12 8 0 94.22 430.85 117.77 o
-1 12 8 1 108.53 -5.61 145.53 <
-1 -12 8 1 110.15 159.34 146.07 <
-1 12 8 2 88.01 234.71 281.80 <
-1 -12 8 2 87.58 188.82 108.72 <
0 12 8 -2 211.15 609.22 288.54 <
0 -12 8 -2 225.00 139.55 109.72 <
0 12 8 -1 27.47 652.26 315.78 <
0 -12 8 -1 31.72 296.89 163.23 <
0 12 8 0 6441.32 5590.30 840.99 o
0 -12 8 0 6428.37 5829.45 591.36 o
0 12 8 1 193.95 371.09 355.20 <
0 -12 8 1 194.64 365.87 202.73 <
0 12 8 2 108.73 460.92 264.73 <
0 -12 8 2 109.80 -15.22 179.82 <
1 -12 8 -2 273.88 -21.31 91.11 <
1 -12 8 -1 76.44 43.00 112.01 <
1 -12 8 0 44.31 278.43 203.62 <
1 -12 8 1 93.12 -27.83 117.23 <
1 -12 8 2 277.33 97.09 149.57 <
2 -12 8 -2 87.51 286.91 157.44 <
2 -12 8 -1 55.17 395.64 194.64 <
2 -12 8 0 357.64 245.62 124.66 <
2 -12 8 1 151.54 268.47 214.80 <
2 -12 8 2 469.34 78.92 113.25 <
3 -12 8 -2 250.33 60.46 127.68 <
3 -12 8 -1 35.77 215.71 141.42 <
3 -12 8 0 26.12 -25.94 275.11 <
3 -12 8 1 263.78 -427.16 387.27 <
3 -12 8 2 133.20 44.74 228.54 <
4 -12 8 -2 71.93 114.36 127.49 <
4 -12 8 -1 45.94 162.66 405.81 <
4 -12 8 0 224.56 558.67 390.02 <
4 -12 8 1 340.46 357.52 427.96 <
-4 -13 8 -2 101.01 5.24 254.89 <
-4 -13 8 -1 137.49 -234.41 293.67 <
-4 13 8 0 1168.06 952.02 441.59 <
-4 -13 8 0 1156.92 809.90 535.91 <
-4 13 8 1 133.78 -150.73 143.21 <
-4 -13 8 1 128.60 -81.16 152.81 <
-4 13 8 2 71.97 209.15 241.69 <
-4 -13 8 2 72.52 440.73 517.62 <
-3 13 8 -2 63.32 301.37 230.82 <
-3 -13 8 -2 61.22 439.29 412.03 <
-3 13 8 -1 127.88 148.21 197.41 <
-3 -13 8 -1 128.78 167.29 192.45 <
-3 13 8 0 113.32 434.73 338.74 <
-3 -13 8 0 108.57 344.68 231.86 <
-3 13 8 1 117.67 221.82 193.08 <
-3 -13 8 1 115.93 -277.58 340.30 <
-3 13 8 2 26.64 233.10 184.42 <
-3 -13 8 2 31.04 418.40 196.32 <
-2 13 8 -2 129.13 476.64 275.11 <
-2 -13 8 -2 122.39 326.63 161.66 <
-2 13 8 -1 238.83 225.40 279.45 <
-2 -13 8 -1 234.46 319.69 128.75 <
-2 13 8 0 2750.35 3309.20 694.92 o
-2 -13 8 0 2743.66 2460.34 341.42 o
-2 13 8 1 202.51 221.34 200.43 <
-2 -13 8 1 198.28 245.28 152.32 <
-2 13 8 2 168.79 326.43 309.00 <
-2 -13 8 2 170.32 189.34 135.14 <
-1 13 8 -2 134.91 298.06 228.30 <
-1 -13 8 -2 132.11 -8.24 76.94 <
-1 13 8 -1 285.27 12.46 92.77 <
-1 -13 8 -1 285.46 90.64 126.68 <
-1 13 8 0 170.29 -52.96 144.97 <
-1 -13 8 0 168.80 49.74 95.44 <
-1 13 8 1 105.50 -105.27 143.97 <
-1 -13 8 1 112.66 -54.79 92.64 <
-1 13 8 2 51.83 139.51 238.47 <
-1 -13 8 2 49.42 39.74 93.59 <
0 13 8 -2 450.68 382.98 280.45 <
0 -13 8 -2 447.97 499.88 164.45 o
0 13 8 -1 130.59 590.49 277.19 <
0 -13 8 -1 137.49 162.20 121.62 <
0 13 8 0 1830.74 2355.89 567.91 o
0 -13 8 0 1802.09 2823.21 426.70 o
0 13 8 1 704.37 522.47 384.18 <
0 -13 8 1 689.75 373.83 163.38 <
0 13 8 2 468.00 227.04 302.06 <
0 -13 8 2 463.36 365.13 191.66 <
1 -13 8 -2 84.74 -62.26 62.70 <
1 -13 8 -1 180.26 14.09 90.85 <
1 -13 8 0 125.42 233.26 180.73 <
1 -13 8 1 200.44 579.02 198.69 <
1 -13 8 2 102.40 62.55 98.16 <
2 -13 8 -2 728.14 422.13 205.21 <
2 -13 8 -1 91.66 -29.70 77.75 <
2 -13 8 0 1788.16 2255.24 424.14 o
2 -13 8 1 262.72 526.14 253.12 <
2 -13 8 2 449.40 355.50 182.80 <
3 -13 8 -2 58.39 360.35 208.64 <
3 -13 8 -1 140.46 -92.25 135.18 <
3 -13 8 0 154.73 -265.43 190.51 <
3 -13 8 1 2.74 90.07 235.10 <
3 -13 8 2 52.88 601.87 439.62 <
4 -13 8 -2 453.62 556.25 389.33 <
4 -13 8 -1 103.82 232.32 277.36 <
4 -13 8 0 536.75 582.47 367.87 <
-4 -14 8 -2 0.89 -34.76 276.54 <
-4 -14 8 -1 134.45 730.13 460.25 <
-4 14 8 0 229.42 235.89 180.43 <
-4 -14 8 0 242.94 440.16 311.00 <
-4 14 8 1 69.87 -148.64 190.88 <
-4 -14 8 1 72.15 1025.83 559.71 <
-4 14 8 2 78.50 11.55 219.21 <
-4 -14 8 2 78.95 309.26 253.32 <
-3 14 8 -2 228.34 -343.80 112.90 <
-3 -14 8 -2 237.71 303.00 299.50 <
-3 14 8 -1 535.94 199.67 121.10 <
-3 -14 8 -1 542.14 469.05 469.64 <
-3 14 8 0 9.84 192.30 254.45 <
-3 -14 8 0 10.07 844.40 496.60 <
-3 14 8 1 212.42 8.63 108.92 <
-3 -14 8 1 206.31 148.01 311.32 <
-3 14 8 2 281.42 98.62 264.84 <
-3 -14 8 2 271.76 -127.23 229.78 <
-2 14 8 -2 724.59 815.12 386.89 <
-2 -14 8 -2 721.57 762.90 313.00 <
-2 14 8 -1 161.84 391.39 273.60 <
-2 -14 8 -1 168.32 65.22 129.92 <
-2 14 8 0 1631.13 1474.45 510.43 <
-2 -14 8 0 1578.80 1366.11 264.37 o
-2 14 8 1 125.39 493.90 365.07 <
-2 -14 8 1 130.77 23.61 96.62 <
-2 14 8 2 279.18 456.51 372.90 <
-2 -14 8 2 283.54 374.20 174.40 <
-1 14 8 -2 400.66 -415.51 256.56 <
-1 -14 8 -2 437.71 157.71 98.51 <
-1 14 8 -1 239.72 -53.07 130.59 <
-1 -14 8 -1 239.95 -43.68 113.22 <
-1 14 8 0 16.59 176.84 98.18 <
-1 -14 8 0 14.79 240.63 123.42 <
-1 14 8 1 299.93 245.51 181.80 <
-1 -14 8 1 297.16 136.99 104.74 <
-1 14 8 2 433.68 -316.41 128.96 <
-1 -14 8 2 424.96 151.31 122.49 <
0 14 8 -2 105.89 308.61 263.02 <
0 -14 8 -2 99.96 182.99 108.22 <
0 14 8 -1 334.89 287.65 268.86 <
0 -14 8 -1 348.95 309.02 140.86 <
0 14 8 0 113.21 828.93 473.51 <
0 -14 8 0 208.74 207.93 140.47 <
0 14 8 1 24.88 518.67 329.26 <
0 -14 8 1 24.24 239.99 145.99 <
0 14 8 2 288.21 325.67 304.33 <
0 -14 8 2 291.65 -62.16 85.40 <
1 -14 8 -2 242.26 187.91 139.44 <
1 -14 8 -1 452.92 227.86 106.05 <
1 -14 8 0 25.19 -17.07 112.90 <
1 -14 8 1 333.11 326.85 200.65 <
1 -14 8 2 396.42 -8.80 166.45 <
2 -14 8 -2 131.20 257.34 140.94 <
2 -14 8 -1 201.16 247.13 195.64 <
2 -14 8 0 2467.12 3291.06 511.43 o
2 -14 8 1 24.12 129.75 111.96 <
2 -14 8 2 546.98 300.67 172.10 <
3 -14 8 -2 54.02 -54.29 113.72 <
3 -14 8 -1 165.35 341.44 161.84 <
3 -14 8 0 12.85 105.31 116.42 <
3 -14 8 1 220.74 370.15 220.01 <
3 -14 8 2 155.06 361.13 261.34 <
4 -14 8 -2 35.35 281.89 177.51 <
4 -14 8 -1 55.64 -386.37 287.30 <
4 -14 8 0 421.70 398.27 376.85 <
-4 -15 8 0 504.01 -223.21 324.54 <
-4 15 8 1 74.71 529.25 309.83 <
-4 -15 8 1 78.46 93.44 241.51 <
-4 15 8 2 68.95 -276.76 312.82 <
-4 -15 8 2 70.96 261.84 432.49 <
-3 15 8 -2 27.54 -81.83 217.77 <
-3 -15 8 -2 30.18 167.99 336.13 <
-3 15 8 -1 21.21 120.71 159.97 <
-3 -15 8 -1 24.43 -139.14 319.09 <
-3 15 8 0 114.08 74.37 101.70 <
-3 -15 8 0 112.11 112.99 424.07 <
-3 15 8 1 36.38 670.04 407.77 <
-3 -15 8 1 39.90 289.02 283.39 <
-3 15 8 2 102.70 222.80 179.27 <
-3 -15 8 2 101.24 -36.72 198.62 <
-2 15 8 -2 695.68 852.47 444.92 <
-2 -15 8 -2 735.95 155.82 177.64 <
-2 15 8 -1 142.13 377.03 310.76 <
-2 -15 8 -1 139.80 220.12 188.49 <
-2 15 8 0 971.57 921.26 440.53 <
-2 -15 8 0 966.40 881.43 238.21 o
-2 -15 8 1 106.29 -63.24 126.27 <
-2 15 8 2 225.46 443.79 298.83 <
-2 -15 8 2 233.14 9.68 94.74 <
-1 15 8 -2 17.04 58.68 108.11 <
-1 -15 8 -2 19.58 82.81 125.75 <
-1 15 8 -1 25.35 -154.82 163.36 <
-1 -15 8 -1 23.84 -164.64 91.70 <
-1 15 8 0 113.96 -179.03 132.34 <
-1 -15 8 0 131.34 194.14 114.72 <
-1 15 8 1 149.93 6.09 181.47 <
-1 -15 8 1 153.64 207.23 129.09 <
-1 15 8 2 156.04 238.45 179.21 <
-1 -15 8 2 153.32 118.35 115.27 <
0 15 8 -2 108.90 1.26 86.37 <
0 -15 8 -2 106.46 -106.05 86.31 <
0 15 8 -1 334.57 1175.06 465.12 <
0 -15 8 -1 317.05 399.64 163.12 <
0 15 8 0 1959.87 1980.28 586.28 o
0 -15 8 0 1970.61 1470.71 260.98 o
0 15 8 1 199.46 613.59 409.76 <
0 -15 8 1 196.39 157.36 127.90 <
0 15 8 2 338.37 567.36 372.72 <
0 -15 8 2 339.21 58.40 97.59 <
1 -15 8 -2 22.74 181.27 153.10 <
1 -15 8 -1 7.46 247.36 137.97 <
1 -15 8 0 105.57 236.19 166.73 <
1 -15 8 1 597.61 268.17 99.86 <
1 -15 8 2 100.34 311.46 174.43 <
2 -15 8 -2 84.81 192.29 126.38 <
2 -15 8 -1 47.67 295.69 164.27 <
2 -15 8 0 1004.56 923.95 241.19 o
2 -15 8 1 166.57 160.84 144.14 <
2 -15 8 2 376.70 421.57 192.03 <
3 -15 8 -2 73.53 106.94 169.34 <
3 -15 8 -1 12.71 257.34 134.25 <
3 -15 8 0 20.22 -126.59 146.64 <
3 -15 8 1 168.18 135.73 192.04 <
3 -15 8 2 54.58 -114.94 107.72 <
4 -15 8 -2 62.05 322.04 222.30 <
4 -15 8 -1 36.48 207.38 268.26 <
-4 16 8 2 123.12 79.79 289.26 <
-4 -16 8 2 121.30 511.99 473.12 <
-3 16 8 -2 3.87 -196.95 219.40 <
-3 -16 8 -2 4.24 -999.93 549.28 <
-3 16 8 -1 401.32 250.52 355.05 <
-3 -16 8 -1 410.27 313.09 417.79 <
-3 16 8 0 16.05 -126.51 213.86 <
-3 -16 8 0 17.01 -78.24 346.48 <
-3 16 8 1 3.14 -183.97 183.75 <
-3 -16 8 1 2.16 -406.20 350.59 <
-3 16 8 2 46.76 459.07 320.24 <
-3 -16 8 2 42.84 53.29 134.01 <
-2 16 8 -2 75.65 422.35 355.26 <
-2 -16 8 -2 88.73 675.98 282.50 <
-2 -16 8 -1 300.28 -284.34 164.81 <
-2 16 8 0 87.37 97.61 206.21 <
-2 -16 8 0 87.52 172.97 103.66 <
-2 16 8 1 340.17 473.14 295.43 <
-2 -16 8 1 321.33 212.14 143.38 <
-2 16 8 2 293.06 630.80 310.74 <
-2 -16 8 2 294.74 27.81 144.82 <
-1 16 8 -2 91.21 176.62 291.11 <
-1 -16 8 -2 91.40 118.49 111.46 <
-1 16 8 -1 1249.75 1207.01 495.88 <
-1 -16 8 -1 1261.28 918.86 231.62 o
-1 16 8 0 21.13 48.07 135.36 <
-1 -16 8 0 20.65 138.73 159.21 <
-1 16 8 1 146.54 244.76 165.90 <
-1 -16 8 1 145.40 358.42 189.79 <
-1 16 8 2 113.04 -158.58 250.41 <
-1 -16 8 2 116.16 145.08 99.22 <
0 16 8 -2 40.46 -15.54 152.97 <
0 -16 8 -2 38.56 -23.78 128.60 <
0 16 8 -1 254.62 841.56 432.86 <
0 -16 8 -1 285.04 211.75 142.34 <
0 16 8 0 75.02 -31.91 127.35 <
0 -16 8 0 103.59 67.05 123.53 <
0 16 8 1 296.54 463.27 349.72 <
0 -16 8 1 322.13 393.72 174.42 <
0 16 8 2 298.08 1285.97 542.40 <
0 -16 8 2 300.68 363.70 169.69 <
1 -16 8 -2 443.97 140.92 136.20 <
1 -16 8 -1 116.62 275.19 170.68 <
1 -16 8 0 58.74 108.44 97.38 <
1 -16 8 1 21.61 420.59 189.56 <
1 -16 8 2 75.84 -85.37 113.66 <
2 -16 8 -2 77.47 186.99 151.99 <
2 -16 8 -1 195.87 119.10 117.09 <
2 -16 8 0 221.48 326.43 166.75 <
2 -16 8 1 16.77 225.76 139.38 <
2 -16 8 2 162.91 76.72 102.46 <
3 -16 8 -2 340.61 143.29 147.60 <
3 -16 8 -1 4.81 -75.11 116.61 <
3 -16 8 0 74.26 159.92 156.60 <
3 -16 8 1 187.65 107.31 165.86 <
3 -16 8 2 64.84 110.12 352.46 <
4 -16 8 -2 100.36 235.80 218.52 <
4 -16 8 -1 71.48 121.18 322.33 <
-3 -17 8 -2 47.27 176.60 333.17 <
-3 17 8 -1 334.69 394.61 293.54 <
-3 -17 8 -1 330.52 762.96 544.71 <
-3 17 8 0 683.10 173.30 291.52 <
-3 -17 8 0 666.80 807.81 606.65 <
-3 17 8 1 52.41 -781.59 360.33 <
-3 -17 8 1 45.03 258.04 223.65 <
-3 17 8 2 279.77 -64.70 204.58 <
-3 -17 8 2 281.15 284.32 199.71 <
-2 17 8 -2 84.49 318.13 257.23 <
-2 -17 8 -2 90.32 19.28 190.36 <
-2 -17 8 -1 372.28 -174.79 168.73 <
-2 17 8 0 574.43 904.97 411.53 <
-2 -17 8 0 564.46 590.45 268.36 <
-2 17 8 1 164.12 -5.89 244.04 <
-2 -17 8 1 168.64 -17.13 115.94 <
-2 17 8 2 219.37 256.47 314.89 <
-2 -17 8 2 206.58 284.82 225.80 <
-1 17 8 -2 114.88 95.88 106.36 <
-1 -17 8 -2 110.07 83.46 123.90 <
-1 17 8 -1 167.31 -6.83 175.18 <
-1 -17 8 -1 184.78 585.91 238.93 <
-1 17 8 0 1119.98 428.72 307.85 <
-1 -17 8 0 1070.85 637.02 251.52 <
-1 17 8 1 242.29 496.71 353.52 <
-1 -17 8 1 244.63 242.36 170.32 <
-1 17 8 2 391.84 406.96 248.01 <
-1 -17 8 2 398.27 118.92 147.97 <
0 17 8 -2 6.85 423.29 331.06 <
0 -17 8 -2 6.09 208.71 186.69 <
0 17 8 -1 282.25 247.36 225.32 <
0 -17 8 -1 276.96 -35.41 130.25 <
0 17 8 0 547.39 802.73 422.14 <
0 -17 8 0 532.10 465.36 223.84 <
0 17 8 1 94.23 -30.04 229.25 <
0 -17 8 1 84.68 -62.22 164.31 <
0 17 8 2 301.95 676.02 343.13 <
0 -17 8 2 292.23 265.30 228.26 <
1 -17 8 -2 126.96 325.98 188.64 <
1 -17 8 -1 245.12 118.36 132.68 <
1 -17 8 0 1214.03 1116.64 245.86 o
1 -17 8 1 386.60 948.32 251.52 o
1 -17 8 2 212.46 73.05 93.03 <
2 -17 8 -2 12.93 -104.72 75.53 <
2 -17 8 -1 38.11 68.74 133.90 <
2 -17 8 0 431.39 496.57 214.62 <
2 -17 8 1 78.96 226.30 163.84 <
2 -17 8 2 287.48 -96.16 182.77 <
3 -17 8 -2 81.18 -16.63 136.44 <
3 -17 8 -1 55.10 -58.52 85.22 <
3 -17 8 0 440.16 488.64 214.10 <
3 -17 8 1 207.08 388.92 192.66 <
4 -17 8 -2 35.20 -90.85 166.21 <
-3 -18 8 -1 13.69 -311.11 434.55 <
-3 18 8 0 1372.14 1074.85 419.07 <
-3 -18 8 0 1356.26 995.76 625.74 <
-3 18 8 1 130.73 348.15 312.17 <
-3 -18 8 1 131.52 602.56 492.62 <
-3 18 8 2 109.45 -324.48 346.70 <
-3 -18 8 2 108.27 272.13 238.52 <
-2 18 8 -2 31.36 422.75 329.41 <
-2 -18 8 -2 32.51 279.02 286.60 <
-2 18 8 -1 210.94 282.87 388.76 <
-2 -18 8 -1 216.54 176.14 202.82 <
-2 18 8 0 63.36 377.57 363.91 <
-2 -18 8 0 55.47 135.97 134.59 <
-2 18 8 1 116.00 -22.22 197.49 <
-2 -18 8 1 116.05 -128.12 137.34 <
-2 18 8 2 38.57 -34.22 153.42 <
-2 -18 8 2 40.50 -97.94 157.79 <
-1 18 8 -2 189.15 -291.13 199.54 <
-1 -18 8 -2 200.71 116.77 121.05 <
-1 18 8 -1 53.66 63.01 152.16 <
-1 -18 8 -1 55.70 53.00 138.92 <
-1 18 8 0 2563.66 2665.09 686.66 o
-1 -18 8 0 2572.23 2461.79 452.99 o
-1 18 8 1 115.89 16.07 158.03 <
-1 -18 8 1 113.07 -23.68 163.64 <
-1 18 8 2 117.64 -140.46 180.47 <
-1 -18 8 2 123.86 144.18 180.49 <
0 18 8 -2 89.58 985.02 443.88 <
0 -18 8 -2 90.71 312.06 170.77 <
0 18 8 -1 178.34 563.17 375.85 <
0 -18 8 -1 178.96 357.76 167.23 <
0 18 8 0 7.80 234.93 266.06 <
0 -18 8 0 4.76 204.34 149.94 <
0 18 8 1 300.39 448.53 452.12 <
0 -18 8 1 304.46 469.97 222.10 <
0 18 8 2 68.50 -58.44 197.45 <
0 -18 8 2 66.04 190.99 172.29 <
1 -18 8 -2 81.05 307.87 166.38 <
1 -18 8 -1 35.53 76.94 206.19 <
1 -18 8 0 1793.25 2146.29 424.46 o
1 -18 8 1 24.81 263.08 182.71 <
1 -18 8 2 5.06 378.05 225.14 <
2 -18 8 -2 94.48 231.26 177.90 <
2 -18 8 -1 58.23 111.46 198.77 <
2 -18 8 0 77.16 192.99 195.30 <
2 -18 8 1 337.02 445.07 197.95 <
2 -18 8 2 201.20 -10.06 108.49 <
3 -18 8 -2 24.03 103.24 184.84 <
3 -18 8 -1 41.05 207.12 152.14 <
3 -18 8 0 853.12 857.06 261.56 o
3 -18 8 1 66.03 361.78 245.56 <
4 -18 8 -2 19.32 -636.78 471.77 <
-3 19 8 0 36.93 889.67 480.20 <
-3 19 8 1 135.81 -11.04 116.68 <
-3 19 8 2 42.77 121.29 299.69 <
-3 -19 8 2 43.85 8.81 104.55 <
-2 19 8 -2 165.57 42.15 202.86 <
-2 -19 8 -2 179.78 146.47 217.73 <
-2 19 8 -1 481.15 365.17 238.88 <
-2 -19 8 -1 466.11 -151.68 199.75 <
-2 19 8 0 82.05 1050.33 445.51 <
-2 -19 8 0 81.07 397.76 327.80 <
-2 19 8 1 84.51 95.22 268.19 <
-2 -19 8 1 85.99 -39.76 167.43 <
-2 19 8 2 47.83 -338.04 340.24 <
-2 -19 8 2 47.64 -91.55 162.20 <
-1 19 8 -2 206.54 -197.86 241.49 <
-1 -19 8 -2 205.23 -294.52 190.73 <
-1 19 8 -1 1069.35 678.65 369.07 <
-1 -19 8 -1 1142.20 1055.39 308.72 o
-1 19 8 0 366.75 -359.28 320.82 <
-1 -19 8 0 383.49 313.82 188.06 <
-1 19 8 1 203.67 -193.73 266.89 <
-1 -19 8 1 191.97 216.12 164.31 <
-1 19 8 2 148.28 -22.91 151.36 <
-1 -19 8 2 153.26 329.20 216.21 <
0 19 8 -2 197.79 802.29 400.24 <
0 -19 8 -2 185.40 216.14 186.95 <
0 19 8 -1 252.71 312.76 265.11 <
0 -19 8 -1 243.64 73.18 144.40 <
0 19 8 0 53.81 564.78 355.63 <
0 -19 8 0 62.95 245.69 171.43 <
0 19 8 1 281.13 719.24 435.94 <
0 -19 8 1 266.26 326.82 229.43 <
0 -19 8 2 68.26 99.36 127.66 <
1 -19 8 -2 295.01 212.10 200.84 <
1 -19 8 -1 82.36 28.87 176.01 <
1 -19 8 0 398.63 157.16 191.16 <
1 -19 8 1 252.64 297.22 203.90 <
1 -19 8 2 151.63 188.27 199.69 <
2 -19 8 -2 139.73 247.06 247.36 <
2 -19 8 -1 183.76 111.24 207.51 <
2 -19 8 0 140.07 174.97 130.40 <
2 -19 8 1 346.41 583.97 295.02 <
2 -19 8 2 109.01 23.78 278.00 <
3 -19 8 -2 170.95 -6.63 168.66 <
3 -19 8 -1 29.09 285.76 247.41 <
3 -19 8 0 152.86 41.65 199.60 <
-2 20 8 -2 112.09 -192.34 243.69 <
-2 -20 8 -2 116.39 59.57 104.96 <
-2 20 8 -1 114.29 304.13 294.13 <
-2 -20 8 -1 109.95 -28.13 140.84 <
-2 20 8 0 461.71 1161.05 616.09 <
-2 -20 8 0 445.46 435.68 238.43 <
-2 20 8 1 124.20 108.51 281.17 <
-2 -20 8 1 124.48 910.12 458.68 <
-2 20 8 2 315.20 -40.55 243.01 <
-2 -20 8 2 322.16 179.23 149.38 <
-1 20 8 -2 25.23 81.14 264.56 <
-1 -20 8 -2 28.58 -26.92 202.40 <
-1 20 8 -1 498.69 122.60 150.53 <
-1 -20 8 -1 493.40 662.17 374.29 <
-1 20 8 0 206.60 225.47 243.84 <
-1 -20 8 0 190.92 -227.19 184.51 <
-1 20 8 1 77.85 -150.68 247.15 <
-1 -20 8 1 80.89 -161.90 167.29 <
-1 20 8 2 89.55 364.29 436.29 <
-1 -20 8 2 86.57 269.69 202.27 <
0 20 8 -2 82.98 223.88 340.11 <
0 -20 8 -2 81.52 16.26 142.47 <
0 20 8 -1 89.34 356.59 319.00 <
0 -20 8 -1 80.75 186.21 173.64 <
0 20 8 0 265.16 536.78 461.31 <
0 -20 8 0 294.63 257.13 225.08 <
0 20 8 1 419.91 1053.77 508.53 <
0 -20 8 1 426.12 276.93 222.80 <
0 20 8 2 383.32 806.79 480.25 <
0 -20 8 2 387.80 263.21 220.19 <
1 -20 8 -2 84.14 204.93 169.07 <
1 -20 8 -1 110.43 5.39 111.07 <
1 -20 8 0 191.53 429.44 278.58 <
1 -20 8 1 74.57 9.04 96.88 <
1 -20 8 2 88.83 241.12 193.99 <
2 -20 8 -2 75.66 106.35 175.56 <
2 -20 8 -1 24.34 135.31 209.90 <
2 -20 8 0 315.03 293.46 180.42 <
3 -20 8 -2 118.76 160.18 251.73 <
3 -20 8 -1 97.17 112.88 186.82 <
-2 21 8 -2 353.63 483.23 335.17 <
-2 -21 8 -2 360.38 430.61 388.27 <
-2 21 8 -1 13.02 272.23 308.63 <
-2 -21 8 -1 13.37 97.74 211.04 <
-2 21 8 0 490.51 1225.86 560.60 <
-2 -21 8 0 482.93 311.54 249.13 <
-2 21 8 1 97.30 465.12 382.79 <
-2 -21 8 2 38.81 -102.86 130.96 <
-1 21 8 -2 163.34 99.48 194.79 <
-1 -21 8 -2 172.65 -45.11 93.70 <
-1 21 8 -1 381.22 -20.91 221.64 <
-1 -21 8 -1 345.54 535.67 238.58 <
-1 21 8 0 196.63 -371.50 239.39 <
-1 -21 8 0 196.25 186.23 182.58 <
-1 21 8 1 209.74 7.72 193.64 <
-1 -21 8 1 208.31 -257.45 170.40 <
-1 21 8 2 13.17 -36.03 227.52 <
-1 -21 8 2 12.25 186.18 213.47 <
0 21 8 -2 221.15 333.37 247.80 <
0 -21 8 -2 213.82 275.43 178.60 <
0 21 8 -1 61.21 626.74 418.55 <
0 -21 8 -1 59.28 169.21 181.14 <
0 21 8 0 775.62 1440.53 544.04 <
0 -21 8 0 776.19 644.19 220.69 <
0 -21 8 1 52.27 51.55 199.36 <
0 21 8 2 34.30 994.26 611.61 <
0 -21 8 2 39.22 -122.18 158.27 <
1 -21 8 -2 219.88 205.40 227.15 <
1 21 8 -1 172.55 1072.44 613.89 <
1 -21 8 -1 172.63 355.20 187.18 <
1 -21 8 0 327.98 152.45 179.86 <
2 -21 8 -2 189.54 322.80 197.86 <
2 -21 8 -1 45.18 255.99 197.34 <
-1 22 8 -2 181.69 279.86 265.93 <
-1 -22 8 -2 163.98 329.82 226.91 <
-1 22 8 -1 383.09 -167.53 151.42 <
-1 -22 8 -1 398.11 180.29 193.10 <
-1 22 8 0 69.13 730.74 402.18 <
-1 -22 8 0 81.56 99.16 164.05 <
-1 -22 8 1 50.67 -148.18 202.41 <
0 22 8 -2 174.49 -96.70 280.36 <
0 -22 8 -2 177.71 218.10 209.41 <
0 22 8 -1 66.35 -40.81 164.82 <
0 -22 8 -1 61.58 -77.13 159.38 <
0 22 8 0 1567.87 1660.54 606.00 <
0 -22 8 0 1570.95 938.39 463.27 <
1 22 8 -2 88.35 551.69 359.78 <
1 -22 8 -2 89.70 598.48 259.10 <
1 22 8 -1 191.76 668.83 460.64 <
-1 -23 8 -2 12.06 -234.10 343.76 <
0 23 8 -2 66.00 -62.59 174.92 <
-5 0 9 -1 33.90 193.58 117.36 <
-5 0 9 0 1396.87 1176.93 484.97 <
-5 0 9 1 573.82 149.18 273.60 <
-5 0 9 2 131.57 -2.80 112.57 <
-4 0 9 -2 16.63 -9.72 159.99 <
-4 0 9 -1 185.71 208.71 147.84 <
-4 0 9 0 29.26 -61.68 201.64 <
-4 0 9 1 29.80 149.70 171.60 <
-4 0 9 2 111.44 267.11 266.17 <
-3 0 9 -2 57.25 223.51 133.62 <
-3 0 9 -1 309.93 652.11 300.63 <
-3 0 9 0 5343.89 5040.38 803.94 o
-3 0 9 1 1535.96 1280.74 413.03 o
-3 0 9 2 200.82 316.91 216.23 <
-2 0 9 -2 22.71 178.01 166.79 <
-2 0 9 -1 216.39 -354.30 234.51 <
-2 0 9 0 18.37 322.32 276.84 <
-2 0 9 1 33.22 112.05 193.45 <
-2 0 9 2 10.61 205.23 248.71 <
-1 0 9 -2 29.34 111.25 114.31 <
-1 0 9 -1 7221.18 7937.96 648.89 o
-1 0 9 0 15723.10 14055.80 875.43 o
-1 0 9 1 1067.27 778.47 199.97 o
-1 0 9 2 75.27 67.37 86.51 <
0 0 9 -2 72.73 -38.37 58.87 <
0 0 9 -1 54.07 -12.72 90.40 <
0 0 9 0 202.56 170.12 89.53 <
0 0 9 1 45.32 -79.63 78.77 <
0 0 9 2 14.88 72.57 81.85 <
1 0 9 -2 456.39 791.59 190.71 o
1 0 9 -1 463.31 262.78 129.29 <
1 0 9 0 14815.50 13496.50 801.36 o
1 0 9 1 1926.33 1540.60 306.56 o
1 0 9 2 246.06 108.18 138.21 <
2 0 9 -2 29.38 65.83 123.27 <
2 0 9 -1 20.32 225.25 108.96 <
2 0 9 0 138.55 121.90 105.07 <
2 0 9 1 77.73 231.34 309.91 <
2 0 9 2 10.55 269.08 298.91 <
3 0 9 -2 1016.99 690.04 204.88 o
3 0 9 -1 1376.52 1020.41 253.24 o
3 0 9 0 3462.61 3281.72 479.23 o
3 0 9 1 2.29 254.30 267.48 <
3 0 9 2 77.87 603.11 382.42 <
4 0 9 -2 0.46 132.55 150.20 <
4 0 9 -1 35.12 90.90 132.77 <
4 0 9 0 64.42 8.59 169.51 <
4 0 9 1 431.95 -235.91 278.23 <
4 0 9 2 56.39 64.48 167.34 <
5 0 9 -2 868.21 39.81 215.34 <
5 0 9 -1 695.51 0.20 222.56 <
-5 1 9 -1 544.09 385.05 276.11 <
-5 1 9 0 78.60 -142.70 223.62 <
-5 -1 9 0 84.76 157.49 340.54 <
-5 1 9 1 49.51 344.63 330.41 <
-5 -1 9 1 49.42 526.19 292.24 <
-5 1 9 2 79.66 234.21 184.92 <
-5 -1 9 2 74.72 335.00 268.36 <
-4 1 9 -2 81.52 99.16 142.42 <
-4 -1 9 -2 86.15 -81.16 145.84 <
-4 1 9 -1 101.05 154.77 156.36 <
-4 -1 9 -1 101.54 457.25 345.30 <
-4 1 9 0 215.51 170.07 280.74 <
-4 -1 9 0 202.60 -118.51 190.77 <
-4 1 9 1 128.00 163.90 221.65 <
-4 -1 9 1 118.94 225.95 328.91 <
-4 1 9 2 47.04 107.88 310.24 <
-4 -1 9 2 50.22 284.37 267.65 <
-3 1 9 -2 13.61 19.91 168.12 <
-3 -1 9 -2 11.55 159.34 118.35 <
-3 1 9 -1 899.83 722.13 327.59 <
-3 -1 9 -1 913.36 538.43 297.02 <
-3 1 9 0 61.04 406.59 270.78 <
-3 -1 9 0 66.31 377.22 266.30 <
-3 1 9 1 62.10 -48.35 106.12 <
-3 -1 9 1 55.68 124.33 85.25 <
-3 1 9 2 75.34 62.79 104.68 <
-3 -1 9 2 71.63 51.74 209.21 <
-2 1 9 -2 97.27 121.12 162.66 <
-2 -1 9 -2 88.37 186.19 151.99 <
-2 1 9 -1 354.85 766.86 343.42 <
-2 -1 9 -1 351.59 611.59 251.00 <
-2 1 9 0 323.77 319.02 224.28 <
-2 -1 9 0 309.90 412.74 273.32 <
-2 1 9 1 575.89 585.11 305.22 <
-2 -1 9 1 564.11 762.66 323.61 <
-2 1 9 2 192.66 156.42 219.47 <
-2 -1 9 2 204.72 117.46 119.97 <
-1 1 9 -2 305.85 347.94 237.01 <
-1 -1 9 -2 306.63 230.26 96.36 <
-1 1 9 -1 2635.59 2618.82 371.81 o
-1 -1 9 -1 2534.83 2240.62 373.24 o
-1 1 9 0 144.96 33.61 103.33 <
-1 -1 9 0 146.13 274.76 169.90 <
-1 1 9 1 68.20 -124.09 102.05 <
-1 -1 9 1 59.36 111.20 137.01 <
-1 1 9 2 106.71 198.03 121.10 <
-1 -1 9 2 106.72 175.40 100.49 <
0 1 9 -2 69.34 67.64 99.48 <
0 -1 9 -2 75.09 71.03 118.16 <
0 1 9 -1 694.69 732.96 195.12 o
0 -1 9 -1 704.87 775.42 201.04 o
0 1 9 0 35.51 96.72 95.09 <
0 -1 9 0 23.71 -67.07 58.05 <
0 1 9 1 2806.81 2840.73 384.31 o
0 -1 9 1 2799.33 2751.94 364.78 o
0 1 9 2 195.39 183.36 133.64 <
0 -1 9 2 199.03 70.90 100.59 <
1 1 9 -2 158.99 239.80 134.25 <
1 -1 9 -2 154.90 123.79 87.09 <
1 1 9 -1 855.57 592.56 187.82 o
1 -1 9 -1 852.17 863.14 202.99 o
1 1 9 0 172.38 188.66 104.81 <
1 -1 9 0 167.88 216.77 150.05 <
1 1 9 1 1947.32 1870.67 316.91 o
1 -1 9 1 1944.45 1906.86 316.41 o
1 1 9 2 253.64 361.42 179.55 <
1 -1 9 2 249.63 401.03 126.90 o
2 1 9 -2 109.49 279.56 148.20 <
2 -1 9 -2 120.92 265.91 103.36 <
2 1 9 -1 273.12 580.86 191.21 o
2 -1 9 -1 289.74 360.20 110.88 o
2 1 9 0 214.93 406.57 180.53 <
2 -1 9 0 210.69 401.79 342.57 <
2 1 9 1 1998.45 1960.06 556.10 o
2 -1 9 1 1955.21 2221.26 634.69 o
2 1 9 2 556.36 477.79 275.39 <
2 -1 9 2 550.10 911.38 444.49 <
3 1 9 -2 131.27 247.73 152.36 <
3 -1 9 -2 131.72 221.95 127.49 <
3 1 9 -1 424.94 545.54 193.36 <
3 -1 9 -1 435.16 356.30 141.44 <
3 1 9 0 34.81 450.09 194.36 <
3 -1 9 0 31.89 -110.74 95.72 <
3 1 9 1 93.57 67.61 101.88 <
3 -1 9 1 71.85 -207.71 139.53 <
3 1 9 2 90.50 -206.45 278.89 <
3 -1 9 2 94.93 142.47 109.79 <
4 1 9 -2 54.08 84.35 129.79 <
4 -1 9 -2 61.98 157.62 117.33 <
4 1 9 -1 65.53 280.39 183.36 <
4 -1 9 -1 70.02 89.83 198.53 <
4 1 9 0 212.94 228.34 149.20 <
4 -1 9 0 218.30 278.11 179.86 <
4 1 9 1 808.10 408.01 333.11 <
4 -1 9 1 789.34 5.81 117.70 <
4 1 9 2 398.82 214.08 209.06 <
4 -1 9 2 372.43 -241.54 344.02 <
5 1 9 -2 55.20 57.16 106.16 <
5 -1 9 -2 53.17 209.41 165.14 <
5 1 9 -1 153.97 -8.46 151.58 <
5 -1 9 -1 161.92 306.41 397.64 <
5 1 9 0 14.65 -159.55 160.57 <
-5 2 9 -1 102.89 673.05 256.23 <
-5 2 9 0 24.40 134.05 233.36 <
-5 -2 9 0 28.11 -439.20 305.45 <
-5 2 9 1 78.83 -10.04 113.23 <
-5 -2 9 1 75.22 51.07 198.73 <
-5 2 9 2 3.25 -399.64 311.65 <
-5 -2 9 2 3.16 -189.86 310.76 <
-4 2 9 -2 9.13 -107.75 164.84 <
-4 -2 9 -2 9.77 -335.37 243.86 <
-4 2 9 -1 577.36 402.09 227.54 <
-4 -2 9 -1 565.95 730.87 290.32 <
-4 2 9 0 306.50 10.22 124.27 <
-4 -2 9 0 300.42 433.11 259.58 <
-4 2 9 1 32.11 478.99 275.17 <
-4 -2 9 1 29.95 -373.37 191.95 <
-4 2 9 2 113.39 459.58 273.69 <
-4 -2 9 2 118.61 106.75 233.02 <
-3 2 9 -2 54.73 48.65 175.47 <
-3 -2 9 -2 57.04 -43.66 80.74 <
-3 2 9 -1 74.03 83.09 83.59 <
-3 -2 9 -1 67.53 341.20 218.56 <
-3 2 9 0 120.46 66.29 165.62 <
-3 -2 9 0 125.12 219.60 259.73 <
-3 2 9 1 323.23 706.24 342.91 <
-3 -2 9 1 329.84 439.85 256.56 <
-3 2 9 2 60.17 417.46 276.34 <
-3 -2 9 2 57.65 210.21 234.06 <
-2 2 9 -2 59.56 166.60 170.64 <
-2 -2 9 -2 59.91 67.37 86.68 <
-2 2 9 -1 326.01 416.38 274.28 <
-2 -2 9 -1 339.45 245.67 129.97 <
-2 2 9 0 2670.33 2795.77 548.56 o
-2 -2 9 0 2683.46 1922.99 443.98 o
-2 2 9 1 248.11 658.72 295.71 <
-2 -2 9 1 244.33 140.57 120.42 <
-2 2 9 2 269.02 296.39 194.58 <
-2 -2 9 2 282.57 845.29 320.63 <
-1 2 9 -2 342.47 -91.31 109.11 <
-1 -2 9 -2 345.29 151.07 94.29 <
-1 2 9 -1 3421.65 4329.37 477.71 o
-1 -2 9 -1 3503.23 3851.80 351.26 o
-1 2 9 0 375.23 374.09 140.25 <
-1 -2 9 0 369.98 241.58 154.68 <
-1 2 9 1 552.46 424.88 150.27 <
-1 -2 9 1 547.30 830.23 225.01 o
-1 2 9 2 173.64 522.29 182.03 <
-1 -2 9 2 167.73 223.51 146.88 <
0 2 9 -2 135.38 61.03 104.79 <
0 -2 9 -2 130.70 146.84 135.81 <
0 2 9 -1 119.90 128.59 108.72 <
0 -2 9 -1 131.09 -9.83 77.68 <
0 2 9 0 313.72 225.10 151.57 <
0 -2 9 0 217.84 -22.92 88.75 <
0 2 9 1 1294.45 1540.01 290.65 o
0 -2 9 1 1288.05 1163.27 244.76 o
0 2 9 2 197.87 232.21 138.20 <
0 -2 9 2 205.90 163.47 140.27 <
1 2 9 -2 484.15 -113.77 123.85 <
1 -2 9 -2 477.01 260.67 122.97 <
1 2 9 -1 568.31 250.28 139.83 <
1 -2 9 -1 566.07 465.53 155.08 o
1 2 9 0 209.88 170.21 115.05 <
1 -2 9 0 209.92 314.89 145.03 <
1 2 9 1 2694.21 2237.89 337.87 o
1 -2 9 1 2687.33 2520.56 346.33 o
1 2 9 2 415.57 38.87 90.55 <
1 -2 9 2 423.96 106.99 117.33 <
2 2 9 -2 130.55 116.49 135.07 <
2 -2 9 -2 122.85 194.10 101.24 <
2 2 9 -1 62.47 -64.29 87.92 <
2 2 9 0 3155.03 3110.36 429.64 o
2 -2 9 0 3162.77 2689.61 632.54 o
2 2 9 1 903.10 762.25 211.97 o
2 -2 9 1 899.26 1647.13 574.45 <
2 2 9 2 870.01 1366.29 479.20 <
2 -2 9 2 859.06 1381.57 516.66 <
3 2 9 -2 233.88 -5.63 148.29 <
3 -2 9 -2 220.45 94.83 160.66 <
3 2 9 -1 446.64 395.81 214.51 <
3 -2 9 -1 430.26 315.37 132.47 <
3 2 9 0 271.69 312.74 195.95 <
3 -2 9 0 287.47 479.95 214.27 <
3 2 9 1 221.74 297.89 168.42 <
3 -2 9 1 233.21 157.27 206.97 <
3 2 9 2 324.04 -206.06 123.44 <
3 -2 9 2 340.22 -371.37 312.45 <
4 2 9 -2 23.28 10.81 69.53 <
4 -2 9 -2 20.96 125.18 101.61 <
4 2 9 -1 18.00 174.95 159.55 <
4 -2 9 -1 16.37 -95.57 165.75 <
4 2 9 0 428.90 103.77 98.57 <
4 -2 9 0 418.74 118.09 234.06 <
4 2 9 1 753.72 1472.95 401.61 o
4 -2 9 1 746.25 787.86 438.55 <
4 2 9 2 16.93 38.37 304.63 <
4 -2 9 2 16.03 248.38 257.41 <
5 2 9 -2 84.80 280.63 260.71 <
5 -2 9 -2 69.86 232.71 203.27 <
5 2 9 -1 49.92 -59.14 137.59 <
5 -2 9 -1 41.71 358.48 307.63 <
5 2 9 0 162.13 366.20 208.51 <
-5 3 9 -1 353.15 81.38 88.20 <
-5 3 9 0 242.65 -179.08 229.90 <
-5 3 9 1 37.13 -262.80 251.71 <
-5 -3 9 1 36.46 286.15 286.54 <
-5 3 9 2 185.37 113.42 142.77 <
-5 -3 9 2 186.19 -402.90 155.94 <
-4 3 9 -2 527.71 -10.35 166.62 <
-4 -3 9 -2 489.98 390.89 284.45 <
-4 3 9 -1 50.80 295.60 265.23 <
-4 -3 9 -1 55.34 177.80 260.87 <
-4 3 9 0 792.12 583.28 273.28 <
-4 -3 9 0 765.54 760.20 360.61 <
-4 3 9 1 241.75 504.29 228.88 <
-4 -3 9 1 229.23 416.12 231.06 <
-4 3 9 2 113.73 347.52 247.62 <
-4 -3 9 2 111.23 100.99 206.91 <
-3 3 9 -2 128.94 220.54 216.12 <
-3 -3 9 -2 126.26 239.58 167.43 <
-3 3 9 -1 318.78 419.70 246.41 <
-3 -3 9 -1 328.10 116.99 140.10 <
-3 3 9 0 455.64 451.40 276.52 <
-3 -3 9 0 451.18 759.40 299.13 <
-3 3 9 1 68.50 645.78 343.17 <
-3 -3 9 1 68.29 253.32 285.95 <
-3 3 9 2 307.44 518.82 323.80 <
-3 -3 9 2 314.18 356.04 286.87 <
-2 3 9 -2 1548.20 1019.15 336.13 o
-2 -3 9 -2 1617.29 1426.14 279.15 o
-2 3 9 -1 37.72 3.57 67.81 <
-2 -3 9 -1 44.28 74.92 105.12 <
-2 3 9 0 4951.65 5557.67 792.38 o
-2 -3 9 0 4832.92 5000.89 741.48 o
-2 3 9 1 314.43 338.61 257.91 <
-2 -3 9 1 307.16 339.44 201.23 <
-2 3 9 2 243.57 310.28 227.51 <
-2 -3 9 2 230.62 157.68 99.38 <
-1 3 9 -2 785.62 778.53 303.00 <
-1 -3 9 -2 767.66 620.26 163.84 o
-1 3 9 -1 2283.57 2415.96 499.47 o
-1 -3 9 -1 2242.15 2213.77 274.82 o
-1 3 9 0 1288.90 1680.29 312.33 o
-1 -3 9 0 1265.62 1328.72 290.04 o
-1 3 9 1 34.46 268.91 159.44 <
-1 -3 9 1 25.72 181.93 151.81 <
-1 3 9 2 393.03 412.46 165.77 <
-1 -3 9 2 406.77 325.48 139.33 <
0 3 9 -2 283.29 237.73 139.59 <
0 -3 9 -2 274.30 167.97 102.20 <
0 3 9 -1 42.29 51.83 87.42 <
0 -3 9 -1 41.50 140.23 129.66 <
0 3 9 0 857.49 934.61 233.95 o
0 -3 9 0 930.76 694.87 185.79 o
0 3 9 1 168.55 202.62 137.66 <
0 -3 9 1 162.04 40.76 114.85 <
0 3 9 2 311.83 183.73 137.59 <
0 -3 9 2 300.60 286.95 154.18 <
1 3 9 -2 243.83 320.22 151.60 <
1 -3 9 -2 233.24 140.32 94.31 <
1 3 9 -1 426.45 333.04 137.88 <
1 -3 9 -1 425.71 309.65 136.96 <
1 3 9 0 1116.51 1152.36 243.65 o
1 -3 9 0 1117.05 985.76 216.45 o
1 3 9 1 671.41 699.03 211.43 o
1 -3 9 1 697.41 614.91 208.80 <
1 3 9 2 527.57 617.45 194.19 o
1 -3 9 2 540.61 371.54 252.71 <
2 3 9 -2 614.99 258.76 130.99 <
2 -3 9 -2 609.30 334.80 92.46 o
2 3 9 -1 326.78 240.58 132.05 <
2 -3 9 -1 323.08 359.87 179.62 <
2 3 9 0 4107.69 4156.19 480.70 o
2 -3 9 0 4094.79 3587.50 761.23 o
2 3 9 1 91.37 229.58 129.40 <
2 -3 9 1 82.94 320.22 255.50 <
2 3 9 2 147.48 -81.01 123.42 <
2 -3 9 2 142.66 238.54 201.08 <
3 3 9 -2 135.60 175.51 173.29 <
3 -3 9 -2 122.53 104.38 106.98 <
3 3 9 -1 222.18 90.79 193.12 <
3 -3 9 -1 218.35 266.21 295.41 <
3 3 9 0 752.05 842.05 402.39 <
3 -3 9 0 756.22 1867.01 585.06 o
3 3 9 1 763.47 693.44 221.58 o
3 -3 9 1 734.54 817.21 444.29 <
3 3 9 2 296.78 465.64 259.63 <
3 -3 9 2 297.76 483.60 283.43 <
4 3 9 -2 601.41 -13.33 147.10 <
4 -3 9 -2 604.39 123.46 152.45 <
4 3 9 -1 379.61 122.14 134.96 <
4 -3 9 -1 377.19 166.31 207.84 <
4 3 9 0 700.31 491.53 227.13 <
4 -3 9 0 717.02 796.31 465.86 <
4 3 9 1 8.56 32.52 157.97 <
4 -3 9 1 12.52 -170.07 146.66 <
4 3 9 2 123.54 -130.20 289.04 <
4 -3 9 2 114.43 -187.43 314.74 <
5 3 9 -2 58.46 326.32 156.82 <
5 -3 9 -2 54.00 664.82 294.08 <
5 3 9 -1 32.02 119.72 227.04 <
5 -3 9 -1 30.44 6.61 132.90 <
5 3 9 0 305.57 -36.44 241.02 <
-5 4 9 -1 21.18 105.66 240.54 <
-5 4 9 0 264.03 77.27 187.12 <
-5 4 9 1 117.75 -46.87 299.04 <
-5 -4 9 1 121.51 381.83 319.02 <
-5 4 9 2 49.62 -11.78 117.27 <
-5 -4 9 2 50.66 78.31 129.03 <
-4 4 9 -2 51.87 -11.13 152.68 <
-4 -4 9 -2 50.46 64.89 202.69 <
-4 4 9 -1 726.83 101.46 169.25 <
-4 -4 9 -1 703.18 323.46 330.72 <
-4 4 9 0 117.14 313.56 269.32 <
-4 -4 9 0 118.45 -294.83 275.28 <
-4 4 9 1 135.40 -91.11 146.51 <
-4 -4 9 1 126.04 344.28 268.04 <
-4 4 9 2 285.04 218.56 237.80 <
-4 -4 9 2 293.56 420.20 245.38 <
-3 4 9 -2 132.19 99.33 151.70 <
-3 -4 9 -2 126.53 154.62 96.83 <
-3 4 9 -1 68.18 620.50 318.04 <
-3 -4 9 -1 81.05 191.64 156.64 <
-3 4 9 0 587.13 539.03 346.70 <
-3 -4 9 0 574.14 513.38 268.34 <
-3 4 9 1 268.10 99.48 232.80 <
-3 -4 9 1 289.88 -88.03 78.74 <
-3 4 9 2 175.04 290.78 247.76 <
-3 -4 9 2 178.39 24.31 157.07 <
-2 4 9 -2 8.61 82.42 245.51 <
-2 -4 9 -2 10.51 116.57 146.75 <
-2 4 9 -1 862.52 478.57 255.56 <
-2 -4 9 -1 824.73 664.43 198.30 o
-2 4 9 0 154.45 21.48 128.09 <
-2 -4 9 0 153.70 122.36 106.98 <
-2 4 9 1 141.29 3.26 95.92 <
-2 -4 9 1 124.86 314.63 209.95 <
-2 4 9 2 477.91 541.64 261.97 <
-2 -4 9 2 492.28 422.38 199.79 <
-1 4 9 -2 356.24 -106.92 163.34 <
-1 -4 9 -2 359.79 73.11 106.14 <
-1 4 9 -1 383.39 109.05 170.19 <
-1 -4 9 -1 382.94 370.00 130.16 <
-1 4 9 0 2246.47 2156.55 350.70 o
-1 -4 9 0 2206.16 1918.08 337.59 o
-1 4 9 1 309.30 -37.94 134.16 <
-1 -4 9 1 316.80 81.01 133.47 <
-1 4 9 2 282.60 132.47 111.68 <
-1 -4 9 2 295.22 61.72 111.31 <
0 4 9 -2 115.58 292.41 150.08 <
0 -4 9 -2 121.99 217.25 135.70 <
0 4 9 -1 1435.52 1449.66 288.39 o
0 -4 9 -1 1430.83 1188.29 254.08 o
0 4 9 0 17.59 154.53 167.23 <
0 -4 9 0 9.37 182.92 123.79 <
0 4 9 1 95.92 97.11 88.42 <
0 -4 9 1 98.47 284.48 121.75 <
0 4 9 2 308.04 3.19 80.25 <
0 -4 9 2 325.78 90.90 106.90 <
1 4 9 -2 211.80 156.51 111.85 <
1 -4 9 -2 214.46 96.07 76.75 <
1 4 9 -1 129.55 480.10 161.10 <
1 -4 9 -1 144.65 187.21 100.22 <
1 4 9 0 2036.44 2191.56 341.24 o
1 -4 9 0 2009.78 1876.90 307.52 o
1 4 9 1 1257.83 916.61 239.21 o
1 -4 9 1 1329.54 878.54 383.90 <
1 4 9 2 232.25 328.85 147.46 <
1 -4 9 2 206.69 454.40 289.52 <
2 4 9 -2 224.95 453.38 195.45 <
2 -4 9 -2 232.77 544.93 333.11 <
2 4 9 -1 1586.55 1460.33 292.89 o
2 -4 9 -1 1582.82 1540.58 470.86 o
2 4 9 0 487.38 466.42 197.49 <
2 -4 9 0 491.70 1369.42 473.79 <
2 4 9 1 135.99 -18.55 135.40 <
2 -4 9 1 145.53 293.50 296.58 <
2 4 9 2 244.43 -45.44 112.85 <
2 -4 9 2 253.92 299.89 281.58 <
3 4 9 -2 11.89 -86.07 137.90 <
3 -4 9 -2 11.92 -48.52 119.46 <
3 4 9 -1 34.31 343.33 191.19 <
3 -4 9 -1 32.49 -31.33 119.44 <
3 4 9 0 594.17 311.89 262.74 <
3 -4 9 0 584.68 472.12 218.25 <
3 4 9 1 370.74 0.39 145.32 <
3 -4 9 1 325.00 376.22 388.44 <
3 4 9 2 133.46 -193.60 251.86 <
3 -4 9 2 130.21 -204.10 157.60 <
4 4 9 -2 49.59 308.19 293.91 <
4 -4 9 -2 51.78 374.65 245.78 <
4 4 9 -1 457.65 670.48 267.54 <
4 -4 9 -1 458.74 255.52 325.85 <
4 4 9 0 166.65 398.83 219.75 <
4 -4 9 0 163.83 451.16 261.52 <
4 4 9 1 94.50 124.73 133.16 <
4 -4 9 1 94.55 570.04 391.98 <
4 4 9 2 46.42 172.93 216.77 <
4 -4 9 2 44.89 -554.30 545.58 <
5 4 9 -2 22.64 64.14 161.79 <
5 -4 9 -2 27.03 712.83 448.49 <
5 4 9 -1 105.51 152.47 198.08 <
5 -4 9 -1 100.17 78.61 261.48 <
5 4 9 0 420.21 -50.37 150.96 <
-5 5 9 0 266.36 -5.41 178.60 <
-5 5 9 1 3.44 251.43 243.52 <
-5 5 9 2 148.85 538.62 357.74 <
-5 -5 9 2 148.97 -149.08 200.64 <
-4 5 9 -2 194.02 233.54 152.81 <
-4 -5 9 -2 205.50 109.25 179.58 <
-4 5 9 -1 36.36 -62.83 146.90 <
-4 -5 9 -1 36.47 280.39 219.15 <
-4 5 9 0 1935.85 1682.94 506.77 o
-4 -5 9 0 1910.03 1543.65 505.38 o
-4 5 9 1 251.16 -234.38 223.38 <
-4 -5 9 1 227.50 281.82 318.28 <
-4 5 9 2 83.36 193.08 208.12 <
-4 -5 9 2 83.75 258.34 262.23 <
-3 5 9 -2 44.68 118.05 110.29 <
-3 -5 9 -2 47.84 37.24 96.29 <
-3 5 9 -1 1043.30 1027.09 391.13 <
-3 -5 9 -1 1077.44 906.28 257.47 o
-3 5 9 0 1132.70 1095.57 376.33 <
-3 -5 9 0 1132.80 955.15 265.11 o
-3 5 9 1 71.97 52.16 129.92 <
-3 -5 9 1 67.41 -38.22 163.62 <
-3 5 9 2 394.19 472.44 306.43 <
-3 -5 9 2 401.47 289.35 198.34 <
-2 5 9 -2 3373.33 2857.71 574.28 o
-2 -5 9 -2 3376.70 2724.24 394.89 o
-2 5 9 -1 161.57 81.18 72.03 <
-2 -5 9 -1 156.51 333.07 141.79 <
-2 5 9 0 2731.50 3468.05 652.08 o
-2 -5 9 0 2692.66 2077.79 350.20 o
-2 5 9 1 403.96 725.40 306.43 <
-2 -5 9 1 390.29 72.13 146.08 <
-2 5 9 2 261.47 36.76 102.62 <
-2 -5 9 2 258.31 182.29 181.69 <
-1 -5 9 -2 33.80 -29.09 55.52 <
-1 5 9 -1 602.41 744.76 305.19 <
-1 -5 9 -1 612.74 564.97 158.53 o
-1 5 9 0 3084.12 3698.63 639.72 o
-1 -5 9 0 3078.49 2520.80 303.70 o
-1 5 9 1 268.99 402.40 184.97 <
-1 -5 9 1 268.19 128.29 77.77 <
-1 5 9 2 724.51 942.52 244.47 o
-1 -5 9 2 751.38 646.28 197.97 o
0 5 9 -2 187.18 120.97 96.94 <
0 -5 9 -2 176.15 -143.57 101.55 <
0 5 9 -1 164.52 95.44 73.07 <
0 -5 9 -1 144.36 -77.31 119.92 <
0 5 9 0 14932.80 13250.40 805.36 o
0 -5 9 0 14895.70 14020.80 828.07 o
0 5 9 1 1105.36 781.07 191.64 o
0 -5 9 1 1080.92 701.26 206.01 o
0 5 9 2 215.62 -36.83 103.86 <
0 -5 9 2 203.56 37.46 98.05 <
1 5 9 -2 122.90 -113.23 130.51 <
1 -5 9 -2 117.98 54.68 70.92 <
1 5 9 -1 260.40 268.19 133.51 <
1 -5 9 -1 281.61 286.61 127.12 <
1 5 9 0 3141.08 2688.46 380.94 o
1 -5 9 0 3184.36 3208.15 408.03 o
1 5 9 1 1921.91 1784.81 322.32 o
1 -5 9 1 1938.61 1390.74 428.59 o
1 5 9 2 443.16 681.96 202.53 o
1 -5 9 2 458.06 747.88 384.74 <
2 5 9 -2 187.59 164.21 133.44 <
2 -5 9 -2 172.67 37.41 243.43 <
2 5 9 -1 67.55 263.82 170.36 <
2 -5 9 -1 61.26 213.28 283.98 <
2 5 9 0 2358.23 2473.21 393.14 o
2 -5 9 0 2337.23 2227.15 577.47 o
2 5 9 1 707.58 674.67 228.51 <
2 -5 9 1 701.42 912.69 412.87 <
2 5 9 2 65.27 149.57 118.75 <
2 -5 9 2 68.14 -259.76 194.95 <
3 5 9 -2 137.62 -166.55 167.42 <
3 -5 9 -2 131.18 -187.88 137.97 <
3 5 9 -1 4.18 -30.44 136.05 <
3 -5 9 -1 7.41 -100.36 210.51 <
3 5 9 0 1068.61 546.21 314.45 <
3 -5 9 0 1093.14 1373.33 529.03 <
3 5 9 1 529.50 282.54 186.99 <
3 -5 9 1 490.25 277.28 247.36 <
3 5 9 2 232.82 607.04 388.29 <
3 -5 9 2 231.17 -232.67 278.84 <
4 5 9 -2 188.18 -235.12 180.36 <
4 -5 9 -2 166.01 892.43 420.31 <
4 5 9 -1 181.64 693.20 363.30 <
4 -5 9 -1 172.72 -212.86 159.27 <
4 5 9 0 1642.32 1554.97 377.53 o
4 -5 9 0 1610.40 2188.41 670.91 o
4 5 9 1 89.80 -334.93 314.28 <
4 -5 9 1 98.98 89.62 151.68 <
4 5 9 2 184.86 451.60 201.77 <
4 -5 9 2 199.17 312.89 222.32 <
5 5 9 -2 53.20 209.58 145.42 <
5 -5 9 -2 51.02 -67.35 144.38 <
5 5 9 -1 16.92 -36.22 104.90 <
5 -5 9 -1 13.42 17.89 242.93 <
5 5 9 0 333.81 44.29 187.99 <
-5 6 9 0 53.98 -105.16 141.94 <
-5 6 9 1 17.26 -142.55 112.85 <
-5 6 9 2 18.41 -50.68 218.25 <
-4 6 9 -2 317.82 346.57 246.45 <
-4 -6 9 -2 316.85 224.95 199.45 <
-4 6 9 -1 187.54 33.66 174.71 <
-4 -6 9 -1 174.11 174.01 174.71 <
-4 6 9 0 521.99 227.36 248.34 <
-4 -6 9 0 497.34 534.43 304.22 <
-4 6 9 1 27.05 265.74 324.09 <
-4 -6 9 1 26.69 -22.22 125.14 <
-4 6 9 2 162.47 105.03 168.77 <
-4 -6 9 2 164.40 805.07 381.42 <
-3 6 9 -2 81.53 619.56 323.89 <
-3 -6 9 -2 80.77 403.11 203.77 <
-3 6 9 -1 862.18 674.55 331.80 <
-3 -6 9 -1 894.57 977.48 270.61 o
-3 6 9 0 346.76 240.51 220.73 <
-3 -6 9 0 359.50 13.37 95.98 <
-3 6 9 1 60.87 184.16 213.54 <
-3 -6 9 1 63.23 93.46 200.41 <
-3 6 9 2 103.09 399.87 257.65 <
-3 -6 9 2 104.02 263.23 248.78 <
-2 6 9 -2 385.70 311.39 244.28 <
-2 -6 9 -2 384.12 513.71 207.43 <
-2 6 9 -1 408.35 744.16 347.09 <
-2 -6 9 -1 372.61 441.99 160.60 <
-2 6 9 0 748.81 614.24 281.73 <
-2 -6 9 0 751.35 592.71 201.01 <
-2 6 9 1 144.48 -126.97 122.42 <
-2 -6 9 1 143.95 -0.28 107.07 <
-2 6 9 2 273.52 262.95 251.17 <
-2 -6 9 2 270.59 323.56 190.79 <
-1 6 9 -2 165.46 400.05 288.10 <
-1 -6 9 -2 171.02 264.98 127.01 <
-1 6 9 -1 626.04 833.53 312.32 <
-1 -6 9 -1 654.53 589.97 164.86 o
-1 6 9 0 733.30 572.04 232.30 <
-1 -6 9 0 772.08 594.95 164.45 o
-1 6 9 1 609.96 340.13 220.43 <
-1 -6 9 1 603.80 233.49 133.27 <
-1 6 9 2 163.70 697.41 216.69 o
-1 -6 9 2 171.69 478.58 190.38 <
0 6 9 -2 582.77 -83.31 111.14 <
0 -6 9 -2 572.72 37.53 58.53 <
0 6 9 -1 296.88 225.17 118.64 <
0 -6 9 -1 270.23 283.24 134.40 <
0 6 9 0 5682.46 4489.67 465.12 o
0 -6 9 0 5636.07 5067.55 501.77 o
0 6 9 1 152.61 181.51 113.49 <
0 -6 9 1 157.69 51.18 121.70 <
0 6 9 2 519.32 886.15 221.08 o
0 -6 9 2 512.85 908.82 244.60 o
1 6 9 -2 65.75 155.94 97.49 <
1 -6 9 -2 71.97 121.77 126.47 <
1 6 9 -1 961.20 899.39 222.14 o
1 -6 9 -1 985.41 800.07 205.54 o
1 6 9 0 889.23 679.94 207.30 o
1 -6 9 0 925.74 1007.04 397.44 <
1 6 9 1 28.93 295.95 160.60 <
1 -6 9 1 50.51 329.74 260.24 <
1 6 9 2 203.84 435.64 180.92 <
1 -6 9 2 200.54 253.88 311.69 <
2 6 9 -2 415.47 370.74 179.93 <
2 -6 9 -2 403.89 374.18 288.76 <
2 6 9 -1 21.01 181.08 111.49 <
2 -6 9 -1 20.91 176.93 215.34 <
2 6 9 0 708.14 554.62 215.95 <
2 -6 9 0 691.09 660.67 399.72 <
2 6 9 1 257.05 154.31 155.81 <
2 -6 9 1 261.40 435.27 260.15 <
2 6 9 2 18.99 325.59 182.42 <
2 -6 9 2 45.24 -100.72 220.95 <
3 6 9 -2 73.16 356.35 267.23 <
3 -6 9 -2 78.75 -142.21 217.77 <
3 6 9 -1 232.01 327.35 277.17 <
3 -6 9 -1 231.92 142.34 229.08 <
3 6 9 0 311.07 857.54 405.51 <
3 -6 9 0 311.46 981.56 451.88 <
3 6 9 1 1049.40 868.54 450.38 <
3 -6 9 1 1045.13 1312.52 551.06 <
3 6 9 2 24.52 92.53 252.82 <
3 -6 9 2 21.73 279.15 233.63 <
4 6 9 -2 144.46 320.04 212.15 <
4 -6 9 -2 148.66 -55.22 226.28 <
4 6 9 -1 8.96 -301.78 256.06 <
4 -6 9 -1 8.49 89.16 193.29 <
4 6 9 0 480.08 -6.98 125.38 <
4 -6 9 0 446.35 100.81 210.67 <
4 6 9 1 122.31 105.64 179.86 <
4 -6 9 1 121.48 92.24 347.39 <
4 6 9 2 280.01 797.38 439.46 <
4 -6 9 2 273.20 559.82 280.04 <
5 6 9 -2 57.86 4.20 172.36 <
5 -6 9 -2 63.30 321.08 242.21 <
5 6 9 -1 177.21 131.64 255.38 <
-5 7 9 1 120.65 27.89 157.62 <
-5 7 9 2 99.11 -96.27 124.36 <
-4 7 9 -2 26.56 -563.65 303.11 <
-4 -7 9 -2 27.70 183.27 170.64 <
-4 7 9 -1 29.49 -108.55 125.53 <
-4 -7 9 -1 28.03 -16.44 208.80 <
-4 7 9 0 795.48 636.82 277.36 <
-4 -7 9 0 782.47 1145.86 333.52 o
-4 7 9 1 116.97 131.81 235.25 <
-4 -7 9 1 107.46 322.13 269.39 <
-4 7 9 2 90.38 246.82 218.19 <
-4 -7 9 2 88.94 -156.01 168.68 <
-3 7 9 -2 59.77 294.41 336.72 <
-3 -7 9 -2 61.44 -208.12 109.42 <
-3 7 9 -1 289.13 409.62 275.52 <
-3 -7 9 -1 307.88 11.67 147.46 <
-3 7 9 0 213.11 271.73 205.23 <
-3 -7 9 0 202.10 179.49 168.75 <
-3 7 9 1 134.48 84.70 153.25 <
-3 -7 9 1 139.86 264.63 183.36 <
-3 7 9 2 173.94 452.07 241.58 <
-3 -7 9 2 179.51 -6.72 105.14 <
-2 7 9 -2 140.54 -18.65 90.53 <
-2 -7 9 -2 146.15 154.21 215.54 <
-2 7 9 -1 80.89 312.95 232.43 <
-2 -7 9 -1 90.84 49.72 132.71 <
-2 7 9 0 1276.58 1669.07 462.79 o
-2 -7 9 0 1259.89 1491.58 305.82 o
-2 7 9 1 315.80 -37.66 161.92 <
-2 -7 9 1 299.92 105.49 113.18 <
-2 7 9 2 104.06 108.46 123.97 <
-2 -7 9 2 101.10 295.33 140.90 <
-1 -7 9 -2 213.08 39.70 67.98 <
-1 7 9 -1 104.05 372.65 227.45 <
-1 -7 9 -1 90.34 45.39 69.14 <
-1 7 9 0 661.52 790.81 324.52 <
-1 -7 9 0 653.86 337.48 125.77 <
-1 7 9 1 222.05 533.04 366.13 <
-1 -7 9 1 238.82 130.75 149.51 <
-1 7 9 2 194.88 300.78 163.51 <
-1 -7 9 2 195.56 209.10 136.86 <
0 7 9 -2 11.70 -211.52 165.27 <
0 -7 9 -2 12.39 -74.59 80.29 <
0 7 9 -1 49.92 137.59 109.99 <
0 -7 9 -1 56.83 95.57 92.46 <
0 7 9 0 3291.35 4021.50 455.86 o
0 -7 9 0 3237.05 3624.39 431.88 o
0 7 9 1 328.20 89.88 125.60 <
0 -7 9 1 323.85 276.45 132.68 <
0 7 9 2 62.81 79.00 131.53 <
0 -7 9 2 63.48 -151.32 97.33 <
1 7 9 -2 353.32 353.76 160.21 <
1 -7 9 -2 344.81 168.68 121.18 <
1 7 9 -1 492.77 462.31 154.62 <
1 -7 9 -1 503.21 665.78 306.96 <
1 7 9 0 508.18 290.58 151.55 <
1 -7 9 0 506.59 -172.71 215.75 <
1 7 9 1 1321.88 1663.87 311.85 o
1 -7 9 1 1310.67 1349.59 476.95 <
1 7 9 2 84.41 61.40 129.16 <
1 -7 9 2 80.43 268.71 173.66 <
2 7 9 -2 23.63 293.85 201.08 <
2 -7 9 -2 26.55 -7.48 90.49 <
2 7 9 -1 50.93 188.64 157.23 <
2 -7 9 -1 53.27 188.62 312.80 <
2 7 9 0 644.65 925.65 259.56 o
2 -7 9 0 656.22 601.32 337.65 <
2 7 9 1 364.21 270.95 153.47 <
2 -7 9 1 347.60 344.37 314.59 <
2 7 9 2 153.85 238.10 183.66 <
2 -7 9 2 147.66 905.02 484.58 <
3 7 9 -2 166.72 -12.39 113.64 <
3 -7 9 -2 163.55 192.73 202.90 <
3 7 9 -1 146.85 458.07 245.67 <
3 -7 9 -1 156.25 980.78 449.49 <
3 7 9 0 185.65 531.17 277.73 <
3 -7 9 0 190.89 173.62 182.62 <
3 7 9 1 64.28 495.47 390.18 <
3 -7 9 1 64.17 -400.31 343.17 <
3 7 9 2 83.37 172.40 243.21 <
3 -7 9 2 87.24 -113.70 289.58 <
4 7 9 -2 177.26 233.75 265.23 <
4 -7 9 -2 194.31 752.14 487.29 <
4 7 9 -1 37.18 -409.27 265.48 <
4 -7 9 -1 41.93 -175.82 147.29 <
4 -7 9 0 616.56 468.86 364.83 <
4 -7 9 1 333.05 -450.29 373.50 <
4 7 9 2 14.66 170.03 223.54 <
5 7 9 -2 38.56 -65.44 172.84 <
5 -7 9 -2 34.17 94.98 143.29 <
5 7 9 -1 51.44 479.92 335.70 <
-5 8 9 2 45.17 -31.16 185.71 <
-4 8 9 -2 14.56 93.38 141.77 <
-4 -8 9 -2 14.90 128.20 201.49 <
-4 8 9 -1 224.06 -68.11 237.95 <
-4 -8 9 -1 226.88 -63.37 91.25 <
-4 8 9 0 102.02 134.84 120.66 <
-4 -8 9 0 97.89 141.70 183.12 <
-4 8 9 1 23.29 182.14 196.23 <
-4 -8 9 1 24.84 82.29 316.98 <
-4 8 9 2 88.42 -81.64 181.62 <
-4 -8 9 2 91.77 97.57 218.14 <
-3 8 9 -2 101.88 163.57 276.65 <
-3 -8 9 -2 108.14 -20.26 124.68 <
-3 8 9 -1 317.17 384.66 244.25 <
-3 -8 9 -1 339.08 319.54 167.58 <
-3 8 9 0 4284.17 3875.06 753.92 o
-3 -8 9 0 4358.79 4158.69 581.82 o
-3 8 9 1 584.70 202.27 221.97 <
-3 -8 9 1 602.75 89.44 147.55 <
-3 8 9 2 112.73 -196.32 152.29 <
-3 -8 9 2 112.00 157.90 97.25 <
-2 8 9 -2 38.43 -111.46 76.96 <
-2 -8 9 -2 32.37 235.60 119.70 <
-2 8 9 -1 232.32 52.46 139.99 <
-2 -8 9 -1 244.11 99.75 205.15 <
-2 8 9 0 149.74 379.66 222.73 <
-2 -8 9 0 150.70 80.38 108.24 <
-2 8 9 1 22.73 -162.07 127.99 <
-2 -8 9 1 20.71 96.66 132.16 <
-2 8 9 2 18.30 173.34 286.52 <
-2 -8 9 2 20.41 204.23 135.29 <
-1 8 9 -2 136.56 173.99 220.47 <
-1 -8 9 -2 151.35 212.30 133.42 <
-1 8 9 -1 1852.78 2560.60 576.41 o
-1 -8 9 -1 1809.00 1664.11 265.28 o
-1 8 9 0 6808.26 8187.21 1007.54 o
-1 -8 9 0 6889.82 7153.54 532.45 o
-1 8 9 1 1141.77 998.48 361.28 <
-1 -8 9 1 1136.55 642.11 192.41 o
-1 8 9 2 88.30 206.62 238.65 <
-1 -8 9 2 84.94 68.22 107.57 <
0 8 9 -2 141.07 81.20 165.86 <
0 -8 9 -2 138.20 -8.54 87.98 <
0 8 9 -1 117.92 284.17 137.79 <
0 -8 9 -1 114.67 99.61 116.46 <
0 8 9 0 194.38 27.61 96.77 <
0 -8 9 0 119.03 -101.12 68.18 <
0 8 9 1 103.32 170.16 134.46 <
0 -8 9 1 105.49 15.83 130.20 <
0 8 9 2 87.80 85.57 81.90 <
0 -8 9 2 86.76 138.47 233.01 <
1 8 9 -2 89.56 102.68 122.49 <
1 -8 9 -2 92.33 53.72 95.94 <
1 8 9 -1 712.14 941.61 235.47 o
1 -8 9 -1 720.18 683.04 316.43 <
1 8 9 0 4531.92 5367.40 533.32 o
1 -8 9 0 4580.01 5156.47 863.75 o
1 8 9 1 159.42 362.05 181.10 <
1 -8 9 1 202.62 190.49 146.90 <
1 8 9 2 111.68 107.44 148.40 <
1 -8 9 2 97.56 5.33 84.79 <
2 8 9 -2 287.88 297.22 198.08 <
2 -8 9 -2 287.02 -165.31 95.49 <
2 8 9 -1 4.23 -15.74 103.53 <
2 -8 9 -1 4.98 348.61 278.60 <
2 8 9 0 567.23 663.93 235.54 <
2 -8 9 0 568.64 898.97 397.63 <
2 8 9 1 7.21 32.66 156.53 <
2 -8 9 1 5.78 53.33 289.93 <
2 8 9 2 171.52 473.23 210.32 <
2 -8 9 2 204.07 565.99 411.01 <
3 8 9 -2 149.30 380.11 253.71 <
3 -8 9 -2 139.85 165.88 109.90 <
3 8 9 -1 455.39 221.75 222.90 <
3 -8 9 -1 467.41 93.90 110.36 <
3 8 9 0 2760.39 2708.07 665.20 o
3 -8 9 0 2756.29 4042.01 893.14 o
3 -8 9 1 571.85 1729.59 661.33 <
3 -8 9 2 157.03 20.87 147.51 <
4 -8 9 -2 123.85 627.06 434.20 <
4 -8 9 -1 0.42 34.39 211.34 <
4 -8 9 0 57.69 -511.64 363.04 <
4 -8 9 1 44.39 -280.86 206.77 <
5 -8 9 -2 203.52 -38.55 258.67 <
5 8 9 -1 489.64 717.37 447.88 <
-4 9 9 -2 33.76 5.07 152.81 <
-4 -9 9 -2 31.22 -117.72 114.35 <
-4 9 9 -1 336.47 139.01 261.80 <
-4 -9 9 -1 340.35 539.06 291.63 <
-4 9 9 0 160.01 158.08 234.15 <
-4 -9 9 0 168.60 -80.51 110.29 <
-4 9 9 1 79.08 210.49 162.29 <
-4 -9 9 1 73.29 465.05 264.82 <
-4 9 9 2 97.47 -154.47 154.23 <
-4 -9 9 2 95.85 249.88 236.17 <
-3 9 9 -2 78.59 195.49 255.17 <
-3 -9 9 -2 75.42 -80.94 144.62 <
-3 9 9 -1 457.59 478.70 283.45 <
-3 -9 9 -1 490.70 467.58 223.86 <
-3 9 9 0 78.49 -2.39 122.60 <
-3 -9 9 0 84.44 184.32 161.77 <
-3 9 9 1 176.09 -80.77 203.86 <
-3 -9 9 1 176.58 229.12 180.54 <
-3 9 9 2 29.26 120.64 209.65 <
-3 -9 9 2 27.32 -125.35 174.69 <
-2 9 9 -2 486.90 137.73 162.93 <
-2 -9 9 -2 506.18 407.16 185.69 <
-2 9 9 -1 979.09 774.42 391.90 <
-2 -9 9 -1 981.92 976.65 213.54 o
-2 9 9 0 471.22 491.97 286.95 <
-2 -9 9 0 484.78 336.43 163.29 <
-2 9 9 1 712.12 717.16 337.52 <
-2 -9 9 1 704.54 250.12 115.18 <
-2 9 9 2 362.25 54.27 142.88 <
-2 -9 9 2 360.11 676.22 189.36 o
-1 9 9 -2 104.19 636.65 303.46 <
-1 -9 9 -2 104.54 167.03 116.12 <
-1 9 9 -1 1674.34 1862.32 494.70 o
-1 -9 9 -1 1721.87 1424.96 252.06 o
-1 9 9 0 54.84 316.63 314.13 <
-1 -9 9 0 46.54 122.16 154.01 <
-1 9 9 1 317.92 142.68 149.47 <
-1 -9 9 1 317.50 35.13 86.55 <
-1 9 9 2 28.94 -40.70 195.90 <
-1 -9 9 2 25.73 -99.18 94.29 <
0 9 9 -2 280.34 -160.32 154.90 <
0 -9 9 -2 270.42 152.08 108.18 <
0 9 9 -1 1128.52 1083.62 235.08 o
0 -9 9 -1 1137.84 832.10 170.10 o
0 9 9 0 350.98 282.36 171.99 <
0 -9 9 0 363.65 226.32 131.35 <
0 9 9 1 678.60 362.07 157.73 <
0 -9 9 1 684.66 206.82 145.42 <
0 9 9 2 365.42 208.21 180.71 <
0 -9 9 2 369.76 278.08 282.50 <
1 9 9 -2 41.54 72.83 111.94 <
1 -9 9 -2 47.00 -15.43 58.18 <
1 9 9 -1 836.47 1101.88 249.43 o
1 -9 9 -1 836.72 1166.60 271.82 o
1 9 9 0 77.08 260.00 175.62 <
1 -9 9 0 70.42 46.42 179.84 <
1 9 9 1 198.97 269.86 186.99 <
1 -9 9 1 188.59 567.91 321.98 <
1 9 9 2 6.09 68.46 109.92 <
1 -9 9 2 3.52 -8.70 124.40 <
2 9 9 -2 148.79 8.00 64.96 <
2 -9 9 -2 143.04 197.58 247.17 <
2 9 9 -1 781.25 349.15 186.71 <
2 -9 9 -1 780.02 774.99 435.55 <
2 9 9 0 697.95 332.35 228.02 <
2 -9 9 0 688.42 1304.08 502.99 <
2 9 9 1 899.07 1321.35 455.55 <
2 -9 9 1 905.00 1316.69 557.36 <
2 9 9 2 665.87 1254.19 482.40 <
2 -9 9 2 704.55 878.66 470.23 <
3 -9 9 -2 13.72 549.49 364.33 <
3 -9 9 -1 277.75 612.76 421.70 <
3 -9 9 0 80.72 521.12 362.26 <
3 -9 9 1 5.52 78.25 156.25 <
3 -9 9 2 62.49 202.45 335.05 <
4 -9 9 -2 57.19 686.20 428.16 <
4 -9 9 -1 170.62 14.48 123.97 <
4 -9 9 0 139.85 580.23 440.03 <
4 -9 9 1 451.77 206.25 408.44 <
-4 10 9 -2 18.09 -2.81 199.93 <
-4 -10 9 -2 17.41 -106.68 180.38 <
-4 10 9 -1 197.21 -69.98 230.75 <
-4 -10 9 -1 191.19 331.09 243.56 <
-4 10 9 0 266.12 353.11 248.97 <
-4 -10 9 0 261.03 428.48 256.41 <
-4 10 9 1 84.01 -237.84 180.18 <
-4 -10 9 1 87.61 101.22 160.90 <
-4 10 9 2 48.75 305.45 230.19 <
-4 -10 9 2 51.03 304.04 305.22 <
-3 10 9 -2 78.33 399.94 308.22 <
-3 -10 9 -2 76.72 41.91 235.95 <
-3 10 9 -1 51.15 100.46 226.36 <
-3 -10 9 -1 65.91 166.21 114.35 <
-3 10 9 0 80.90 23.46 108.66 <
-3 -10 9 0 80.08 -16.50 184.16 <
-3 10 9 1 28.42 -322.76 241.04 <
-3 -10 9 1 29.61 -93.07 138.51 <
-3 10 9 2 141.08 -92.12 208.17 <
-3 -10 9 2 150.65 -96.42 199.25 <
-2 10 9 -2 24.34 322.67 250.67 <
-2 -10 9 -2 23.00 237.60 137.23 <
-2 10 9 -1 215.88 295.39 274.24 <
-2 -10 9 -1 206.65 95.18 99.46 <
-2 10 9 0 411.91 359.15 259.58 <
-2 -10 9 0 411.26 293.60 154.82 <
-2 -10 9 1 70.10 1.46 104.68 <
-2 -10 9 2 33.25 89.27 98.48 <
-1 10 9 -2 112.91 17.39 152.97 <
-1 -10 9 -2 113.35 71.26 89.44 <
-1 10 9 -1 2546.69 2589.36 577.71 o
-1 -10 9 -1 2526.85 1936.24 291.58 o
-1 10 9 0 209.63 -57.31 157.99 <
-1 -10 9 0 209.29 -79.66 121.29 <
-1 10 9 1 9.40 -311.91 251.26 <
-1 -10 9 1 7.32 -120.83 104.85 <
-1 10 9 2 248.81 -6.46 89.09 <
-1 -10 9 2 266.50 -78.61 87.83 <
0 10 9 -2 14.99 74.37 191.43 <
0 -10 9 -2 13.46 -18.39 70.85 <
0 10 9 -1 152.23 268.54 212.04 <
0 -10 9 -1 149.81 98.85 99.40 <
0 10 9 0 2107.12 2201.08 532.36 o
0 -10 9 0 2216.27 1830.40 251.97 o
0 10 9 1 230.16 237.86 152.99 <
0 -10 9 1 231.92 14.26 126.03 <
0 10 9 2 27.23 41.26 89.01 <
0 -10 9 2 27.52 32.35 154.94 <
1 10 9 -2 164.92 152.99 129.31 <
1 -10 9 -2 172.42 79.90 98.77 <
1 10 9 -1 27.35 97.07 171.05 <
1 -10 9 -1 32.03 223.84 131.73 <
1 10 9 0 246.65 -48.55 85.90 <
1 -10 9 0 253.00 36.16 108.83 <
1 10 9 1 108.13 211.49 226.76 <
1 -10 9 1 127.52 -84.01 183.95 <
1 10 9 2 255.96 49.50 189.36 <
1 -10 9 2 241.01 107.72 182.62 <
2 -10 9 -2 54.11 342.92 213.41 <
2 -10 9 -1 138.63 -8.72 207.58 <
2 -10 9 0 466.42 610.78 309.83 <
2 -10 9 1 541.19 914.12 523.71 <
2 10 9 2 171.68 766.25 407.12 <
2 -10 9 2 174.39 347.91 438.88 <
3 -10 9 -2 166.65 240.73 239.93 <
3 -10 9 -1 67.31 -17.83 140.42 <
3 -10 9 0 140.52 -155.73 269.76 <
3 -10 9 1 70.76 -267.41 165.27 <
3 -10 9 2 141.86 77.37 227.38 <
4 -10 9 -2 69.96 -50.09 406.62 <
4 -10 9 -1 26.18 11.85 221.04 <
4 -10 9 0 362.13 524.01 368.79 <
-4 11 9 -2 74.48 266.58 226.88 <
-4 -11 9 -2 86.41 -33.63 189.64 <
-4 11 9 -1 41.66 430.49 343.57 <
-4 -11 9 -1 35.80 116.79 250.34 <
-4 11 9 0 329.34 872.75 535.38 <
-4 -11 9 0 329.56 802.88 301.89 <
-4 11 9 1 307.16 347.80 309.30 <
-4 -11 9 1 307.29 -47.13 196.69 <
-4 11 9 2 61.58 94.46 222.51 <
-4 -11 9 2 59.94 278.52 230.90 <
-3 11 9 -2 32.75 -105.01 197.71 <
-3 -11 9 -2 28.94 91.90 277.15 <
-3 11 9 -1 131.67 140.47 129.47 <
-3 -11 9 -1 122.63 136.14 205.25 <
-3 11 9 0 257.94 195.49 201.08 <
-3 -11 9 0 265.30 43.44 171.90 <
-3 11 9 1 1.66 132.79 173.45 <
-3 -11 9 1 1.00 -36.02 139.77 <
-3 11 9 2 86.65 122.92 162.70 <
-3 -11 9 2 84.83 38.94 181.19 <
-2 11 9 -2 338.87 507.67 308.35 <
-2 -11 9 -2 312.19 185.79 167.14 <
-2 11 9 -1 60.41 226.08 278.87 <
-2 -11 9 -1 59.36 95.07 94.79 <
-2 11 9 0 452.53 664.28 364.98 <
-2 -11 9 0 454.33 561.19 152.75 o
-2 11 9 1 282.96 253.63 288.28 <
-2 -11 9 1 276.92 510.97 176.92 <
-2 11 9 2 132.74 574.28 344.30 <
-2 -11 9 2 127.66 169.34 121.99 <
-1 11 9 -2 27.36 218.52 217.40 <
-1 -11 9 -2 34.35 167.99 108.53 <
-1 11 9 -1 276.30 -186.66 142.42 <
-1 -11 9 -1 290.63 133.60 107.22 <
-1 11 9 0 716.66 800.96 353.55 <
-1 -11 9 0 722.52 547.73 157.99 o
-1 11 9 1 9.29 -63.01 105.77 <
-1 -11 9 1 5.69 295.93 161.42 <
-1 11 9 2 124.48 131.73 152.86 <
-1 -11 9 2 123.19 101.03 154.08 <
0 11 9 -2 303.55 207.40 198.30 <
0 -11 9 -2 304.98 100.81 128.86 <
0 11 9 -1 63.83 176.34 188.01 <
0 -11 9 -1 77.43 17.44 132.46 <
0 11 9 0 3336.51 4361.50 793.34 o
0 -11 9 0 3322.86 4398.11 532.91 o
0 11 9 1 70.91 173.92 181.01 <
0 -11 9 1 73.18 82.25 138.81 <
0 11 9 2 280.11 147.86 248.43 <
0 -11 9 2 281.43 -9.22 108.96 <
1 11 9 -2 495.67 609.08 307.83 <
1 -11 9 -2 512.49 288.95 170.95 <
1 11 9 -1 216.82 878.14 365.89 <
1 -11 9 -1 229.65 347.67 177.55 <
1 11 9 0 1542.76 2161.05 572.65 o
1 -11 9 0 1556.85 1815.44 358.42 o
1 11 9 1 1457.91 1707.22 548.75 o
1 -11 9 1 1462.03 1143.70 441.94 <
1 11 9 2 14.73 356.61 257.58 <
1 -11 9 2 14.20 -135.36 198.08 <
2 -11 9 -2 312.11 131.33 122.86 <
2 -11 9 -1 39.09 7.37 140.51 <
2 -11 9 0 204.48 378.07 179.43 <
2 -11 9 1 1.13 82.79 139.36 <
2 -11 9 2 800.76 696.00 478.25 <
3 -11 9 -2 237.20 308.93 237.34 <
3 -11 9 -1 37.82 441.70 409.22 <
3 -11 9 0 1118.38 1048.63 449.01 <
3 -11 9 1 24.88 463.66 409.66 <
3 -11 9 2 26.95 41.53 239.08 <
4 -11 9 -2 249.65 -63.61 128.57 <
4 -11 9 -1 144.91 516.88 276.60 <
4 -11 9 0 249.78 349.46 290.19 <
-4 12 9 -2 27.77 18.33 106.11 <
-4 -12 9 -2 30.43 312.89 371.40 <
-4 12 9 -1 355.48 232.69 258.60 <
-4 -12 9 -1 355.81 -201.77 383.83 <
-4 12 9 0 168.03 -292.10 299.19 <
-4 -12 9 0 164.34 242.25 303.78 <
-4 12 9 1 113.14 -173.95 239.51 <
-4 -12 9 1 107.41 -129.81 203.47 <
-4 12 9 2 61.99 67.77 158.44 <
-4 -12 9 2 59.76 346.87 222.97 <
-3 12 9 -2 111.53 -375.44 311.74 <
-3 -12 9 -2 110.65 235.15 392.96 <
-3 12 9 -1 252.30 268.52 223.80 <
-3 -12 9 -1 244.98 -75.31 211.58 <
-3 12 9 0 1672.43 1273.11 530.49 <
-3 -12 9 0 1705.04 1665.18 394.42 o
-3 12 9 1 23.81 350.78 294.63 <
-3 -12 9 1 19.25 22.89 152.27 <
-3 12 9 2 272.96 -235.13 149.18 <
-3 -12 9 2 280.23 105.90 125.88 <
-2 12 9 -2 100.20 121.20 138.21 <
-2 -12 9 -2 98.59 -1.69 140.82 <
-2 12 9 -1 1395.12 1134.08 403.81 <
-2 -12 9 -1 1393.44 837.60 216.84 o
-2 12 9 0 354.62 424.29 292.52 <
-2 -12 9 0 381.43 228.90 116.70 <
-2 12 9 1 121.34 281.87 244.38 <
-2 -12 9 1 114.90 200.54 120.12 <
-2 12 9 2 148.52 46.35 116.92 <
-2 -12 9 2 143.80 142.21 126.36 <
-1 12 9 -2 45.10 -267.45 122.64 <
-1 -12 9 -2 39.91 55.79 78.11 <
-1 12 9 -1 365.72 87.62 164.29 <
-1 -12 9 -1 361.56 275.48 97.86 <
-1 12 9 0 2269.64 2047.27 531.17 o
-1 -12 9 0 2331.33 2508.53 331.26 o
-1 12 9 1 155.84 274.43 205.43 <
-1 -12 9 1 149.97 29.67 97.86 <
-1 12 9 2 293.71 65.87 114.94 <
-1 -12 9 2 301.03 133.42 126.01 <
0 12 9 -2 131.90 280.32 269.73 <
0 -12 9 -2 134.11 74.07 126.21 <
0 12 9 -1 1511.20 1113.53 388.31 <
0 -12 9 -1 1497.08 1154.16 298.76 o
0 12 9 0 2173.44 1802.51 514.93 o
0 -12 9 0 2028.23 1679.18 318.72 o
0 12 9 1 447.45 812.90 358.13 <
0 -12 9 1 437.07 294.74 188.34 <
0 12 9 2 272.01 273.23 397.87 <
0 -12 9 2 272.79 327.35 213.19 <
1 -12 9 -2 40.77 41.85 83.83 <
1 12 9 -1 178.99 255.15 236.47 <
1 -12 9 -1 184.47 -27.31 82.03 <
1 12 9 0 1963.13 2748.53 672.67 o
1 -12 9 0 1996.67 1884.15 371.09 o
1 12 9 1 19.85 316.54 360.68 <
1 -12 9 1 17.15 37.09 136.34 <
1 12 9 2 172.84 391.07 369.98 <
1 -12 9 2 178.55 88.59 235.58 <
2 -12 9 -2 132.41 267.24 182.69 <
2 -12 9 -1 620.43 196.88 151.05 <
2 -12 9 0 135.21 209.23 142.14 <
2 -12 9 1 50.65 -328.56 275.86 <
2 -12 9 2 17.81 87.61 158.49 <
3 -12 9 -2 53.31 -62.96 161.08 <
3 -12 9 -1 9.89 473.73 412.48 <
3 -12 9 0 1393.11 478.38 326.95 <
3 -12 9 1 183.22 234.52 206.79 <
3 -12 9 2 46.49 -18.50 174.68 <
4 -12 9 -2 78.48 -163.49 221.41 <
4 -12 9 -1 209.08 1203.38 578.17 <
4 -12 9 0 93.73 -23.94 236.30 <
-4 -13 9 -2 67.27 959.21 508.64 <
-4 13 9 -1 255.72 -74.81 150.05 <
-4 -13 9 -1 256.10 315.72 237.60 <
-4 13 9 0 530.75 313.04 264.36 <
-4 -13 9 0 520.40 -319.58 159.71 <
-4 13 9 1 157.12 312.00 295.50 <
-4 -13 9 1 157.74 -343.72 429.11 <
-4 13 9 2 59.19 63.51 420.81 <
-4 -13 9 2 60.23 734.94 501.29 <
-3 13 9 -2 58.00 240.28 162.40 <
-3 -13 9 -2 59.44 18.31 183.01 <
-3 13 9 -1 273.05 49.57 107.33 <
-3 -13 9 -1 274.44 676.02 422.55 <
-3 13 9 0 346.32 243.60 238.56 <
-3 -13 9 0 355.87 39.83 321.61 <
-3 13 9 1 47.35 366.05 325.17 <
-3 -13 9 1 50.04 1171.55 608.37 <
-3 13 9 2 225.81 808.03 419.05 <
-3 -13 9 2 226.93 256.95 221.28 <
-2 13 9 -2 1053.06 894.62 428.57 <
-2 -13 9 -2 1060.82 821.70 291.39 <
-2 13 9 -1 616.25 610.50 282.61 <
-2 -13 9 -1 610.28 23.00 205.36 <
-2 13 9 0 2431.68 2498.38 652.93 o
-2 -13 9 0 2434.91 2333.80 349.83 o
-2 13 9 1 476.01 284.93 281.08 <
-2 -13 9 1 475.38 188.64 127.27 <
-2 13 9 2 129.79 619.37 338.18 <
-2 -13 9 2 129.06 209.43 131.29 <
-1 13 9 -2 85.17 -168.45 271.91 <
-1 -13 9 -2 94.21 171.82 117.64 <
-1 13 9 -1 24.21 193.45 170.01 <
-1 -13 9 -1 21.67 270.82 114.66 <
-1 13 9 0 537.62 551.73 237.88 <
-1 -13 9 0 560.59 481.21 154.82 o
-1 13 9 1 66.01 443.92 296.67 <
-1 -13 9 1 72.46 112.75 131.35 <
-1 13 9 2 348.08 525.06 318.11 <
-1 -13 9 2 354.28 939.58 263.67 o
0 13 9 -2 58.35 212.15 191.12 <
0 -13 9 -2 59.53 167.55 114.25 <
0 -13 9 -1 386.98 115.42 118.51 <
0 13 9 0 205.29 207.51 242.60 <
0 -13 9 0 174.56 -7.83 151.45 <
0 13 9 1 493.15 787.33 385.87 <
0 -13 9 1 506.80 285.80 164.36 <
0 13 9 2 257.53 -90.83 268.58 <
0 -13 9 2 265.96 3.19 236.88 <
1 -13 9 -2 101.83 -84.83 121.92 <
1 13 9 -1 52.00 431.77 372.13 <
1 -13 9 -1 57.89 156.75 151.75 <
1 13 9 0 502.61 881.69 464.23 <
1 -13 9 0 523.79 609.19 238.69 <
1 13 9 1 205.22 822.86 449.88 <
1 -13 9 1 208.81 197.84 161.49 <
1 13 9 2 368.79 788.55 411.79 <
1 -13 9 2 373.39 368.22 190.97 <
2 -13 9 -2 24.87 88.55 143.07 <
2 -13 9 -1 356.25 341.81 154.49 <
2 -13 9 0 2145.34 2304.28 441.07 o
2 -13 9 1 312.20 616.80 399.66 <
2 -13 9 2 299.13 533.54 401.92 <
3 -13 9 -2 43.97 47.39 155.99 <
3 -13 9 -1 32.26 8.17 230.90 <
3 -13 9 0 252.70 -253.60 189.66 <
3 -13 9 1 91.52 -313.80 343.57 <
3 -13 9 2 177.48 345.22 407.96 <
4 -13 9 -2 8.32 387.55 342.30 <
4 -13 9 -1 74.41 -261.39 274.56 <
-4 14 9 0 92.39 197.45 297.98 <
-4 -14 9 0 91.91 41.46 298.93 <
-4 14 9 1 27.06 -311.72 266.26 <
-4 -14 9 1 27.70 29.24 156.47 <
-4 14 9 2 106.94 327.83 135.21 <
-4 -14 9 2 103.52 275.26 381.87 <
-3 14 9 -2 8.64 -165.01 363.96 <
-3 -14 9 -2 10.16 235.28 362.04 <
-3 14 9 -1 143.19 -322.32 320.32 <
-3 -14 9 -1 138.15 491.53 461.38 <
-3 14 9 0 136.96 115.77 128.64 <
-3 -14 9 0 132.88 -357.94 282.76 <
-3 14 9 1 27.29 -254.54 345.63 <
-3 -14 9 1 28.82 -194.88 194.38 <
-3 14 9 2 2.11 714.76 411.35 <
-3 -14 9 2 1.50 -143.14 204.45 <
-2 14 9 -2 652.72 119.57 186.95 <
-2 -14 9 -2 634.75 187.30 132.68 <
-2 14 9 -1 39.54 -35.24 159.51 <
-2 -14 9 -1 41.26 -82.87 142.82 <
-2 14 9 0 471.44 576.75 351.28 <
-2 -14 9 0 452.15 69.68 111.85 <
-2 14 9 1 39.63 294.26 301.48 <
-2 -14 9 1 45.21 211.77 152.81 <
-2 14 9 2 218.05 199.77 268.97 <
-2 -14 9 2 217.88 341.59 169.75 <
-1 -14 9 -2 100.55 119.62 124.25 <
-1 14 9 -1 152.31 52.74 108.03 <
-1 -14 9 -1 154.13 279.19 156.60 <
-1 14 9 0 111.11 -31.16 159.81 <
-1 -14 9 0 93.09 56.59 93.42 <
-1 14 9 1 57.95 535.60 356.87 <
-1 -14 9 1 58.65 167.57 134.55 <
-1 14 9 2 1.31 140.16 218.38 <
-1 -14 9 2 2.50 192.80 135.47 <
0 14 9 -2 716.35 477.16 270.78 <
0 -14 9 -2 698.60 171.60 101.14 <
0 14 9 -1 161.07 356.68 329.52 <
0 -14 9 -1 166.17 114.53 127.60 <
0 -14 9 0 597.38 149.71 110.42 <
0 14 9 1 43.45 262.89 264.39 <
0 -14 9 1 41.61 61.68 143.49 <
0 14 9 2 185.79 558.91 330.83 <
0 -14 9 2 187.81 227.13 156.97 <
1 14 9 -2 235.47 399.70 349.55 <
1 -14 9 -2 241.96 104.85 162.12 <
1 -14 9 -1 145.70 94.53 101.01 <
1 14 9 0 25.95 293.39 360.70 <
1 -14 9 0 22.99 36.33 114.81 <
1 -14 9 1 1101.13 351.83 191.90 <
1 14 9 2 28.43 299.08 274.84 <
1 -14 9 2 21.36 81.92 144.84 <
2 -14 9 -2 435.22 183.47 180.12 <
2 -14 9 -1 136.82 122.25 149.75 <
2 -14 9 0 583.24 329.24 173.38 <
2 -14 9 1 1.20 383.42 210.80 <
2 -14 9 2 326.00 -248.74 257.69 <
3 -14 9 -2 165.13 -54.70 121.01 <
3 -14 9 -1 37.69 92.74 260.34 <
3 -14 9 0 21.96 18.04 214.36 <
3 -14 9 1 139.40 168.21 253.36 <
3 -14 9 2 39.10 -31.96 219.28 <
4 -14 9 -2 144.71 228.56 126.07 <
4 -14 9 -1 36.52 -214.51 228.38 <
-4 -15 9 2 123.84 -16.20 222.30 <
-3 15 9 -2 65.23 47.57 220.93 <
-3 -15 9 -2 64.09 17.20 402.77 <
-3 15 9 -1 3.92 -140.84 243.69 <
-3 -15 9 -1 4.90 -154.66 284.52 <
-3 15 9 0 392.87 -115.09 165.82 <
-3 -15 9 0 395.89 613.28 374.07 <
-3 15 9 1 110.49 -98.72 246.41 <
-3 -15 9 1 103.51 98.01 333.65 <
-3 15 9 2 22.90 -161.03 137.18 <
-3 -15 9 2 24.92 408.89 356.61 <
-2 15 9 -2 327.13 386.22 322.39 <
-2 -15 9 -2 354.91 98.38 191.47 <
-2 15 9 -1 177.40 358.55 322.00 <
-2 -15 9 -1 181.28 116.46 187.04 <
-2 15 9 0 2412.51 2308.28 691.18 o
-2 -15 9 0 2367.60 2843.67 513.51 o
-2 15 9 1 83.05 204.25 298.19 <
-2 -15 9 1 85.44 170.03 123.94 <
-2 15 9 2 246.11 415.16 312.96 <
-2 -15 9 2 241.17 132.03 147.97 <
-1 15 9 -2 116.96 -26.72 135.49 <
-1 -15 9 -2 112.14 201.03 155.23 <
-1 15 9 -1 156.37 -346.52 256.50 <
-1 -15 9 -1 155.54 226.90 147.12 <
-1 15 9 0 576.50 516.01 227.41 <
-1 -15 9 0 553.52 254.13 139.94 <
-1 15 9 1 53.51 17.55 178.82 <
-1 -15 9 1 47.36 64.20 121.51 <
-1 15 9 2 80.28 -274.24 185.60 <
-1 -15 9 2 76.13 33.74 132.49 <
0 15 9 -2 126.55 333.85 280.41 <
0 -15 9 -2 119.18 148.29 130.94 <
0 15 9 -1 8.05 485.99 374.33 <
0 -15 9 -1 7.93 88.18 122.97 <
0 15 9 0 1471.05 2713.98 677.57 o
0 -15 9 0 1532.11 1737.59 295.61 o
0 15 9 1 156.49 400.57 389.13 <
0 -15 9 1 158.34 273.50 173.42 <
0 15 9 2 152.44 131.03 318.87 <
0 -15 9 2 153.76 -40.20 86.27 <
1 15 9 -2 139.35 757.88 375.50 <
1 -15 9 -2 141.49 237.91 149.44 <
1 15 9 -1 24.97 934.91 454.75 <
1 -15 9 -1 28.63 275.00 182.68 <
1 15 9 0 597.31 682.72 408.35 <
1 -15 9 0 590.04 363.24 161.16 <
1 15 9 1 709.75 1343.94 534.41 <
1 -15 9 1 743.83 1126.88 320.91 o
1 15 9 2 211.72 425.16 432.01 <
1 -15 9 2 202.08 -66.61 201.25 <
2 -15 9 -2 246.93 68.98 129.83 <
2 -15 9 -1 11.19 219.34 189.36 <
2 -15 9 0 1699.89 2191.84 358.15 o
2 -15 9 1 158.27 -35.70 139.18 <
2 -15 9 2 57.61 -243.99 273.50 <
3 -15 9 -2 86.40 110.59 150.75 <
3 -15 9 -1 50.95 17.65 130.92 <
3 -15 9 0 223.46 18.52 189.77 <
3 -15 9 1 19.09 378.83 250.93 <
3 -15 9 2 138.45 60.94 421.92 <
4 -15 9 -2 174.16 57.05 363.65 <
-3 16 9 -2 133.18 123.38 185.36 <
-3 -16 9 -2 126.14 479.90 428.70 <
-3 16 9 -1 151.31 45.92 226.15 <
-3 -16 9 -1 168.87 282.23 390.16 <
-3 16 9 0 619.64 690.66 372.85 <
-3 -16 9 0 614.23 494.57 409.96 <
-3 16 9 1 215.47 -51.65 185.62 <
-3 -16 9 1 205.29 325.26 236.36 <
-3 16 9 2 8.85 265.87 359.44 <
-3 -16 9 2 9.22 -132.10 292.82 <
-2 16 9 -2 113.94 279.00 178.69 <
-2 -16 9 -2 111.13 -57.09 203.34 <
-2 16 9 -1 150.09 381.81 320.61 <
-2 -16 9 -1 149.60 221.21 175.43 <
-2 16 9 0 107.81 474.03 362.91 <
-2 -16 9 0 107.84 423.22 268.86 <
-2 -16 9 1 29.75 137.23 113.72 <
-2 16 9 2 48.66 -68.76 159.07 <
-2 -16 9 2 47.71 17.92 145.08 <
-1 16 9 -2 157.80 -149.42 156.16 <
-1 -16 9 -2 131.11 112.51 113.01 <
-1 16 9 -1 1494.61 753.35 371.07 <
-1 -16 9 -1 1357.23 944.98 263.19 o
-1 16 9 0 1102.09 698.24 331.02 <
-1 -16 9 0 1104.86 1521.17 338.57 o
-1 16 9 1 487.97 909.10 458.71 <
-1 -16 9 1 487.94 269.98 153.53 <
-1 16 9 2 49.44 -35.81 128.05 <
-1 -16 9 2 50.93 190.90 103.62 <
0 -16 9 -2 211.47 41.48 99.61 <
0 16 9 -1 167.60 111.18 281.73 <
0 -16 9 -1 157.01 119.10 85.85 <
0 16 9 0 380.28 782.16 367.44 <
0 -16 9 0 424.02 226.10 104.74 <
0 16 9 1 40.60 134.16 310.37 <
0 -16 9 1 42.57 170.34 144.88 <
0 16 9 2 140.09 546.97 319.26 <
0 -16 9 2 145.51 28.55 123.23 <
1 16 9 -2 215.14 144.47 219.10 <
1 -16 9 -2 220.60 -15.35 87.62 <
1 16 9 -1 218.49 722.68 398.29 <
1 -16 9 -1 214.10 562.75 205.15 <
1 16 9 0 1057.18 2051.50 632.19 o
1 -16 9 0 1070.69 1553.93 299.83 o
1 16 9 1 1595.70 2005.11 641.63 o
1 -16 9 1 1573.50 1742.75 320.37 o
1 16 9 2 97.04 222.80 279.58 <
1 -16 9 2 89.04 146.84 141.05 <
2 -16 9 -2 201.08 271.41 183.04 <
2 -16 9 -1 120.37 311.98 155.18 <
2 -16 9 0 46.87 111.05 143.53 <
2 -16 9 1 10.00 357.15 182.03 <
2 -16 9 2 305.59 429.79 194.36 <
3 -16 9 -2 79.95 76.37 103.35 <
3 -16 9 -1 174.80 193.79 111.53 <
3 -16 9 0 253.10 560.08 255.10 <
3 -16 9 1 70.34 560.19 292.63 <
4 -16 9 -2 150.12 -214.21 313.39 <
-3 17 9 -2 235.95 -118.22 244.36 <
-3 -17 9 -2 226.39 1234.84 718.89 <
-3 17 9 -1 179.75 -66.70 165.58 <
-3 -17 9 -1 195.35 426.75 675.72 <
-3 17 9 0 42.11 258.17 167.92 <
-3 -17 9 0 47.75 217.36 495.25 <
-3 17 9 1 69.24 523.66 348.17 <
-3 -17 9 1 69.21 665.37 500.49 <
-3 17 9 2 152.72 849.25 495.84 <
-3 -17 9 2 157.45 47.98 165.49 <
-2 17 9 -2 82.60 196.04 284.84 <
-2 -17 9 -2 73.87 510.36 245.56 <
-2 -17 9 -1 331.15 142.42 159.60 <
-2 17 9 0 385.75 -307.98 172.12 <
-2 -17 9 0 380.78 324.19 200.08 <
-2 17 9 1 108.45 0.43 110.22 <
-2 -17 9 1 108.50 15.68 117.75 <
-2 17 9 2 373.05 648.89 455.05 <
-2 -17 9 2 357.23 278.78 225.86 <
-1 17 9 -2 285.29 -216.23 207.23 <
-1 -17 9 -2 281.73 -61.90 149.84 <
-1 17 9 -1 47.73 -68.46 173.80 <
-1 -17 9 -1 42.68 197.54 193.47 <
-1 17 9 0 175.69 -185.01 137.79 <
-1 -17 9 0 156.37 96.38 195.88 <
-1 17 9 1 59.10 -27.22 118.53 <
-1 -17 9 1 69.97 67.05 164.92 <
-1 17 9 2 236.21 -75.38 293.08 <
-1 -17 9 2 235.07 -165.25 159.71 <
0 17 9 -2 280.84 372.77 272.15 <
0 -17 9 -2 274.51 17.11 132.55 <
0 17 9 -1 376.03 -126.86 120.66 <
0 -17 9 -1 378.16 44.89 131.09 <
0 17 9 0 818.41 835.71 449.62 <
0 -17 9 0 819.57 456.35 231.75 <
0 17 9 1 264.49 261.84 223.84 <
0 -17 9 1 267.03 225.21 207.95 <
0 17 9 2 509.68 638.93 394.68 <
0 -17 9 2 499.61 474.64 186.08 <
1 -17 9 -2 153.89 -38.78 157.18 <
1 17 9 -1 210.40 942.84 448.90 <
1 -17 9 -1 211.39 203.56 152.57 <
1 17 9 0 178.84 676.33 428.79 <
1 -17 9 0 173.79 105.90 125.83 <
1 17 9 1 398.12 714.68 577.01 <
1 -17 9 1 400.82 551.86 206.01 <
1 17 9 2 273.41 449.05 473.27 <
1 -17 9 2 279.85 100.62 134.33 <
2 -17 9 -2 121.71 252.17 141.59 <
2 -17 9 -1 63.49 46.68 161.05 <
2 -17 9 0 364.44 421.27 154.88 <
2 -17 9 1 239.16 305.74 189.29 <
2 -17 9 2 177.63 -68.48 156.45 <
3 -17 9 -2 40.48 69.07 151.95 <
3 -17 9 -1 68.28 285.56 168.64 <
3 -17 9 0 91.05 291.41 327.70 <
-3 18 9 -1 434.46 155.18 347.65 <
-3 18 9 0 89.82 -269.93 286.82 <
-3 -18 9 2 122.61 -18.76 204.82 <
-2 -18 9 -2 40.63 -57.68 134.57 <
-2 18 9 -1 23.22 -228.84 277.93 <
-2 -18 9 -1 18.72 260.02 258.06 <
-2 18 9 0 485.55 594.74 394.48 <
-2 -18 9 0 470.58 300.48 177.49 <
-2 18 9 1 102.26 847.40 440.98 <
-2 -18 9 1 101.85 -269.06 271.37 <
-2 18 9 2 89.26 -108.57 303.91 <
-2 -18 9 2 90.78 200.43 143.10 <
-1 18 9 -2 37.14 -234.13 274.73 <
-1 -18 9 -2 32.03 75.37 143.92 <
-1 18 9 -1 204.01 43.48 209.06 <
-1 -18 9 -1 202.57 206.80 137.97 <
-1 18 9 0 199.56 315.59 259.32 <
-1 -18 9 0 193.04 395.26 152.95 <
-1 18 9 1 219.70 529.10 358.55 <
-1 -18 9 1 211.27 312.06 207.38 <
-1 18 9 2 187.42 200.65 221.69 <
-1 -18 9 2 183.95 413.35 226.82 <
0 18 9 -2 23.57 656.61 392.90 <
0 -18 9 -2 22.78 97.88 159.99 <
0 18 9 -1 66.68 349.89 275.63 <
0 -18 9 -1 55.94 -87.05 86.70 <
0 18 9 0 667.67 985.06 602.85 <
0 -18 9 0 633.02 815.08 303.59 <
0 18 9 1 50.10 726.98 441.46 <
0 -18 9 1 46.94 205.34 178.38 <
0 18 9 2 114.87 801.96 475.51 <
0 -18 9 2 117.77 111.51 177.06 <
1 18 9 -2 69.88 878.12 480.92 <
1 -18 9 -2 70.21 209.54 156.97 <
1 18 9 -1 220.32 508.23 347.48 <
1 -18 9 -1 244.97 489.12 245.38 <
1 18 9 0 121.92 1177.69 592.76 <
1 -18 9 0 111.43 351.46 267.52 <
1 18 9 1 52.28 637.58 560.08 <
1 -18 9 1 59.34 228.47 169.38 <
1 18 9 2 82.04 500.60 412.59 <
1 -18 9 2 82.53 169.05 196.97 <
2 -18 9 -2 33.97 47.50 149.21 <
2 -18 9 -1 18.43 235.88 200.60 <
2 -18 9 0 504.10 558.77 251.49 <
2 -18 9 1 55.90 216.27 166.90 <
2 -18 9 2 156.72 299.33 250.84 <
3 -18 9 -2 78.94 53.29 158.57 <
3 -18 9 -1 54.63 300.59 264.82 <
3 -18 9 0 17.47 -53.76 221.01 <
-2 19 9 -2 129.43 823.73 413.94 <
-2 -19 9 -2 130.38 68.37 183.53 <
-2 19 9 -1 135.58 132.79 331.61 <
-2 -19 9 -1 134.15 144.34 182.90 <
-2 19 9 0 137.66 1103.98 585.19 <
-2 -19 9 0 147.53 143.62 206.54 <
-2 19 9 1 97.50 513.82 325.17 <
-2 -19 9 1 100.01 90.70 256.91 <
-2 19 9 2 34.09 251.82 308.87 <
-2 -19 9 2 36.22 97.11 171.19 <
-1 19 9 -2 171.13 -150.36 226.25 <
-1 -19 9 -2 167.51 -141.34 204.25 <
-1 19 9 -1 444.19 -180.34 310.80 <
-1 -19 9 -1 445.08 128.70 181.32 <
-1 19 9 0 100.07 104.44 121.49 <
-1 -19 9 0 111.71 -53.90 137.53 <
-1 19 9 1 44.83 -130.85 249.21 <
-1 -19 9 1 47.77 307.24 181.42 <
-1 19 9 2 81.64 179.95 216.91 <
-1 -19 9 2 80.05 349.46 223.02 <
0 19 9 -2 116.53 65.31 163.49 <
0 -19 9 -2 120.96 53.90 243.41 <
0 19 9 -1 109.85 477.60 377.61 <
0 -19 9 -1 115.16 22.76 165.27 <
0 19 9 0 56.79 300.59 301.95 <
0 -19 9 0 29.29 208.43 195.38 <
0 19 9 1 123.35 891.34 514.64 <
0 -19 9 1 117.36 205.53 205.86 <
0 -19 9 2 62.81 30.17 153.53 <
1 19 9 -2 241.28 593.89 448.44 <
1 -19 9 -2 246.39 232.26 181.71 <
1 19 9 -1 207.70 984.46 590.86 <
1 -19 9 -1 210.32 227.32 201.84 <
1 19 9 0 231.27 925.13 558.95 <
1 -19 9 0 242.53 543.77 282.76 <
1 19 9 1 129.16 571.71 417.98 <
1 -19 9 1 117.38 302.52 147.27 <
1 -19 9 2 119.12 41.50 147.31 <
2 -19 9 -2 64.38 67.16 177.68 <
2 -19 9 -1 60.97 261.15 198.21 <
2 -19 9 0 66.00 648.33 369.26 <
3 -19 9 -2 169.98 -403.42 339.98 <
-2 20 9 -2 9.83 944.13 533.06 <
-2 -20 9 -2 8.36 -59.29 233.65 <
-2 20 9 -1 363.16 69.27 129.20 <
-2 -20 9 -1 360.83 506.23 362.09 <
-2 -20 9 0 153.88 70.18 129.88 <
-1 20 9 -2 202.34 -110.59 188.49 <
-1 -20 9 -2 208.31 41.74 103.27 <
-1 20 9 -1 199.14 -148.99 213.80 <
-1 -20 9 -1 205.99 211.77 159.53 <
-1 20 9 0 1573.93 930.28 428.64 <
-1 -20 9 0 1571.25 1220.49 339.63 o
-1 20 9 1 73.71 234.10 208.82 <
-1 -20 9 1 70.36 129.49 188.51 <
-1 -20 9 2 346.42 91.83 328.80 <
0 20 9 -2 4.69 504.80 472.44 <
0 -20 9 -2 3.97 80.81 175.06 <
0 20 9 -1 323.34 28.07 224.12 <
0 -20 9 -1 320.96 322.85 222.32 <
0 20 9 0 45.37 -27.79 171.01 <
0 -20 9 0 75.22 82.22 182.36 <
0 20 9 1 66.81 386.74 382.02 <
0 -20 9 1 64.25 182.69 216.77 <
1 -20 9 -2 45.58 95.18 151.45 <
1 20 9 -1 8.64 344.42 372.65 <
1 -20 9 -1 9.70 141.66 142.51 <
1 20 9 0 1328.74 3018.59 838.40 o
1 -20 9 0 1321.16 1791.70 420.57 o
2 -20 9 -2 13.01 13.43 142.38 <
2 -20 9 -1 67.00 -116.66 180.79 <
-1 21 9 -2 68.60 -176.23 256.23 <
-1 -21 9 -2 67.67 299.76 223.38 <
-1 21 9 -1 45.94 306.28 305.48 <
-1 -21 9 -1 44.33 -70.53 135.62 <
-1 -21 9 0 87.79 -107.27 176.27 <
-1 -21 9 1 31.85 230.90 222.51 <
0 -21 9 -2 90.46 -201.06 148.84 <
0 21 9 -1 707.29 653.69 428.72 <
0 -21 9 -1 725.26 661.11 280.00 <
0 -21 9 0 1012.24 1152.64 511.82 <
1 21 9 -2 201.04 242.56 370.68 <
1 -21 9 -2 197.87 -4.18 147.16 <
-1 -22 9 -2 170.39 430.92 410.37 <
0 -22 9 -2 255.09 48.31 207.93 <
-4 0 10 -2 109.08 -108.47 206.95 <
-4 0 10 -1 775.32 987.46 386.50 <
-4 0 10 0 2524.52 2670.00 673.92 o
-4 0 10 1 53.43 -144.99 125.03 <
-4 0 10 2 482.44 484.31 398.63 <
-3 0 10 -2 365.12 -127.96 161.95 <
-3 0 10 -1 133.46 -28.18 175.88 <
-3 0 10 0 260.89 70.01 173.80 <
-3 0 10 1 118.84 180.19 175.56 <
-3 0 10 2 167.64 -3.63 129.94 <
-2 0 10 -2 583.04 558.15 258.00 <
-2 0 10 -1 2167.78 3110.22 638.96 o
-2 0 10 0 3314.16 3586.91 673.07 o
-2 0 10 1 158.65 82.20 203.29 <
-2 0 10 2 530.91 557.25 298.43 <
-1 0 10 -2 561.35 67.29 148.79 <
-1 0 10 -1 277.21 326.30 169.86 <
-1 0 10 0 349.32 88.85 134.03 <
-1 0 10 1 154.26 3.44 155.23 <
-1 0 10 2 399.86 35.33 99.70 <
0 0 10 -2 401.47 42.33 99.86 <
0 0 10 -1 1831.01 2268.98 344.55 o
0 0 10 0 17362.90 18504.70 1002.06 o
0 0 10 1 59.01 127.77 98.86 <
0 0 10 2 555.07 1295.02 293.56 o
1 0 10 -2 281.75 -27.79 51.92 <
1 0 10 -1 172.51 -59.72 120.25 <
1 0 10 0 192.85 75.74 123.73 <
1 0 10 1 22.59 55.18 94.48 <
1 0 10 2 333.07 -101.20 100.79 <
2 0 10 -2 159.43 79.63 106.48 <
2 0 10 -1 95.87 120.96 133.33 <
2 0 10 0 2743.71 2529.30 660.59 o
2 0 10 1 729.57 862.16 405.98 <
2 0 10 2 594.24 934.04 455.57 <
3 0 10 -2 198.90 -29.92 306.82 <
3 0 10 -1 83.33 110.01 258.02 <
3 0 10 0 46.07 -96.90 120.57 <
3 0 10 1 9.09 -330.33 199.88 <
3 0 10 2 149.07 182.47 136.33 <
4 0 10 -2 0.06 81.70 275.67 <
4 0 10 -1 20.72 134.84 200.86 <
4 0 10 0 2207.13 2307.46 731.05 o
4 0 10 1 556.49 572.88 416.01 <
4 0 10 2 103.92 176.55 268.67 <
5 0 10 -2 196.10 98.98 237.95 <
5 0 10 -1 65.19 111.79 142.99 <
-4 1 10 -2 134.07 69.22 166.86 <
-4 -1 10 -2 139.04 449.20 402.37 <
-4 1 10 -1 326.69 2.61 162.75 <
-4 -1 10 -1 325.52 -64.44 155.44 <
-4 1 10 0 24.00 372.52 325.61 <
-4 -1 10 0 22.17 417.72 317.19 <
-4 1 10 1 128.04 -60.48 191.49 <
-4 -1 10 1 141.63 620.76 377.26 <
-4 1 10 2 157.47 -61.90 128.53 <
-4 -1 10 2 161.76 178.88 223.54 <
-3 1 10 -2 36.78 -183.47 147.34 <
-3 -1 10 -2 36.00 195.62 190.06 <
-3 1 10 -1 87.55 1387.64 465.23 <
-3 -1 10 -1 86.60 156.62 208.54 <
-3 1 10 0 55.81 424.55 300.78 <
-3 -1 10 0 61.94 -18.44 202.64 <
-3 1 10 1 34.82 48.15 184.54 <
-3 -1 10 1 35.90 -17.92 100.74 <
-3 1 10 2 223.14 165.60 107.20 <
-3 -1 10 2 213.03 -36.26 184.88 <
-2 1 10 -2 489.56 233.97 176.58 <
-2 -1 10 -2 433.65 511.27 276.00 <
-2 1 10 -1 1010.82 1112.05 367.87 o
-2 -1 10 -1 1019.28 1348.42 438.40 o
-2 1 10 0 146.37 535.17 310.65 <
-2 -1 10 0 153.56 11.30 100.12 <
-2 1 10 1 528.31 854.21 356.94 <
-2 -1 10 1 554.67 546.21 294.06 <
-2 1 10 2 307.14 270.84 170.71 <
-2 -1 10 2 308.54 151.51 157.47 <
-1 1 10 -2 73.31 -92.12 131.07 <
-1 -1 10 -2 77.78 44.53 104.75 <
-1 1 10 -1 1375.05 824.86 234.62 o
-1 -1 10 -1 1400.20 930.73 250.34 o
-1 1 10 0 10.49 156.44 101.81 <
-1 -1 10 0 10.29 104.25 119.68 <
-1 1 10 1 284.76 311.91 163.34 <
-1 -1 10 1 292.14 222.28 160.82 <
-1 1 10 2 230.88 289.43 194.29 <
-1 -1 10 2 237.16 51.46 107.96 <
0 1 10 -2 381.52 125.70 125.96 <
0 -1 10 -2 371.75 1.48 70.72 <
0 1 10 -1 1375.43 1216.58 260.10 o
0 -1 10 -1 1374.79 1205.10 258.61 o
0 1 10 0 681.84 546.71 195.84 <
0 -1 10 0 607.00 557.88 200.73 <
0 1 10 1 325.29 309.50 158.79 <
0 -1 10 1 344.84 211.58 108.11 <
0 1 10 2 295.25 27.65 107.46 <
0 -1 10 2 286.29 -64.35 113.92 <
1 1 10 -2 193.48 435.07 166.14 <
1 -1 10 -2 211.25 284.63 143.01 <
1 1 10 -1 285.93 106.44 136.18 <
1 -1 10 -1 305.05 -1.96 93.20 <
1 1 10 0 57.35 230.58 114.97 <
1 -1 10 0 64.26 54.87 96.36 <
1 1 10 1 1113.57 1262.10 269.02 o
1 -1 10 1 1140.48 1325.63 292.80 o
1 1 10 2 159.24 4.67 92.33 <
2 1 10 -2 163.25 115.72 90.55 <
2 -1 10 -2 160.06 216.25 137.57 <
2 1 10 -1 1163.70 643.09 194.79 o
2 -1 10 -1 1153.91 1522.03 486.07 o
2 1 10 0 38.64 113.77 240.12 <
2 -1 10 0 39.63 339.20 345.05 <
2 1 10 1 233.30 475.38 349.46 <
2 -1 10 1 225.30 366.15 280.97 <
2 1 10 2 196.79 151.73 270.58 <
2 -1 10 2 181.96 -484.92 267.98 <
3 1 10 -2 107.24 346.30 185.84 <
3 -1 10 -2 116.97 -142.75 223.12 <
3 1 10 -1 306.95 17.65 200.65 <
3 -1 10 -1 327.46 434.53 383.18 <
3 1 10 0 183.20 -7.20 187.36 <
3 -1 10 0 193.86 -301.65 261.80 <
3 1 10 1 573.55 636.96 360.81 <
3 -1 10 1 600.30 407.68 325.13 <
3 1 10 2 20.47 494.36 282.08 <
3 -1 10 2 24.93 -18.57 156.18 <
4 1 10 -2 14.79 -293.50 187.69 <
4 -1 10 -2 14.05 -328.83 251.71 <
4 1 10 -1 183.98 6.89 261.91 <
4 -1 10 -1 184.15 74.92 118.38 <
4 1 10 0 68.23 -106.79 223.45 <
4 -1 10 0 63.37 31.87 381.44 <
4 1 10 1 394.86 -341.72 364.89 <
4 -1 10 1 377.54 347.41 219.80 <
4 1 10 2 169.62 275.43 232.32 <
4 -1 10 2 170.77 161.97 124.53 <
5 1 10 -2 20.35 -122.70 341.05 <
5 -1 10 -2 22.05 194.43 363.81 <
5 1 10 -1 158.16 137.49 263.43 <
-4 2 10 -2 28.79 49.78 90.61 <
-4 -2 10 -2 25.87 382.24 293.65 <
-4 2 10 -1 436.27 53.02 169.69 <
-4 -2 10 -1 424.38 -255.45 215.38 <
-4 2 10 0 38.78 1.50 86.66 <
-4 -2 10 0 36.60 -32.33 128.85 <
-4 2 10 1 33.44 203.82 94.99 <
-4 -2 10 1 28.01 141.68 110.75 <
-4 2 10 2 227.12 19.18 138.64 <
-4 -2 10 2 238.96 25.54 115.99 <
-3 2 10 -2 47.99 391.35 202.67 <
-3 -2 10 -2 54.21 380.40 239.65 <
-3 2 10 -1 326.00 410.18 289.74 <
-3 -2 10 -1 290.28 162.53 112.23 <
-3 2 10 0 929.24 819.36 364.20 <
-3 -2 10 0 916.10 939.67 367.81 <
-3 2 10 1 265.96 135.14 224.02 <
-3 -2 10 1 266.33 709.39 339.59 <
-3 2 10 2 165.89 511.34 340.50 <
-3 -2 10 2 164.60 162.62 233.43 <
-2 2 10 -2 621.53 859.23 323.41 <
-2 -2 10 -2 626.66 907.25 339.26 <
-2 2 10 -1 946.55 918.19 377.65 <
-2 -2 10 -1 957.44 726.16 316.80 <
-2 2 10 0 375.17 92.77 175.90 <
-2 -2 10 0 382.58 39.26 106.53 <
-2 2 10 1 10.76 243.78 238.08 <
-2 -2 10 1 11.46 100.16 222.69 <
-2 2 10 2 283.18 233.23 216.54 <
-2 -2 10 2 300.74 -40.89 129.70 <
-1 2 10 -2 58.39 214.90 175.92 <
-1 -2 10 -2 61.67 76.55 140.03 <
-1 2 10 -1 1838.46 2088.59 346.50 o
-1 -2 10 -1 1884.46 1805.05 340.41 o
-1 2 10 0 1419.69 1804.03 338.76 o
-1 -2 10 0 1404.88 2130.03 370.65 o
-1 2 10 1 564.49 813.46 231.06 o
-1 -2 10 1 558.07 668.26 226.88 <
-1 2 10 2 208.92 305.58 166.64 <
-1 -2 10 2 201.60 123.81 132.81 <
0 2 10 -2 230.00 16.63 60.13 <
0 -2 10 -2 238.21 71.63 49.44 <
0 2 10 -1 965.90 1103.36 257.34 o
0 -2 10 -1 947.82 645.87 177.71 o
0 2 10 0 1070.58 822.97 213.77 o
0 -2 10 0 1027.93 688.63 211.73 o
0 2 10 1 2.67 100.27 113.25 <
0 -2 10 1 1.95 136.70 97.42 <
0 2 10 2 217.35 49.61 148.38 <
0 -2 10 2 224.74 120.66 76.25 <
1 2 10 -2 31.02 11.48 102.72 <
1 -2 10 -2 28.37 19.15 83.68 <
1 2 10 -1 191.92 114.64 93.62 <
1 -2 10 -1 173.17 122.07 138.31 <
1 2 10 0 919.70 1274.32 267.69 o
1 -2 10 0 904.07 1281.98 261.15 o
1 2 10 1 181.39 163.25 150.34 <
1 -2 10 1 228.95 344.02 189.41 <
1 2 10 2 168.83 132.55 146.34 <
1 -2 10 2 198.22 257.36 225.19 <
2 2 10 -2 436.02 258.91 165.79 <
2 -2 10 -2 436.34 246.51 278.06 <
2 2 10 -1 692.29 488.84 199.71 <
2 -2 10 -1 662.76 644.35 340.57 <
2 2 10 0 235.03 222.93 139.68 <
2 -2 10 0 230.60 672.44 339.24 <
2 2 10 1 115.66 -73.98 159.77 <
2 -2 10 1 110.22 21.59 179.45 <
2 2 10 2 158.42 -4.11 246.38 <
2 -2 10 2 196.26 -69.55 126.66 <
3 2 10 -2 55.97 57.61 344.18 <
3 -2 10 -2 51.34 -83.57 213.80 <
3 2 10 -1 99.11 79.88 129.73 <
3 -2 10 -1 95.97 195.90 306.95 <
3 2 10 0 797.51 902.32 376.54 <
3 -2 10 0 772.77 621.76 401.03 <
3 2 10 1 220.38 750.90 446.77 <
3 -2 10 1 232.33 842.30 442.79 <
3 2 10 2 228.55 133.75 173.79 <
3 -2 10 2 236.62 535.30 326.41 <
4 2 10 -2 310.06 156.73 147.77 <
4 -2 10 -2 313.97 176.38 252.15 <
4 2 10 -1 371.14 272.97 324.02 <
4 -2 10 -1 352.56 185.34 222.80 <
4 2 10 0 110.91 -195.21 382.05 <
4 -2 10 0 118.51 -237.19 227.23 <
4 2 10 1 120.98 -287.74 330.43 <
4 -2 10 1 113.84 40.02 178.71 <
4 2 10 2 136.24 -335.43 290.34 <
5 2 10 -2 91.19 -176.40 247.78 <
5 -2 10 -2 87.97 -421.16 339.61 <
5 2 10 -1 99.77 -153.45 241.23 <
-4 3 10 -2 47.80 325.69 341.48 <
-4 -3 10 -2 54.46 685.35 321.82 <
-4 3 10 -1 269.46 650.67 336.89 <
-4 -3 10 -1 273.05 60.66 95.01 <
-4 3 10 0 319.55 -16.13 182.86 <
-4 -3 10 0 307.72 210.69 195.97 <
-4 3 10 1 132.32 99.42 167.95 <
-4 -3 10 1 132.10 122.25 225.45 <
-4 3 10 2 10.00 182.38 300.17 <
-4 -3 10 2 10.57 439.99 305.74 <
-3 3 10 -2 412.02 -48.90 167.01 <
-3 -3 10 -2 404.70 313.72 108.35 <
-3 3 10 -1 335.89 466.10 263.11 <
-3 -3 10 -1 304.32 796.14 385.33 <
-3 3 10 0 2053.15 1870.56 495.95 o
-3 -3 10 0 2038.58 1949.67 535.53 o
-3 3 10 1 141.73 225.67 144.23 <
-3 -3 10 1 136.43 587.97 355.04 <
-3 3 10 2 284.56 504.99 314.35 <
-3 -3 10 2 265.03 635.11 325.89 <
-2 3 10 -2 1093.95 719.13 308.24 <
-2 -3 10 -2 1073.78 1131.92 367.90 o
-2 3 10 -1 1116.80 1417.61 427.77 o
-2 -3 10 -1 1125.25 1458.68 429.86 o
-2 3 10 0 1069.60 1171.25 413.51 <
-2 -3 10 0 1098.42 973.82 375.44 <
-2 3 10 1 421.23 258.56 188.47 <
-2 -3 10 1 415.64 23.39 136.71 <
-2 3 10 2 43.42 56.63 102.22 <
-2 -3 10 2 43.17 57.07 112.73 <
-1 3 10 -2 654.84 222.36 175.82 <
-1 -3 10 -2 646.45 156.12 142.09 <
-1 3 10 -1 1988.23 1805.12 467.60 o
-1 -3 10 -1 2001.22 1678.96 327.96 o
-1 3 10 0 5304.83 5715.85 587.24 o
-1 -3 10 0 5238.02 5201.17 575.91 o
-1 3 10 1 290.77 418.14 178.03 <
-1 -3 10 1 297.59 456.57 192.54 <
-1 3 10 2 400.04 666.18 206.23 o
-1 -3 10 2 397.97 593.23 215.10 <
0 3 10 -2 214.60 191.53 119.40 <
0 -3 10 -2 223.43 323.24 156.05 <
0 3 10 -1 1038.67 1220.67 263.58 o
0 -3 10 -1 1054.20 987.15 233.38 o
0 3 10 0 260.59 309.95 175.34 <
0 -3 10 0 221.88 167.16 108.20 <
0 3 10 1 116.89 168.18 194.91 <
0 -3 10 1 109.44 133.92 126.90 <
0 3 10 2 89.69 276.87 150.40 <
0 -3 10 2 82.87 326.24 173.73 <
1 3 10 -2 191.67 -20.20 77.92 <
1 -3 10 -2 204.54 5.02 66.74 <
1 3 10 -1 74.87 4.52 122.97 <
1 -3 10 -1 61.61 157.16 122.86 <
1 3 10 0 3852.54 3593.91 451.53 o
1 -3 10 0 3831.46 3915.91 462.14 o
1 3 10 1 929.53 805.44 222.02 o
1 -3 10 1 907.59 771.96 352.09 <
1 3 10 2 187.35 230.91 142.29 <
1 -3 10 2 197.64 89.29 144.14 <
2 3 10 -2 502.30 836.77 238.69 o
2 -3 10 -2 519.03 399.07 353.98 <
2 3 10 -1 768.31 767.51 220.34 o
2 -3 10 -1 768.73 746.05 365.57 <
2 3 10 0 404.50 344.05 176.95 <
2 -3 10 0 409.15 746.59 354.41 <
2 3 10 1 19.12 568.51 359.00 <
2 -3 10 1 15.75 124.16 103.38 <
2 3 10 2 159.84 606.15 346.89 <
2 -3 10 2 151.48 113.16 232.39 <
3 3 10 -2 60.87 231.78 299.45 <
3 -3 10 -2 67.49 6.78 93.87 <
3 3 10 -1 54.36 -9.61 252.91 <
3 -3 10 -1 47.50 -119.64 298.98 <
3 3 10 0 1490.52 1881.25 587.39 o
3 -3 10 0 1484.42 1180.40 510.82 <
3 3 10 1 340.09 666.39 406.40 <
3 -3 10 1 377.18 -4.78 163.86 <
3 3 10 2 141.06 243.91 353.48 <
3 -3 10 2 142.22 -124.57 345.11 <
4 3 10 -2 358.96 191.32 143.66 <
4 -3 10 -2 370.16 713.76 432.77 <
4 3 10 -1 233.59 109.03 335.52 <
4 -3 10 -1 228.48 675.91 370.05 <
4 3 10 0 75.28 -432.49 350.15 <
4 -3 10 0 75.25 -245.30 397.50 <
4 3 10 1 91.29 -892.40 452.38 <
4 -3 10 1 98.35 300.32 365.63 <
4 3 10 2 58.44 -118.38 168.58 <
5 3 10 -2 21.12 150.27 230.78 <
5 -3 10 -2 20.91 -45.16 180.18 <
5 3 10 -1 196.40 -50.31 241.12 <
-4 4 10 -2 158.38 291.19 191.08 <
-4 -4 10 -2 180.27 -291.65 274.36 <
-4 4 10 -1 226.65 288.78 255.49 <
-4 -4 10 -1 235.84 471.08 286.54 <
-4 4 10 0 116.76 51.57 149.90 <
-4 -4 10 0 124.33 395.39 273.10 <
-4 4 10 1 3.74 215.28 108.36 <
-4 -4 10 1 3.91 -318.70 264.50 <
-4 4 10 2 58.75 255.26 281.43 <
-4 -4 10 2 55.02 69.85 116.05 <
-3 4 10 -2 53.26 456.18 298.56 <
-3 -4 10 -2 52.69 -180.40 201.49 <
-3 4 10 -1 1329.58 1922.69 539.91 o
-3 -4 10 -1 1308.73 979.98 388.22 <
-3 4 10 0 180.86 -51.61 145.64 <
-3 -4 10 0 182.30 541.21 323.37 <
-3 4 10 1 458.31 865.45 426.81 <
-3 -4 10 1 474.50 283.06 180.38 <
-3 4 10 2 8.95 145.70 129.29 <
-3 -4 10 2 7.94 117.79 93.29 <
-2 4 10 -2 1090.32 1017.04 350.48 <
-2 -4 10 -2 1018.32 375.59 211.88 <
-2 4 10 -1 490.37 347.92 238.75 <
-2 -4 10 -1 487.42 476.44 253.23 <
-2 4 10 0 242.26 771.75 355.63 <
-2 -4 10 0 241.71 764.27 350.22 <
-2 4 10 1 47.79 -104.27 197.62 <
-2 -4 10 1 44.32 196.80 235.56 <
-2 4 10 2 5.97 99.72 139.55 <
-2 -4 10 2 5.72 278.06 165.38 <
-1 4 10 -2 40.36 -172.01 159.57 <
-1 -4 10 -2 40.55 8.52 85.74 <
-1 4 10 -1 1436.70 1864.01 473.42 o
-1 -4 10 -1 1448.94 1217.52 280.08 o
-1 4 10 0 226.69 94.37 167.29 <
-1 -4 10 0 233.99 32.74 78.07 <
-1 4 10 1 1695.78 1756.27 331.63 o
-1 -4 10 1 1720.69 1073.63 265.58 o
-1 4 10 2 53.63 89.38 139.01 <
-1 -4 10 2 49.29 191.32 138.51 <
0 4 10 -2 495.85 225.69 140.96 <
0 -4 10 -2 484.30 25.22 129.57 <
0 4 10 -1 803.61 744.16 216.88 o
0 -4 10 -1 818.60 836.53 235.13 o
0 4 10 0 193.06 478.70 180.51 <
0 -4 10 0 200.50 345.57 180.08 <
0 4 10 1 233.66 553.23 217.69 <
0 -4 10 1 224.42 482.55 186.68 <
0 4 10 2 125.42 10.26 100.61 <
0 -4 10 2 130.39 195.01 136.75 <
1 4 10 -2 132.80 281.82 144.31 <
1 -4 10 -2 130.21 64.96 89.29 <
1 4 10 -1 2288.83 2192.93 348.81 o
1 -4 10 -1 2263.49 2271.50 343.55 o
1 4 10 0 91.94 116.66 93.53 <
1 -4 10 0 95.58 385.87 270.15 <
1 4 10 1 2296.24 1970.54 348.92 o
1 -4 10 1 2351.51 2030.87 567.69 o
1 4 10 2 36.46 141.73 151.32 <
1 -4 10 2 37.70 251.38 235.13 <
2 4 10 -2 439.03 25.33 140.71 <
2 -4 10 -2 434.30 268.47 242.19 <
2 4 10 -1 63.97 206.88 143.62 <
2 -4 10 -1 68.65 -124.47 174.51 <
2 4 10 0 646.74 320.15 135.86 <
2 -4 10 0 676.51 466.29 318.67 <
2 4 10 1 140.01 78.51 99.70 <
2 4 10 2 211.51 138.47 154.97 <
2 -4 10 2 181.14 348.39 293.33 <
3 4 10 -2 73.77 57.40 135.86 <
3 -4 10 -2 79.88 250.65 292.21 <
3 4 10 -1 769.61 1117.86 464.20 <
3 -4 10 -1 780.63 533.60 313.22 <
3 4 10 0 106.31 707.96 474.40 <
3 -4 10 0 112.99 259.13 277.60 <
3 4 10 1 1221.09 1915.00 650.87 <
3 -4 10 1 1191.17 1593.21 605.26 <
3 4 10 2 130.31 469.01 326.95 <
3 -4 10 2 124.42 697.22 486.88 <
4 4 10 -2 90.94 -74.01 214.32 <
4 -4 10 -2 93.35 533.41 397.74 <
4 4 10 -1 37.89 226.82 256.24 <
4 -4 10 -1 42.98 226.71 415.99 <
4 4 10 0 348.03 -37.41 180.56 <
4 -4 10 0 363.10 119.72 151.14 <
4 4 10 1 45.92 -170.34 280.76 <
4 -4 10 1 46.97 287.84 314.83 <
4 4 10 2 7.56 -735.46 382.18 <
5 4 10 -2 28.72 46.74 143.03 <
5 -4 10 -2 33.61 226.84 317.43 <
5 4 10 -1 159.52 123.73 169.93 <
-4 5 10 -2 38.25 151.07 261.60 <
-4 -5 10 -2 37.43 -311.82 182.56 <
-4 5 10 -1 76.57 34.94 201.12 <
-4 -5 10 -1 78.73 248.49 238.80 <
-4 5 10 0 377.38 949.37 432.36 <
-4 -5 10 0 372.58 813.14 372.94 <
-4 5 10 1 182.57 -87.88 148.51 <
-4 -5 10 1 174.95 46.57 192.88 <
-4 5 10 2 70.24 -149.94 168.93 <
-4 -5 10 2 68.53 451.94 382.90 <
-3 5 10 -2 6.81 274.76 200.08 <
-3 -5 10 -2 6.02 -82.55 173.10 <
-3 5 10 -1 261.36 194.93 191.36 <
-3 -5 10 -1 238.54 1014.35 423.24 <
-3 5 10 0 2104.41 2097.16 599.82 o
-3 -5 10 0 2131.11 1853.60 517.56 o
-3 5 10 1 339.94 693.53 375.92 <
-3 -5 10 1 352.20 571.49 288.93 <
-3 5 10 2 95.82 320.58 261.86 <
-3 -5 10 2 95.44 438.46 272.98 <
-2 -5 10 -2 14.68 42.29 69.50 <
-2 5 10 -1 249.21 -85.68 123.60 <
-2 -5 10 -1 252.97 322.08 195.16 <
-2 5 10 0 895.62 1148.90 397.16 <
-2 -5 10 0 896.71 735.27 317.93 <
-2 5 10 1 272.05 427.72 280.28 <
-2 -5 10 1 266.29 226.34 168.34 <
-2 5 10 2 103.55 -175.68 175.19 <
-2 -5 10 2 100.19 205.29 137.42 <
-1 5 10 -2 92.71 421.20 273.78 <
-1 -5 10 -2 84.88 213.41 123.31 <
-1 5 10 -1 904.89 610.80 316.20 <
-1 -5 10 -1 916.53 1055.85 256.82 o
-1 5 10 0 4642.78 4092.57 697.55 o
-1 -5 10 0 4577.00 2884.84 450.31 o
-1 5 10 1 305.66 304.63 168.73 <
-1 -5 10 1 320.97 564.77 249.56 <
-1 5 10 2 53.71 498.27 192.45 <
-1 -5 10 2 52.72 73.05 125.49 <
0 5 10 -2 199.83 433.01 183.04 <
0 -5 10 -2 193.32 212.34 141.53 <
0 5 10 -1 650.36 522.16 197.88 <
0 -5 10 -1 649.67 405.92 180.04 <
0 5 10 0 2680.38 2886.56 413.85 o
0 -5 10 0 2665.62 2941.71 402.64 o
0 5 10 1 390.29 254.38 151.60 <
0 -5 10 1 382.78 548.67 187.95 <
0 5 10 2 141.71 291.80 171.71 <
0 -5 10 2 137.17 149.57 115.31 <
1 5 10 -2 108.38 -293.33 236.13 <
1 -5 10 -2 114.09 -83.90 104.98 <
1 5 10 -1 29.66 50.28 104.70 <
1 -5 10 -1 20.18 127.40 128.99 <
1 5 10 0 5486.80 3800.40 467.86 o
1 -5 10 0 5459.94 4418.20 815.36 o
1 5 10 1 5097.56 4286.76 512.21 o
1 -5 10 1 5082.78 3918.87 781.90 o
1 5 10 2 87.13 80.74 109.85 <
1 -5 10 2 93.54 352.80 240.19 <
2 5 10 -2 286.37 357.31 160.21 <
2 -5 10 -2 290.09 258.39 234.67 <
2 5 10 -1 452.56 273.11 149.34 <
2 -5 10 -1 449.40 716.42 351.18 <
2 5 10 0 634.25 872.95 230.76 o
2 -5 10 0 619.36 817.75 405.29 <
2 5 10 1 121.94 456.81 186.10 <
2 -5 10 1 121.73 250.95 248.41 <
2 5 10 2 232.76 402.40 283.50 <
2 -5 10 2 232.99 671.41 418.20 <
3 5 10 -2 120.92 232.80 202.67 <
3 -5 10 -2 125.67 -65.46 237.28 <
3 5 10 -1 159.79 330.17 254.62 <
3 -5 10 -1 169.81 249.02 113.86 <
3 5 10 0 2328.01 2238.49 636.72 o
3 -5 10 0 2314.71 1253.99 494.79 <
3 5 10 1 11.53 264.61 403.57 <
3 -5 10 1 27.57 252.86 348.22 <
3 5 10 2 69.19 131.44 172.58 <
3 -5 10 2 63.88 -75.59 270.97 <
4 5 10 -2 221.66 -39.00 144.31 <
4 -5 10 -2 222.65 -252.97 140.20 <
4 5 10 -1 276.13 449.59 208.40 <
4 -5 10 -1 273.36 51.96 350.74 <
4 5 10 0 262.55 31.68 315.02 <
4 -5 10 0 257.34 418.83 429.38 <
4 5 10 1 7.68 76.09 195.12 <
4 -5 10 1 8.17 -69.33 248.63 <
5 5 10 -2 106.61 -189.16 236.63 <
-4 6 10 -2 2.56 -37.18 192.23 <
-4 -6 10 -2 5.18 -8.96 163.88 <
-4 6 10 -1 177.80 372.55 336.20 <
-4 -6 10 -1 185.31 443.09 298.95 <
-4 6 10 0 168.46 141.92 199.30 <
-4 -6 10 0 154.45 204.03 300.00 <
-4 6 10 1 77.70 -120.23 167.97 <
-4 -6 10 1 78.47 272.58 323.41 <
-4 6 10 2 44.71 53.85 105.94 <
-4 -6 10 2 47.09 568.19 341.52 <
-3 6 10 -2 106.07 -19.68 188.58 <
-3 -6 10 -2 113.43 22.67 83.72 <
-3 6 10 -1 47.56 244.13 264.48 <
-3 -6 10 -1 30.35 102.53 209.01 <
-3 6 10 0 79.51 369.20 290.48 <
-3 -6 10 0 77.47 -102.88 90.53 <
-3 6 10 1 299.49 689.74 373.50 <
-3 -6 10 1 315.18 325.39 272.15 <
-3 6 10 2 149.35 -35.09 96.11 <
-3 -6 10 2 141.23 193.08 243.97 <
-2 6 10 -2 354.33 130.46 170.40 <
-2 -6 10 -2 334.66 45.76 81.46 <
-2 6 10 -1 417.94 -264.87 141.75 <
-2 -6 10 -1 417.21 353.22 310.98 <
-2 6 10 0 252.00 -12.46 156.57 <
-2 -6 10 0 243.02 -85.59 129.86 <
-2 6 10 1 13.47 -161.81 198.36 <
-2 -6 10 1 12.61 89.01 78.63 <
-2 6 10 2 58.25 -49.37 108.24 <
-2 -6 10 2 59.40 52.85 72.79 <
-1 6 10 -2 264.34 401.87 301.13 <
-1 -6 10 -2 257.34 348.80 138.86 <
-1 6 10 -1 2956.32 2691.96 569.86 o
-1 -6 10 -1 2967.84 2653.59 328.30 o
-1 -6 10 0 269.39 15.07 162.31 <
-1 6 10 1 282.19 11.52 94.53 <
-1 -6 10 1 302.26 98.25 122.79 <
-1 6 10 2 312.44 254.71 207.27 <
-1 -6 10 2 301.12 342.72 188.49 <
0 6 10 -2 71.22 140.09 146.49 <
0 -6 10 -2 67.18 161.95 103.88 <
0 6 10 -1 572.08 480.18 181.32 <
0 -6 10 -1 534.01 350.92 150.12 <
0 6 10 0 489.83 235.78 165.19 <
0 -6 10 0 455.74 578.45 198.53 <
0 6 10 1 68.32 -133.84 148.08 <
0 -6 10 1 73.77 387.66 171.01 <
0 6 10 2 114.84 297.61 171.90 <
0 -6 10 2 110.18 64.87 85.12 <
1 6 10 -2 450.41 274.34 115.72 <
1 -6 10 -2 443.34 543.34 198.45 <
1 6 10 -1 347.36 637.72 213.95 <
1 -6 10 -1 346.40 348.52 247.56 <
1 6 10 0 249.11 255.95 128.88 <
1 -6 10 0 274.67 411.12 269.87 <
1 6 10 1 637.43 445.25 186.27 <
1 -6 10 1 660.55 686.39 357.61 <
1 6 10 2 282.39 303.87 145.51 <
1 -6 10 2 307.57 183.69 263.86 <
2 6 10 -2 137.75 -118.33 139.77 <
2 -6 10 -2 124.62 430.20 283.15 <
2 6 10 -1 325.80 584.26 214.10 <
2 -6 10 -1 303.44 62.16 131.01 <
2 6 10 0 81.40 143.64 167.18 <
2 -6 10 0 84.33 403.16 388.14 <
2 6 10 1 293.51 -247.19 219.60 <
2 -6 10 1 294.23 235.75 247.65 <
2 6 10 2 88.87 306.89 195.60 <
2 -6 10 2 94.10 151.32 245.56 <
3 6 10 -2 276.63 510.88 213.38 <
3 -6 10 -2 278.82 360.55 310.58 <
3 6 10 -1 324.07 460.07 194.14 <
3 -6 10 -1 320.68 486.79 378.27 <
3 6 10 0 42.15 109.97 251.56 <
3 -6 10 0 38.11 86.03 258.80 <
3 6 10 1 42.49 -63.18 102.09 <
3 -6 10 1 41.30 105.64 216.23 <
3 6 10 2 32.40 522.51 263.52 <
3 -6 10 2 31.31 -47.18 190.79 <
4 6 10 -2 139.06 224.41 282.36 <
4 -6 10 -2 128.76 384.83 452.46 <
4 6 10 -1 175.88 99.16 260.39 <
4 -6 10 -1 156.62 441.85 315.26 <
4 6 10 0 31.82 341.24 240.88 <
4 -6 10 0 29.85 -401.09 317.72 <
5 6 10 -2 94.65 273.93 294.11 <
5 6 10 -1 98.41 -100.75 266.08 <
-4 7 10 -2 182.87 876.77 417.68 <
-4 -7 10 -2 177.39 801.20 435.55 <
-4 7 10 -1 159.69 -100.94 257.69 <
-4 -7 10 -1 156.29 154.64 270.15 <
-4 7 10 0 175.24 135.90 220.95 <
-4 -7 10 0 187.02 512.17 374.92 <
-4 7 10 1 82.68 22.31 113.96 <
-4 -7 10 1 84.98 625.97 397.16 <
-4 7 10 2 76.73 65.18 106.38 <
-4 -7 10 2 79.58 185.99 183.42 <
-3 7 10 -2 1.55 -15.68 172.64 <
-3 -7 10 -2 1.36 -98.59 163.86 <
-3 7 10 -1 1056.44 767.44 376.61 <
-3 -7 10 -1 1035.48 793.62 389.94 <
-3 7 10 0 544.48 217.64 145.92 <
-3 -7 10 0 534.72 640.93 323.09 <
-3 7 10 1 26.22 54.39 129.99 <
-3 -7 10 1 26.17 210.45 247.71 <
-3 7 10 2 350.64 402.00 406.53 <
-3 -7 10 2 329.32 917.13 420.05 <
-2 7 10 -2 224.34 403.74 200.41 <
-2 -7 10 -2 197.22 365.59 192.49 <
-2 7 10 -1 212.30 186.66 104.77 <
-2 -7 10 -1 218.73 243.58 145.51 <
-2 7 10 0 1118.68 1068.48 374.79 <
-2 -7 10 0 1121.81 667.33 309.17 <
-2 7 10 1 182.03 89.44 114.90 <
-2 -7 10 1 176.42 109.18 94.40 <
-2 7 10 2 249.96 344.55 317.22 <
-2 -7 10 2 251.95 246.86 220.65 <
-1 7 10 -2 56.25 490.36 325.96 <
-1 -7 10 -2 56.83 138.77 128.75 <
-1 7 10 -1 26.89 37.63 133.38 <
-1 -7 10 -1 41.55 -72.26 114.90 <
-1 7 10 0 757.22 1026.46 409.50 <
-1 -7 10 0 745.71 900.41 229.91 o
-1 7 10 1 54.93 80.01 143.27 <
-1 -7 10 1 62.48 226.62 165.66 <
-1 7 10 2 353.93 68.39 213.60 <
-1 -7 10 2 340.54 193.90 174.45 <
0 7 10 -2 267.60 192.79 157.55 <
0 -7 10 -2 267.97 80.53 114.22 <
0 7 10 -1 388.54 229.69 160.82 <
0 -7 10 -1 397.04 420.31 178.64 <
0 7 10 0 131.84 195.56 81.83 <
0 -7 10 0 188.20 100.75 149.18 <
0 7 10 1 1145.34 622.72 194.95 o
0 -7 10 1 1140.26 745.62 229.84 o
0 7 10 2 322.65 76.88 144.96 <
0 -7 10 2 312.90 504.43 303.26 <
1 7 10 -2 12.56 -121.07 115.68 <
1 -7 10 -2 15.17 196.62 125.31 <
1 7 10 -1 581.82 588.10 211.15 <
1 -7 10 -1 615.47 154.66 213.90 <
1 7 10 0 961.84 842.49 223.88 o
1 -7 10 0 954.55 704.66 382.68 <
1 7 10 1 946.00 1191.38 289.15 o
1 -7 10 1 955.37 302.67 240.02 <
1 7 10 2 369.64 153.79 184.16 <
1 -7 10 2 365.39 640.15 382.72 <
2 7 10 -2 76.62 147.07 126.42 <
2 -7 10 -2 78.82 594.73 366.72 <
2 7 10 -1 122.17 154.73 115.96 <
2 -7 10 -1 118.06 7.35 102.09 <
2 7 10 0 1155.90 1049.35 270.97 o
2 -7 10 0 1185.64 1880.06 590.37 o
2 7 10 1 1101.05 886.67 256.45 o
2 -7 10 1 1072.33 677.26 492.29 <
2 7 10 2 237.22 189.53 187.99 <
2 -7 10 2 202.26 -44.24 288.35 <
3 7 10 -2 10.11 131.86 132.05 <
3 -7 10 -2 10.81 134.88 174.80 <
3 7 10 -1 118.42 121.09 150.03 <
3 -7 10 -1 134.60 179.49 259.34 <
3 7 10 0 640.68 213.47 343.15 <
3 -7 10 0 635.90 1228.84 579.82 <
3 7 10 1 144.33 121.09 212.10 <
3 -7 10 1 172.59 404.33 492.21 <
3 -7 10 2 115.60 142.62 347.17 <
4 7 10 -2 4.06 376.42 287.56 <
4 -7 10 -2 4.30 -400.52 232.78 <
4 -7 10 -1 32.73 130.23 125.36 <
4 -7 10 0 203.34 805.90 556.67 <
5 7 10 -2 18.06 253.04 128.36 <
-4 8 10 -2 116.03 281.21 206.56 <
-4 -8 10 -2 110.85 751.25 413.01 <
-4 8 10 -1 309.80 187.47 180.23 <
-4 -8 10 -1 310.96 440.51 307.61 <
-4 8 10 0 1024.71 1087.38 527.27 <
-4 -8 10 0 1027.92 1484.81 551.86 <
-4 8 10 1 134.28 57.85 232.76 <
-4 -8 10 1 135.62 160.84 141.16 <
-4 8 10 2 228.27 247.99 198.36 <
-4 -8 10 2 239.22 666.07 408.44 <
-3 8 10 -2 39.85 -97.49 122.70 <
-3 -8 10 -2 43.71 30.28 155.81 <
-3 8 10 -1 210.09 152.82 222.93 <
-3 -8 10 -1 174.35 312.04 276.23 <
-3 8 10 0 224.61 579.89 380.27 <
-3 -8 10 0 214.70 55.15 133.47 <
-3 8 10 1 53.07 -35.61 155.47 <
-3 -8 10 1 54.40 244.15 257.49 <
-3 8 10 2 149.22 208.86 296.48 <
-3 -8 10 2 147.13 156.71 286.58 <
-2 8 10 -2 111.46 133.16 124.85 <
-2 -8 10 -2 114.15 -49.66 127.79 <
-2 8 10 -1 134.80 288.84 180.71 <
-2 -8 10 -1 139.88 94.72 148.10 <
-2 8 10 0 5804.12 6423.83 962.30 o
-2 -8 10 0 5880.55 5711.57 876.62 o
-2 8 10 1 374.47 -214.38 177.90 <
-2 -8 10 1 374.39 301.59 243.97 <
-2 8 10 2 410.54 1445.47 535.10 <
-2 -8 10 2 428.52 474.45 268.86 <
-1 8 10 -2 115.73 484.62 330.61 <
-1 -8 10 -2 121.41 41.92 90.20 <
-1 8 10 -1 568.10 480.92 261.41 <
-1 -8 10 -1 607.68 563.06 180.69 o
-1 8 10 0 370.34 393.24 282.34 <
-1 -8 10 0 341.47 285.71 195.47 <
-1 8 10 1 302.68 445.94 297.35 <
-1 -8 10 1 300.63 129.49 130.99 <
-1 8 10 2 196.79 235.02 238.52 <
-1 -8 10 2 193.62 179.16 146.03 <
0 8 10 -2 232.75 106.88 127.44 <
0 -8 10 -2 224.82 114.25 140.10 <
0 8 10 -1 60.69 261.36 156.32 <
0 -8 10 -1 63.06 119.66 142.71 <
0 8 10 0 2442.28 2748.74 399.52 o
0 -8 10 0 2429.72 2262.36 388.20 o
0 8 10 1 1118.30 755.92 208.12 o
0 -8 10 1 1113.91 959.41 382.33 <
0 8 10 2 301.26 457.07 183.62 <
0 -8 10 2 287.90 597.19 282.47 <
1 8 10 -2 75.54 72.50 116.53 <
1 -8 10 -2 74.35 -141.96 175.05 <
1 8 10 -1 81.21 376.89 156.07 <
1 -8 10 -1 76.04 -116.96 216.71 <
1 8 10 0 81.97 55.29 128.38 <
1 -8 10 0 72.72 90.74 197.82 <
1 8 10 1 453.37 684.41 232.19 <
1 -8 10 1 482.99 77.72 200.60 <
1 8 10 2 348.27 97.27 175.55 <
1 -8 10 2 346.38 277.02 184.77 <
2 8 10 -2 82.49 118.47 141.62 <
2 -8 10 -2 77.63 268.17 265.43 <
2 8 10 -1 56.51 199.23 197.82 <
2 -8 10 -1 54.18 396.70 291.17 <
2 8 10 0 6284.96 6051.55 641.71 o
2 -8 10 0 6276.35 6428.42 1101.12 o
2 8 10 1 664.20 389.61 176.12 <
2 -8 10 1 657.81 704.29 420.72 <
2 8 10 2 1452.16 819.71 376.27 <
2 -8 10 2 1381.69 1197.84 500.86 <
3 8 10 -2 85.93 -28.37 174.56 <
3 -8 10 -2 83.32 -175.80 217.91 <
3 8 10 -1 15.12 484.55 354.41 <
3 -8 10 -1 17.51 50.61 147.94 <
3 8 10 0 58.98 528.01 355.35 <
3 -8 10 0 54.32 452.92 365.63 <
3 -8 10 1 300.24 -304.95 297.26 <
3 -8 10 2 138.18 -335.17 279.02 <
4 -8 10 -2 16.99 175.06 321.11 <
4 -8 10 -1 62.53 76.85 344.48 <
4 -8 10 0 1335.55 999.94 471.86 <
5 8 10 -2 57.82 169.86 204.91 <
-4 9 10 -2 103.84 16.17 149.27 <
-4 9 10 -1 42.54 469.70 336.74 <
-4 -9 10 -1 40.84 -259.95 242.71 <
-4 9 10 0 253.96 73.26 179.10 <
-4 -9 10 0 261.51 186.21 179.51 <
-4 9 10 1 3.35 -7.70 365.87 <
-4 -9 10 1 2.63 533.16 347.20 <
-4 9 10 2 27.88 -310.58 223.78 <
-4 -9 10 2 26.54 706.39 372.72 <
-3 9 10 -2 97.25 483.88 312.45 <
-3 -9 10 -2 94.43 203.08 201.60 <
-3 9 10 -1 190.22 -340.04 180.23 <
-3 -9 10 -1 180.04 197.82 225.38 <
-3 9 10 0 126.56 250.10 278.00 <
-3 -9 10 0 126.46 498.95 323.19 <
-3 9 10 1 1.35 42.29 274.73 <
-3 -9 10 1 2.30 -2.96 112.53 <
-3 9 10 2 107.15 -52.74 180.60 <
-3 -9 10 2 97.83 37.83 162.58 <
-2 9 10 -2 79.54 -66.00 137.71 <
-2 -9 10 -2 81.84 204.34 125.68 <
-2 9 10 -1 142.96 337.61 346.05 <
-2 -9 10 -1 137.05 -140.82 155.51 <
-2 9 10 0 276.88 481.38 344.26 <
-2 -9 10 0 277.81 221.30 170.42 <
-2 9 10 1 4.23 211.38 199.32 <
-2 -9 10 1 3.21 75.07 163.07 <
-2 9 10 2 48.96 256.88 317.13 <
-2 -9 10 2 46.94 126.64 151.71 <
-1 9 10 -2 590.96 346.04 292.46 <
-1 -9 10 -2 571.65 225.08 121.07 <
-1 9 10 -1 248.50 482.60 316.28 <
-1 -9 10 -1 297.08 -52.53 136.92 <
-1 9 10 0 74.40 269.45 226.80 <
-1 -9 10 0 71.67 146.14 144.42 <
-1 9 10 1 80.52 535.43 329.50 <
-1 -9 10 1 81.02 162.99 137.71 <
-1 -9 10 2 273.65 75.59 130.03 <
0 9 10 -2 13.71 -211.95 227.90 <
0 -9 10 -2 13.59 41.76 76.64 <
0 9 10 -1 395.08 225.25 106.77 <
0 -9 10 -1 394.68 174.38 162.97 <
0 9 10 0 624.81 572.97 230.82 <
0 -9 10 0 640.49 310.87 125.44 <
0 9 10 1 33.36 163.45 164.01 <
0 -9 10 1 31.11 346.89 294.28 <
0 9 10 2 30.35 477.60 202.56 <
0 -9 10 2 27.23 214.82 260.58 <
1 9 10 -2 399.99 326.13 178.34 <
1 -9 10 -2 409.07 3.20 173.21 <
1 9 10 -1 125.22 86.72 126.18 <
1 -9 10 -1 126.37 272.61 244.65 <
1 9 10 0 43.86 119.07 117.92 <
1 -9 10 0 38.97 240.15 235.82 <
1 9 10 1 7.12 300.89 167.19 <
1 -9 10 1 7.08 209.30 211.27 <
1 9 10 2 213.79 54.65 145.71 <
1 -9 10 2 221.96 318.65 271.34 <
2 9 10 -2 6.27 182.80 149.90 <
2 -9 10 -2 3.86 157.31 249.58 <
2 9 10 -1 110.41 125.27 141.57 <
2 -9 10 -1 107.84 135.14 222.38 <
2 9 10 0 203.71 537.69 328.76 <
2 -9 10 0 203.58 532.91 388.31 <
2 9 10 1 153.05 642.41 373.63 <
2 -9 10 1 148.03 222.06 228.04 <
2 9 10 2 11.26 189.84 264.78 <
2 -9 10 2 9.54 454.36 341.92 <
3 -9 10 -2 278.27 65.07 155.71 <
3 -9 10 -1 53.33 577.13 377.52 <
3 9 10 0 78.54 574.65 367.24 <
3 -9 10 0 75.88 -22.02 175.12 <
3 -9 10 1 335.13 28.89 213.51 <
3 -9 10 2 73.05 -128.23 258.39 <
4 -9 10 -2 13.86 -163.18 147.58 <
4 -9 10 -1 52.05 92.98 345.81 <
4 -9 10 0 122.40 5.17 148.92 <
-4 10 10 -2 93.64 50.55 223.56 <
-4 10 10 -1 335.61 158.75 228.13 <
-4 10 10 0 86.64 -182.16 261.63 <
-4 -10 10 0 89.97 191.53 131.23 <
-4 10 10 1 46.54 -189.73 217.36 <
-4 -10 10 1 43.21 -115.11 264.93 <
-4 10 10 2 111.33 -171.03 116.53 <
-4 -10 10 2 111.16 31.85 218.25 <
-3 10 10 -2 49.97 258.97 184.36 <
-3 -10 10 -2 48.19 -129.14 187.30 <
-3 10 10 -1 13.07 85.59 226.49 <
-3 -10 10 -1 21.02 -349.07 207.93 <
-3 10 10 0 1048.59 1215.64 479.45 <
-3 -10 10 0 1072.59 1180.36 529.67 <
-3 10 10 1 175.99 114.86 250.60 <
-3 -10 10 1 184.04 397.37 245.23 <
-3 10 10 2 55.04 131.73 131.29 <
-3 -10 10 2 55.49 68.48 250.80 <
-2 10 10 -2 139.21 108.03 149.96 <
-2 -10 10 -2 162.91 49.78 121.92 <
-2 10 10 -1 217.17 555.36 320.06 <
-2 -10 10 -1 223.39 59.48 116.35 <
-2 10 10 0 442.86 61.16 168.29 <
-2 -10 10 0 437.17 631.58 263.21 <
-2 10 10 1 81.88 417.51 316.00 <
-2 -10 10 1 82.67 -214.27 187.71 <
-2 10 10 2 287.00 377.83 383.11 <
-2 -10 10 2 276.58 362.41 179.21 <
-1 10 10 -2 106.36 327.17 318.09 <
-1 -10 10 -2 103.52 60.07 94.62 <
-1 10 10 -1 720.56 1025.72 446.64 <
-1 -10 10 -1 693.20 572.41 213.45 <
-1 10 10 0 2473.31 2586.34 604.15 o
-1 -10 10 0 2508.95 1923.95 372.04 o
-1 10 10 1 138.28 411.27 305.80 <
-1 -10 10 1 142.70 86.75 139.33 <
-1 10 10 2 42.83 264.93 293.19 <
-1 -10 10 2 42.66 96.88 98.09 <
0 10 10 -2 254.36 -129.57 115.68 <
0 -10 10 -2 254.85 379.53 183.21 <
0 10 10 -1 209.71 119.46 159.27 <
0 -10 10 -1 213.76 146.55 125.09 <
0 10 10 0 1010.82 690.70 297.52 <
0 -10 10 0 1142.38 472.64 308.33 <
0 10 10 1 41.57 482.23 216.38 <
0 -10 10 1 35.69 340.13 293.71 <
0 10 10 2 430.10 51.76 81.25 <
0 -10 10 2 406.00 24.17 81.83 <
1 10 10 -2 7.71 202.80 133.47 <
1 -10 10 -2 8.71 118.36 208.19 <
1 10 10 -1 48.33 165.95 167.75 <
1 -10 10 -1 50.41 189.68 254.76 <
1 10 10 0 2379.80 2104.85 581.28 o
1 -10 10 0 2415.36 1877.34 562.82 o
1 10 10 1 215.80 471.81 299.74 <
1 -10 10 1 206.44 446.22 336.18 <
1 10 10 2 14.99 -169.95 247.97 <
1 -10 10 2 13.59 170.69 259.21 <
2 10 10 -2 261.11 524.71 315.11 <
2 -10 10 -2 260.45 259.32 273.93 <
2 10 10 -1 164.76 444.57 397.64 <
2 -10 10 -1 149.59 -120.40 164.14 <
2 10 10 0 310.08 612.00 359.98 <
2 -10 10 0 296.37 417.55 372.65 <
2 10 10 1 14.37 422.72 326.13 <
2 -10 10 1 17.48 258.19 399.46 <
2 10 10 2 1154.60 883.32 420.70 <
2 -10 10 2 1042.57 1326.24 561.38 <
3 -10 10 -2 22.26 67.16 212.25 <
3 -10 10 -1 71.42 329.02 210.54 <
3 -10 10 0 654.44 784.60 435.61 <
3 10 10 1 22.55 330.80 315.37 <
3 -10 10 1 25.66 784.27 540.86 <
3 -10 10 2 38.76 184.45 441.90 <
4 -10 10 -2 140.62 -126.31 242.02 <
4 -10 10 -1 84.46 -1.09 371.89 <
-4 11 10 -2 204.01 -124.47 201.29 <
-4 -11 10 -2 203.02 -1509.27 619.04 <
-4 11 10 -1 101.55 -248.80 233.75 <
-4 11 10 0 563.41 818.77 406.87 <
-4 11 10 1 140.28 -154.08 146.86 <
-4 11 10 2 15.33 54.22 190.91 <
-4 -11 10 2 14.61 208.15 241.71 <
-3 11 10 -2 208.40 319.46 226.65 <
-3 -11 10 -2 215.45 414.46 228.52 <
-3 11 10 -1 217.82 -243.08 297.87 <
-3 -11 10 -1 228.06 -36.41 154.42 <
-3 11 10 0 752.83 730.26 312.56 <
-3 -11 10 0 778.07 613.87 271.93 <
-3 11 10 1 84.51 140.53 141.12 <
-3 -11 10 1 80.37 358.65 222.45 <
-3 11 10 2 86.64 -14.59 217.27 <
-3 -11 10 2 87.07 234.15 228.75 <
-2 11 10 -2 182.41 535.06 286.35 <
-2 -11 10 -2 177.14 -19.54 111.96 <
-2 11 10 -1 283.79 631.41 336.67 <
-2 -11 10 -1 261.83 59.57 108.33 <
-2 11 10 0 490.69 91.33 189.08 <
-2 -11 10 0 455.34 527.80 161.57 o
-2 11 10 1 430.57 159.29 117.94 <
-2 -11 10 1 414.59 46.78 121.92 <
-2 11 10 2 1.09 315.22 259.32 <
-2 -11 10 2 1.20 36.28 111.12 <
-1 11 10 -2 334.35 533.62 338.80 <
-1 -11 10 -2 339.36 132.60 96.68 <
-1 11 10 -1 59.92 232.23 259.76 <
-1 -11 10 -1 51.22 189.06 123.40 <
-1 11 10 0 1550.48 1841.55 580.56 o
-1 -11 10 0 1568.33 1199.25 302.45 o
-1 11 10 1 81.71 84.35 179.62 <
-1 -11 10 1 82.28 -8.78 109.25 <
-1 11 10 2 200.51 378.02 217.17 <
-1 -11 10 2 190.64 136.64 119.10 <
0 11 10 -2 56.58 -351.89 241.76 <
0 -11 10 -2 60.02 280.80 123.33 <
0 11 10 -1 685.10 86.68 255.12 <
0 -11 10 -1 643.53 578.78 347.70 <
0 11 10 0 2117.92 1918.45 550.30 o
0 -11 10 0 2087.60 2120.07 585.32 o
0 11 10 1 1069.64 1246.47 479.60 <
0 -11 10 1 1034.50 641.69 313.35 <
0 11 10 2 6.52 731.27 338.44 <
0 -11 10 2 6.88 -202.64 100.92 <
1 11 10 -2 376.48 89.16 204.23 <
1 -11 10 -2 373.93 311.43 168.10 <
1 11 10 -1 6.58 -101.85 108.70 <
1 -11 10 -1 8.43 223.43 203.86 <
1 11 10 0 1286.80 1718.48 516.17 o
1 -11 10 0 1292.94 908.62 443.20 <
1 11 10 1 341.78 646.65 411.00 <
1 -11 10 1 344.08 595.08 353.04 <
1 11 10 2 228.17 540.69 328.22 <
1 -11 10 2 228.76 27.76 180.23 <
2 11 10 -2 42.11 813.10 445.68 <
2 -11 10 -2 42.30 164.03 319.00 <
2 11 10 -1 348.17 769.73 462.35 <
2 -11 10 -1 338.52 -52.02 166.92 <
2 11 10 0 91.29 97.27 270.50 <
2 -11 10 0 82.64 21.05 222.51 <
2 11 10 1 882.41 1049.68 501.86 <
2 -11 10 1 852.01 1026.15 514.71 <
2 11 10 2 45.35 499.30 299.28 <
2 -11 10 2 38.60 -176.16 184.06 <
3 -11 10 -2 210.91 -50.29 201.15 <
3 -11 10 -1 190.02 85.94 213.27 <
3 -11 10 0 392.78 800.14 473.34 <
3 11 10 1 50.22 746.51 374.48 <
3 -11 10 1 42.32 1059.63 526.69 <
3 -11 10 2 60.09 125.79 350.11 <
4 -11 10 -2 60.82 -90.61 160.97 <
4 -11 10 -1 156.51 0.00 148.34 <
-4 -12 10 -2 109.08 71.22 245.99 <
-4 12 10 0 285.33 489.99 326.02 <
-4 12 10 1 25.30 183.25 301.41 <
-4 12 10 2 83.10 4.24 165.84 <
-3 12 10 -2 55.93 -121.75 191.29 <
-3 -12 10 -2 63.73 182.43 313.15 <
-3 12 10 -1 47.67 118.35 326.46 <
-3 -12 10 -1 48.96 267.98 236.08 <
-3 12 10 0 302.04 167.80 171.14 <
-3 -12 10 0 300.22 470.03 242.12 <
-3 12 10 1 222.78 415.57 324.19 <
-3 -12 10 1 228.06 637.67 286.52 <
-3 12 10 2 65.30 78.29 200.49 <
-3 -12 10 2 67.15 -11.78 177.69 <
-2 12 10 -2 575.60 278.30 210.95 <
-2 -12 10 -2 622.90 414.57 162.82 <
-2 12 10 -1 646.00 816.88 385.98 <
-2 -12 10 -1 649.03 997.39 230.88 o
-2 12 10 0 989.01 1534.78 533.51 <
-2 -12 10 0 998.69 1184.30 253.41 o
-2 12 10 1 92.53 167.93 204.19 <
-2 -12 10 1 92.51 63.83 124.01 <
-2 12 10 2 243.87 472.84 305.70 <
-2 -12 10 2 249.03 68.57 135.71 <
-1 12 10 -2 133.06 255.41 279.74 <
-1 -12 10 -2 151.60 121.05 121.35 <
-1 12 10 -1 1607.97 1391.24 495.90 <
-1 -12 10 -1 1594.33 1118.62 283.28 o
-1 12 10 0 406.92 377.61 227.75 <
-1 -12 10 0 416.15 531.36 203.29 <
-1 12 10 1 188.34 261.58 307.35 <
-1 -12 10 1 196.95 125.51 136.66 <
-1 12 10 2 120.41 -282.34 205.14 <
-1 -12 10 2 127.77 37.29 193.36 <
0 -12 10 -2 208.73 83.55 92.48 <
0 12 10 -1 349.78 507.90 336.65 <
0 -12 10 -1 344.86 361.11 180.29 <
0 12 10 0 3090.53 3168.27 670.72 o
0 -12 10 0 3122.78 3577.95 756.03 o
0 12 10 1 241.38 501.93 349.31 <
0 -12 10 1 250.67 194.38 270.73 <
0 12 10 2 178.25 499.05 336.13 <
0 -12 10 2 169.76 -137.34 124.62 <
1 12 10 -2 122.19 612.74 353.61 <
1 -12 10 -2 120.32 184.10 163.75 <
1 12 10 -1 496.05 54.13 170.75 <
1 -12 10 -1 498.66 326.07 172.68 <
1 12 10 0 431.22 55.07 117.85 <
1 -12 10 0 430.65 364.15 245.26 <
1 12 10 1 140.31 124.25 251.10 <
1 -12 10 1 144.61 81.87 269.48 <
1 12 10 2 216.15 279.93 291.60 <
1 -12 10 2 239.77 -243.58 160.18 <
2 12 10 -2 93.61 578.67 343.48 <
2 -12 10 -2 94.06 244.80 219.21 <
2 12 10 -1 151.84 354.76 350.57 <
2 -12 10 -1 139.23 -160.92 231.39 <
2 12 10 0 835.54 1877.86 634.52 <
2 -12 10 0 827.16 929.24 399.59 <
2 12 10 1 88.73 581.74 381.42 <
2 -12 10 1 97.12 24.98 134.53 <
2 12 10 2 34.35 1093.75 521.47 <
2 -12 10 2 35.78 432.79 306.83 <
3 -12 10 -2 161.67 628.43 454.12 <
3 -12 10 -1 351.01 109.36 281.56 <
3 -12 10 0 125.56 46.57 304.35 <
3 -12 10 1 83.43 383.70 329.50 <
4 -12 10 -2 40.80 226.40 291.84 <
-3 13 10 -2 6.77 74.79 160.77 <
-3 -13 10 -2 8.15 749.62 468.73 <
-3 13 10 -1 102.18 -53.44 195.73 <
-3 -13 10 -1 107.13 48.50 341.52 <
-3 13 10 0 329.57 417.22 198.64 <
-3 -13 10 0 317.74 -332.46 370.33 <
-3 13 10 1 44.05 82.22 225.64 <
-3 -13 10 1 41.94 123.70 170.60 <
-3 13 10 2 3.50 79.22 176.75 <
-3 -13 10 2 3.60 322.22 335.78 <
-2 13 10 -2 342.78 9.94 183.32 <
-2 -13 10 -2 314.76 -41.46 148.16 <
-2 13 10 -1 75.02 258.06 273.26 <
-2 -13 10 -1 80.88 300.37 166.62 <
-2 13 10 0 519.75 972.85 508.62 <
-2 -13 10 0 506.27 684.63 209.43 o
-2 13 10 1 151.90 -59.90 148.55 <
-2 -13 10 1 146.90 64.68 110.88 <
-2 -13 10 2 171.75 69.03 129.81 <
-1 13 10 -2 93.70 310.06 291.24 <
-1 -13 10 -2 104.79 339.63 113.46 <
-1 13 10 -1 142.30 169.86 207.67 <
-1 -13 10 -1 134.54 532.77 157.64 o
-1 13 10 0 863.64 241.49 226.06 <
-1 -13 10 0 865.68 661.74 196.19 o
-1 13 10 1 339.58 325.13 198.03 <
-1 -13 10 1 334.27 378.81 271.24 <
-1 13 10 2 76.43 -30.72 116.99 <
-1 -13 10 2 72.35 -228.02 284.00 <
0 13 10 -2 76.16 46.72 112.38 <
0 -13 10 -2 77.11 -25.52 146.79 <
0 13 10 -1 83.09 -191.58 220.75 <
0 -13 10 -1 86.09 16.07 87.38 <
0 13 10 0 789.33 854.32 326.67 <
0 -13 10 0 759.47 695.11 202.40 o
0 13 10 1 96.79 96.25 133.94 <
0 -13 10 1 98.58 -159.36 158.40 <
0 13 10 2 130.93 -75.87 135.21 <
0 -13 10 2 131.00 81.29 152.51 <
1 13 10 -2 109.24 -73.22 220.23 <
1 -13 10 -2 113.67 155.05 129.23 <
1 13 10 -1 64.82 74.66 234.95 <
1 -13 10 -1 63.98 -79.29 91.20 <
1 13 10 0 838.31 410.85 311.87 <
1 -13 10 0 846.98 531.60 204.41 <
1 13 10 1 294.57 423.11 284.23 <
1 -13 10 1 286.17 838.42 402.07 <
1 13 10 2 120.43 -23.33 174.99 <
1 -13 10 2 113.59 12.93 237.34 <
2 13 10 -2 76.24 947.80 616.22 <
2 -13 10 -2 77.96 354.31 181.06 <
2 13 10 -1 47.55 942.98 502.66 <
2 -13 10 -1 45.67 -255.36 275.67 <
2 13 10 0 352.60 983.06 423.75 <
2 -13 10 0 344.13 415.98 282.63 <
2 13 10 1 4.86 560.75 435.11 <
2 -13 10 1 5.32 319.98 364.07 <
2 13 10 2 72.17 -139.60 129.66 <
2 -13 10 2 63.74 436.75 334.55 <
3 -13 10 -2 180.17 -107.74 233.49 <
3 -13 10 -1 2.85 209.49 439.72 <
3 -13 10 0 633.25 1156.56 593.95 <
3 -13 10 1 537.72 662.63 400.33 <
3 13 10 2 73.55 225.49 223.58 <
4 -13 10 -2 76.12 -274.61 426.09 <
-3 14 10 -2 108.14 64.37 148.86 <
-3 -14 10 -2 105.70 182.32 260.24 <
-3 14 10 -1 168.36 -593.37 397.35 <
-3 -14 10 -1 146.34 200.60 303.85 <
-3 14 10 0 126.69 394.74 316.48 <
-3 -14 10 0 134.86 85.25 266.34 <
-3 14 10 1 35.27 697.31 313.82 <
-3 -14 10 1 32.41 -290.13 222.19 <
-3 14 10 2 104.72 -45.52 203.69 <
-2 14 10 -2 188.50 26.20 191.45 <
-2 -14 10 -2 200.73 361.80 200.90 <
-2 14 10 -1 126.21 -61.53 233.12 <
-2 -14 10 -1 120.95 -139.16 153.18 <
-2 14 10 0 232.40 -142.23 121.16 <
-2 -14 10 0 224.16 142.88 148.99 <
-2 14 10 1 48.91 396.79 291.10 <
-2 -14 10 1 47.45 -61.63 259.87 <
-2 14 10 2 59.26 227.04 317.19 <
-2 -14 10 2 63.81 -168.97 195.77 <
-1 14 10 -2 552.96 -108.51 151.42 <
-1 -14 10 -2 553.01 213.25 142.86 <
-1 14 10 -1 271.21 119.31 275.47 <
-1 -14 10 -1 297.49 251.88 127.64 <
-1 14 10 0 438.10 178.40 163.07 <
-1 -14 10 0 435.30 346.18 145.75 <
-1 14 10 1 149.80 110.09 232.75 <
-1 -14 10 1 140.88 79.81 169.21 <
-1 14 10 2 192.85 75.81 160.32 <
-1 -14 10 2 193.40 46.26 125.27 <
0 14 10 -2 69.81 -229.32 184.69 <
0 -14 10 -2 70.21 138.70 140.27 <
0 14 10 -1 175.97 85.42 107.72 <
0 -14 10 -1 187.63 52.98 158.16 <
0 14 10 0 165.60 165.42 232.06 <
0 -14 10 0 166.30 98.85 171.47 <
0 14 10 1 113.38 411.68 304.45 <
0 -14 10 1 106.39 92.62 121.40 <
0 14 10 2 55.11 563.78 354.00 <
0 -14 10 2 56.79 120.73 150.20 <
1 14 10 -2 456.58 476.70 365.07 <
1 -14 10 -2 460.66 -11.63 120.38 <
1 14 10 -1 192.28 540.40 408.70 <
1 -14 10 -1 177.09 286.91 143.62 <
1 14 10 0 750.26 717.09 404.44 <
1 -14 10 0 738.86 491.92 274.69 <
1 14 10 1 31.86 587.32 479.81 <
1 -14 10 1 39.42 -76.51 175.90 <
1 14 10 2 196.28 644.22 390.22 <
1 -14 10 2 199.79 130.92 178.60 <
2 14 10 -2 164.23 831.97 474.23 <
2 -14 10 -2 163.51 327.98 187.80 <
2 14 10 -1 231.48 1466.05 544.38 <
2 -14 10 -1 220.96 696.05 293.11 <
2 14 10 0 39.50 144.34 357.59 <
2 -14 10 0 38.46 -11.54 115.53 <
2 14 10 1 174.40 674.42 370.46 <
2 -14 10 1 173.83 285.11 244.06 <
2 14 10 2 63.51 904.47 440.85 <
2 -14 10 2 67.09 85.87 155.71 <
3 -14 10 -2 313.37 236.12 303.76 <
3 -14 10 -1 105.20 396.35 449.31 <
3 -14 10 0 169.04 165.14 251.56 <
4 -14 10 -2 74.63 -492.95 446.59 <
-3 15 10 -2 6.24 -365.13 348.07 <
-3 -15 10 -2 8.20 -379.92 454.99 <
-3 15 10 -1 386.65 -103.99 291.26 <
-3 -15 10 -1 382.96 -368.24 431.75 <
-3 15 10 0 508.95 470.36 286.95 <
-3 -15 10 0 512.73 596.15 489.71 <
-3 15 10 1 75.31 195.53 121.70 <
-3 -15 10 1 79.11 62.81 254.84 <
-3 15 10 2 289.44 118.75 248.36 <
-2 15 10 -2 334.64 552.34 372.46 <
-2 -15 10 -2 353.59 95.70 162.64 <
-2 15 10 -1 135.65 -360.50 297.06 <
-2 -15 10 -1 129.27 -88.07 119.42 <
-2 15 10 0 251.87 593.47 374.81 <
-2 -15 10 0 257.24 98.03 178.66 <
-2 15 10 1 203.36 29.94 243.99 <
-2 -15 10 1 201.41 -167.68 166.93 <
-2 15 10 2 289.67 93.85 201.82 <
-2 -15 10 2 286.25 99.85 286.06 <
-1 15 10 -2 15.41 97.20 134.29 <
-1 -15 10 -2 15.45 148.51 148.25 <
-1 15 10 -1 2451.13 1570.86 535.40 <
-1 -15 10 -1 2405.69 2312.39 357.74 o
-1 15 10 0 1382.69 2073.50 563.62 o
-1 -15 10 0 1346.90 1333.98 264.80 o
-1 15 10 1 69.39 447.86 366.87 <
-1 -15 10 1 69.28 269.50 163.42 <
-1 15 10 2 538.41 128.38 256.82 <
-1 -15 10 2 549.50 252.45 204.91 <
0 15 10 -2 64.81 -84.53 125.01 <
0 -15 10 -2 64.27 145.44 140.64 <
0 15 10 -1 48.42 462.86 323.91 <
0 -15 10 -1 50.60 110.44 149.99 <
0 15 10 0 1333.64 1247.50 501.49 <
0 -15 10 0 1270.98 1067.09 247.89 o
0 15 10 1 122.83 594.30 418.88 <
0 -15 10 1 111.30 86.00 197.01 <
0 15 10 2 247.34 629.43 301.83 <
0 -15 10 2 245.11 -35.76 155.60 <
1 15 10 -2 10.06 273.06 384.29 <
1 -15 10 -2 11.52 224.15 144.40 <
1 15 10 -1 320.81 865.58 482.94 <
1 -15 10 -1 326.37 294.45 177.14 <
1 15 10 0 1008.98 1633.00 630.28 <
1 -15 10 0 996.97 1195.21 332.02 o
1 15 10 1 591.36 1518.25 549.71 <
1 -15 10 1 617.04 826.64 285.63 <
1 15 10 2 191.25 661.70 470.81 <
1 -15 10 2 202.21 115.99 238.86 <
2 -15 10 -2 64.65 -4.70 125.38 <
2 -15 10 -1 61.93 111.12 140.46 <
2 15 10 0 248.98 765.16 554.97 <
2 -15 10 0 250.70 -33.46 250.21 <
2 15 10 1 35.29 540.01 524.34 <
2 -15 10 1 29.70 358.74 304.11 <
2 15 10 2 108.49 -208.67 128.81 <
2 -15 10 2 119.24 -70.39 249.89 <
3 -15 10 -2 11.87 168.53 156.20 <
3 -15 10 -1 119.46 91.35 129.70 <
3 -15 10 0 548.68 1118.68 382.16 <
-3 16 10 -2 6.38 -522.71 306.85 <
-3 -16 10 -2 4.38 -361.67 378.26 <
-3 16 10 -1 47.29 535.45 437.51 <
-3 -16 10 -1 65.47 -391.74 368.44 <
-3 16 10 0 132.38 308.61 361.96 <
-3 -16 10 0 135.78 611.30 454.38 <
-3 -16 10 1 86.52 -56.31 272.95 <
-2 16 10 -2 162.18 -207.19 197.56 <
-2 -16 10 -2 159.97 -174.34 113.01 <
-2 16 10 -1 34.77 113.85 127.40 <
-2 -16 10 -1 35.34 -118.03 123.94 <
-2 16 10 0 780.79 492.36 384.74 <
-2 -16 10 0 766.46 554.15 244.43 <
-2 16 10 1 177.40 154.99 243.25 <
-2 -16 10 1 183.67 219.28 249.04 <
-2 16 10 2 150.48 142.55 127.10 <
-2 -16 10 2 148.18 -175.82 244.82 <
-1 16 10 -2 23.63 -69.40 227.78 <
-1 -16 10 -2 25.18 -28.63 125.42 <
-1 16 10 -1 1036.89 1211.78 468.73 <
-1 -16 10 -1 1072.12 1535.77 348.22 o
-1 16 10 0 102.66 -524.91 337.89 <
-1 -16 10 0 108.41 -43.37 183.82 <
-1 16 10 1 197.41 -185.16 128.53 <
-1 -16 10 1 204.43 6.98 110.44 <
-1 16 10 2 125.50 -195.73 142.51 <
-1 -16 10 2 132.40 186.14 128.25 <
0 16 10 -2 195.71 -108.07 206.54 <
0 -16 10 -2 202.43 30.85 120.94 <
0 16 10 -1 81.78 137.27 236.49 <
0 -16 10 -1 81.77 60.18 105.29 <
0 16 10 0 2462.76 2660.96 702.70 o
0 -16 10 0 2461.65 2439.47 366.00 o
0 16 10 1 283.57 755.40 416.20 <
0 -16 10 1 280.62 330.50 163.16 <
0 16 10 2 190.32 -210.99 215.80 <
0 -16 10 2 191.93 497.19 206.12 <
1 16 10 -2 62.84 901.14 510.23 <
1 -16 10 -2 59.91 363.09 194.67 <
1 -16 10 -1 93.84 134.96 155.16 <
1 16 10 0 59.63 807.71 447.99 <
1 -16 10 0 67.77 94.40 168.73 <
1 16 10 1 523.63 1288.04 565.99 <
1 -16 10 1 514.69 860.78 245.21 o
1 16 10 2 53.61 836.23 498.69 <
1 -16 10 2 51.77 161.27 255.84 <
2 -16 10 -2 131.08 174.82 166.75 <
2 16 10 -1 109.60 474.73 465.36 <
2 -16 10 -1 103.18 302.00 176.68 <
2 16 10 0 846.68 768.49 503.29 <
2 -16 10 0 843.99 1143.18 290.67 o
2 16 10 1 239.86 638.96 471.68 <
2 -16 10 1 232.56 205.40 296.28 <
2 -16 10 2 9.50 -88.51 127.18 <
3 -16 10 -2 54.42 28.52 147.38 <
3 -16 10 -1 57.51 249.08 172.95 <
3 -16 10 0 21.98 -0.43 187.97 <
-3 -17 10 1 24.56 -772.42 524.64 <
-3 -17 10 2 30.31 109.11 278.04 <
-2 17 10 -2 307.64 -26.79 152.86 <
-2 -17 10 -2 295.71 127.05 282.97 <
-2 17 10 -1 179.71 597.54 359.68 <
-2 -17 10 -1 171.97 131.83 177.25 <
-2 17 10 0 509.14 529.71 410.03 <
-2 -17 10 0 498.23 480.88 339.80 <
-2 17 10 1 4.80 299.22 413.68 <
-2 -17 10 1 6.91 -73.88 152.18 <
-2 17 10 2 72.57 621.13 426.51 <
-2 -17 10 2 73.64 33.76 179.06 <
-1 17 10 -2 206.55 -238.47 263.17 <
-1 -17 10 -2 221.40 101.25 115.83 <
-1 17 10 -1 281.54 183.04 119.10 <
-1 -17 10 -1 245.64 275.47 153.97 <
-1 17 10 0 92.46 -265.43 328.78 <
-1 -17 10 0 90.73 90.62 155.14 <
-1 17 10 1 18.19 -25.79 151.58 <
-1 -17 10 1 19.33 182.92 209.75 <
-1 -17 10 2 78.57 161.45 145.60 <
0 17 10 -2 223.94 198.08 250.36 <
0 -17 10 -2 220.46 213.84 211.65 <
0 17 10 -1 145.24 736.09 397.16 <
0 -17 10 -1 134.70 276.36 222.95 <
0 17 10 0 757.22 1224.19 492.45 <
0 -17 10 0 709.42 385.05 199.23 <
0 17 10 1 14.18 -101.88 231.25 <
0 -17 10 1 11.90 379.29 255.60 <
0 17 10 2 73.87 326.33 227.90 <
0 -17 10 2 72.75 151.99 157.90 <
1 17 10 -2 325.00 532.21 458.90 <
1 -17 10 -2 311.21 297.32 170.66 <
1 17 10 -1 172.89 667.17 373.04 <
1 -17 10 -1 176.53 62.37 129.60 <
1 17 10 0 73.83 116.01 413.31 <
1 -17 10 0 75.04 117.42 126.23 <
1 17 10 1 49.05 206.99 229.71 <
1 -17 10 1 50.29 250.56 151.58 <
1 17 10 2 106.35 1012.07 514.95 <
1 -17 10 2 114.00 181.18 218.52 <
2 17 10 -2 205.88 317.87 394.42 <
2 -17 10 -2 209.68 127.14 147.27 <
2 17 10 -1 103.46 514.21 404.16 <
2 -17 10 -1 108.97 -10.67 179.69 <
2 17 10 0 516.21 449.42 492.21 <
2 -17 10 0 504.25 416.53 199.32 <
2 -17 10 1 5.56 -129.49 238.43 <
3 -17 10 -2 189.51 68.57 128.68 <
3 -17 10 -1 23.04 114.86 230.93 <
-2 18 10 -2 52.91 -106.44 313.45 <
-2 -18 10 -2 45.05 378.24 225.14 <
-2 18 10 -1 592.20 -199.43 203.88 <
-2 -18 10 -1 598.59 214.25 155.62 <
-2 18 10 0 282.09 394.29 385.02 <
-2 -18 10 0 291.83 -0.81 141.82 <
-2 18 10 1 166.41 74.85 150.57 <
-2 -18 10 1 171.53 -359.17 362.85 <
-2 -18 10 2 237.73 143.90 121.73 <
-1 18 10 -2 32.00 -0.43 164.32 <
-1 -18 10 -2 30.59 75.18 145.20 <
-1 18 10 -1 6.53 -431.62 317.85 <
-1 -18 10 -1 7.75 -32.13 185.12 <
-1 18 10 0 571.29 340.59 232.86 <
-1 -18 10 0 603.79 732.44 295.63 <
-1 18 10 1 124.03 615.48 354.00 <
-1 -18 10 1 126.70 254.39 171.01 <
-1 18 10 2 121.03 -379.89 125.21 <
-1 -18 10 2 117.41 337.68 250.47 <
0 18 10 -2 130.68 431.38 270.37 <
0 -18 10 -2 120.82 417.64 266.04 <
0 18 10 -1 356.24 475.68 395.57 <
0 -18 10 -1 352.95 292.32 186.32 <
0 18 10 0 900.15 1336.24 540.45 <
0 -18 10 0 755.20 552.84 249.04 <
0 18 10 1 318.48 -161.43 270.60 <
0 -18 10 1 328.34 311.59 114.57 <
0 18 10 2 354.55 -321.08 230.86 <
0 -18 10 2 361.90 512.64 214.91 <
1 18 10 -2 55.13 655.15 440.36 <
1 -18 10 -2 51.40 146.51 126.20 <
1 18 10 -1 26.03 24.54 237.04 <
1 -18 10 -1 29.92 239.84 186.16 <
1 18 10 0 382.60 1046.27 549.08 <
1 -18 10 0 405.22 507.53 257.65 <
1 18 10 1 110.61 -58.68 149.18 <
1 -18 10 1 116.97 -104.48 108.07 <
2 18 10 -2 238.43 415.92 435.31 <
2 -18 10 -2 230.27 227.86 152.32 <
2 18 10 -1 75.58 616.47 405.13 <
2 -18 10 -1 82.18 332.65 224.80 <
3 -18 10 -2 64.71 135.70 237.19 <
-2 -19 10 -2 244.97 634.13 342.26 <
-2 -19 10 -1 137.73 366.13 410.22 <
-1 19 10 -2 266.60 11.93 136.60 <
-1 -19 10 -2 270.00 53.52 171.12 <
-1 19 10 -1 202.73 -117.86 225.15 <
-1 -19 10 -1 214.92 78.55 71.98 <
-1 19 10 0 59.17 -307.82 364.81 <
-1 -19 10 0 62.41 63.55 125.66 <
-1 -19 10 1 150.66 7.59 182.04 <
-1 -19 10 2 59.41 348.54 349.65 <
0 19 10 -2 204.08 513.43 375.85 <
0 -19 10 -2 199.27 105.77 164.70 <
0 19 10 -1 93.01 275.26 319.70 <
0 -19 10 -1 112.29 56.31 165.99 <
0 19 10 0 115.75 -115.05 180.45 <
0 -19 10 0 101.48 168.38 173.73 <
0 -19 10 1 305.76 -374.18 105.09 <
1 19 10 -2 306.14 325.74 321.11 <
1 -19 10 -2 307.01 449.77 228.52 <
1 19 10 -1 204.84 1501.73 676.63 <
1 -19 10 -1 206.70 466.95 275.87 <
1 19 10 0 97.47 591.21 352.20 <
2 -19 10 -2 152.03 153.75 168.88 <
-1 20 10 -2 76.57 -149.64 283.95 <
-1 -20 10 -2 76.40 -29.15 166.60 <
-1 -20 10 -1 85.65 -29.07 157.66 <
-1 -20 10 0 65.62 296.52 326.18 <
0 20 10 -2 113.14 21.39 342.57 <
0 -20 10 -2 107.18 -83.51 118.46 <
0 20 10 -1 339.45 96.49 188.30 <
0 -20 10 -1 346.53 599.82 311.67 <
1 20 10 -2 143.07 337.15 351.05 <
1 -20 10 -2 136.98 392.89 191.19 <
-1 -21 10 -2 16.91 103.18 133.31 <
-4 0 11 -2 18.97 381.90 290.46 <
-4 0 11 -1 110.38 442.64 317.65 <
-4 0 11 0 152.66 251.95 300.17 <
-4 0 11 1 59.42 233.91 311.83 <
-4 0 11 2 2.70 -37.87 164.55 <
-3 0 11 -2 204.58 474.27 330.98 <
-3 0 11 -1 604.92 291.02 278.19 <
-3 0 11 0 79.75 69.18 96.77 <
-3 0 11 1 20.10 52.02 129.83 <
-3 0 11 2 65.25 393.85 299.56 <
-2 0 11 -2 46.77 375.79 226.58 <
-2 0 11 -1 85.52 37.18 143.20 <
-2 0 11 0 611.39 169.88 232.99 <
-2 0 11 1 68.46 520.60 260.73 <
-2 0 11 2 33.41 382.72 264.45 <
-1 0 11 -2 466.33 428.16 198.40 <
-1 0 11 -1 1969.09 2420.07 390.00 o
-1 0 11 0 326.74 237.17 150.84 <
-1 0 11 1 7.12 196.32 152.07 <
-1 0 11 2 86.12 246.71 168.21 <
0 0 11 -2 257.66 60.83 95.44 <
0 0 11 -1 21.65 87.77 139.64 <
0 0 11 0 423.15 126.62 126.96 <
0 0 11 1 37.76 247.19 167.14 <
0 0 11 2 78.17 73.77 137.25 <
1 0 11 -2 191.08 7.67 125.83 <
1 0 11 -1 578.65 482.27 167.58 <
1 0 11 0 238.12 353.07 141.34 <
1 0 11 1 2.49 15.13 128.23 <
1 0 11 2 467.29 287.32 147.77 <
2 0 11 -2 385.94 -48.33 80.11 <
2 0 11 -1 4.06 -144.42 176.90 <
2 0 11 0 244.85 804.59 413.90 <
2 0 11 1 30.79 418.90 335.32 <
2 0 11 2 64.63 221.10 279.73 <
3 0 11 -2 205.71 -39.72 142.70 <
3 0 11 -1 119.34 965.67 428.35 <
3 0 11 0 159.69 346.24 298.76 <
3 0 11 1 19.38 241.13 339.98 <
3 0 11 2 211.88 671.81 402.59 <
4 0 11 -2 188.05 108.61 287.02 <
4 0 11 -1 27.35 -184.40 268.98 <
4 0 11 0 23.43 316.22 307.82 <
4 0 11 1 32.57 159.62 206.19 <
5 0 11 -2 66.62 -240.10 319.83 <
-4 1 11 -2 228.16 451.79 288.65 <
-4 -1 11 -2 229.12 230.51 193.04 <
-4 1 11 -1 407.30 30.04 171.66 <
-4 -1 11 -1 414.90 -10.63 278.74 <
-4 1 11 0 381.32 178.73 208.97 <
-4 -1 11 0 369.59 867.41 398.20 <
-4 1 11 1 258.28 -143.84 161.36 <
-4 -1 11 1 263.65 502.16 338.31 <
-4 1 11 2 16.81 -162.92 168.69 <
-4 -1 11 2 15.69 279.15 212.69 <
-3 1 11 -2 61.78 -80.24 239.62 <
-3 -1 11 -2 65.16 -107.70 173.62 <
-3 1 11 -1 118.92 622.34 366.29 <
-3 -1 11 -1 120.40 447.99 289.91 <
-3 1 11 0 317.83 656.17 378.70 <
-3 -1 11 0 327.33 340.11 290.84 <
-3 1 11 1 32.83 -176.01 84.87 <
-3 -1 11 1 32.50 127.01 277.74 <
-3 1 11 2 12.53 161.40 256.88 <
-3 -1 11 2 12.84 337.30 338.63 <
-2 1 11 -2 429.15 623.84 296.37 <
-2 -1 11 -2 423.90 423.70 325.07 <
-2 1 11 -1 458.02 401.39 257.47 <
-2 -1 11 -1 451.12 263.06 234.82 <
-2 1 11 0 81.24 192.49 192.23 <
-2 -1 11 0 85.04 -4.70 159.86 <
-2 1 11 1 438.32 328.68 282.37 <
-2 -1 11 1 446.71 635.61 321.32 <
-2 1 11 2 95.48 370.48 287.54 <
-2 -1 11 2 92.13 -177.34 174.08 <
-1 1 11 -2 255.48 343.68 262.43 <
-1 -1 11 -2 263.83 152.55 149.20 <
-1 1 11 -1 41.52 540.32 219.90 <
-1 -1 11 -1 59.65 196.90 114.96 <
-1 1 11 0 456.19 759.62 226.69 o
-1 -1 11 0 469.18 495.51 204.41 <
-1 1 11 1 199.65 310.59 213.88 <
-1 -1 11 1 182.47 90.99 98.46 <
-1 1 11 2 81.71 235.54 198.67 <
-1 -1 11 2 77.65 411.16 205.90 <
0 1 11 -2 219.48 335.50 163.86 <
0 -1 11 -2 209.71 42.76 88.61 <
0 1 11 -1 1023.62 483.53 177.49 <
0 -1 11 -1 1005.23 678.65 218.34 o
0 1 11 0 5003.82 5066.09 559.65 o
0 -1 11 0 5066.83 4274.33 501.97 o
0 1 11 1 622.73 281.98 122.88 <
0 -1 11 1 640.47 265.58 160.64 <
0 1 11 2 298.58 292.80 115.12 <
0 -1 11 2 286.17 370.63 165.34 <
1 1 11 -2 261.71 224.41 143.38 <
1 -1 11 -2 258.86 -48.22 134.34 <
1 1 11 -1 50.78 267.97 157.49 <
1 -1 11 -1 51.19 7.63 90.29 <
1 1 11 0 505.34 418.35 210.67 <
1 -1 11 0 517.15 285.84 154.25 <
1 1 11 1 86.29 72.68 123.86 <
1 -1 11 1 100.72 -138.97 133.29 <
1 1 11 2 88.78 357.55 335.48 <
1 -1 11 2 80.01 228.62 264.58 <
2 1 11 -2 229.62 508.34 230.84 <
2 -1 11 -2 217.69 372.22 287.35 <
2 1 11 -1 824.70 720.00 421.48 <
2 -1 11 -1 820.70 705.28 430.55 <
2 1 11 0 53.78 186.18 256.36 <
2 -1 11 0 44.28 65.44 149.84 <
2 1 11 1 623.19 175.82 250.80 <
2 -1 11 1 632.99 369.59 332.43 <
2 1 11 2 1172.45 797.94 405.66 <
2 -1 11 2 1145.37 1040.66 441.23 <
3 1 11 -2 225.59 294.41 307.76 <
3 -1 11 -2 227.53 325.96 256.76 <
3 1 11 -1 107.06 29.28 237.28 <
3 -1 11 -1 107.69 289.58 301.96 <
3 1 11 0 379.68 123.49 296.24 <
3 -1 11 0 391.74 853.82 497.38 <
3 1 11 1 733.63 313.45 191.62 <
3 -1 11 1 734.81 1063.20 620.74 <
3 1 11 2 5.67 -8.20 268.13 <
3 -1 11 2 3.79 241.13 436.51 <
4 1 11 -2 274.29 238.43 234.47 <
4 -1 11 -2 265.70 -111.05 200.12 <
4 1 11 -1 432.96 541.53 316.13 <
4 -1 11 -1 434.31 117.73 159.60 <
4 1 11 0 159.16 277.04 362.50 <
4 -1 11 0 165.50 19.74 171.93 <
4 1 11 1 47.32 -48.29 332.48 <
5 1 11 -2 130.79 -183.68 316.30 <
-4 2 11 -2 48.45 149.18 266.45 <
-4 -2 11 -2 50.79 503.84 328.33 <
-4 2 11 -1 424.26 327.89 281.82 <
-4 -2 11 -1 407.45 -175.29 258.32 <
-4 2 11 0 633.40 1047.26 440.31 <
-4 -2 11 0 638.24 249.51 254.13 <
-4 2 11 1 98.82 -94.61 168.01 <
-4 -2 11 1 93.49 682.39 320.09 <
-4 2 11 2 161.49 314.69 347.94 <
-4 -2 11 2 164.81 449.35 329.63 <
-3 2 11 -2 86.93 -54.68 253.08 <
-3 -2 11 -2 91.15 254.32 307.00 <
-3 2 11 -1 560.65 386.96 243.32 <
-3 -2 11 -1 578.90 385.48 214.12 <
-3 2 11 0 485.68 400.03 288.74 <
-3 -2 11 0 482.30 893.67 398.94 <
-3 2 11 1 539.28 111.29 177.53 <
-3 -2 11 1 543.45 636.72 355.50 <
-3 2 11 2 189.06 161.71 174.06 <
-3 -2 11 2 192.53 676.15 363.48 <
-2 2 11 -2 492.60 736.48 342.44 <
-2 -2 11 -2 514.66 629.61 331.00 <
-2 2 11 -1 161.97 368.46 279.43 <
-2 -2 11 -1 155.36 56.63 158.34 <
-2 2 11 0 2197.54 3615.39 708.89 o
-2 -2 11 0 2209.88 3403.50 678.74 o
-2 2 11 1 170.60 381.48 257.91 <
-2 -2 11 1 169.36 173.49 242.13 <
-2 2 11 2 168.02 1080.68 424.40 <
-2 -2 11 2 176.16 522.45 244.17 <
-1 2 11 -2 213.20 296.50 218.06 <
-1 -2 11 -2 227.21 258.80 164.81 <
-1 2 11 -1 206.36 257.30 131.38 <
-1 -2 11 -1 198.77 432.27 207.47 <
-1 2 11 0 1022.41 1302.13 296.15 o
-1 -2 11 0 1005.31 920.43 252.71 o
-1 2 11 1 758.34 356.31 168.29 <
-1 -2 11 1 770.02 281.11 179.56 <
-1 2 11 2 132.48 161.20 152.92 <
-1 -2 11 2 136.49 28.61 166.34 <
0 2 11 -2 125.12 129.97 113.64 <
0 -2 11 -2 136.61 256.89 167.34 <
0 2 11 -1 22.79 100.70 81.96 <
0 -2 11 -1 26.28 -30.61 133.75 <
0 2 11 0 2229.56 1874.28 345.44 o
0 -2 11 0 2264.69 2278.37 381.18 o
0 2 11 1 571.37 250.69 137.59 <
0 -2 11 1 555.13 640.32 220.71 <
0 2 11 2 110.53 -76.31 161.79 <
0 -2 11 2 116.79 142.10 87.48 <
1 2 11 -2 255.63 301.43 151.23 <
1 -2 11 -2 262.07 328.07 163.31 <
1 2 11 -1 1502.00 1398.53 291.72 o
1 -2 11 -1 1497.17 1158.82 265.37 o
1 2 11 0 705.32 787.09 224.30 o
1 -2 11 0 695.11 930.39 251.76 o
1 2 11 1 69.07 219.21 151.42 <
1 -2 11 1 49.45 51.39 242.01 <
1 2 11 2 151.53 70.29 129.92 <
1 -2 11 2 159.94 75.44 160.70 <
2 2 11 -2 94.03 215.97 140.82 <
2 -2 11 -2 100.69 234.67 188.21 <
2 2 11 -1 42.72 262.73 171.34 <
2 -2 11 -1 34.83 150.34 203.41 <
2 2 11 0 2682.93 2351.63 631.11 o
2 -2 11 0 2724.07 2812.82 725.26 o
2 2 11 1 183.30 -372.15 262.80 <
2 -2 11 1 172.19 68.20 174.01 <
2 2 11 2 545.49 280.23 265.73 <
2 -2 11 2 558.37 779.49 471.64 <
3 2 11 -2 234.23 393.50 334.82 <
3 -2 11 -2 251.55 86.74 245.93 <
3 2 11 -1 720.37 548.99 391.96 <
3 -2 11 -1 730.36 708.18 415.07 <
3 2 11 0 290.36 499.53 413.55 <
3 -2 11 0 303.49 1359.65 599.11 <
3 2 11 1 222.70 144.05 300.95 <
3 -2 11 1 223.28 670.72 407.42 <
3 2 11 2 78.10 278.71 334.46 <
3 -2 11 2 77.95 -179.05 320.85 <
4 2 11 -2 133.75 -2.37 126.36 <
4 -2 11 -2 141.73 296.67 257.00 <
4 2 11 -1 59.98 -252.60 134.14 <
4 -2 11 -1 61.27 63.66 172.69 <
4 2 11 0 881.00 653.00 446.20 <
4 -2 11 0 889.74 604.63 418.33 <
4 2 11 1 115.62 493.99 403.77 <
5 2 11 -2 99.41 -128.81 145.68 <
-4 3 11 -2 159.48 -299.00 111.51 <
-4 -3 11 -2 167.65 -496.69 308.43 <
-4 3 11 -1 223.73 130.79 236.63 <
-4 -3 11 -1 238.06 290.85 279.63 <
-4 3 11 0 262.14 363.59 323.96 <
-4 -3 11 0 277.43 205.25 257.08 <
-4 3 11 1 22.66 -343.98 289.06 <
-4 -3 11 1 20.89 -0.83 247.38 <
-4 3 11 2 139.52 62.76 151.07 <
-4 -3 11 2 137.50 180.53 263.24 <
-3 3 11 -2 22.18 134.21 249.58 <
-3 -3 11 -2 23.67 254.65 234.95 <
-3 3 11 -1 572.95 94.85 311.65 <
-3 -3 11 -1 566.89 1111.68 431.53 <
-3 3 11 0 1108.39 1047.74 403.20 <
-3 -3 11 0 1090.84 1837.10 556.78 o
-3 3 11 1 127.14 177.90 175.38 <
-3 -3 11 1 128.94 337.80 189.58 <
-3 3 11 2 319.61 575.67 318.70 <
-3 -3 11 2 325.04 653.52 331.57 <
-2 3 11 -2 180.57 241.82 149.96 <
-2 -3 11 -2 174.43 270.32 243.28 <
-2 3 11 -1 225.28 66.33 139.46 <
-2 -3 11 -1 236.28 195.41 151.94 <
-2 3 11 0 529.30 234.82 197.41 <
-2 -3 11 0 523.07 167.45 176.42 <
-2 3 11 1 18.24 254.32 234.80 <
-2 -3 11 1 20.21 -39.52 187.10 <
-2 3 11 2 354.38 509.77 336.70 <
-2 -3 11 2 354.65 210.32 189.73 <
-1 3 11 -2 287.06 132.49 127.01 <
-1 -3 11 -2 299.73 45.44 139.92 <
-1 3 11 -1 363.23 652.33 302.13 <
-1 -3 11 -1 387.04 363.91 184.75 <
-1 3 11 0 3527.11 3447.42 493.73 o
-1 -3 11 0 3528.58 3213.54 473.27 o
-1 3 11 1 669.77 547.10 211.60 <
-1 -3 11 1 675.11 696.87 237.78 <
-1 3 11 2 532.76 415.92 193.95 <
-1 -3 11 2 535.33 477.05 213.25 <
0 3 11 -2 173.84 -8.26 111.64 <
0 -3 11 -2 175.85 245.28 149.14 <
0 3 11 -1 118.72 104.18 101.48 <
0 -3 11 -1 121.96 -53.22 103.22 <
0 3 11 0 379.02 406.26 182.90 <
0 -3 11 0 375.61 168.16 141.64 <
0 3 11 1 189.32 59.90 138.62 <
0 -3 11 1 190.26 279.63 148.12 <
0 3 11 2 337.45 243.58 80.27 o
0 -3 11 2 355.48 115.31 149.57 <
1 3 11 -2 114.65 30.35 145.01 <
1 -3 11 -2 114.13 131.90 130.16 <
1 3 11 -1 166.09 348.83 130.07 <
1 -3 11 -1 160.98 332.96 146.46 <
1 3 11 0 3125.50 2811.25 428.16 o
1 -3 11 0 3132.90 3053.42 714.63 o
1 3 11 1 165.46 403.85 179.40 <
1 -3 11 1 166.74 -263.97 170.75 <
1 3 11 2 120.35 94.22 115.70 <
1 -3 11 2 123.21 -171.56 163.81 <
2 3 11 -2 72.82 -121.68 141.31 <
2 -3 11 -2 71.50 23.33 170.57 <
2 3 11 -1 13.91 42.78 166.40 <
2 -3 11 -1 13.25 588.76 323.02 <
2 3 11 0 534.49 693.85 337.61 <
2 -3 11 0 539.86 408.00 214.54 <
2 3 11 1 240.32 380.29 306.04 <
2 -3 11 1 244.67 348.04 305.09 <
2 3 11 2 278.95 -84.38 161.57 <
2 -3 11 2 300.70 44.81 225.76 <
3 3 11 -2 75.85 182.27 270.74 <
3 -3 11 -2 71.38 347.80 286.37 <
3 3 11 -1 2.94 -229.32 274.48 <
3 -3 11 -1 2.12 387.33 354.28 <
3 3 11 0 887.63 608.91 353.24 <
3 -3 11 0 908.52 1999.28 728.40 <
3 3 11 1 1363.77 1536.47 659.48 <
3 -3 11 1 1352.69 1407.25 661.67 <
3 3 11 2 44.24 -86.51 125.73 <
3 -3 11 2 48.26 216.27 331.61 <
4 3 11 -2 16.17 -78.20 268.08 <
4 -3 11 -2 14.20 206.80 301.83 <
4 3 11 -1 9.25 33.07 119.47 <
4 -3 11 -1 11.45 -317.78 391.68 <
4 3 11 0 171.46 227.02 291.78 <
4 -3 11 0 188.12 32.96 226.04 <
4 3 11 1 89.03 212.95 248.67 <
5 3 11 -2 51.82 438.22 330.11 <
-4 4 11 -2 17.87 265.73 310.09 <
-4 -4 11 -2 19.98 53.44 128.70 <
-4 4 11 -1 62.87 -78.42 101.27 <
-4 -4 11 -1 60.48 -149.96 241.56 <
-4 4 11 0 16.66 180.86 224.43 <
-4 -4 11 0 17.38 97.57 220.51 <
-4 4 11 1 10.05 -201.69 254.08 <
-4 -4 11 1 10.50 324.45 347.31 <
-4 4 11 2 70.51 303.09 276.45 <
-4 -4 11 2 68.68 139.84 271.41 <
-3 4 11 -2 90.79 -23.41 226.38 <
-3 -4 11 -2 81.05 -128.83 160.57 <
-3 4 11 -1 189.33 386.50 247.43 <
-3 -4 11 -1 234.94 175.84 283.06 <
-3 4 11 0 81.65 76.20 93.55 <
-3 -4 11 0 82.27 139.07 270.28 <
-3 4 11 1 50.61 598.23 290.56 <
-3 -4 11 1 50.52 520.19 312.19 <
-3 4 11 2 133.06 352.20 269.34 <
-3 -4 11 2 138.46 -52.33 122.40 <
-2 4 11 -2 71.96 75.50 240.06 <
-2 -4 11 -2 65.83 -264.93 234.51 <
-2 4 11 -1 33.38 174.53 206.77 <
-2 -4 11 -1 31.65 129.36 166.69 <
-2 4 11 0 100.42 724.90 324.96 <
-2 -4 11 0 102.74 113.51 142.71 <
-2 4 11 1 207.75 453.20 262.00 <
-2 -4 11 1 211.84 618.04 295.45 <
-2 4 11 2 90.42 -182.75 146.18 <
-2 -4 11 2 88.19 -171.79 217.02 <
-1 4 11 -2 132.96 315.56 229.58 <
-1 -4 11 -2 120.58 176.56 198.32 <
-1 4 11 -1 3619.69 3644.63 707.28 o
-1 -4 11 -1 3571.33 3297.37 486.71 o
-1 4 11 0 186.29 36.39 129.01 <
-1 -4 11 0 186.26 -123.77 104.35 <
-1 4 11 1 10.38 178.23 124.97 <
-1 -4 11 1 16.31 141.64 166.23 <
-1 4 11 2 249.28 29.04 151.12 <
-1 -4 11 2 246.51 -3.54 142.96 <
0 4 11 -2 28.33 27.83 64.05 <
0 -4 11 -2 25.00 122.10 126.73 <
0 4 11 -1 124.61 364.59 186.34 <
0 -4 11 -1 119.68 241.84 192.99 <
0 4 11 0 381.87 562.77 230.08 <
0 -4 11 0 379.35 352.22 185.95 <
0 4 11 1 1425.13 1490.47 317.19 o
0 -4 11 1 1419.25 1284.22 299.50 o
0 4 11 2 105.26 156.90 113.03 <
0 -4 11 2 106.11 146.23 161.68 <
1 4 11 -2 179.12 196.17 132.96 <
1 -4 11 -2 179.03 -36.07 81.40 <
1 4 11 -1 13.65 31.87 165.07 <
1 -4 11 -1 25.86 293.21 231.51 <
1 4 11 0 452.92 332.07 178.60 <
1 -4 11 0 461.30 249.69 308.85 <
1 4 11 1 1312.05 1316.19 299.08 o
1 -4 11 1 1296.67 986.09 433.81 <
1 4 11 2 273.09 0.28 64.55 <
1 -4 11 2 233.34 -156.51 173.75 <
2 4 11 -2 18.76 70.96 142.29 <
2 -4 11 -2 17.37 77.42 147.84 <
2 4 11 -1 39.68 -177.75 131.07 <
2 -4 11 -1 42.46 66.07 156.60 <
2 4 11 0 65.53 115.27 148.82 <
2 -4 11 0 68.95 -17.26 218.65 <
2 4 11 1 1399.21 1382.37 503.10 <
2 -4 11 1 1417.40 1388.59 594.00 <
2 4 11 2 279.72 469.03 265.52 <
2 -4 11 2 265.44 340.13 405.05 <
3 4 11 -2 96.14 482.49 308.02 <
3 -4 11 -2 96.55 -162.68 261.02 <
3 4 11 -1 76.49 -109.35 140.21 <
3 -4 11 -1 78.77 741.11 431.59 <
3 4 11 0 89.77 89.85 190.58 <
3 -4 11 0 101.27 449.35 465.12 <
3 4 11 1 153.87 -132.86 200.40 <
3 -4 11 1 160.76 896.27 625.32 <
3 4 11 2 111.69 44.48 155.73 <
3 -4 11 2 94.82 740.39 561.08 <
4 4 11 -2 3.23 -10.65 300.15 <
4 -4 11 -2 2.33 -211.19 348.98 <
4 4 11 -1 21.65 634.21 424.96 <
4 -4 11 -1 25.14 28.04 239.71 <
4 4 11 0 28.05 -151.86 232.60 <
4 -4 11 0 28.95 -38.70 201.77 <
4 4 11 1 771.77 978.91 538.38 <
5 4 11 -2 63.80 -507.17 280.37 <
-4 5 11 -2 61.15 -9.63 118.22 <
-4 -5 11 -2 61.11 -120.12 243.54 <
-4 5 11 -1 144.42 348.17 295.35 <
-4 -5 11 -1 141.98 -179.68 188.71 <
-4 5 11 0 7.99 139.07 179.73 <
-4 -5 11 0 8.48 64.07 183.68 <
-4 5 11 1 87.75 132.81 273.47 <
-4 -5 11 1 86.12 101.88 200.14 <
-4 5 11 2 104.69 498.93 417.29 <
-4 -5 11 2 104.95 -0.43 115.92 <
-3 5 11 -2 225.38 427.75 293.21 <
-3 -5 11 -2 227.20 -377.16 252.58 <
-3 5 11 -1 508.49 178.10 255.32 <
-3 -5 11 -1 505.85 1080.11 423.94 <
-3 5 11 0 1420.44 1582.63 504.29 o
-3 -5 11 0 1427.60 2059.24 576.97 o
-3 5 11 1 156.11 -47.68 167.90 <
-3 -5 11 1 150.99 117.33 113.01 <
-3 5 11 2 612.46 428.42 324.63 <
-3 -5 11 2 630.47 583.60 306.87 <
-2 5 11 -2 55.51 415.70 285.73 <
-2 -5 11 -2 60.82 41.07 126.60 <
-2 5 11 -1 181.24 122.53 123.46 <
-2 -5 11 -1 185.99 287.69 212.49 <
-2 5 11 0 20.48 369.39 275.56 <
-2 -5 11 0 22.46 57.94 93.51 <
-2 5 11 1 103.67 87.70 96.38 <
-2 -5 11 1 108.75 165.23 205.53 <
-2 5 11 2 179.21 145.29 273.11 <
-2 -5 11 2 180.36 23.13 162.60 <
-1 5 11 -2 195.01 -184.64 118.66 <
-1 -5 11 -2 210.08 40.39 108.57 <
-1 5 11 -1 1179.34 1641.19 496.27 o
-1 -5 11 -1 1196.00 885.12 265.41 o
-1 5 11 0 3298.37 4223.58 798.07 o
-1 -5 11 0 3333.54 3225.15 475.05 o
-1 5 11 1 137.09 306.04 171.34 <
-1 -5 11 1 139.30 67.42 175.58 <
-1 5 11 2 652.58 555.23 251.67 <
-1 -5 11 2 668.89 188.34 198.93 <
0 5 11 -2 87.06 243.58 156.94 <
0 -5 11 -2 88.89 193.29 170.47 <
0 5 11 -1 123.39 202.38 140.73 <
0 -5 11 -1 121.64 261.65 177.32 <
0 5 11 0 113.25 264.39 196.36 <
0 -5 11 0 105.72 53.05 150.03 <
0 5 11 1 184.92 280.39 139.23 <
0 -5 11 1 182.60 259.11 183.95 <
0 5 11 2 141.35 314.63 154.40 <
0 -5 11 2 159.00 140.42 257.65 <
1 5 11 -2 95.31 191.79 150.03 <
1 -5 11 -2 94.59 161.99 129.07 <
1 5 11 -1 272.61 44.78 112.62 <
1 -5 11 -1 268.76 -43.65 167.80 <
1 5 11 0 2801.77 3004.26 445.38 o
1 -5 11 0 2815.03 2738.59 652.52 o
1 5 11 1 364.87 172.95 120.92 <
1 -5 11 1 368.29 646.95 359.54 <
1 5 11 2 302.37 38.31 116.72 <
1 -5 11 2 315.53 -16.87 131.57 <
2 5 11 -2 27.79 9.57 70.98 <
2 -5 11 -2 27.79 -126.40 240.75 <
2 5 11 -1 12.34 -176.99 136.88 <
2 5 11 0 60.12 86.90 192.99 <
2 -5 11 0 61.00 -151.70 195.75 <
2 5 11 1 65.38 -77.40 184.73 <
2 -5 11 1 64.79 177.90 228.52 <
2 5 11 2 24.22 -53.85 168.08 <
2 -5 11 2 35.40 574.82 407.03 <
3 5 11 -2 121.23 -73.29 141.05 <
3 -5 11 -2 119.17 114.59 101.36 <
3 5 11 -1 33.39 16.68 133.18 <
3 -5 11 -1 34.03 579.23 436.75 <
3 5 11 0 1357.89 1853.17 602.11 o
3 -5 11 0 1395.84 1501.01 655.87 <
3 5 11 1 151.65 -309.08 309.89 <
3 -5 11 1 145.29 827.07 495.18 <
3 5 11 2 26.67 185.71 365.50 <
3 -5 11 2 30.42 850.71 489.75 <
4 5 11 -2 13.07 -61.57 216.90 <
4 -5 11 -2 13.34 -205.43 256.43 <
4 5 11 -1 15.41 5.81 284.32 <
4 -5 11 -1 13.19 263.21 351.30 <
4 5 11 0 56.03 129.73 139.86 <
4 -5 11 0 58.59 90.98 318.02 <
-4 6 11 -2 202.06 375.15 275.02 <
-4 6 11 -1 173.49 296.87 202.91 <
-4 -6 11 -1 165.79 764.94 510.14 <
-4 6 11 0 301.33 640.26 291.52 <
-4 -6 11 0 295.27 -34.78 162.43 <
-4 6 11 1 110.63 74.14 156.82 <
-4 -6 11 1 112.18 80.64 290.28 <
-4 6 11 2 129.38 -99.62 144.94 <
-4 -6 11 2 125.82 676.83 389.46 <
-3 6 11 -2 48.78 -179.18 168.14 <
-3 -6 11 -2 44.05 514.17 371.50 <
-3 6 11 -1 257.79 -99.51 213.67 <
-3 -6 11 -1 308.74 120.09 194.30 <
-3 6 11 0 1316.97 1185.17 416.33 <
-3 -6 11 0 1316.72 1123.53 528.88 <
-3 6 11 1 306.25 235.39 157.53 <
-3 -6 11 1 301.36 538.36 342.20 <
-3 6 11 2 59.88 502.66 309.37 <
-3 -6 11 2 56.20 385.26 283.80 <
-2 6 11 -2 381.22 451.35 233.89 <
-2 -6 11 -2 453.13 105.61 155.66 <
-2 6 11 -1 453.33 304.82 193.38 <
-2 -6 11 -1 442.87 415.44 252.52 <
-2 6 11 0 711.11 1027.55 444.27 <
-2 -6 11 0 702.50 918.71 352.81 <
-2 6 11 1 312.17 8.81 200.25 <
-2 -6 11 1 307.17 188.10 216.45 <
-2 6 11 2 317.38 259.30 163.27 <
-2 -6 11 2 322.55 82.20 199.47 <
-1 6 11 -2 53.48 -32.11 130.70 <
-1 -6 11 -2 57.49 66.53 92.94 <
-1 6 11 -1 4749.10 4823.99 803.38 o
-1 -6 11 -1 4742.55 4072.20 543.56 o
-1 6 11 0 1276.68 1677.59 579.97 <
-1 -6 11 0 1267.87 887.36 289.10 o
-1 6 11 1 518.11 97.55 235.32 <
-1 -6 11 1 527.07 112.70 142.77 <
-1 6 11 2 47.41 183.18 154.60 <
-1 -6 11 2 44.60 113.66 157.36 <
0 6 11 -2 451.20 265.13 148.25 <
0 -6 11 -2 466.07 113.86 158.94 <
0 6 11 -1 451.26 543.80 225.56 <
0 -6 11 -1 439.81 345.28 161.51 <
0 6 11 0 1518.57 1207.08 294.80 o
0 -6 11 0 1552.69 1403.53 293.72 o
0 6 11 1 150.54 407.31 196.79 <
0 -6 11 1 144.86 158.81 266.86 <
0 6 11 2 373.80 322.30 158.08 <
1 6 11 -2 191.07 439.70 164.36 <
1 -6 11 -2 203.77 460.29 304.48 <
1 6 11 -1 978.55 998.80 243.97 o
1 -6 11 -1 1024.66 892.43 379.94 <
1 6 11 0 1084.47 505.21 206.90 <
1 -6 11 0 1073.41 796.33 406.27 <
1 6 11 1 1981.55 1289.56 298.83 o
1 -6 11 1 1903.18 1240.63 448.36 <
1 6 11 2 7.87 -41.29 114.44 <
1 -6 11 2 5.56 290.58 313.52 <
2 6 11 -2 240.50 161.10 137.60 <
2 -6 11 -2 241.66 -65.46 256.56 <
2 6 11 -1 8.76 87.68 115.99 <
2 -6 11 -1 7.14 98.81 145.99 <
2 6 11 0 545.79 511.05 182.04 <
2 -6 11 0 544.13 202.54 282.48 <
2 6 11 1 359.77 507.14 225.99 <
2 -6 11 1 353.48 453.29 378.09 <
2 6 11 2 159.92 -155.31 191.86 <
2 -6 11 2 199.83 -359.83 232.21 <
3 6 11 -2 196.31 225.25 180.53 <
3 -6 11 -2 207.65 981.17 506.42 <
3 6 11 -1 819.71 2031.39 644.74 o
3 -6 11 -1 840.82 1170.97 534.56 <
3 6 11 0 437.13 389.13 386.09 <
3 -6 11 0 442.64 39.81 231.15 <
3 6 11 1 88.49 135.75 213.21 <
3 -6 11 1 104.54 439.22 457.36 <
3 -6 11 2 0.37 467.38 422.36 <
4 6 11 -2 28.87 280.28 350.24 <
4 -6 11 -2 28.28 -379.26 278.52 <
4 -6 11 -1 69.31 -18.11 259.17 <
-4 7 11 -2 26.22 213.04 309.46 <
-4 7 11 -1 597.21 414.37 239.75 <
-4 7 11 0 171.06 -88.85 177.86 <
-4 -7 11 0 166.81 224.30 265.56 <
-4 7 11 1 89.85 187.47 139.53 <
-4 -7 11 1 85.13 -317.50 165.07 <
-4 7 11 2 9.27 243.58 296.02 <
-4 -7 11 2 8.35 58.98 218.73 <
-3 7 11 -2 161.27 175.16 272.87 <
-3 -7 11 -2 160.25 189.95 262.06 <
-3 7 11 -1 167.65 149.32 225.45 <
-3 -7 11 -1 171.04 237.86 309.85 <
-3 7 11 0 600.72 922.00 438.79 <
-3 -7 11 0 610.51 762.79 393.35 <
-3 7 11 1 31.71 251.69 287.28 <
-3 -7 11 1 27.92 138.81 204.84 <
-3 7 11 2 9.92 129.99 184.99 <
-3 -7 11 2 8.09 238.58 315.52 <
-2 7 11 -2 227.77 273.82 153.75 <
-2 -7 11 -2 220.54 413.24 307.67 <
-2 7 11 -1 1536.49 679.31 372.83 <
-2 -7 11 -1 1555.84 1218.84 374.92 o
-2 7 11 0 761.09 1131.46 435.18 <
-2 -7 11 0 805.35 567.86 289.17 <
-2 7 11 1 260.81 25.54 152.49 <
-2 -7 11 1 254.23 103.46 112.86 <
-2 7 11 2 58.49 195.36 192.06 <
-2 -7 11 2 59.07 -94.35 186.73 <
-1 7 11 -2 542.60 309.28 249.06 <
-1 -7 11 -2 567.41 162.71 166.79 <
-1 7 11 -1 200.04 893.97 382.68 <
-1 -7 11 -1 194.69 246.38 158.71 <
-1 7 11 0 2261.27 2410.62 587.73 o
-1 -7 11 0 2273.21 2231.73 398.64 o
-1 7 11 1 120.22 -58.11 145.18 <
-1 -7 11 1 110.02 171.14 176.51 <
-1 7 11 2 136.82 -181.58 153.14 <
-1 -7 11 2 131.51 24.63 68.33 <
0 7 11 -2 10.29 194.54 168.53 <
0 -7 11 -2 9.72 102.68 142.05 <
0 7 11 -1 1351.72 1286.91 310.91 o
0 -7 11 -1 1374.80 1025.00 237.02 o
0 7 11 0 269.88 377.96 196.41 <
0 -7 11 0 210.66 279.47 166.84 <
0 7 11 1 360.69 271.43 159.58 <
0 -7 11 1 369.68 389.72 307.30 <
0 7 11 2 118.50 243.15 156.66 <
0 -7 11 2 124.00 -15.63 157.08 <
1 7 11 -2 525.02 306.80 152.51 <
1 -7 11 -2 509.31 130.09 136.73 <
1 7 11 -1 376.61 413.27 155.88 <
1 -7 11 -1 378.55 776.49 410.51 <
1 7 11 0 2099.39 2123.47 371.87 o
1 -7 11 0 2110.21 1969.17 586.24 o
1 7 11 1 1057.32 1055.46 292.95 o
1 -7 11 1 1084.06 847.99 370.65 <
1 7 11 2 311.95 78.55 145.44 <
1 -7 11 2 290.81 223.58 129.40 <
2 7 11 -2 98.43 81.07 109.07 <
2 -7 11 -2 92.12 66.90 212.84 <
2 7 11 -1 945.72 652.82 221.88 <
2 -7 11 -1 950.18 752.62 380.87 <
2 7 11 0 425.99 491.01 207.45 <
2 -7 11 0 433.18 367.24 332.61 <
2 7 11 1 131.41 360.72 163.75 <
2 -7 11 1 129.52 105.96 339.07 <
2 7 11 2 7.45 371.79 308.54 <
2 -7 11 2 1.61 -109.74 281.34 <
3 7 11 -2 338.99 244.69 192.84 <
3 -7 11 -2 329.25 191.54 317.95 <
3 7 11 -1 68.80 34.29 285.74 <
3 -7 11 -1 70.46 562.71 499.80 <
3 -7 11 0 713.72 733.48 505.67 <
3 -7 11 1 51.06 208.58 363.17 <
3 -7 11 2 208.18 364.35 415.62 <
4 -7 11 -2 71.69 -188.41 225.69 <
4 -7 11 -1 317.10 198.84 359.76 <
-4 8 11 -1 124.47 254.76 221.93 <
-4 8 11 0 190.64 145.10 249.28 <
-4 8 11 1 4.48 235.26 247.54 <
-4 8 11 2 65.01 1228.91 484.07 <
-4 -8 11 2 64.56 378.44 297.63 <
-3 8 11 -2 163.92 352.55 310.09 <
-3 -8 11 -2 167.92 116.85 265.80 <
-3 8 11 -1 275.55 313.06 244.30 <
-3 -8 11 -1 283.05 267.78 231.52 <
-3 8 11 0 9.07 138.79 268.26 <
-3 -8 11 0 7.91 -209.36 149.88 <
-3 8 11 1 60.47 201.08 245.32 <
-3 -8 11 1 63.36 -91.20 131.07 <
-3 8 11 2 48.63 319.67 263.04 <
-3 -8 11 2 50.70 278.69 262.89 <
-2 8 11 -2 208.42 -11.59 184.60 <
-2 -8 11 -2 222.85 24.76 186.25 <
-2 8 11 -1 351.28 553.67 341.83 <
-2 -8 11 -1 367.83 203.38 100.66 <
-2 8 11 0 631.10 569.39 363.46 <
-2 -8 11 0 643.31 319.50 219.82 <
-2 8 11 1 20.93 -100.72 173.75 <
-2 -8 11 1 21.65 -113.27 138.57 <
-2 8 11 2 157.62 282.34 156.18 <
-2 -8 11 2 161.39 149.79 202.04 <
-1 8 11 -2 163.33 466.97 323.46 <
-1 -8 11 -2 165.79 190.53 146.68 <
-1 8 11 -1 238.16 79.38 158.20 <
-1 -8 11 -1 248.86 179.19 142.75 <
-1 8 11 0 55.47 241.86 254.47 <
-1 -8 11 0 61.02 85.90 192.16 <
-1 8 11 1 132.25 328.91 290.39 <
-1 -8 11 1 140.69 315.02 177.88 <
-1 8 11 2 137.89 1038.35 444.25 <
-1 -8 11 2 140.88 471.68 220.82 <
0 8 11 -2 262.08 193.45 150.47 <
0 -8 11 -2 255.42 201.64 159.07 <
0 8 11 -1 281.10 757.44 248.12 o
0 -8 11 -1 280.38 173.47 75.70 <
0 8 11 0 1429.68 472.23 210.86 <
0 -8 11 0 1390.16 785.60 388.03 <
0 8 11 1 288.64 123.57 129.31 <
0 -8 11 1 290.76 394.37 280.45 <
0 8 11 2 314.89 267.86 192.49 <
0 -8 11 2 323.97 253.69 377.68 <
1 8 11 -2 186.03 468.45 188.47 <
1 -8 11 -2 180.09 -253.10 168.12 <
1 8 11 -1 278.75 214.56 160.08 <
1 -8 11 -1 278.23 573.88 356.22 <
1 8 11 0 113.91 31.96 100.98 <
1 -8 11 0 117.14 364.33 279.02 <
1 8 11 1 83.94 0.96 179.75 <
1 -8 11 1 90.62 502.25 350.48 <
1 8 11 2 64.71 17.54 75.96 <
1 -8 11 2 57.90 140.25 282.91 <
2 8 11 -2 286.76 401.90 198.25 <
2 -8 11 -2 280.28 440.64 362.81 <
2 8 11 -1 11.77 -21.63 121.07 <
2 -8 11 -1 12.52 34.00 210.19 <
2 8 11 0 180.73 446.29 211.08 <
2 -8 11 0 190.83 478.64 382.94 <
2 8 11 1 72.62 462.71 298.63 <
2 -8 11 1 70.76 178.79 205.65 <
2 8 11 2 367.07 266.26 320.72 <
2 -8 11 2 435.41 197.45 222.52 <
3 8 11 -2 133.94 244.73 225.62 <
3 -8 11 -2 134.61 495.31 403.59 <
3 8 11 -1 101.03 323.70 301.95 <
3 -8 11 -1 99.64 -73.42 165.31 <
3 -8 11 0 22.22 44.76 153.99 <
3 -8 11 1 32.24 617.98 438.40 <
4 -8 11 -2 185.79 817.73 457.27 <
4 -8 11 -1 23.76 -42.03 211.49 <
-3 9 11 -2 83.62 307.48 266.41 <
-3 -9 11 -2 79.32 455.60 332.50 <
-3 9 11 -1 141.45 680.50 360.05 <
-3 -9 11 -1 152.87 399.44 351.67 <
-3 9 11 0 80.00 681.63 461.07 <
-3 -9 11 0 77.94 -9.30 235.62 <
-3 9 11 1 8.59 634.72 483.08 <
-3 -9 11 1 9.96 -113.22 162.23 <
-3 9 11 2 81.08 126.09 203.99 <
-3 -9 11 2 79.22 -226.51 306.96 <
-2 9 11 -2 929.31 544.95 333.17 <
-2 -9 11 -2 929.78 1279.22 308.41 o
-2 9 11 -1 364.22 83.48 103.94 <
-2 -9 11 -1 372.08 220.95 172.10 <
-2 9 11 0 1513.47 1664.98 558.04 <
-2 -9 11 0 1538.93 1996.85 517.99 o
-2 9 11 1 404.90 -104.98 237.12 <
-2 -9 11 1 394.68 170.75 210.29 <
-2 9 11 2 120.24 -5.76 146.57 <
-2 -9 11 2 120.36 253.88 166.60 <
-1 9 11 -2 173.86 74.44 172.69 <
-1 -9 11 -2 159.05 229.02 157.14 <
-1 9 11 -1 380.81 466.08 320.72 <
-1 -9 11 -1 386.95 395.57 168.68 <
-1 9 11 0 455.49 1179.01 454.12 <
-1 -9 11 0 442.70 617.04 229.21 <
-1 9 11 1 4.41 90.83 252.06 <
-1 -9 11 1 4.67 371.31 209.38 <
-1 9 11 2 183.65 381.76 350.57 <
-1 -9 11 2 174.42 9.26 112.66 <
0 9 11 -2 205.59 -129.55 149.31 <
0 -9 11 -2 210.20 194.53 88.59 <
0 9 11 -1 587.38 872.25 373.11 <
0 -9 11 -1 608.73 567.54 216.01 <
0 9 11 0 602.56 97.92 176.73 <
0 -9 11 0 521.00 399.68 282.80 <
0 9 11 1 204.22 40.55 142.96 <
0 -9 11 1 197.07 576.63 384.07 <
0 9 11 2 137.60 -185.60 158.47 <
0 -9 11 2 144.15 -53.76 157.58 <
1 9 11 -2 300.07 195.29 135.90 <
1 -9 11 -2 292.70 86.98 256.26 <
1 9 11 -1 130.30 -108.85 121.10 <
1 -9 11 -1 130.58 32.52 145.01 <
1 9 11 0 624.24 473.55 187.95 <
1 -9 11 0 595.65 132.94 250.93 <
1 9 11 1 54.38 198.73 130.36 <
1 -9 11 1 57.97 243.52 328.85 <
1 9 11 2 51.18 -246.88 275.95 <
1 -9 11 2 44.04 366.46 260.47 <
2 9 11 -2 435.14 699.07 243.56 <
2 -9 11 -2 432.57 677.30 427.66 <
2 9 11 -1 735.90 885.10 442.23 <
2 -9 11 -1 750.58 1402.68 540.41 <
2 9 11 0 754.07 936.78 444.72 <
2 -9 11 0 762.51 534.75 413.31 <
2 9 11 1 6.34 471.12 354.80 <
2 -9 11 1 8.98 -23.31 312.96 <
2 9 11 2 70.86 -136.75 181.79 <
2 -9 11 2 56.20 261.78 287.19 <
3 9 11 -2 198.63 379.59 447.11 <
3 -9 11 -2 190.90 296.69 282.15 <
3 9 11 -1 123.26 457.38 364.54 <
3 -9 11 -1 120.36 337.24 382.46 <
3 -9 11 0 311.31 107.24 176.10 <
3 -9 11 1 156.29 402.76 358.44 <
4 -9 11 -2 150.93 907.93 584.08 <
-3 10 11 -2 89.90 331.94 281.11 <
-3 -10 11 -2 86.14 407.62 302.95 <
-3 10 11 -1 414.66 1361.55 536.06 <
-3 -10 11 -1 416.08 429.98 259.10 <
-3 10 11 0 98.62 360.92 326.30 <
-3 -10 11 0 102.74 888.10 434.14 <
-3 10 11 1 127.80 129.51 115.86 <
-3 -10 11 1 124.05 -183.10 226.90 <
-3 10 11 2 175.94 458.33 354.33 <
-3 -10 11 2 176.42 660.68 346.42 <
-2 10 11 -2 94.71 -23.04 143.07 <
-2 -10 11 -2 87.59 388.66 201.95 <
-2 10 11 -1 625.47 622.69 296.30 <
-2 -10 11 -1 611.46 784.31 294.11 <
-2 10 11 0 2522.92 2497.51 678.26 o
-2 -10 11 0 2486.93 2183.30 596.28 o
-2 10 11 1 178.32 606.71 352.22 <
-2 -10 11 1 173.19 197.67 199.03 <
-2 10 11 2 189.33 87.31 173.18 <
-2 -10 11 2 180.71 86.33 210.45 <
-1 10 11 -2 76.41 263.87 252.23 <
-1 -10 11 -2 66.76 -134.99 96.66 <
-1 10 11 -1 354.95 331.70 287.41 <
-1 -10 11 -1 358.44 70.51 79.27 <
-1 10 11 0 125.17 522.60 336.37 <
-1 -10 11 0 127.80 96.62 134.31 <
-1 10 11 1 236.08 214.64 255.65 <
-1 -10 11 1 234.83 53.27 98.29 <
-1 10 11 2 329.77 565.71 406.76 <
-1 -10 11 2 330.49 546.27 370.57 <
0 10 11 -2 48.59 -8.07 157.14 <
0 -10 11 -2 42.57 221.51 145.01 <
0 10 11 -1 767.36 1146.25 434.83 <
0 -10 11 -1 754.87 646.89 334.22 <
0 10 11 0 3269.45 4353.11 806.68 o
0 -10 11 0 3241.88 3876.60 794.77 o
0 10 11 1 181.37 253.62 177.40 <
0 -10 11 1 179.04 94.64 186.62 <
0 10 11 2 168.61 43.42 133.14 <
0 -10 11 2 165.56 61.18 116.16 <
1 10 11 -2 59.86 -1.81 67.35 <
1 -10 11 -2 57.80 -106.12 125.55 <
1 10 11 -1 331.31 566.77 361.18 <
1 -10 11 -1 341.56 296.60 195.06 <
1 10 11 0 52.87 66.64 219.41 <
1 -10 11 0 52.79 59.72 201.08 <
1 10 11 1 293.98 418.99 308.22 <
1 -10 11 1 318.57 436.48 328.74 <
1 10 11 2 247.32 -211.21 164.77 <
1 -10 11 2 233.46 699.89 450.01 <
2 10 11 -2 17.97 362.89 349.98 <
2 -10 11 -2 15.46 40.18 230.13 <
2 10 11 -1 47.59 439.79 361.35 <
2 -10 11 -1 47.58 -54.66 99.07 <
2 10 11 0 2586.92 2927.82 707.78 o
2 -10 11 0 2535.09 2560.12 750.36 o
2 10 11 1 74.71 422.57 292.72 <
2 -10 11 1 74.10 452.03 379.05 <
2 10 11 2 78.95 199.25 211.30 <
2 -10 11 2 74.03 673.13 460.92 <
3 10 11 -2 37.31 330.39 317.87 <
3 -10 11 -2 33.84 357.74 364.94 <
3 10 11 -1 161.97 539.28 401.77 <
3 -10 11 -1 167.33 375.27 496.03 <
3 10 11 0 19.79 174.38 314.04 <
3 -10 11 0 20.30 422.49 414.20 <
3 -10 11 1 52.85 -110.57 228.65 <
4 -10 11 -2 27.15 17.00 125.03 <
-3 11 11 -2 91.84 179.32 260.87 <
-3 -11 11 -2 93.09 33.44 122.60 <
-3 11 11 -1 25.09 -212.17 311.20 <
-3 -11 11 -1 23.11 350.55 274.87 <
-3 11 11 0 212.82 72.53 122.83 <
-3 -11 11 0 227.35 452.16 384.77 <
-3 11 11 1 68.32 444.57 381.79 <
-3 -11 11 1 60.31 -17.05 144.05 <
-3 11 11 2 26.16 226.99 225.56 <
-3 -11 11 2 30.06 43.15 205.40 <
-2 11 11 -2 835.42 119.35 174.06 <
-2 -11 11 -2 858.58 470.62 175.16 <
-2 11 11 -1 90.66 417.44 394.03 <
-2 -11 11 -1 90.94 170.64 149.82 <
-2 11 11 0 685.56 618.39 356.80 <
-2 -11 11 0 689.54 779.27 270.50 <
-2 11 11 1 129.59 828.49 443.38 <
-2 -11 11 1 132.45 241.91 229.25 <
-2 11 11 2 294.03 29.35 171.01 <
-2 -11 11 2 297.17 -124.83 188.80 <
-1 11 11 -2 127.49 89.37 214.25 <
-1 -11 11 -2 127.85 99.05 116.85 <
-1 -11 11 -1 14.03 -72.26 94.35 <
-1 -11 11 0 262.08 199.10 137.77 <
-1 11 11 1 289.54 459.05 366.87 <
-1 -11 11 1 291.83 -39.91 92.22 <
-1 11 11 2 24.16 186.32 165.95 <
-1 -11 11 2 28.77 266.41 247.23 <
0 11 11 -2 188.02 4.33 175.38 <
0 -11 11 -2 197.18 211.99 236.41 <
0 11 11 -1 25.40 10.37 92.35 <
0 -11 11 -1 26.20 87.61 196.14 <
0 11 11 0 2495.07 2575.99 639.59 o
0 -11 11 0 2519.92 2401.53 659.24 o
0 11 11 1 35.94 192.12 222.26 <
0 -11 11 1 43.57 -118.86 104.53 <
0 11 11 2 325.61 -72.70 164.70 <
0 -11 11 2 332.56 139.49 170.18 <
1 11 11 -2 12.05 86.33 259.78 <
1 -11 11 -2 13.20 183.92 177.51 <
1 11 11 -1 0.88 248.01 224.41 <
1 -11 11 -1 1.10 20.22 90.44 <
1 11 11 0 185.51 136.21 199.60 <
1 -11 11 0 193.75 -98.24 199.69 <
1 11 11 1 1857.35 1327.19 467.86 <
1 -11 11 1 1881.33 1367.29 530.53 <
1 11 11 2 81.68 178.79 320.65 <
1 -11 11 2 84.35 -359.13 325.46 <
2 11 11 -2 105.30 -75.11 128.05 <
2 -11 11 -2 112.61 167.43 278.02 <
2 11 11 -1 45.16 194.97 228.30 <
2 -11 11 -1 37.57 355.85 253.76 <
2 11 11 0 374.31 681.46 398.42 <
2 -11 11 0 386.72 318.20 129.86 <
2 11 11 1 40.31 550.34 370.63 <
2 -11 11 1 41.67 -424.98 357.26 <
2 11 11 2 77.59 347.42 145.77 <
2 -11 11 2 84.18 1501.99 584.65 <
3 11 11 -2 30.70 426.75 356.91 <
3 -11 11 -2 33.43 484.16 398.68 <
3 11 11 -1 13.68 142.66 221.43 <
3 -11 11 -1 11.72 -231.39 146.81 <
3 11 11 0 220.49 9.43 132.38 <
3 -11 11 0 227.84 188.84 259.84 <
4 -11 11 -2 16.27 210.12 344.22 <
-3 12 11 -2 22.90 90.61 340.89 <
-3 -12 11 -2 20.19 66.90 367.50 <
-3 12 11 -1 207.68 57.92 199.99 <
-3 -12 11 -1 206.61 812.94 458.66 <
-3 12 11 0 127.59 -67.20 208.99 <
-3 -12 11 0 124.01 362.09 337.57 <
-3 12 11 1 7.00 -103.25 248.17 <
-3 -12 11 1 7.24 1012.05 513.95 <
-3 12 11 2 53.71 -25.63 109.40 <
-3 -12 11 2 51.45 29.11 197.10 <
-2 12 11 -2 38.18 -165.93 125.38 <
-2 -12 11 -2 36.43 244.73 146.08 <
-2 12 11 -1 233.62 71.55 221.91 <
-2 -12 11 -1 235.17 131.03 138.77 <
-2 -12 11 0 7.97 71.76 99.49 <
-2 12 11 1 21.18 508.49 323.37 <
-2 -12 11 1 22.69 85.77 145.31 <
-2 12 11 2 124.51 -68.59 221.47 <
-2 -12 11 2 123.54 269.95 266.08 <
-1 12 11 -2 81.62 34.59 122.97 <
-1 -12 11 -2 74.63 184.18 142.32 <
-1 12 11 -1 349.82 206.75 205.41 <
-1 -12 11 -1 340.79 335.26 143.60 <
-1 12 11 0 177.29 -209.71 141.10 <
-1 -12 11 0 173.77 132.94 125.49 <
-1 12 11 1 14.56 701.61 432.42 <
-1 -12 11 1 13.85 358.28 253.74 <
-1 12 11 2 98.39 572.04 415.38 <
-1 -12 11 2 93.69 373.76 308.80 <
0 12 11 -2 108.14 343.26 316.39 <
0 -12 11 -2 113.45 140.09 165.42 <
0 12 11 -1 323.76 271.04 253.04 <
0 -12 11 -1 321.49 83.35 161.84 <
0 12 11 0 209.93 412.76 309.26 <
0 -12 11 0 209.53 74.61 318.43 <
0 12 11 1 7.58 79.20 217.21 <
0 -12 11 1 10.33 310.50 307.50 <
0 12 11 2 128.07 -126.31 187.99 <
0 -12 11 2 131.80 226.93 273.04 <
1 12 11 -2 303.91 165.36 210.80 <
1 -12 11 -2 296.45 -270.56 297.87 <
1 12 11 -1 154.62 588.86 355.07 <
1 -12 11 -1 151.29 272.37 247.12 <
1 12 11 0 136.92 420.24 352.07 <
1 -12 11 0 147.48 119.83 166.19 <
1 12 11 1 418.86 1607.39 629.52 <
1 -12 11 1 455.31 816.01 428.92 <
1 12 11 2 123.63 28.70 200.17 <
1 -12 11 2 123.92 250.10 342.35 <
2 12 11 -2 129.96 265.89 221.99 <
2 -12 11 -2 137.21 -10.91 123.12 <
2 12 11 -1 66.48 908.34 434.27 <
2 -12 11 -1 70.53 298.82 248.91 <
2 12 11 0 50.11 -12.74 128.12 <
2 -12 11 0 47.83 664.74 431.66 <
2 12 11 1 218.00 204.25 315.76 <
2 -12 11 1 212.32 118.22 258.73 <
2 12 11 2 95.34 299.30 363.02 <
2 -12 11 2 105.62 773.42 517.43 <
3 12 11 -2 197.55 852.19 482.33 <
3 -12 11 -2 194.62 -448.09 335.61 <
3 12 11 -1 13.25 116.70 263.08 <
3 -12 11 -1 10.99 592.86 430.66 <
3 12 11 0 277.77 1440.83 581.32 <
3 -12 11 0 274.56 364.61 252.13 <
-3 13 11 -2 119.09 385.74 257.28 <
-3 13 11 -1 242.27 -86.61 335.76 <
-3 13 11 0 1084.87 1418.27 511.32 <
-3 -13 11 0 1089.02 1949.98 627.58 o
-3 13 11 1 95.28 21.70 345.31 <
-3 -13 11 1 95.36 912.47 428.64 <
-3 13 11 2 232.97 -26.85 204.62 <
-3 -13 11 2 228.19 220.28 324.61 <
-2 13 11 -2 32.68 23.87 179.19 <
-2 -13 11 -2 32.49 -48.90 114.53 <
-2 13 11 -1 50.32 603.35 355.42 <
-2 -13 11 -1 51.51 18.41 213.15 <
-2 13 11 0 78.61 236.95 298.15 <
-2 -13 11 0 77.66 -16.52 112.61 <
-2 13 11 1 157.88 527.19 358.54 <
-2 -13 11 1 148.21 0.43 163.99 <
-2 13 11 2 59.14 400.98 374.04 <
-2 -13 11 2 64.97 -110.22 120.60 <
-1 13 11 -2 217.41 461.85 322.33 <
-1 -13 11 -2 212.48 212.64 133.25 <
-1 13 11 -1 12.14 489.97 347.91 <
-1 -13 11 -1 9.97 -32.68 150.49 <
-1 13 11 0 1507.69 1686.42 555.86 o
-1 -13 11 0 1512.79 668.59 372.24 <
-1 13 11 1 126.29 839.95 411.03 <
-1 -13 11 1 125.06 -204.77 221.90 <
-1 13 11 2 221.17 225.75 311.41 <
-1 -13 11 2 219.10 -317.52 308.80 <
0 13 11 -2 15.59 26.31 102.59 <
0 -13 11 -2 14.77 15.96 162.23 <
0 13 11 -1 24.45 -502.53 314.87 <
0 -13 11 -1 26.43 237.69 310.39 <
0 13 11 0 52.60 147.03 170.97 <
0 -13 11 0 51.43 48.72 137.73 <
0 13 11 1 175.13 628.91 336.50 <
0 -13 11 1 177.23 122.36 246.86 <
0 13 11 2 34.79 102.81 212.21 <
0 -13 11 2 35.67 264.08 278.28 <
1 13 11 -2 134.06 524.67 363.76 <
1 -13 11 -2 145.96 86.03 155.42 <
1 13 11 -1 31.09 286.73 325.69 <
1 -13 11 -1 31.67 -203.40 229.21 <
1 13 11 0 1573.87 2357.35 662.26 o
1 -13 11 0 1578.08 1352.52 516.12 <
1 13 11 1 143.72 43.72 122.23 <
1 -13 11 1 116.17 -201.47 292.13 <
1 13 11 2 164.46 -65.87 185.99 <
1 -13 11 2 165.26 -22.89 198.32 <
2 13 11 -2 35.80 332.68 383.00 <
2 -13 11 -2 34.84 99.01 193.62 <
2 13 11 -1 16.47 211.14 433.88 <
2 -13 11 -1 16.17 471.77 417.03 <
2 13 11 0 43.67 110.96 264.76 <
2 -13 11 0 40.00 -318.09 202.17 <
2 13 11 1 84.80 349.00 354.26 <
2 -13 11 1 89.77 227.32 173.18 <
2 13 11 2 18.81 70.01 163.68 <
2 -13 11 2 16.01 70.55 329.33 <
3 13 11 -2 56.16 336.20 312.80 <
3 -13 11 -2 61.65 46.46 233.67 <
3 13 11 -1 1.28 135.31 258.21 <
3 -13 11 -1 1.39 169.30 279.73 <
3 13 11 0 728.56 1041.59 490.45 <
3 -13 11 0 727.70 1005.30 593.13 <
3 13 11 1 57.36 463.57 316.54 <
-3 14 11 -2 17.31 -372.16 292.61 <
-3 14 11 -1 537.33 918.86 432.99 <
-2 14 11 -2 143.87 10.20 223.19 <
-2 -14 11 -2 126.23 -114.94 147.29 <
-2 14 11 -1 136.32 586.23 405.53 <
-2 -14 11 -1 121.63 183.90 191.01 <
-2 14 11 0 60.59 198.97 202.01 <
-2 -14 11 0 58.03 0.00 169.88 <
-2 14 11 1 173.35 451.36 321.32 <
-2 -14 11 1 180.57 718.05 448.35 <
-2 14 11 2 55.96 261.65 272.56 <
-2 -14 11 2 61.73 -239.89 225.14 <
-1 14 11 -2 30.50 315.02 283.54 <
-1 -14 11 -2 23.78 89.85 107.88 <
-1 14 11 -1 340.88 818.49 424.05 <
-1 -14 11 -1 438.80 452.60 244.97 <
-1 14 11 0 1039.97 1418.27 562.01 <
-1 -14 11 0 1022.92 1115.49 321.98 o
-1 14 11 1 499.02 1131.70 483.40 <
-1 -14 11 1 502.09 511.34 268.08 <
-1 14 11 2 44.81 460.03 182.36 <
-1 -14 11 2 48.07 -20.83 127.58 <
0 14 11 -2 237.92 231.45 333.00 <
0 -14 11 -2 238.36 93.49 140.79 <
0 14 11 -1 186.47 -85.85 276.10 <
0 -14 11 -1 164.39 62.31 176.73 <
0 14 11 0 159.06 77.98 251.26 <
0 -14 11 0 152.57 108.96 306.87 <
0 14 11 1 261.29 -494.75 193.93 <
0 -14 11 1 265.88 434.99 306.15 <
0 14 11 2 144.22 391.35 361.48 <
0 -14 11 2 157.61 308.02 303.00 <
1 14 11 -2 83.08 515.10 322.95 <
1 -14 11 -2 83.47 189.36 199.86 <
1 14 11 -1 590.39 1101.40 475.68 <
1 -14 11 -1 562.28 712.20 419.36 <
1 14 11 0 499.89 521.99 357.33 <
1 -14 11 0 493.77 899.73 432.31 <
1 14 11 1 62.19 336.39 363.48 <
1 -14 11 1 101.04 347.35 298.91 <
1 14 11 2 24.55 648.95 368.63 <
1 -14 11 2 29.03 220.86 296.15 <
2 14 11 -2 138.42 684.05 433.53 <
2 -14 11 -2 143.48 112.57 169.21 <
2 14 11 -1 67.16 630.93 474.40 <
2 -14 11 -1 65.46 230.32 167.10 <
2 14 11 0 15.27 453.60 390.85 <
2 -14 11 0 18.22 46.85 157.73 <
2 14 11 1 206.56 502.68 457.73 <
2 -14 11 1 195.27 883.12 476.08 <
2 14 11 2 295.74 434.53 271.98 <
3 14 11 -2 82.21 219.23 363.83 <
3 -14 11 -2 85.07 495.82 432.92 <
3 14 11 -1 129.05 1119.10 533.38 <
3 -14 11 -1 127.93 200.58 193.95 <
3 14 11 0 295.23 -369.24 386.64 <
-2 15 11 -2 74.36 464.51 306.70 <
-2 -15 11 -2 75.06 -112.55 248.91 <
-2 15 11 -1 627.38 455.21 382.29 <
-2 -15 11 -1 618.74 95.14 210.45 <
-2 15 11 0 124.54 530.41 369.96 <
-2 -15 11 0 121.18 24.65 157.73 <
-2 15 11 1 50.69 415.85 324.39 <
-2 -15 11 1 50.82 -30.81 234.23 <
-2 15 11 2 105.52 -39.83 302.93 <
-2 -15 11 2 109.59 279.32 279.84 <
-1 15 11 -2 267.38 887.80 501.62 <
-1 -15 11 -2 249.90 -43.70 279.97 <
-1 -15 11 -1 249.81 -181.75 141.21 <
-1 15 11 0 832.59 989.18 428.94 <
-1 -15 11 0 841.44 974.82 319.46 o
-1 15 11 1 24.54 288.74 232.75 <
-1 -15 11 1 25.45 264.82 221.17 <
-1 15 11 2 251.53 24.55 343.33 <
-1 -15 11 2 244.32 -13.35 137.96 <
0 15 11 -2 172.34 525.28 362.78 <
0 -15 11 -2 174.83 264.61 150.27 <
0 15 11 -1 862.08 981.04 449.33 <
0 -15 11 -1 850.94 614.26 213.99 <
0 15 11 0 474.50 344.59 425.99 <
0 -15 11 0 477.51 593.28 275.52 <
0 15 11 1 59.08 333.61 237.52 <
0 -15 11 1 52.31 600.56 305.17 <
0 15 11 2 115.26 242.43 270.98 <
0 -15 11 2 128.51 -79.37 95.77 <
1 15 11 -2 307.72 110.99 332.52 <
1 -15 11 -2 314.87 306.80 195.34 <
1 15 11 -1 22.73 280.21 353.04 <
1 -15 11 -1 24.75 192.95 198.21 <
1 15 11 0 666.54 400.72 333.74 <
1 -15 11 0 680.83 447.05 349.35 <
1 15 11 1 37.45 862.47 472.66 <
1 -15 11 1 41.42 -207.40 191.66 <
1 15 11 2 212.11 -165.71 235.45 <
1 -15 11 2 203.19 -284.43 270.69 <
2 15 11 -2 125.95 216.43 351.98 <
2 -15 11 -2 123.81 345.46 185.77 <
2 15 11 -1 376.29 -269.78 193.25 <
2 -15 11 -1 375.36 -20.02 286.02 <
2 15 11 0 108.80 -38.00 272.19 <
2 -15 11 0 108.13 572.39 475.92 <
2 15 11 1 62.14 469.68 437.59 <
2 -15 11 1 55.65 611.78 437.44 <
3 -15 11 -2 152.95 79.03 135.53 <
3 15 11 -1 1.63 0.98 424.79 <
3 -15 11 -1 1.63 358.52 250.56 <
-2 16 11 -2 171.41 -37.39 172.77 <
-2 -16 11 -2 150.69 389.89 170.99 <
-2 16 11 -1 15.73 88.44 225.30 <
-2 -16 11 -1 15.06 -185.06 212.41 <
-2 16 11 0 379.37 406.62 299.80 <
-2 -16 11 0 360.85 -113.33 191.10 <
-2 16 11 1 183.65 618.41 399.14 <
-2 -16 11 1 193.90 218.80 328.26 <
-2 -16 11 2 138.19 188.88 250.39 <
-1 16 11 -2 37.84 300.39 320.24 <
-1 -16 11 -2 34.90 183.27 187.80 <
-1 16 11 -1 223.67 848.88 449.49 <
-1 -16 11 -1 240.01 160.14 308.89 <
-1 16 11 0 7.53 384.24 335.05 <
-1 -16 11 0 8.54 248.86 256.13 <
-1 16 11 1 40.32 241.51 366.44 <
-1 -16 11 1 35.47 -179.08 124.36 <
-1 -16 11 2 31.12 172.82 225.51 <
0 16 11 -2 79.16 505.25 337.96 <
0 -16 11 -2 77.72 177.12 149.44 <
0 16 11 -1 10.01 221.76 267.30 <
0 -16 11 -1 10.73 68.22 126.88 <
0 16 11 0 199.80 281.39 302.95 <
0 -16 11 0 222.74 383.29 276.84 <
0 16 11 1 119.37 -561.88 252.24 <
0 -16 11 1 118.79 86.88 234.84 <
0 16 11 2 151.24 -95.92 194.56 <
0 -16 11 2 155.17 263.32 217.45 <
1 16 11 -2 131.30 189.68 216.65 <
1 -16 11 -2 130.45 383.48 189.45 <
1 -16 11 -1 105.13 89.70 143.60 <
1 16 11 0 11.52 524.91 529.62 <
1 -16 11 0 10.51 75.07 252.71 <
1 16 11 1 65.07 179.55 162.20 <
1 -16 11 1 55.72 569.02 290.28 <
1 -16 11 2 69.20 -131.12 193.14 <
2 16 11 -2 89.12 333.17 397.37 <
2 -16 11 -2 84.25 409.37 214.23 <
2 16 11 -1 50.95 -19.59 321.20 <
2 -16 11 -1 49.40 -85.85 245.84 <
2 16 11 0 156.35 601.65 251.23 <
2 -16 11 0 148.10 640.32 320.35 <
3 16 11 -2 91.68 279.73 366.04 <
3 -16 11 -2 92.12 164.55 214.15 <
-2 17 11 -2 19.08 -51.81 189.62 <
-2 -17 11 -2 6.15 -161.12 185.54 <
-2 -17 11 -1 249.93 -362.11 364.83 <
-2 -17 11 0 82.61 -272.82 318.48 <
-2 -17 11 1 89.41 -293.26 225.17 <
-1 17 11 -2 155.90 338.39 273.17 <
-1 -17 11 -2 158.10 148.73 227.36 <
-1 17 11 -1 248.27 733.90 449.60 <
-1 -17 11 -1 251.89 1078.27 305.24 o
-1 17 11 0 173.05 794.64 460.14 <
-1 -17 11 0 176.63 -175.64 230.43 <
-1 17 11 1 102.74 -198.41 265.60 <
-1 -17 11 1 101.45 -17.26 122.62 <
0 17 11 -2 474.45 676.15 373.11 <
0 -17 11 -2 476.00 645.30 235.76 <
0 17 11 -1 414.96 646.65 408.24 <
0 -17 11 -1 390.80 339.28 244.02 <
0 17 11 0 975.77 1834.12 629.37 <
0 -17 11 0 1003.95 944.15 316.78 <
0 17 11 1 116.07 452.23 398.81 <
0 -17 11 1 114.88 339.94 255.56 <
1 17 11 -2 117.05 338.85 307.32 <
1 -17 11 -2 120.99 78.64 131.16 <
1 17 11 -1 202.96 352.54 371.78 <
1 -17 11 -1 208.05 74.79 153.05 <
1 17 11 0 297.54 1255.00 581.36 <
1 -17 11 0 303.26 505.14 229.47 <
1 -17 11 1 98.18 -171.08 256.95 <
1 -17 11 2 221.35 99.25 292.50 <
2 -17 11 -2 298.16 327.65 179.36 <
2 -17 11 -1 157.32 -138.47 153.16 <
2 -17 11 0 41.00 246.12 385.29 <
3 -17 11 -2 34.51 326.43 358.26 <
-1 18 11 -2 40.36 113.47 247.54 <
-1 -18 11 -2 40.53 352.31 180.93 <
-1 18 11 -1 361.14 290.54 257.50 <
-1 -18 11 -1 358.04 51.94 167.14 <
-1 -18 11 0 75.79 56.33 229.41 <
0 -18 11 -2 61.82 -125.12 130.75 <
0 18 11 -1 43.61 501.01 383.92 <
0 -18 11 -1 47.06 258.17 246.28 <
0 18 11 0 2306.51 2191.73 667.70 o
0 -18 11 0 2335.20 2399.18 488.25 o
1 18 11 -2 8.97 353.57 379.77 <
1 -18 11 -2 9.66 -127.29 131.81 <
1 18 11 -1 86.80 944.13 468.66 <
1 -18 11 -1 83.71 474.92 262.74 <
-1 -19 11 -2 127.55 421.92 348.63 <
-1 -19 11 -1 380.24 10.89 346.44 <
0 19 11 -2 208.20 -74.53 250.08 <
0 -19 11 -2 209.16 -105.83 129.83 <
0 -19 11 -1 212.00 37.41 111.36 <
1 -19 11 -2 198.80 -73.53 121.36 <
-1 -20 11 -2 265.90 153.88 302.93 <
-3 0 12 -2 191.94 591.19 380.74 <
-3 0 12 -1 511.64 696.09 319.65 <
-3 0 12 0 300.44 382.02 277.52 <
-3 0 12 1 101.16 -117.59 205.06 <
-3 0 12 2 352.51 81.37 219.28 <
-2 0 12 -2 1408.40 418.09 222.80 <
-2 0 12 -1 375.64 234.65 378.72 <
-2 0 12 0 1040.70 1951.89 546.47 o
-2 0 12 1 318.32 600.23 373.92 <
-2 0 12 2 239.62 -259.10 280.39 <
-1 0 12 -2 205.30 308.69 228.80 <
-1 0 12 -1 378.89 114.57 149.10 <
-1 0 12 0 420.05 58.79 146.01 <
-1 0 12 1 100.77 232.01 140.75 <
-1 0 12 2 359.99 -39.70 130.88 <
0 0 12 -2 11.49 480.88 229.38 <
0 0 12 -1 839.64 540.62 210.91 <
0 0 12 0 115.44 184.19 151.10 <
0 0 12 1 324.32 168.66 148.66 <
0 0 12 2 208.80 216.30 168.07 <
1 0 12 -2 23.03 59.39 53.87 <
1 0 12 -1 137.44 170.47 151.21 <
1 0 12 0 119.33 169.71 115.68 <
1 0 12 1 10.24 22.17 157.18 <
1 0 12 2 139.09 188.82 325.13 <
2 0 12 -2 4.41 472.64 362.46 <
2 0 12 -1 23.93 456.88 353.15 <
2 0 12 0 1278.83 2055.98 645.46 o
2 0 12 1 379.36 382.72 302.37 <
2 0 12 2 44.93 813.27 409.03 <
3 0 12 -2 39.83 178.05 388.13 <
3 0 12 -1 9.26 663.50 444.70 <
3 0 12 0 62.70 -151.64 231.88 <
3 0 12 1 140.69 467.55 373.13 <
3 0 12 2 19.49 137.55 182.58 <
4 0 12 -2 8.41 567.15 399.53 <
4 0 12 -1 0.89 428.23 385.14 <
-3 1 12 -2 2.71 -28.54 202.69 <
-3 -1 12 -2 3.80 -9.68 167.68 <
-3 1 12 -1 9.99 196.01 129.47 <
-3 -1 12 -1 11.77 -3.50 193.29 <
-3 1 12 0 335.76 669.67 368.28 <
-3 -1 12 0 343.27 25.94 104.36 <
-3 1 12 1 235.96 -44.35 183.18 <
-3 -1 12 1 231.95 440.18 191.60 <
-3 1 12 2 96.90 -20.28 144.16 <
-3 -1 12 2 99.58 34.41 229.21 <
-2 1 12 -2 3.47 -207.69 181.36 <
-2 -1 12 -2 1.22 343.72 294.33 <
-2 1 12 -1 87.21 94.40 264.91 <
-2 -1 12 -1 82.85 412.11 273.10 <
-2 1 12 0 1834.33 2576.63 640.32 o
-2 -1 12 0 1862.30 2025.46 570.34 o
-2 1 12 1 120.43 289.80 256.91 <
-2 -1 12 1 128.87 28.07 185.54 <
-2 1 12 2 224.82 10.22 159.23 <
-2 -1 12 2 226.49 684.26 334.13 <
-1 1 12 -2 67.01 147.75 253.74 <
-1 -1 12 -2 71.72 84.03 152.31 <
-1 1 12 -1 176.18 373.46 170.05 <
-1 -1 12 -1 182.35 393.24 225.04 <
-1 1 12 0 245.34 665.85 253.24 <
-1 -1 12 0 238.98 555.45 224.06 <
-1 1 12 1 524.92 633.84 237.15 <
-1 -1 12 1 517.35 391.53 178.16 <
-1 1 12 2 58.03 100.18 137.88 <
-1 -1 12 2 58.23 239.13 166.58 <
0 1 12 -2 28.44 102.18 154.64 <
0 -1 12 -2 24.08 -137.55 133.94 <
0 1 12 -1 113.58 -61.44 187.90 <
0 -1 12 -1 109.48 357.00 155.62 <
0 1 12 0 423.66 586.67 242.01 <
0 -1 12 0 448.78 626.08 223.45 <
0 1 12 1 6.91 214.41 165.47 <
0 -1 12 1 10.65 46.40 147.68 <
0 1 12 2 197.04 146.86 206.62 <
0 -1 12 2 187.58 171.75 161.92 <
1 1 12 -2 115.88 -54.98 72.20 <
1 -1 12 -2 110.02 175.71 106.38 <
1 1 12 -1 114.52 269.28 141.12 <
1 -1 12 -1 112.33 245.69 150.82 <
1 1 12 0 262.80 251.99 139.73 <
1 -1 12 0 267.25 531.86 351.09 <
1 1 12 1 2582.39 2559.17 666.11 o
1 -1 12 1 2587.55 1720.87 580.10 <
1 1 12 2 225.36 27.85 152.36 <
1 -1 12 2 217.87 176.23 303.19 <
2 1 12 -2 78.13 54.66 113.07 <
2 -1 12 -2 69.37 195.90 319.87 <
2 1 12 -1 157.12 238.13 147.32 <
2 -1 12 -1 145.56 431.79 353.85 <
2 1 12 0 1355.90 1086.87 472.27 <
2 -1 12 0 1338.15 1118.51 499.77 <
2 1 12 1 53.59 755.81 426.51 <
2 -1 12 1 51.38 -153.44 275.30 <
2 1 12 2 59.76 7.50 172.45 <
2 -1 12 2 69.43 -143.77 231.75 <
3 1 12 -2 50.97 258.34 316.00 <
3 -1 12 -2 48.08 -214.78 344.42 <
3 1 12 -1 147.97 334.17 324.17 <
3 -1 12 -1 138.69 966.78 532.53 <
3 1 12 0 223.04 -67.14 192.03 <
3 -1 12 0 223.47 320.78 445.75 <
3 1 12 1 297.67 57.50 240.84 <
3 -1 12 1 296.95 -67.70 193.17 <
3 1 12 2 47.71 374.52 517.19 <
3 -1 12 2 56.85 -723.48 510.25 <
4 1 12 -2 103.38 95.86 139.75 <
4 -1 12 -2 91.73 -129.94 182.88 <
4 1 12 -1 169.24 75.40 155.57 <
4 -1 12 -1 156.46 134.66 336.46 <
-3 2 12 -2 134.27 714.74 346.28 <
-3 -2 12 -2 142.51 -66.29 198.01 <
-3 2 12 -1 1482.88 1798.44 576.06 o
-3 -2 12 -1 1469.01 1780.31 570.32 o
-3 2 12 0 322.84 943.76 446.77 <
-3 -2 12 0 329.10 564.97 311.54 <
-3 2 12 1 26.29 253.43 310.89 <
-3 -2 12 1 27.41 120.97 258.91 <
-3 2 12 2 268.36 619.34 334.96 <
-3 -2 12 2 268.40 -8.39 144.81 <
-2 2 12 -2 441.48 518.62 289.48 <
-2 -2 12 -2 489.08 745.59 334.50 <
-2 2 12 -1 81.30 48.37 218.65 <
-2 -2 12 -1 77.73 279.67 186.23 <
-2 2 12 0 359.76 -113.22 119.60 <
-2 -2 12 0 334.60 379.22 235.34 <
-2 2 12 1 395.62 670.55 357.26 <
-2 -2 12 1 410.92 -40.20 128.62 <
-2 2 12 2 161.65 17.74 100.09 <
-2 -2 12 2 157.58 267.97 253.58 <
-1 2 12 -2 41.05 -132.51 194.19 <
-1 -2 12 -2 54.08 -52.55 60.72 <
-1 2 12 -1 189.51 372.22 289.26 <
-1 -2 12 -1 210.86 154.44 177.93 <
-1 2 12 0 294.64 363.50 163.40 <
-1 -2 12 0 295.98 627.02 231.32 <
-1 2 12 1 256.87 485.31 211.27 <
-1 -2 12 1 246.17 120.88 168.16 <
-1 2 12 2 355.12 210.52 140.68 <
-1 -2 12 2 351.32 385.48 188.41 <
0 2 12 -2 218.42 179.71 154.71 <
0 -2 12 -2 226.35 165.23 158.21 <
0 2 12 -1 70.41 373.61 231.86 <
0 -2 12 -1 69.35 367.98 174.34 <
0 2 12 0 335.21 100.24 133.16 <
0 -2 12 0 365.36 240.38 190.10 <
0 2 12 1 763.01 541.86 218.49 <
0 -2 12 1 784.67 360.02 186.38 <
0 2 12 2 213.86 373.31 192.93 <
0 -2 12 2 204.56 44.78 157.71 <
1 2 12 -2 169.63 355.80 177.49 <
1 -2 12 -2 174.66 188.66 163.32 <
1 2 12 -1 1186.11 1247.10 295.37 o
1 -2 12 -1 1189.10 1030.41 274.63 o
1 2 12 0 381.18 808.38 265.58 o
1 -2 12 0 385.75 613.54 364.02 <
1 2 12 1 109.70 89.44 93.07 <
1 -2 12 1 118.72 363.07 360.67 <
1 2 12 2 114.80 287.65 280.39 <
1 -2 12 2 124.64 515.45 424.25 <
2 2 12 -2 147.43 381.52 203.21 <
2 -2 12 -2 158.68 -133.90 115.46 <
2 2 12 -1 109.63 238.02 286.11 <
2 -2 12 -1 116.94 569.86 356.48 <
2 2 12 0 266.98 -188.82 230.38 <
2 -2 12 0 253.82 98.57 319.41 <
2 2 12 1 688.65 128.07 176.51 <
2 -2 12 1 695.45 375.89 108.96 o
2 2 12 2 159.06 -352.44 272.50 <
2 -2 12 2 136.07 264.93 310.67 <
3 2 12 -2 64.74 503.47 288.89 <
3 -2 12 -2 69.87 384.29 304.06 <
3 2 12 -1 234.23 246.02 287.60 <
3 -2 12 -1 238.90 407.89 480.79 <
3 2 12 0 233.66 65.53 364.13 <
3 -2 12 0 243.95 389.50 410.40 <
3 2 12 1 118.14 652.70 462.99 <
3 -2 12 1 111.68 101.11 406.13 <
3 2 12 2 60.99 142.64 187.68 <
3 -2 12 2 70.59 672.70 525.77 <
4 2 12 -2 100.70 438.81 494.75 <
4 -2 12 -2 105.58 332.11 451.44 <
4 2 12 -1 47.17 -498.73 481.40 <
4 -2 12 -1 53.34 37.39 159.38 <
4 2 12 0 19.17 -63.64 242.39 <
-3 3 12 -2 94.81 -100.05 180.71 <
-3 -3 12 -2 101.48 428.90 339.91 <
-3 3 12 -1 334.89 611.15 387.89 <
-3 -3 12 -1 345.34 473.38 376.87 <
-3 3 12 0 82.90 287.32 178.68 <
-3 -3 12 0 91.13 301.95 273.47 <
-3 3 12 1 4.80 362.67 307.19 <
-3 -3 12 1 4.37 -105.53 237.75 <
-3 3 12 2 94.81 397.24 298.50 <
-3 -3 12 2 98.53 -64.70 132.62 <
-2 3 12 -2 263.36 131.83 156.58 <
-2 -3 12 -2 248.80 118.85 345.31 <
-2 3 12 -1 1221.11 1454.53 508.36 <
-2 -3 12 -1 1199.20 1470.05 468.18 o
-2 3 12 0 211.56 375.55 282.71 <
-2 -3 12 0 181.17 264.86 255.99 <
-2 3 12 1 49.34 354.57 389.00 <
-2 -3 12 1 42.29 -102.22 286.19 <
-2 3 12 2 128.46 -151.81 180.19 <
-2 -3 12 2 123.82 365.22 233.91 <
-1 3 12 -2 382.48 -138.23 136.60 <
-1 -3 12 -2 378.26 11.59 144.09 <
-1 3 12 -1 217.43 142.94 205.51 <
-1 -3 12 -1 228.82 654.19 224.80 <
-1 3 12 0 362.26 157.84 142.10 <
-1 -3 12 0 365.93 15.98 163.82 <
-1 3 12 1 5.86 190.14 154.95 <
-1 -3 12 1 7.57 177.34 192.06 <
-1 3 12 2 147.56 -184.43 193.43 <
-1 -3 12 2 154.58 136.83 150.86 <
0 3 12 -2 89.43 140.21 143.81 <
0 -3 12 -2 86.23 79.70 148.75 <
0 3 12 -1 1168.39 799.12 248.49 o
0 -3 12 -1 1156.69 1163.25 289.67 o
0 3 12 0 1371.28 957.48 262.73 o
0 -3 12 0 1393.66 1387.16 314.82 o
0 3 12 1 25.39 31.07 97.11 <
0 -3 12 1 21.65 -15.26 95.51 <
0 3 12 2 211.39 447.59 196.29 <
0 -3 12 2 199.96 666.39 374.39 <
1 3 12 -2 417.46 193.58 135.94 <
1 -3 12 -2 438.64 87.55 66.72 <
1 3 12 -1 270.93 361.61 175.29 <
1 -3 12 -1 275.46 -33.46 117.44 <
1 3 12 0 518.99 194.88 159.97 <
1 -3 12 0 516.82 407.12 318.54 <
1 3 12 1 105.72 60.40 141.71 <
1 -3 12 1 103.68 599.30 413.16 <
1 3 12 2 83.08 215.43 91.09 <
1 -3 12 2 82.60 172.43 112.01 <
2 3 12 -2 130.18 -21.54 138.49 <
2 -3 12 -2 140.95 100.90 107.24 <
2 3 12 -1 367.59 200.14 264.71 <
2 -3 12 -1 375.79 452.40 354.07 <
2 3 12 0 57.10 44.59 141.84 <
2 -3 12 0 57.80 67.66 159.49 <
2 3 12 1 58.56 -222.69 331.18 <
2 -3 12 1 60.69 108.86 266.56 <
2 3 12 2 46.78 433.05 401.76 <
2 -3 12 2 56.42 506.84 369.85 <
3 3 12 -2 221.19 34.57 267.02 <
3 -3 12 -2 229.60 584.61 435.61 <
3 3 12 -1 15.07 310.11 258.87 <
3 -3 12 -1 15.30 691.76 411.18 <
3 3 12 0 86.43 -311.58 294.78 <
3 -3 12 0 94.24 206.67 273.67 <
3 3 12 1 52.76 5.37 181.88 <
3 -3 12 1 43.97 -76.46 247.13 <
3 3 12 2 235.07 98.11 212.93 <
4 3 12 -2 92.47 230.23 351.65 <
4 -3 12 -2 104.48 240.75 301.69 <
4 3 12 -1 92.98 -532.30 373.59 <
4 -3 12 -1 97.16 547.28 422.96 <
4 3 12 0 156.34 -271.60 449.53 <
-3 4 12 -2 25.75 1.59 185.32 <
-3 -4 12 -2 22.81 223.10 244.12 <
-3 4 12 -1 829.08 672.85 437.12 <
-3 -4 12 -1 863.56 532.25 284.82 <
-3 4 12 0 1317.48 1209.41 506.17 <
-3 -4 12 0 1321.09 557.71 324.39 <
-3 4 12 1 332.97 125.73 193.88 <
-3 -4 12 1 354.27 -151.49 118.16 <
-3 4 12 2 34.81 571.58 362.35 <
-3 -4 12 2 31.85 431.29 335.07 <
-2 4 12 -2 332.98 397.14 278.34 <
-2 -4 12 -2 320.05 741.09 396.13 <
-2 4 12 -1 140.44 261.69 270.08 <
-2 -4 12 -1 146.49 246.32 225.60 <
-2 4 12 0 79.44 198.64 236.88 <
-2 -4 12 0 86.52 240.02 222.54 <
-2 4 12 1 49.04 174.99 266.04 <
-2 -4 12 1 45.56 -259.56 265.02 <
-2 4 12 2 83.62 782.25 404.35 <
-2 -4 12 2 80.33 36.03 140.59 <
-1 4 12 -2 117.96 242.23 171.38 <
-1 -4 12 -2 113.27 7.74 105.27 <
-1 4 12 -1 796.02 840.32 438.05 <
-1 -4 12 -1 793.78 651.09 252.88 <
-1 4 12 0 2664.21 2803.47 669.68 o
-1 -4 12 0 2704.00 2335.39 442.01 o
-1 4 12 1 480.08 374.31 182.27 <
-1 -4 12 1 505.07 171.12 164.79 <
-1 4 12 2 161.59 223.99 188.10 <
-1 -4 12 2 154.15 118.03 145.29 <
0 4 12 -2 389.02 248.13 136.25 <
0 -4 12 -2 393.77 186.95 144.77 <
0 4 12 -1 446.02 422.42 182.56 <
0 -4 12 -1 457.62 537.03 183.88 <
0 4 12 0 560.19 696.05 222.78 o
0 -4 12 0 617.79 541.69 206.27 <
0 4 12 1 148.95 447.16 181.47 <
0 -4 12 1 164.62 83.44 120.70 <
0 4 12 2 254.01 -179.32 166.21 <
0 -4 12 2 245.99 -14.35 123.59 <
1 4 12 -2 585.07 703.68 213.02 o
1 -4 12 -2 569.30 590.60 215.99 <
1 4 12 -1 1747.46 1357.52 319.11 o
1 -4 12 -1 1746.61 1002.13 402.07 <
1 4 12 0 1896.12 1632.95 340.24 o
1 -4 12 0 1937.99 1914.19 574.25 o
1 4 12 1 57.15 8.26 94.22 <
1 -4 12 1 60.25 224.88 189.06 <
1 4 12 2 233.75 719.61 262.17 <
1 -4 12 2 228.39 160.57 245.13 <
2 4 12 -2 311.83 95.12 134.25 <
2 -4 12 -2 316.24 265.74 260.21 <
2 4 12 -1 87.99 95.31 209.04 <
2 -4 12 -1 89.77 629.98 364.89 <
2 4 12 0 112.33 -266.63 259.84 <
2 -4 12 0 108.42 84.12 182.40 <
2 4 12 1 62.24 -222.06 312.32 <
2 -4 12 1 73.46 -229.51 236.71 <
2 4 12 2 995.27 1325.20 488.51 <
2 -4 12 2 941.69 496.90 309.56 <
3 4 12 -2 557.38 736.40 375.68 <
3 -4 12 -2 542.75 428.51 391.79 <
3 4 12 -1 963.21 1029.61 482.68 <
3 -4 12 -1 964.55 650.74 498.45 <
3 4 12 0 913.89 962.91 472.21 <
3 -4 12 0 908.68 1640.08 672.31 <
3 4 12 1 85.13 -122.86 214.21 <
3 -4 12 1 86.53 -3.57 262.87 <
3 4 12 2 181.54 -110.12 129.92 <
4 4 12 -2 118.24 163.21 242.65 <
4 -4 12 -2 125.24 -51.85 174.30 <
4 4 12 -1 29.19 -421.29 394.64 <
4 -4 12 -1 32.10 491.34 456.05 <
4 4 12 0 132.02 64.26 169.71 <
-3 5 12 -2 156.18 1061.42 468.51 <
-3 -5 12 -2 156.87 87.72 314.28 <
-3 5 12 -1 23.31 -40.63 119.51 <
-3 -5 12 -1 38.11 -232.73 210.65 <
-3 5 12 0 415.98 509.34 284.15 <
-3 -5 12 0 422.54 677.67 381.48 <
-3 5 12 1 62.93 -22.07 118.25 <
-3 -5 12 1 62.11 -315.76 231.62 <
-3 5 12 2 54.01 32.89 137.47 <
-3 -5 12 2 52.06 489.31 338.37 <
-2 5 12 -2 257.57 592.36 278.24 <
-2 -5 12 -2 241.17 440.49 308.13 <
-2 5 12 -1 1322.52 1267.11 479.58 <
-2 -5 12 -1 1281.51 1486.08 496.47 <
-2 5 12 0 461.98 95.64 117.33 <
-2 -5 12 0 462.42 509.64 304.24 <
-2 5 12 1 132.70 -131.57 105.59 <
-2 -5 12 1 125.25 -62.14 98.14 <
-2 5 12 2 277.29 472.20 324.35 <
-2 -5 12 2 269.61 326.35 279.15 <
-1 5 12 -2 439.89 -70.42 87.51 <
-1 -5 12 -2 425.31 112.61 168.68 <
-1 5 12 -1 2156.84 1688.05 519.95 o
-1 -5 12 -1 2140.07 1748.25 384.96 o
-1 5 12 0 681.40 715.29 325.45 <
-1 -5 12 0 649.32 739.50 233.45 o
-1 5 12 1 76.80 79.31 128.46 <
-1 -5 12 1 63.22 153.47 154.08 <
-1 5 12 2 113.28 -32.05 140.47 <
-1 -5 12 2 115.51 352.37 195.23 <
0 5 12 -2 323.57 353.87 171.60 <
0 -5 12 -2 313.65 301.26 130.07 <
0 5 12 -1 1463.69 783.31 257.32 o
0 -5 12 -1 1432.04 616.84 217.84 <
0 5 12 0 81.25 85.77 164.97 <
0 -5 12 0 86.06 15.83 102.68 <
0 5 12 1 245.74 482.40 245.17 <
0 -5 12 1 232.36 223.21 269.23 <
0 5 12 2 341.73 580.99 254.93 <
0 -5 12 2 325.75 490.84 374.07 <
1 5 12 -2 347.03 187.45 114.99 <
1 -5 12 -2 365.97 613.24 386.14 <
1 5 12 -1 76.21 373.02 176.42 <
1 -5 12 -1 76.76 287.13 288.63 <
1 5 12 0 493.95 664.50 243.95 <
1 -5 12 0 471.08 657.63 456.20 <
1 5 12 1 178.18 326.68 252.38 <
1 -5 12 1 162.51 79.24 153.53 <
1 5 12 2 339.20 -12.87 178.23 <
1 -5 12 2 358.38 624.80 409.00 <
2 5 12 -2 150.62 55.74 75.13 <
2 -5 12 -2 158.79 236.52 305.37 <
2 5 12 -1 656.54 285.37 161.86 <
2 -5 12 -1 639.16 761.83 373.05 <
2 5 12 0 356.68 295.19 179.86 <
2 -5 12 0 343.97 -165.51 162.23 <
2 5 12 1 157.64 -25.33 224.95 <
2 -5 12 1 154.45 237.08 286.50 <
2 5 12 2 451.61 554.45 345.63 <
2 -5 12 2 443.47 551.62 470.51 <
3 5 12 -2 185.30 128.97 203.64 <
3 -5 12 -2 196.68 317.45 339.52 <
3 5 12 -1 125.61 864.91 532.19 <
3 -5 12 -1 128.44 318.96 475.64 <
3 5 12 0 432.46 1386.18 577.95 <
3 -5 12 0 447.85 304.56 314.54 <
3 5 12 1 15.97 37.83 215.77 <
3 -5 12 1 10.61 119.16 250.06 <
3 5 12 2 208.33 -3.76 247.74 <
4 5 12 -2 56.73 502.05 264.04 <
4 -5 12 -2 65.16 624.04 446.88 <
4 5 12 -1 174.47 259.41 286.78 <
-3 6 12 -2 80.45 212.02 106.70 <
-3 -6 12 -2 87.91 -278.06 219.10 <
-3 6 12 -1 215.48 -180.36 153.47 <
-3 -6 12 -1 216.87 60.33 244.56 <
-3 6 12 0 101.50 8.76 149.97 <
-3 -6 12 0 104.14 1518.86 543.93 <
-3 6 12 1 8.37 184.79 336.28 <
-3 -6 12 1 8.66 -275.36 178.30 <
-3 6 12 2 139.03 242.62 393.07 <
-3 -6 12 2 140.05 314.35 112.25 <
-2 6 12 -2 123.99 -29.37 125.23 <
-2 -6 12 -2 137.27 -66.40 124.49 <
-2 6 12 -1 5.93 -189.16 161.73 <
-2 -6 12 -1 8.20 350.70 271.91 <
-2 6 12 0 825.57 579.41 363.30 <
-2 -6 12 0 800.22 616.15 288.85 <
-2 6 12 1 614.48 -66.77 105.74 <
-2 -6 12 1 636.53 266.97 182.40 <
-2 6 12 2 121.50 -165.19 284.60 <
-2 -6 12 2 117.22 269.67 240.58 <
-1 6 12 -2 340.00 113.44 168.53 <
-1 -6 12 -2 351.04 219.40 161.88 <
-1 6 12 -1 904.09 821.55 362.46 <
-1 -6 12 -1 976.34 832.29 306.63 <
-1 6 12 0 266.85 476.90 327.22 <
-1 -6 12 0 252.68 381.29 203.34 <
-1 6 12 1 62.60 543.28 300.67 <
-1 -6 12 1 57.33 118.92 188.49 <
-1 6 12 2 196.98 -39.11 136.03 <
-1 -6 12 2 201.76 222.51 173.71 <
0 6 12 -2 192.73 293.21 188.69 <
0 -6 12 -2 187.26 301.98 175.80 <
0 6 12 -1 80.00 -48.20 140.96 <
0 -6 12 -1 79.16 253.36 172.47 <
0 6 12 0 2781.31 2221.65 406.83 o
0 -6 12 0 2875.41 1889.67 568.86 o
0 6 12 1 850.10 522.67 196.10 <
0 -6 12 1 887.60 431.25 280.61 <
0 6 12 2 116.93 276.10 202.38 <
0 -6 12 2 107.32 322.15 230.21 <
1 6 12 -2 142.15 -167.12 140.71 <
1 -6 12 -2 144.94 225.36 90.18 <
1 6 12 -1 39.69 232.32 146.47 <
1 -6 12 -1 43.30 147.68 191.32 <
1 6 12 0 239.59 376.83 181.14 <
1 -6 12 0 237.33 12.98 270.63 <
1 6 12 1 95.98 146.38 140.88 <
1 -6 12 1 109.39 -38.18 144.34 <
1 6 12 2 291.70 173.21 165.07 <
1 -6 12 2 314.87 -67.81 173.42 <
2 6 12 -2 180.80 7.31 118.75 <
2 -6 12 -2 172.18 255.80 323.00 <
2 6 12 -1 95.44 255.32 149.57 <
2 -6 12 -1 94.20 304.30 296.50 <
2 6 12 0 600.73 171.16 172.62 <
2 -6 12 0 562.77 443.90 357.22 <
2 6 12 1 1352.70 899.95 447.72 <
2 -6 12 1 1378.70 1391.76 638.11 <
2 6 12 2 247.92 -394.00 297.22 <
2 -6 12 2 211.56 182.29 292.11 <
3 6 12 -2 79.83 133.70 266.10 <
3 -6 12 -2 75.93 22.37 287.60 <
3 6 12 -1 23.28 -123.05 220.60 <
3 -6 12 -1 21.67 322.43 360.41 <
3 6 12 0 256.83 408.90 284.15 <
3 -6 12 0 278.07 -45.66 253.19 <
3 -6 12 1 155.81 432.90 386.61 <
4 -6 12 -2 58.75 324.74 486.38 <
-3 7 12 -2 32.12 397.77 310.50 <
-3 -7 12 -2 33.36 674.80 383.46 <
-3 7 12 -1 79.10 261.86 308.48 <
-3 -7 12 -1 93.24 983.45 465.70 <
-3 7 12 0 565.36 1470.51 528.91 <
-3 -7 12 0 569.28 820.07 392.74 <
-3 7 12 1 84.18 234.36 303.35 <
-3 -7 12 1 82.84 -187.84 241.76 <
-3 7 12 2 190.27 306.52 246.04 <
-3 -7 12 2 190.41 380.40 293.26 <
-2 7 12 -2 57.39 161.32 224.45 <
-2 -7 12 -2 37.64 266.30 241.80 <
-2 7 12 -1 4.55 313.87 311.78 <
-2 -7 12 -1 2.91 -147.32 159.99 <
-2 7 12 0 505.91 582.38 329.68 <
-2 -7 12 0 497.77 783.64 370.04 <
-2 7 12 1 119.95 -91.11 190.23 <
-2 -7 12 1 112.55 296.37 230.02 <
-2 7 12 2 117.49 -237.76 175.40 <
-2 -7 12 2 115.85 -157.05 178.16 <
-1 7 12 -2 131.29 620.72 331.52 <
-1 -7 12 -2 123.33 187.64 151.10 <
-1 7 12 -1 297.02 520.34 279.45 <
-1 -7 12 -1 299.69 463.46 207.08 <
-1 7 12 0 1592.14 1416.55 487.92 <
-1 -7 12 0 1573.37 1342.46 357.52 o
-1 7 12 1 319.86 1043.79 442.16 <
-1 -7 12 1 299.48 481.49 196.75 <
-1 7 12 2 210.29 -97.98 147.31 <
-1 -7 12 2 211.29 -40.94 135.66 <
0 7 12 -2 276.17 66.85 117.35 <
0 -7 12 -2 275.03 4.59 90.27 <
0 7 12 -1 104.13 109.96 135.64 <
0 -7 12 -1 113.43 66.55 149.03 <
0 7 12 0 3844.86 4900.50 608.04 o
0 -7 12 0 3914.57 4201.08 828.47 o
0 7 12 1 56.24 137.90 128.47 <
0 -7 12 1 56.76 177.40 290.91 <
0 7 12 2 145.94 133.70 136.99 <
0 -7 12 2 149.16 627.34 359.96 <
1 7 12 -2 39.10 -193.80 172.43 <
1 -7 12 -2 34.34 54.20 162.18 <
1 7 12 -1 23.33 125.60 152.71 <
1 -7 12 -1 19.29 -129.10 101.68 <
1 7 12 0 1711.33 1443.07 318.37 o
1 -7 12 0 1696.66 2009.31 599.08 o
1 7 12 1 142.60 -118.33 172.71 <
1 -7 12 1 152.35 -81.25 191.71 <
1 7 12 2 90.79 44.28 92.33 <
1 -7 12 2 86.45 271.34 313.46 <
2 7 12 -2 264.04 177.88 110.90 <
2 -7 12 -2 271.09 544.08 377.90 <
2 7 12 -1 252.28 275.76 123.21 <
2 -7 12 -1 246.90 505.01 340.15 <
2 7 12 0 585.04 615.78 257.54 <
2 -7 12 0 568.75 755.01 491.38 <
2 7 12 1 50.97 -177.90 191.25 <
2 -7 12 1 47.63 136.51 279.48 <
2 -7 12 2 494.80 216.23 206.04 <
3 7 12 -2 7.55 401.39 249.86 <
3 -7 12 -2 6.08 -126.49 155.21 <
3 -7 12 -1 58.16 617.15 443.23 <
3 -7 12 0 879.48 818.40 526.62 <
4 -7 12 -2 186.32 180.97 302.09 <
-3 8 12 -2 188.74 -13.26 97.11 <
-3 -8 12 -2 192.22 214.17 257.58 <
-3 8 12 -1 112.32 459.90 313.54 <
-3 -8 12 -1 103.28 27.39 126.33 <
-3 8 12 0 653.37 186.75 237.62 <
-3 -8 12 0 672.08 505.67 338.85 <
-3 8 12 1 50.77 650.30 487.47 <
-3 -8 12 1 61.13 228.01 243.36 <
-3 8 12 2 230.70 182.38 162.31 <
-3 -8 12 2 226.82 33.02 153.47 <
-2 8 12 -2 749.04 887.95 384.79 <
-2 -8 12 -2 665.79 1122.07 431.94 <
-2 8 12 -1 145.33 -77.03 209.64 <
-2 -8 12 -1 150.49 227.32 228.26 <
-2 8 12 0 185.71 638.54 361.17 <
-2 -8 12 0 179.90 188.25 179.64 <
-2 8 12 1 122.03 181.25 274.19 <
-2 -8 12 1 123.44 -212.14 251.49 <
-2 8 12 2 177.85 -25.85 241.34 <
-2 -8 12 2 176.21 279.28 191.66 <
-1 8 12 -2 222.60 55.42 106.36 <
-1 -8 12 -2 228.52 -168.88 143.16 <
-1 8 12 -1 514.13 529.40 263.41 <
-1 -8 12 -1 547.62 399.42 202.23 <
-1 8 12 0 1615.96 1346.46 519.47 <
-1 -8 12 0 1644.28 1114.14 292.89 o
-1 8 12 1 59.53 897.56 432.73 <
-1 -8 12 1 65.08 179.03 188.43 <
-1 8 12 2 262.78 687.68 315.00 <
-1 -8 12 2 259.45 201.95 254.91 <
0 8 12 -2 67.74 46.29 202.99 <
0 -8 12 -2 64.40 8.87 116.66 <
0 8 12 -1 10.10 -23.22 91.12 <
0 -8 12 -1 6.99 -140.23 243.47 <
0 8 12 0 2346.89 2287.72 434.48 o
0 -8 12 0 2323.28 2291.21 652.19 o
0 8 12 1 290.47 555.53 215.08 <
0 -8 12 1 289.55 69.64 265.36 <
0 8 12 2 89.30 -105.75 163.92 <
0 -8 12 2 90.12 52.85 198.88 <
1 8 12 -2 1.11 18.44 139.73 <
1 -8 12 -2 1.77 26.02 178.86 <
1 8 12 -1 52.11 -21.80 140.31 <
1 -8 12 -1 53.20 38.79 206.15 <
1 8 12 0 1137.35 789.59 216.73 o
1 -8 12 0 1169.88 1330.02 500.69 <
1 8 12 1 192.92 -100.40 148.23 <
1 -8 12 1 207.97 -396.02 394.85 <
1 8 12 2 205.20 -228.25 292.74 <
1 -8 12 2 205.93 333.65 354.28 <
2 8 12 -2 35.43 82.37 164.82 <
2 -8 12 -2 33.16 111.36 242.38 <
2 8 12 -1 86.73 314.41 182.38 <
2 -8 12 -1 85.12 358.89 413.22 <
2 8 12 0 205.95 -128.86 250.13 <
2 -8 12 0 200.96 119.57 390.24 <
2 8 12 1 258.94 40.50 157.31 <
2 -8 12 1 258.91 276.06 292.74 <
2 -8 12 2 48.55 -162.20 247.45 <
3 8 12 -2 19.59 -115.20 139.34 <
3 -8 12 -2 16.59 568.86 409.35 <
3 -8 12 -1 21.66 474.90 509.23 <
3 -8 12 0 326.78 457.33 473.21 <
4 -8 12 -2 49.59 290.17 514.75 <
-3 9 12 -2 63.64 -70.03 187.66 <
-3 -9 12 -2 56.43 303.00 289.48 <
-3 9 12 -1 114.70 12.30 309.39 <
-3 -9 12 -1 115.01 323.58 200.17 <
-3 9 12 0 182.31 490.79 357.74 <
-3 -9 12 0 182.67 238.78 258.36 <
-3 9 12 1 80.19 368.90 391.00 <
-3 -9 12 1 77.52 8.52 144.05 <
-3 9 12 2 41.42 615.26 417.14 <
-3 -9 12 2 44.45 -329.30 307.72 <
-2 9 12 -2 10.96 141.42 259.21 <
-2 -9 12 -2 5.45 48.44 109.38 <
-2 9 12 -1 533.86 225.34 353.41 <
-2 -9 12 -1 492.09 23.61 157.75 <
-2 9 12 0 1074.26 861.69 429.62 <
-2 -9 12 0 1046.42 366.46 205.79 <
-2 9 12 1 254.59 -461.86 396.57 <
-2 -9 12 1 242.21 43.83 187.84 <
-2 9 12 2 74.99 173.69 233.38 <
-2 -9 12 2 68.58 122.86 83.27 <
-1 9 12 -2 127.16 326.54 330.35 <
-1 -9 12 -2 115.84 21.59 144.03 <
-1 9 12 -1 77.74 50.37 285.76 <
-1 -9 12 -1 74.69 0.41 120.99 <
-1 9 12 0 272.76 557.30 376.61 <
-1 -9 12 0 303.35 159.94 169.68 <
-1 9 12 1 614.72 651.89 348.94 <
-1 -9 12 1 607.72 389.46 198.34 <
-1 9 12 2 113.55 166.62 162.71 <
-1 -9 12 2 118.91 -110.47 100.74 <
0 9 12 -2 91.35 180.92 220.67 <
0 -9 12 -2 99.87 170.25 155.44 <
0 9 12 -1 462.05 812.16 402.52 <
0 -9 12 -1 439.79 751.07 356.87 <
0 9 12 0 1064.31 1232.04 335.44 o
0 -9 12 0 1027.47 817.73 408.61 <
0 9 12 1 318.59 529.04 236.10 <
0 -9 12 1 294.29 418.53 296.21 <
0 9 12 2 24.09 -38.78 135.79 <
0 -9 12 2 22.56 -253.34 157.10 <
1 9 12 -2 205.75 109.64 119.90 <
1 -9 12 -2 209.04 -177.64 238.67 <
1 9 12 -1 121.10 134.38 163.95 <
1 -9 12 -1 113.50 -37.78 166.43 <
1 9 12 0 199.85 -55.46 163.34 <
1 -9 12 0 212.34 -51.96 193.58 <
1 9 12 1 86.80 140.23 150.71 <
1 -9 12 1 99.43 78.20 233.13 <
1 9 12 2 82.73 -320.24 328.24 <
1 -9 12 2 91.44 33.59 139.03 <
2 9 12 -2 103.83 93.46 100.70 <
2 -9 12 -2 110.12 -4.76 165.32 <
2 9 12 -1 343.35 545.82 303.93 <
2 -9 12 -1 343.59 301.80 352.72 <
2 9 12 0 660.52 120.29 155.71 <
2 -9 12 0 638.72 486.83 362.89 <
2 9 12 1 163.57 -0.76 171.60 <
2 -9 12 1 158.72 586.10 425.83 <
2 -9 12 2 31.32 -174.38 156.45 <
3 9 12 -2 103.47 47.29 292.61 <
3 -9 12 -2 102.71 557.49 506.97 <
3 -9 12 -1 76.87 -231.26 251.13 <
3 -9 12 0 36.20 491.49 514.36 <
-3 10 12 -2 4.93 326.61 379.90 <
-3 -10 12 -2 5.65 775.75 408.89 <
-3 10 12 -1 253.25 1273.47 506.90 <
-3 -10 12 -1 263.21 -24.22 193.80 <
-3 10 12 0 193.81 323.15 316.43 <
-3 -10 12 0 192.57 865.30 476.75 <
-3 10 12 1 17.10 322.28 335.82 <
-3 -10 12 1 19.39 560.80 454.42 <
-3 10 12 2 51.46 635.52 342.17 <
-3 -10 12 2 52.35 359.46 431.96 <
-2 10 12 -2 881.87 403.33 319.82 <
-2 -10 12 -2 806.93 675.13 360.68 <
-2 10 12 -1 41.48 461.03 323.00 <
-2 -10 12 -1 46.00 -118.07 189.27 <
-2 10 12 0 80.44 312.02 131.03 <
-2 -10 12 0 91.69 -58.35 200.03 <
-2 10 12 1 43.75 797.84 363.98 <
-2 -10 12 1 45.06 267.21 200.58 <
-2 10 12 2 191.20 523.79 363.09 <
-2 -10 12 2 184.68 -217.97 169.80 <
-1 10 12 -2 47.87 309.22 259.37 <
-1 -10 12 -2 52.29 -151.88 133.83 <
-1 10 12 -1 1086.39 1410.33 501.16 <
-1 -10 12 -1 1131.04 917.65 285.47 o
-1 10 12 0 600.84 698.46 368.24 <
-1 -10 12 0 595.87 719.31 246.52 <
-1 10 12 1 14.92 316.22 287.71 <
-1 -10 12 1 15.28 -5.96 143.81 <
-1 10 12 2 100.56 65.29 120.10 <
-1 -10 12 2 103.48 661.28 442.40 <
0 10 12 -2 323.03 96.59 235.91 <
0 -10 12 -2 307.80 180.71 193.40 <
0 10 12 -1 225.91 749.92 390.89 <
0 -10 12 -1 228.36 169.97 245.15 <
0 10 12 0 576.56 833.21 374.00 <
0 -10 12 0 563.26 816.10 417.85 <
0 10 12 1 84.96 577.82 345.57 <
0 -10 12 1 93.70 546.34 382.85 <
0 10 12 2 183.81 275.23 238.76 <
0 -10 12 2 180.42 295.52 173.56 <
1 10 12 -2 18.44 168.30 256.52 <
1 -10 12 -2 17.46 239.95 250.06 <
1 10 12 -1 252.06 -107.29 253.54 <
1 -10 12 -1 258.77 430.23 275.37 <
1 10 12 0 479.71 529.49 272.91 <
1 -10 12 0 466.75 1106.85 457.23 <
1 10 12 1 433.64 254.36 235.51 <
1 -10 12 1 443.32 955.24 528.40 <
1 10 12 2 117.17 143.05 176.27 <
1 -10 12 2 129.61 539.41 289.15 <
2 10 12 -2 274.17 230.80 113.22 <
2 -10 12 -2 260.02 -82.24 154.12 <
2 10 12 -1 102.14 0.39 166.45 <
2 -10 12 -1 102.07 163.77 303.91 <
2 10 12 0 51.82 -173.49 311.30 <
2 -10 12 0 59.05 51.11 165.29 <
2 10 12 1 25.54 -350.20 323.35 <
2 -10 12 1 25.94 346.50 377.18 <
2 -10 12 2 164.87 87.77 163.14 <
3 10 12 -2 3.82 627.21 420.81 <
3 -10 12 -2 1.99 -145.18 319.59 <
3 -10 12 -1 90.05 18.07 215.23 <
-3 11 12 -2 187.35 133.10 315.22 <
-3 -11 12 -2 177.99 11.65 137.29 <
-3 11 12 -1 23.89 360.89 388.26 <
-3 -11 12 -1 20.29 843.82 472.71 <
-3 -11 12 0 121.83 388.64 298.58 <
-3 -11 12 1 48.08 -239.99 175.97 <
-3 -11 12 2 63.31 774.12 407.31 <
-2 11 12 -2 20.92 32.41 148.12 <
-2 -11 12 -2 27.79 54.90 140.84 <
-2 11 12 -1 188.04 770.29 415.77 <
-2 -11 12 -1 192.05 536.90 208.75 <
-2 11 12 0 180.41 -258.73 252.15 <
-2 -11 12 0 181.90 -10.56 211.08 <
-2 11 12 1 71.55 268.98 379.53 <
-2 -11 12 1 69.95 234.97 202.29 <
-2 11 12 2 3.34 -157.64 268.93 <
-2 -11 12 2 3.05 -304.63 226.84 <
-1 11 12 -2 258.02 -101.59 321.13 <
-1 -11 12 -2 258.84 172.47 139.90 <
-1 11 12 -1 514.14 449.64 291.26 <
-1 -11 12 -1 578.30 475.34 198.54 <
-1 11 12 0 210.44 425.79 345.87 <
-1 -11 12 0 204.53 397.68 339.17 <
-1 11 12 1 33.47 53.89 261.00 <
-1 -11 12 1 37.30 -282.54 281.47 <
-1 11 12 2 243.74 463.75 397.22 <
-1 -11 12 2 240.58 124.97 204.75 <
0 11 12 -2 111.93 498.71 278.37 <
0 -11 12 -2 106.30 -49.28 212.64 <
0 11 12 -1 318.00 505.53 274.56 <
0 -11 12 -1 316.63 -20.48 212.21 <
0 11 12 0 1269.18 1537.75 486.66 o
0 -11 12 0 1197.27 1313.11 475.97 <
0 11 12 1 80.11 194.27 243.78 <
0 -11 12 1 79.46 78.77 93.46 <
0 11 12 2 19.32 25.87 190.06 <
0 -11 12 2 17.04 -38.33 125.23 <
1 11 12 -2 147.58 141.20 138.42 <
1 -11 12 -2 153.07 -28.74 172.12 <
1 11 12 -1 61.33 319.56 146.07 <
1 -11 12 -1 60.56 83.88 101.31 <
1 11 12 0 155.07 346.44 185.71 <
1 -11 12 0 161.35 132.53 231.13 <
1 11 12 1 437.99 17.65 188.90 <
1 -11 12 1 434.79 113.07 237.19 <
1 11 12 2 270.08 -418.51 332.26 <
1 -11 12 2 289.48 278.63 294.98 <
2 11 12 -2 164.23 567.86 353.04 <
2 -11 12 -2 157.68 -310.87 322.72 <
2 11 12 -1 217.34 306.80 293.33 <
2 -11 12 -1 205.41 575.39 365.13 <
2 11 12 0 44.09 -420.55 291.91 <
2 -11 12 0 46.28 645.78 416.85 <
2 11 12 1 39.87 301.65 378.31 <
2 -11 12 1 36.08 77.09 210.25 <
2 11 12 2 181.18 -177.19 181.88 <
3 11 12 -2 90.31 509.92 368.31 <
3 -11 12 -2 96.39 1341.61 647.52 <
3 11 12 -1 8.68 320.95 317.35 <
3 -11 12 -1 11.58 -179.82 197.25 <
-3 -12 12 1 238.37 277.21 167.77 <
-3 -12 12 2 25.27 648.28 410.33 <
-2 12 12 -2 117.83 372.76 340.61 <
-2 -12 12 -2 114.19 588.97 356.13 <
-2 12 12 -1 167.46 335.22 216.67 <
-2 -12 12 -1 153.25 -135.10 169.27 <
-2 12 12 0 528.05 402.83 155.36 <
-2 -12 12 0 524.52 289.63 228.82 <
-2 12 12 1 11.12 181.30 381.26 <
-2 -12 12 1 11.72 -24.54 133.20 <
-2 12 12 2 99.13 544.99 434.16 <
-1 -12 12 -2 70.27 56.94 103.27 <
-1 12 12 -1 1291.78 727.02 396.07 <
-1 -12 12 -1 1242.62 1059.39 323.61 o
-1 12 12 0 503.82 520.84 355.33 <
-1 -12 12 0 490.47 582.13 368.57 <
-1 12 12 1 125.57 191.32 340.13 <
-1 -12 12 1 126.67 298.69 213.43 <
-1 12 12 2 52.30 656.06 339.85 <
-1 -12 12 2 50.77 -6.56 316.69 <
0 12 12 -2 417.29 -154.88 116.31 <
0 -12 12 -2 416.67 86.79 363.63 <
0 12 12 -1 130.71 -35.61 266.36 <
0 -12 12 -1 130.85 143.46 297.95 <
0 12 12 0 588.43 361.61 239.95 <
0 -12 12 0 596.08 161.25 205.25 <
0 12 12 1 7.67 2.93 200.60 <
0 -12 12 1 7.57 341.28 318.70 <
0 12 12 2 147.64 -252.10 148.62 <
0 -12 12 2 147.75 -149.16 344.55 <
1 12 12 -2 26.05 166.53 182.95 <
1 -12 12 -2 25.85 498.21 324.22 <
1 12 12 -1 321.81 -174.14 151.64 <
1 -12 12 -1 311.77 -118.85 266.52 <
1 12 12 0 439.58 172.62 182.90 <
1 -12 12 0 430.98 90.01 96.99 <
1 12 12 1 281.27 384.22 254.12 <
1 -12 12 1 272.95 1121.70 534.60 <
1 12 12 2 139.83 -95.48 180.36 <
1 -12 12 2 136.39 725.70 456.31 <
2 12 12 -2 339.17 -74.92 124.79 <
2 -12 12 -2 333.94 -44.66 222.01 <
2 12 12 -1 145.85 754.62 367.87 <
2 -12 12 -1 135.96 71.94 280.48 <
2 12 12 0 796.75 1265.21 530.30 <
2 -12 12 0 800.73 1400.29 544.67 <
2 12 12 1 10.12 297.54 147.18 <
2 -12 12 1 10.99 -10.48 181.19 <
2 12 12 2 144.56 210.30 242.63 <
3 12 12 -2 46.28 567.71 336.74 <
3 -12 12 -2 41.50 389.52 357.20 <
3 12 12 -1 244.99 642.46 316.11 <
3 -12 12 -1 241.63 321.19 280.34 <
-2 13 12 -2 0.14 145.55 328.56 <
-2 -13 12 -2 0.10 8.39 131.68 <
-2 13 12 -1 407.21 73.90 135.73 <
-2 -13 12 -1 407.90 283.13 234.12 <
-2 13 12 0 476.88 27.74 141.99 <
-2 -13 12 0 463.86 334.85 222.95 <
-2 13 12 1 149.73 -162.36 206.47 <
-2 -13 12 1 149.61 341.85 215.27 <
-2 13 12 2 335.14 314.63 283.60 <
-2 -13 12 2 336.67 560.88 314.52 <
-1 13 12 -2 171.92 957.97 421.88 <
-1 -13 12 -2 187.01 246.45 150.58 <
-1 13 12 -1 50.32 184.64 216.28 <
-1 -13 12 -1 48.81 -56.96 98.20 <
-1 13 12 0 749.33 822.03 473.99 <
-1 -13 12 0 747.21 973.96 396.33 <
-1 13 12 1 183.13 240.28 363.98 <
-1 -13 12 1 175.43 -34.46 293.85 <
-1 13 12 2 214.17 646.58 388.53 <
-1 -13 12 2 210.07 -34.87 106.36 <
0 13 12 -2 58.03 -307.09 284.30 <
0 -13 12 -2 58.72 100.68 241.04 <
0 13 12 -1 325.87 88.33 123.92 <
0 -13 12 -1 323.92 -169.80 253.62 <
0 13 12 0 355.64 327.13 190.14 <
0 -13 12 0 352.71 386.35 365.00 <
0 13 12 1 44.67 329.57 310.72 <
0 -13 12 1 46.43 350.11 340.46 <
0 13 12 2 289.69 -361.11 381.98 <
0 -13 12 2 285.01 318.72 240.76 <
1 13 12 -2 75.02 358.98 225.97 <
1 -13 12 -2 75.45 -113.33 105.29 <
1 13 12 -1 201.28 176.40 203.71 <
1 -13 12 -1 194.13 52.29 287.78 <
1 13 12 0 813.10 883.51 477.68 <
1 -13 12 0 816.63 925.93 499.16 <
1 13 12 1 250.35 79.72 120.35 <
1 -13 12 1 223.93 -39.68 262.65 <
1 13 12 2 115.90 739.46 411.66 <
1 -13 12 2 106.57 -215.90 258.36 <
2 13 12 -2 46.70 957.32 509.82 <
2 -13 12 -2 44.25 138.86 254.78 <
2 13 12 -1 219.83 505.03 420.77 <
2 -13 12 -1 220.81 -18.78 187.71 <
2 13 12 0 354.44 533.66 415.83 <
2 -13 12 0 336.48 286.06 312.08 <
2 13 12 1 24.22 -181.08 232.51 <
3 13 12 -2 27.48 -279.82 169.58 <
3 -13 12 -2 28.82 113.79 241.89 <
3 13 12 -1 7.12 1048.31 450.49 <
-2 14 12 -2 10.08 -367.22 294.95 <
-2 14 12 -1 27.72 510.99 280.52 <
-2 -14 12 -1 33.90 -460.70 278.13 <
-2 14 12 0 469.53 295.48 326.76 <
-2 -14 12 0 472.24 216.41 211.30 <
-2 -14 12 1 135.70 34.89 125.05 <
-2 -14 12 2 54.19 254.45 322.24 <
-1 14 12 -2 114.43 -189.19 218.60 <
-1 -14 12 -2 114.26 309.09 267.76 <
-1 14 12 -1 241.10 408.98 314.83 <
-1 -14 12 -1 244.28 163.43 188.49 <
-1 14 12 0 52.86 -115.92 176.29 <
-1 -14 12 0 60.36 101.94 217.78 <
-1 14 12 1 91.24 146.18 169.62 <
-1 -14 12 1 90.20 -51.55 164.29 <
-1 14 12 2 55.18 436.70 300.09 <
-1 -14 12 2 55.87 -19.39 172.23 <
0 14 12 -2 0.16 -411.72 309.52 <
0 -14 12 -2 0.21 -14.80 109.85 <
0 14 12 -1 66.86 -124.97 122.92 <
0 -14 12 -1 75.12 276.08 283.43 <
0 14 12 0 273.71 238.21 192.10 <
0 -14 12 0 238.94 35.04 149.27 <
0 14 12 1 500.02 20.76 247.47 <
0 -14 12 1 510.95 -184.32 268.89 <
0 14 12 2 99.16 161.07 147.75 <
0 -14 12 2 101.89 181.45 338.72 <
1 14 12 -2 128.82 -416.25 333.67 <
1 -14 12 -2 131.15 179.42 252.71 <
1 14 12 -1 131.58 172.62 163.84 <
1 -14 12 -1 127.77 398.94 288.24 <
1 14 12 0 53.06 -45.92 187.64 <
1 -14 12 0 59.48 -193.75 205.17 <
1 14 12 1 286.69 -98.86 223.69 <
1 -14 12 1 287.62 766.33 456.68 <
1 14 12 2 53.10 371.55 351.87 <
1 -14 12 2 48.82 463.27 327.48 <
2 14 12 -2 4.09 638.80 465.23 <
2 -14 12 -2 3.94 249.89 332.07 <
2 14 12 -1 20.67 68.77 347.26 <
2 -14 12 -1 23.85 -42.78 170.77 <
2 14 12 0 458.16 255.23 336.63 <
2 -14 12 0 483.24 570.86 419.90 <
3 14 12 -2 80.46 717.05 518.91 <
3 -14 12 -2 84.16 65.87 213.77 <
-2 -15 12 -1 58.78 -121.36 305.13 <
-2 -15 12 0 306.06 277.74 198.82 <
-2 -15 12 1 69.17 1162.53 572.86 <
-1 15 12 -2 122.47 -9.94 141.18 <
-1 -15 12 -2 131.57 11.15 184.51 <
-1 15 12 -1 165.20 566.06 400.89 <
-1 -15 12 -1 174.71 288.67 261.48 <
-1 15 12 0 791.07 1753.75 624.71 <
-1 -15 12 0 812.55 846.06 326.76 <
-1 15 12 1 7.85 463.58 276.02 <
-1 -15 12 1 9.92 -72.13 181.80 <
-1 -15 12 2 155.15 -457.97 439.22 <
0 15 12 -2 158.62 -53.16 177.36 <
0 -15 12 -2 160.58 -76.74 124.25 <
0 15 12 -1 82.31 294.41 357.39 <
0 -15 12 -1 83.59 -85.75 152.12 <
0 15 12 0 232.51 37.65 192.04 <
0 -15 12 0 189.30 360.52 260.32 <
0 15 12 1 17.78 48.94 216.60 <
0 -15 12 1 17.48 37.87 175.29 <
0 -15 12 2 107.72 -55.53 313.41 <
1 15 12 -2 195.97 20.37 272.65 <
1 -15 12 -2 204.13 -119.10 243.76 <
1 15 12 -1 51.63 311.04 364.89 <
1 -15 12 -1 48.30 82.92 218.75 <
1 15 12 0 970.90 1017.55 441.70 <
1 -15 12 0 972.77 1428.05 611.15 <
1 -15 12 1 79.05 -141.14 375.61 <
2 15 12 -2 228.09 410.26 330.65 <
2 -15 12 -2 226.58 -160.51 247.74 <
2 15 12 -1 57.92 578.56 298.89 <
2 -15 12 -1 53.93 188.80 247.91 <
-2 -16 12 -1 124.43 -206.73 112.16 <
-1 16 12 -2 56.85 332.35 227.43 <
-1 -16 12 -2 61.98 138.07 134.83 <
-1 16 12 -1 5.69 -81.25 175.45 <
-1 -16 12 -1 11.99 275.48 198.86 <
-1 -16 12 0 703.00 1306.15 528.08 <
-1 -16 12 2 250.35 -183.90 218.40 <
0 16 12 -2 25.50 -58.42 219.23 <
0 -16 12 -2 28.44 132.44 204.45 <
0 16 12 -1 166.67 -269.87 135.44 <
0 -16 12 -1 154.16 -101.96 162.14 <
0 16 12 0 12.30 -104.66 250.41 <
0 -16 12 0 30.24 198.04 218.19 <
0 -16 12 1 266.92 325.91 360.89 <
0 -16 12 2 153.09 133.84 210.82 <
1 16 12 -2 92.95 290.54 327.82 <
1 -16 12 -2 89.38 303.06 233.45 <
1 -16 12 -1 18.26 185.54 190.88 <
1 -16 12 0 519.85 683.94 438.25 <
1 -16 12 1 56.04 524.17 362.09 <
2 16 12 -2 37.47 405.16 350.72 <
2 -16 12 -2 36.56 557.04 305.20 <
2 -16 12 -1 16.43 753.68 418.27 <
-1 -17 12 -2 244.35 -134.71 285.87 <
0 17 12 -2 219.22 6.48 219.65 <
0 -17 12 -2 205.92 -289.45 233.23 <
0 -17 12 -1 734.39 1057.90 538.64 <
1 17 12 -2 193.40 3.41 190.10 <
1 -17 12 -2 200.14 50.83 161.60 <
1 -17 12 -1 61.24 -708.78 372.24 <
1 -17 12 0 22.92 474.99 394.20 <
2 -17 12 -2 181.79 -406.00 322.89 <
-3 0 13 -2 180.08 -65.14 125.62 <
-3 0 13 -1 713.92 852.51 451.79 <
-3 0 13 0 89.72 252.52 201.30 <
-3 0 13 1 43.09 13.50 223.93 <
-3 0 13 2 336.18 45.78 120.25 <
-2 0 13 -2 387.79 821.68 468.64 <
-2 0 13 -1 51.38 -92.22 152.40 <
-2 0 13 0 21.82 8.93 169.69 <
-2 0 13 1 165.91 -374.09 255.43 <
-2 0 13 2 105.61 463.55 346.35 <
-1 0 13 -2 450.05 970.04 368.68 <
-1 0 13 -1 4453.63 4368.68 593.00 o
-1 0 13 0 913.29 1881.89 406.18 o
-1 0 13 1 0.37 347.44 232.51 <
-1 0 13 2 470.18 583.04 221.01 <
0 0 13 -2 542.46 -102.48 130.14 <
0 0 13 -1 97.63 -44.16 113.64 <
0 0 13 0 34.39 -86.61 155.21 <
0 0 13 1 116.69 259.49 123.75 <
0 0 13 2 160.88 -43.31 101.42 <
1 0 13 -2 58.56 -45.52 104.38 <
1 0 13 -1 809.17 453.49 197.47 <
1 0 13 0 712.88 872.77 404.98 <
1 0 13 1 1409.02 491.40 298.06 <
1 0 13 2 375.18 169.57 231.26 <
2 0 13 -2 516.87 314.11 272.87 <
2 0 13 -1 22.14 177.01 250.73 <
2 0 13 0 121.40 265.15 338.89 <
2 0 13 1 73.73 -84.77 293.33 <
2 0 13 2 166.33 -129.09 124.99 <
3 0 13 -2 3.07 -46.55 119.27 <
3 0 13 -1 456.90 155.68 113.57 <
3 0 13 0 347.51 350.68 371.02 <
4 0 13 -2 193.19 914.73 566.47 <
-3 1 13 -2 200.50 204.36 317.95 <
-3 -1 13 -2 211.14 516.16 313.85 <
-3 1 13 -1 15.97 -108.66 185.79 <
-3 -1 13 -1 12.79 -52.57 152.42 <
-3 1 13 0 652.01 188.62 157.45 <
-3 -1 13 0 669.24 468.73 271.23 <
-3 1 13 1 106.44 -36.87 162.90 <
-3 -1 13 1 106.90 -21.28 244.36 <
-3 1 13 2 113.19 -196.04 146.68 <
-3 -1 13 2 109.82 -2.63 245.99 <
-2 1 13 -2 504.35 710.83 348.00 <
-2 -1 13 -2 496.01 1165.84 489.38 <
-2 1 13 -1 718.42 455.77 298.98 <
-2 -1 13 -1 701.85 238.26 231.45 <
-2 1 13 0 256.21 241.02 194.40 <
-2 -1 13 0 246.40 383.87 348.67 <
-2 1 13 1 5.93 -235.54 273.48 <
-2 -1 13 1 6.86 221.93 295.43 <
-2 1 13 2 291.32 341.85 330.02 <
-2 -1 13 2 293.33 139.83 309.93 <
-1 1 13 -2 288.20 762.86 346.74 <
-1 -1 13 -2 308.32 131.07 191.56 <
-1 1 13 -1 382.30 250.43 137.18 <
-1 -1 13 -1 407.54 538.60 226.71 <
-1 1 13 0 1511.80 984.33 317.46 o
-1 -1 13 0 1529.07 1718.61 395.79 o
-1 1 13 1 306.43 187.69 98.64 <
-1 -1 13 1 298.17 23.92 79.01 <
-1 1 13 2 214.09 86.96 158.60 <
-1 -1 13 2 220.03 61.64 110.62 <
0 1 13 -2 210.63 -171.40 171.71 <
0 -1 13 -2 199.39 267.97 226.12 <
0 1 13 -1 413.65 509.53 238.13 <
0 -1 13 -1 404.64 579.24 219.36 <
0 1 13 0 263.46 56.33 101.81 <
0 -1 13 0 260.70 151.95 122.66 <
0 1 13 1 42.19 127.88 157.34 <
0 -1 13 1 38.29 41.53 92.22 <
0 1 13 2 234.39 381.26 220.51 <
0 -1 13 2 226.73 533.60 384.35 <
1 1 13 -2 229.20 387.07 177.42 <
1 -1 13 -2 243.10 75.20 173.32 <
1 1 13 -1 84.43 109.12 161.62 <
1 -1 13 -1 99.43 161.58 156.90 <
1 1 13 0 1269.48 983.17 414.51 <
1 -1 13 0 1290.49 805.70 399.96 <
1 1 13 1 561.29 480.10 416.37 <
1 -1 13 1 569.78 588.41 342.09 <
1 1 13 2 298.46 65.11 136.42 <
1 -1 13 2 303.55 241.38 200.14 <
2 1 13 -2 245.34 -1.24 162.84 <
2 -1 13 -2 231.39 243.34 260.74 <
2 1 13 -1 471.90 264.28 382.42 <
2 -1 13 -1 449.91 509.08 351.09 <
2 1 13 0 208.29 194.67 252.52 <
2 -1 13 0 211.61 14.63 214.21 <
2 1 13 1 133.51 -202.67 212.75 <
2 -1 13 1 132.39 -530.27 347.20 <
2 1 13 2 272.17 -195.69 343.91 <
2 -1 13 2 255.15 254.43 141.86 <
3 1 13 -2 165.19 -155.68 200.47 <
3 -1 13 -2 173.63 -279.82 155.53 <
3 1 13 -1 146.38 -459.62 370.50 <
3 -1 13 -1 168.71 394.39 440.11 <
3 1 13 0 406.64 125.62 160.31 <
3 -1 13 0 400.75 -162.08 166.55 <
3 1 13 1 346.00 286.50 215.52 <
4 1 13 -2 133.55 1420.62 686.29 <
4 -1 13 -2 128.16 -64.83 132.51 <
-3 2 13 -2 31.34 113.47 156.10 <
-3 -2 13 -2 34.54 492.88 404.27 <
-3 2 13 -1 73.76 167.57 231.10 <
-3 -2 13 -1 68.25 446.44 327.41 <
-3 2 13 0 370.73 -190.77 186.56 <
-3 -2 13 0 377.44 206.34 284.23 <
-3 2 13 1 45.67 204.69 250.34 <
-3 -2 13 1 51.59 374.09 337.13 <
-3 2 13 2 69.39 287.87 240.41 <
-3 -2 13 2 63.96 -68.48 213.40 <
-2 2 13 -2 475.50 1150.97 529.38 <
-2 -2 13 -2 519.96 -110.14 137.66 <
-2 2 13 -1 25.60 779.64 372.59 <
-2 -2 13 -1 25.82 -138.79 203.51 <
-2 2 13 0 216.89 426.92 280.13 <
-2 -2 13 0 206.06 -144.88 99.53 <
-2 2 13 1 18.69 331.48 188.69 <
-2 -2 13 1 19.41 -337.91 163.51 <
-2 2 13 2 37.86 417.72 328.43 <
-2 -2 13 2 38.31 -386.35 259.08 <
-1 2 13 -2 64.06 84.38 250.67 <
-1 -2 13 -2 62.34 124.38 217.38 <
-1 2 13 -1 787.09 695.57 369.15 <
-1 -2 13 -1 794.56 833.49 298.89 <
-1 2 13 0 475.33 195.17 149.68 <
-1 -2 13 0 467.41 138.01 102.83 <
-1 2 13 1 21.02 -65.31 96.98 <
-1 -2 13 1 18.77 526.99 241.10 <
-1 2 13 2 132.17 151.32 140.82 <
-1 -2 13 2 122.12 56.40 158.20 <
0 2 13 -2 296.98 76.22 110.92 <
0 -2 13 -2 298.18 144.34 79.24 <
0 2 13 -1 172.59 -60.44 186.06 <
0 -2 13 -1 167.40 386.14 176.10 <
0 2 13 0 447.89 226.93 158.94 <
0 -2 13 0 494.12 370.61 208.62 <
0 2 13 1 311.87 158.36 138.01 <
0 -2 13 1 315.31 405.20 187.95 <
0 2 13 2 112.17 55.87 84.88 <
0 -2 13 2 109.99 265.98 300.72 <
1 2 13 -2 103.22 173.69 174.56 <
1 -2 13 -2 99.09 112.46 132.18 <
1 2 13 -1 22.41 86.48 144.64 <
1 -2 13 -1 25.90 82.05 162.47 <
1 2 13 0 432.99 303.02 146.86 <
1 -2 13 0 448.19 116.96 237.02 <
1 2 13 1 60.08 -66.16 117.85 <
1 -2 13 1 73.57 58.11 139.51 <
1 2 13 2 142.89 222.26 178.14 <
1 -2 13 2 139.70 228.91 235.76 <
2 2 13 -2 236.67 344.41 373.00 <
2 -2 13 -2 243.45 40.96 297.54 <
2 2 13 -1 15.17 1.74 144.21 <
2 -2 13 -1 17.69 105.12 301.72 <
2 2 13 0 97.45 -92.75 160.64 <
2 -2 13 0 95.10 91.20 222.34 <
2 2 13 1 164.33 -244.06 277.65 <
2 -2 13 1 157.92 484.34 397.05 <
2 2 13 2 178.99 110.97 255.69 <
2 -2 13 2 188.12 162.70 126.16 <
3 2 13 -2 61.07 -101.64 268.93 <
3 -2 13 -2 62.37 65.40 215.93 <
3 2 13 -1 70.40 200.54 190.56 <
3 -2 13 -1 82.49 91.57 353.68 <
3 2 13 0 166.01 -155.05 162.32 <
3 -2 13 0 174.59 -142.90 169.47 <
3 2 13 1 261.81 250.54 320.74 <
4 2 13 -2 101.92 268.58 380.68 <
4 -2 13 -2 102.95 750.99 523.82 <
-3 3 13 -2 98.06 35.61 242.60 <
-3 -3 13 -2 101.64 164.97 179.32 <
-3 3 13 -1 145.61 160.77 105.36 <
-3 -3 13 -1 150.51 187.10 220.17 <
-3 3 13 0 123.67 707.20 365.46 <
-3 -3 13 0 122.85 492.99 351.50 <
-3 3 13 1 195.72 521.06 361.05 <
-3 -3 13 1 194.96 289.89 344.46 <
-3 3 13 2 90.59 408.79 296.67 <
-3 -3 13 2 86.34 -4.80 151.32 <
-2 3 13 -2 230.09 380.76 311.28 <
-2 -3 13 -2 223.54 232.51 255.06 <
-2 3 13 -1 655.30 1672.37 583.88 <
-2 -3 13 -1 683.74 748.83 380.48 <
-2 3 13 0 278.58 446.75 379.76 <
-2 -3 13 0 297.49 49.52 244.99 <
-2 3 13 1 22.51 383.53 328.85 <
-2 -3 13 1 20.68 78.11 107.14 <
-2 3 13 2 275.10 574.43 336.72 <
-2 -3 13 2 289.30 -49.16 265.60 <
-1 3 13 -2 121.07 -37.11 211.71 <
-1 -3 13 -2 124.86 -99.03 135.42 <
-1 3 13 -1 243.40 386.16 308.83 <
-1 -3 13 -1 211.52 119.25 155.77 <
-1 3 13 0 754.03 628.87 293.46 <
-1 -3 13 0 744.82 421.20 231.25 <
-1 3 13 1 493.08 420.09 230.52 <
-1 -3 13 1 513.05 650.95 258.50 <
-1 3 13 2 81.85 216.40 237.30 <
-1 -3 13 2 78.72 -30.09 154.73 <
0 3 13 -2 23.70 -32.89 116.85 <
0 -3 13 -2 21.19 243.54 168.75 <
0 3 13 -1 394.93 456.88 225.40 <
0 -3 13 -1 402.66 444.14 208.95 <
0 3 13 0 2687.91 2617.67 465.03 o
0 -3 13 0 2631.91 2649.06 461.35 o
0 3 13 1 22.73 -142.90 114.99 <
0 -3 13 1 25.17 -90.70 156.51 <
0 3 13 2 112.05 -126.36 143.62 <
0 -3 13 2 112.15 198.25 276.71 <
1 3 13 -2 182.39 168.14 108.03 <
1 -3 13 -2 178.19 508.51 328.07 <
1 3 13 -1 46.13 219.67 172.82 <
1 -3 13 -1 45.31 370.85 317.48 <
1 3 13 0 859.97 589.91 185.51 o
1 -3 13 0 849.91 1354.09 517.23 <
1 3 13 1 762.32 1107.79 435.61 <
1 -3 13 1 773.22 986.85 505.18 <
1 3 13 2 55.08 7.87 127.27 <
1 -3 13 2 51.99 315.24 317.33 <
2 3 13 -2 39.16 231.93 312.74 <
2 -3 13 -2 33.38 71.96 196.80 <
2 3 13 -1 93.70 -111.47 259.78 <
2 -3 13 -1 87.16 -66.18 228.15 <
2 3 13 0 241.31 46.66 122.33 <
2 -3 13 0 261.82 602.26 418.77 <
2 3 13 1 5.93 589.50 376.11 <
2 -3 13 1 6.01 -152.70 268.19 <
2 3 13 2 117.21 -185.93 134.68 <
2 -3 13 2 108.14 378.74 342.22 <
3 3 13 -2 113.60 -344.67 368.46 <
3 -3 13 -2 107.57 442.44 393.40 <
3 3 13 -1 49.27 42.11 180.66 <
3 -3 13 -1 46.61 -126.86 288.24 <
3 3 13 0 165.62 799.62 505.92 <
3 -3 13 0 162.83 286.46 459.81 <
3 3 13 1 556.22 -91.24 320.00 <
4 3 13 -2 64.33 244.30 204.17 <
4 -3 13 -2 63.19 90.81 310.19 <
-3 4 13 -2 39.39 -26.81 105.36 <
-3 -4 13 -2 38.35 253.91 237.73 <
-3 4 13 -1 209.73 -139.34 165.55 <
-3 -4 13 -1 191.49 174.05 180.69 <
-3 4 13 0 62.36 422.55 282.43 <
-3 -4 13 0 64.11 322.80 356.59 <
-3 4 13 1 12.21 -10.80 149.01 <
-3 -4 13 1 11.53 -182.40 259.74 <
-3 4 13 2 78.48 367.90 321.98 <
-3 -4 13 2 77.00 294.37 345.09 <
-2 4 13 -2 70.62 878.19 452.62 <
-2 -4 13 -2 67.22 153.05 132.81 <
-2 4 13 -1 9.85 509.14 362.31 <
-2 -4 13 -1 13.09 194.43 290.04 <
-2 4 13 0 1794.79 1624.45 541.93 <
-2 -4 13 0 1821.57 1872.93 576.25 o
-2 4 13 1 808.68 1024.76 464.01 <
-2 -4 13 1 803.10 177.55 129.33 <
-2 4 13 2 111.04 637.98 396.35 <
-2 -4 13 2 109.88 -179.84 119.88 <
-1 4 13 -2 90.30 58.90 142.88 <
-1 -4 13 -2 80.46 209.97 177.42 <
-1 4 13 -1 112.21 136.09 249.21 <
-1 -4 13 -1 109.46 -91.35 120.23 <
-1 4 13 0 188.15 -6.74 151.97 <
-1 -4 13 0 196.11 86.81 214.45 <
-1 4 13 1 5.68 11.81 108.90 <
-1 -4 13 1 6.23 186.56 176.82 <
-1 4 13 2 93.24 -7.17 232.10 <
-1 -4 13 2 91.83 89.18 144.25 <
0 4 13 -2 33.25 404.66 210.40 <
0 -4 13 -2 38.23 254.34 139.77 <
0 4 13 -1 229.17 456.38 190.82 <
0 -4 13 -1 251.46 -130.73 144.51 <
0 4 13 0 2497.99 2365.50 445.40 o
0 -4 13 0 2454.26 2305.15 415.27 o
0 4 13 1 1384.84 831.55 275.91 o
0 -4 13 1 1359.26 1561.43 539.03 <
0 4 13 2 118.14 82.55 155.45 <
0 -4 13 2 112.51 465.20 362.89 <
1 4 13 -2 4.32 235.65 142.49 <
1 -4 13 -2 5.05 -25.20 132.46 <
1 4 13 -1 28.69 -158.75 115.29 <
1 -4 13 -1 23.06 383.00 360.15 <
1 4 13 0 288.83 150.47 172.40 <
1 -4 13 0 287.21 171.99 241.76 <
1 4 13 1 159.62 125.21 149.10 <
1 -4 13 1 163.67 474.36 363.54 <
1 4 13 2 69.91 13.26 156.70 <
1 -4 13 2 63.42 668.18 377.27 <
2 4 13 -2 79.81 223.84 163.93 <
2 -4 13 -2 85.30 561.45 350.00 <
2 4 13 -1 424.17 240.04 205.80 <
2 -4 13 -1 451.42 309.02 228.02 <
2 4 13 0 1662.88 1934.80 629.59 o
2 -4 13 0 1671.77 1506.71 624.04 <
2 4 13 1 840.55 737.29 425.75 <
2 -4 13 1 821.94 660.63 483.99 <
2 4 13 2 95.11 -335.13 393.81 <
2 -4 13 2 87.42 554.53 464.47 <
3 4 13 -2 0.12 166.97 191.14 <
3 -4 13 -2 0.15 -82.25 140.42 <
3 4 13 -1 15.17 46.11 292.15 <
3 -4 13 -1 13.09 -312.15 289.82 <
3 4 13 0 237.37 144.29 299.11 <
3 -4 13 0 227.83 403.96 466.44 <
3 4 13 1 62.21 -250.15 118.59 <
4 4 13 -2 85.17 178.95 238.54 <
-3 5 13 -2 187.27 -447.99 285.85 <
-3 -5 13 -2 196.91 -201.17 140.47 <
-3 5 13 -1 68.14 54.68 209.56 <
-3 -5 13 -1 60.56 197.97 257.00 <
-3 5 13 0 13.98 -11.68 126.79 <
-3 -5 13 0 15.78 466.81 352.48 <
-3 5 13 1 57.29 -29.09 209.79 <
-3 -5 13 1 52.10 172.60 236.84 <
-3 5 13 2 90.26 184.40 251.45 <
-3 -5 13 2 87.25 130.75 221.76 <
-2 5 13 -2 125.99 597.41 342.65 <
-2 -5 13 -2 133.94 -24.76 91.03 <
-2 5 13 -1 514.75 414.55 302.95 <
-2 -5 13 -1 535.60 442.22 282.93 <
-2 5 13 0 337.11 573.19 308.89 <
-2 -5 13 0 339.74 989.72 416.35 <
-2 5 13 1 85.84 911.39 422.13 <
-2 -5 13 1 89.83 326.54 258.49 <
-2 5 13 2 77.72 145.66 302.65 <
-2 -5 13 2 76.61 -119.73 193.51 <
-1 5 13 -2 243.62 -214.38 153.81 <
-1 -5 13 -2 259.77 -83.25 153.47 <
-1 5 13 -1 5.79 350.30 269.24 <
-1 -5 13 -1 9.85 85.48 171.23 <
-1 -5 13 0 12.34 -216.90 144.46 <
-1 5 13 1 147.86 92.70 286.11 <
-1 -5 13 1 144.41 78.48 140.84 <
-1 5 13 2 123.71 110.18 115.23 <
-1 -5 13 2 124.77 273.91 201.06 <
0 5 13 -2 20.14 32.55 116.68 <
0 -5 13 -2 18.55 -59.83 107.90 <
0 5 13 -1 604.78 350.48 201.49 <
0 -5 13 -1 622.15 795.23 279.10 <
0 5 13 0 904.36 353.54 189.73 <
0 -5 13 0 865.01 398.07 255.93 <
0 5 13 1 24.22 439.35 212.08 <
0 -5 13 1 25.56 7.63 223.47 <
0 5 13 2 49.38 25.02 131.73 <
0 -5 13 2 48.63 145.23 316.76 <
1 5 13 -2 68.93 218.52 146.32 <
1 -5 13 -2 69.50 245.51 310.24 <
1 5 13 -1 113.70 264.65 152.81 <
1 -5 13 -1 103.98 172.80 262.93 <
1 5 13 0 6.94 227.47 176.16 <
1 -5 13 0 8.33 76.77 95.92 <
1 5 13 1 173.70 170.68 167.14 <
1 -5 13 1 174.24 347.05 327.83 <
1 5 13 2 99.86 -13.78 199.95 <
1 -5 13 2 97.05 117.77 137.21 <
2 5 13 -2 58.90 182.40 146.27 <
2 -5 13 -2 53.04 188.71 261.89 <
2 5 13 -1 405.45 302.06 172.66 <
2 -5 13 -1 412.00 471.47 363.35 <
2 5 13 0 332.20 274.67 204.77 <
2 -5 13 0 345.30 282.86 356.37 <
2 5 13 1 97.42 122.36 198.30 <
2 -5 13 1 102.70 2.17 129.05 <
2 5 13 2 391.37 615.13 325.83 <
2 -5 13 2 381.21 369.13 454.94 <
3 5 13 -2 25.15 316.72 363.24 <
3 -5 13 -2 22.28 11.28 160.03 <
3 5 13 -1 70.13 349.35 258.74 <
3 -5 13 -1 65.70 134.27 329.76 <
3 5 13 0 27.93 57.79 276.21 <
3 -5 13 0 25.63 599.08 444.20 <
4 5 13 -2 65.98 137.49 300.28 <
-3 6 13 -2 16.84 -24.55 125.05 <
-3 -6 13 -2 15.09 133.44 207.15 <
-3 6 13 -1 209.15 459.62 428.51 <
-3 -6 13 -1 190.45 238.65 271.56 <
-3 6 13 0 746.42 775.97 425.42 <
-3 -6 13 0 767.01 807.51 363.05 <
-3 6 13 1 60.62 29.00 183.25 <
-3 -6 13 1 63.17 77.53 252.15 <
-3 -6 13 2 45.63 203.82 297.61 <
-2 6 13 -2 763.65 634.43 406.09 <
-2 -6 13 -2 829.95 538.86 290.34 <
-2 6 13 -1 40.00 527.69 357.61 <
-2 -6 13 -1 36.45 50.24 140.31 <
-2 6 13 0 80.73 456.16 378.00 <
-2 -6 13 0 70.99 265.95 221.45 <
-2 6 13 1 27.33 577.52 326.89 <
-2 -6 13 1 25.21 90.92 185.73 <
-2 6 13 2 69.34 242.45 241.02 <
-2 -6 13 2 73.70 -73.16 228.65 <
-1 6 13 -2 26.02 47.63 208.71 <
-1 -6 13 -2 26.92 -45.35 166.23 <
-1 6 13 -1 139.91 134.21 240.23 <
-1 -6 13 -1 147.52 278.86 203.80 <
-1 6 13 0 1143.34 834.30 435.42 <
-1 -6 13 0 1186.60 946.71 281.19 o
-1 6 13 1 28.51 -281.00 219.60 <
-1 -6 13 1 32.01 61.90 143.53 <
-1 6 13 2 13.34 -62.68 203.69 <
-1 -6 13 2 11.96 235.95 200.45 <
0 6 13 -2 292.75 212.15 176.79 <
0 -6 13 -2 300.02 212.80 147.18 <
0 6 13 -1 144.03 34.11 133.83 <
0 -6 13 -1 133.45 368.20 327.00 <
0 6 13 0 404.52 129.27 169.68 <
0 -6 13 0 438.90 491.32 374.57 <
0 6 13 1 38.08 1.50 122.36 <
0 -6 13 1 44.90 -248.41 230.99 <
0 6 13 2 162.14 33.54 116.81 <
1 6 13 -2 47.88 -112.86 163.05 <
1 -6 13 -2 49.59 321.98 261.34 <
1 6 13 -1 285.11 94.11 147.32 <
1 6 13 0 803.69 852.77 256.04 o
1 -6 13 0 829.66 1380.68 509.86 <
1 6 13 1 20.90 69.44 179.77 <
1 -6 13 1 27.85 433.61 377.40 <
1 6 13 2 31.60 376.68 182.66 <
1 -6 13 2 32.46 141.10 213.02 <
2 6 13 -2 293.45 -104.01 213.99 <
2 -6 13 -2 296.47 429.40 412.64 <
2 6 13 -1 7.02 -292.93 177.01 <
2 -6 13 -1 11.19 87.18 334.54 <
2 6 13 0 25.33 36.57 184.12 <
2 -6 13 0 23.88 221.65 270.13 <
2 6 13 1 44.02 877.49 436.81 <
2 -6 13 1 46.22 -45.53 203.40 <
3 6 13 -2 110.89 216.56 276.89 <
3 -6 13 -2 118.17 12.48 327.52 <
3 6 13 -1 165.95 692.18 409.72 <
3 -6 13 -1 175.81 122.99 278.11 <
-3 7 13 -2 209.09 54.00 132.44 <
-3 -7 13 -2 214.49 65.46 236.32 <
-3 7 13 -1 100.21 -76.31 289.58 <
-3 -7 13 -1 90.44 289.41 220.88 <
-3 -7 13 0 233.71 572.51 417.61 <
-3 -7 13 1 216.21 483.62 336.39 <
-3 -7 13 2 59.63 -102.03 121.10 <
-2 7 13 -2 49.23 -99.77 108.22 <
-2 -7 13 -2 51.56 919.93 476.44 <
-2 7 13 -1 927.58 314.67 291.19 <
-2 -7 13 -1 937.34 1015.33 454.71 <
-2 7 13 0 90.32 261.43 347.50 <
-2 -7 13 0 89.26 39.96 248.38 <
-2 7 13 1 110.47 -124.88 186.08 <
-2 -7 13 1 108.85 163.90 148.36 <
-2 7 13 2 126.61 154.51 165.68 <
-2 -7 13 2 137.46 149.62 153.99 <
-1 7 13 -2 272.60 636.15 403.29 <
-1 -7 13 -2 286.70 179.40 144.44 <
-1 7 13 -1 83.34 562.89 392.24 <
-1 -7 13 -1 115.62 440.79 218.27 <
-1 7 13 0 162.47 809.58 497.71 <
-1 -7 13 0 164.96 552.17 275.08 <
-1 7 13 1 213.01 727.52 382.00 <
-1 -7 13 1 211.46 187.69 215.28 <
-1 7 13 2 157.05 44.09 159.79 <
-1 -7 13 2 164.71 -94.70 210.77 <
0 7 13 -2 158.04 -62.18 114.25 <
0 -7 13 -2 162.16 64.20 150.18 <
0 7 13 -1 1333.07 1301.85 320.20 o
0 -7 13 -1 1336.96 1094.55 498.27 <
0 7 13 0 143.09 -345.98 205.84 <
0 7 13 1 50.20 -429.79 175.73 <
0 -7 13 1 55.30 172.80 247.60 <
0 7 13 2 183.12 111.57 105.57 <
0 -7 13 2 192.02 227.95 258.60 <
1 7 13 -2 358.50 331.56 192.47 <
1 -7 13 -2 354.07 285.17 350.37 <
1 7 13 -1 412.89 161.62 116.12 <
1 -7 13 -1 405.23 481.25 364.92 <
1 7 13 0 87.16 198.53 128.40 <
1 -7 13 0 99.03 543.25 326.82 <
1 7 13 1 75.75 68.74 146.38 <
1 -7 13 1 78.66 441.86 306.87 <
1 7 13 2 282.41 341.24 235.12 <
1 -7 13 2 269.49 696.24 429.66 <
2 7 13 -2 212.28 -60.22 142.77 <
2 7 13 -1 606.41 299.50 219.40 <
2 -7 13 -1 591.75 228.65 341.61 <
2 7 13 0 145.90 -128.68 224.76 <
2 -7 13 0 157.18 -172.68 203.21 <
2 -7 13 1 46.88 286.69 467.79 <
3 -7 13 -2 251.20 687.85 483.21 <
3 -7 13 -1 237.20 313.37 442.33 <
-3 -8 13 1 63.21 263.41 169.79 <
-3 -8 13 2 171.15 230.06 236.15 <
-2 8 13 -2 480.70 192.71 117.86 <
-2 -8 13 -2 542.85 51.55 154.14 <
-2 8 13 -1 88.82 -47.90 194.32 <
-2 -8 13 -1 80.76 39.42 176.40 <
-2 8 13 0 395.72 1577.43 532.77 <
-2 -8 13 0 414.10 367.50 265.23 <
-2 8 13 1 47.79 321.70 337.70 <
-2 -8 13 1 47.20 346.92 271.67 <
-2 8 13 2 241.54 -270.47 174.99 <
-2 -8 13 2 248.09 357.54 212.62 <
-1 8 13 -2 39.60 239.67 265.58 <
-1 -8 13 -2 47.09 -54.48 176.51 <
-1 -8 13 -1 379.64 103.79 175.34 <
-1 8 13 0 115.75 388.70 273.54 <
-1 -8 13 0 111.24 121.38 110.90 <
-1 8 13 1 192.47 -313.00 254.56 <
-1 -8 13 1 197.57 394.59 345.24 <
-1 8 13 2 340.53 564.10 362.72 <
-1 -8 13 2 337.70 635.80 416.68 <
0 8 13 -2 383.72 440.79 324.41 <
0 -8 13 -2 382.76 303.06 309.96 <
0 8 13 -1 22.98 -176.30 129.73 <
0 -8 13 -1 20.96 -214.80 177.05 <
0 8 13 0 638.22 368.07 181.64 <
0 -8 13 0 675.78 467.14 332.68 <
0 8 13 1 109.47 297.58 191.88 <
0 -8 13 1 95.65 319.45 261.93 <
0 8 13 2 394.75 251.78 186.62 <
0 -8 13 2 401.73 596.43 339.39 <
1 8 13 -2 177.80 149.79 123.97 <
1 -8 13 -2 184.04 265.80 232.71 <
1 8 13 -1 1197.71 793.18 285.13 <
1 -8 13 -1 1202.22 943.61 538.66 <
1 8 13 0 199.70 200.67 202.80 <
1 -8 13 0 196.56 291.95 318.65 <
1 8 13 1 327.10 348.81 311.82 <
1 -8 13 1 276.55 948.13 485.29 <
1 8 13 2 253.61 936.47 470.14 <
1 -8 13 2 260.06 623.19 421.99 <
2 8 13 -2 156.02 -384.72 194.34 <
2 -8 13 -2 155.06 25.04 292.17 <
2 8 13 -1 27.91 153.51 112.88 <
2 -8 13 -1 28.44 426.14 371.20 <
2 8 13 0 389.59 121.51 209.91 <
2 -8 13 0 407.84 663.76 478.62 <
2 -8 13 1 41.25 460.33 286.93 <
3 -8 13 -2 88.91 541.99 487.68 <
3 -8 13 -1 188.28 800.47 525.49 <
-2 9 13 -2 47.59 514.99 400.22 <
-2 -9 13 -2 57.44 255.74 136.51 <
-2 9 13 -1 34.92 28.17 216.47 <
-2 -9 13 -1 35.50 -203.15 183.80 <
-2 9 13 0 385.39 431.94 328.93 <
-2 -9 13 0 376.15 650.15 357.92 <
-2 9 13 1 33.10 264.60 236.39 <
-2 -9 13 1 35.43 430.75 280.58 <
-2 9 13 2 81.62 69.39 201.53 <
-2 -9 13 2 85.97 178.99 234.97 <
-1 9 13 -2 87.35 1020.26 456.10 <
-1 -9 13 -2 80.37 307.33 195.19 <
-1 9 13 -1 15.31 -38.98 132.77 <
-1 -9 13 -1 12.29 -102.62 168.12 <
-1 9 13 0 1808.14 1692.91 607.37 <
-1 -9 13 0 1788.86 831.95 445.79 <
-1 9 13 1 324.52 654.52 377.15 <
-1 -9 13 1 328.41 -42.29 198.41 <
-1 9 13 2 243.29 616.47 411.55 <
-1 -9 13 2 244.09 889.08 538.73 <
0 9 13 -2 51.86 508.10 357.50 <
0 -9 13 -2 49.99 131.35 255.30 <
0 9 13 -1 93.53 619.95 383.33 <
0 -9 13 -1 86.73 316.67 336.09 <
0 9 13 0 197.09 163.03 221.52 <
0 -9 13 0 186.21 -380.96 322.67 <
0 9 13 1 73.70 583.74 319.96 <
0 -9 13 1 80.57 -85.87 171.42 <
0 9 13 2 166.76 8.43 214.10 <
0 -9 13 2 174.43 422.09 317.11 <
1 9 13 -2 257.77 -22.39 169.90 <
1 -9 13 -2 260.26 552.40 383.48 <
1 9 13 -1 101.95 -388.96 284.56 <
1 -9 13 -1 95.35 251.99 277.24 <
1 9 13 0 1560.17 165.81 135.81 <
1 -9 13 0 1524.66 1678.87 627.47 <
1 9 13 1 187.06 351.55 269.60 <
1 -9 13 1 175.85 265.45 245.95 <
1 9 13 2 176.43 326.02 171.95 <
1 -9 13 2 176.80 193.25 164.08 <
2 9 13 -2 105.16 -114.88 137.59 <
2 -9 13 -2 103.56 205.04 195.79 <
2 9 13 -1 53.07 147.29 215.08 <
2 -9 13 -1 50.36 214.28 352.78 <
2 9 13 0 209.53 -106.03 191.30 <
2 -9 13 0 198.62 677.68 488.94 <
3 -9 13 -2 142.65 384.63 396.74 <
-2 10 13 -2 99.90 93.96 274.06 <
-2 -10 13 -2 81.25 230.10 252.45 <
-2 10 13 -1 105.64 68.74 214.40 <
-2 -10 13 -1 100.82 31.65 163.73 <
-2 10 13 0 173.39 174.97 282.08 <
-2 -10 13 0 177.21 372.50 243.08 <
-2 10 13 1 22.79 431.68 366.85 <
-2 -10 13 1 22.61 507.10 293.80 <
-2 10 13 2 85.35 -28.74 276.13 <
-1 10 13 -2 102.58 193.69 316.89 <
-1 -10 13 -2 109.66 68.03 139.16 <
-1 10 13 -1 53.99 42.79 220.84 <
-1 -10 13 -1 93.52 -2.98 148.92 <
-1 10 13 0 371.23 51.94 191.17 <
-1 -10 13 0 387.10 -247.19 293.30 <
-1 10 13 1 55.71 612.89 362.92 <
-1 -10 13 1 62.13 122.96 296.10 <
-1 10 13 2 270.98 943.82 458.42 <
-1 -10 13 2 279.02 452.73 368.48 <
0 10 13 -2 92.40 670.85 423.74 <
0 -10 13 -2 89.59 -7.39 168.43 <
0 10 13 -1 169.32 284.80 411.33 <
0 -10 13 -1 152.61 174.71 177.12 <
0 10 13 0 76.48 717.24 428.38 <
0 -10 13 0 59.74 165.19 139.97 <
0 10 13 1 77.77 -19.04 159.88 <
0 -10 13 1 79.50 37.11 145.34 <
0 10 13 2 102.52 -367.55 184.40 <
0 -10 13 2 105.16 -310.50 285.08 <
1 10 13 -2 181.26 -23.28 286.17 <
1 -10 13 -2 187.84 84.57 286.74 <
1 10 13 -1 273.98 825.84 372.89 <
1 -10 13 -1 279.79 -57.13 185.82 <
1 10 13 0 185.26 -510.77 459.86 <
1 -10 13 0 175.20 132.18 211.28 <
1 10 13 1 504.87 -202.14 377.53 <
1 -10 13 1 456.89 -114.77 229.99 <
1 10 13 2 239.49 -490.84 322.37 <
1 -10 13 2 242.30 254.86 254.97 <
2 10 13 -2 81.68 18.13 137.55 <
2 -10 13 -2 72.70 23.87 304.20 <
2 10 13 -1 27.53 68.63 252.62 <
2 -10 13 -1 26.84 256.99 243.56 <
2 10 13 0 241.82 -111.01 153.08 <
2 -10 13 0 239.69 509.45 497.29 <
3 -10 13 -2 106.94 205.10 182.62 <
-2 11 13 -2 81.15 -224.28 106.96 <
-2 -11 13 -2 88.91 520.43 310.00 <
-2 11 13 -1 91.28 385.63 343.11 <
-2 -11 13 -1 92.49 836.03 386.05 <
-2 11 13 0 527.75 288.26 298.15 <
-2 -11 13 0 519.31 327.52 293.24 <
-2 -11 13 1 134.71 -40.46 115.42 <
-1 11 13 -2 25.38 411.50 321.28 <
-1 -11 13 -2 24.65 311.48 211.40 <
-1 11 13 -1 453.12 976.95 463.46 <
-1 -11 13 -1 472.93 -32.18 168.99 <
-1 11 13 0 518.08 1055.16 514.34 <
-1 -11 13 0 516.48 518.69 352.33 <
-1 11 13 1 184.26 327.04 235.43 <
-1 -11 13 1 183.16 616.37 422.31 <
-1 11 13 2 132.74 37.02 242.62 <
-1 -11 13 2 129.96 167.34 137.20 <
0 11 13 -2 137.24 462.71 372.61 <
0 -11 13 -2 138.11 381.57 309.33 <
0 11 13 -1 66.13 713.83 392.96 <
0 -11 13 -1 66.57 -220.06 106.42 <
0 11 13 0 244.64 902.38 463.97 <
0 -11 13 0 261.26 -217.88 162.79 <
0 11 13 1 175.34 -302.43 297.22 <
0 -11 13 1 169.37 259.74 276.56 <
0 11 13 2 283.07 79.18 265.63 <
0 -11 13 2 288.39 -3.30 235.99 <
1 11 13 -2 29.34 -451.12 414.72 <
1 -11 13 -2 29.39 369.81 283.11 <
1 11 13 -1 39.60 -438.73 398.70 <
1 -11 13 -1 41.32 133.31 256.13 <
1 11 13 0 320.20 -133.57 296.58 <
1 -11 13 0 322.00 545.69 371.90 <
1 11 13 1 177.13 205.80 267.78 <
1 -11 13 1 185.44 295.32 282.78 <
1 11 13 2 234.29 -141.64 295.69 <
2 11 13 -2 35.78 482.77 344.26 <
2 -11 13 -2 36.81 1.46 238.52 <
2 11 13 -1 3.65 -141.16 193.93 <
2 -11 13 -1 3.63 192.27 341.72 <
2 11 13 0 433.33 411.53 252.21 <
2 -11 13 0 429.11 245.89 211.25 <
2 11 13 1 72.60 140.40 162.97 <
3 11 13 -2 38.92 -301.48 310.28 <
3 -11 13 -2 40.96 327.48 267.50 <
-2 12 13 -2 290.40 389.77 233.19 <
-2 -12 13 -2 302.88 431.36 337.02 <
-2 -12 13 -1 100.24 174.19 241.51 <
-2 -12 13 0 1018.04 890.14 282.56 o
-2 -12 13 1 299.70 333.04 345.76 <
-1 12 13 -2 82.68 602.45 372.02 <
-1 -12 13 -2 72.91 71.63 244.06 <
-1 12 13 -1 826.95 934.37 469.84 <
-1 -12 13 -1 810.62 680.39 389.42 <
-1 12 13 0 50.30 569.51 339.89 <
-1 -12 13 0 46.70 -60.18 330.61 <
-1 12 13 1 249.92 866.04 527.90 <
-1 -12 13 1 240.93 224.71 264.61 <
-1 12 13 2 11.11 357.46 321.39 <
-1 -12 13 2 12.07 101.18 231.36 <
0 12 13 -2 151.35 379.26 363.05 <
0 -12 13 -2 143.34 236.60 204.91 <
0 12 13 -1 119.49 734.98 438.46 <
0 -12 13 -1 125.52 -165.45 250.63 <
0 12 13 0 930.59 1214.99 582.97 <
0 -12 13 0 961.97 1098.72 527.12 <
0 12 13 1 336.12 428.99 366.65 <
0 -12 13 1 341.30 68.61 161.14 <
0 12 13 2 11.01 353.78 188.04 <
0 -12 13 2 8.70 181.99 233.39 <
1 12 13 -2 138.21 -123.55 169.12 <
1 -12 13 -2 142.32 473.34 385.18 <
1 12 13 -1 262.23 557.40 358.91 <
1 -12 13 -1 270.12 312.61 297.11 <
1 12 13 0 68.05 340.39 207.67 <
1 -12 13 0 68.38 -266.52 300.11 <
1 12 13 1 254.35 -62.61 289.58 <
1 -12 13 1 235.50 938.32 501.40 <
1 12 13 2 63.40 -476.97 338.91 <
2 12 13 -2 63.46 -132.16 153.40 <
2 -12 13 -2 64.37 -209.71 313.24 <
2 12 13 -1 140.54 -7.15 147.73 <
2 -12 13 -1 146.81 -53.42 382.00 <
2 12 13 0 829.63 938.35 377.72 <
3 12 13 -2 106.90 -199.51 164.07 <
-2 -13 13 -2 15.07 147.07 311.09 <
-2 -13 13 -1 125.97 201.06 328.48 <
-2 -13 13 0 190.57 669.55 462.35 <
-2 -13 13 1 4.01 407.27 344.78 <
-1 13 13 -2 59.30 -284.89 263.76 <
-1 -13 13 -2 53.00 261.52 333.82 <
-1 13 13 -1 130.58 549.12 306.91 <
-1 -13 13 -1 125.19 -163.79 162.34 <
-1 13 13 0 59.59 645.78 408.94 <
-1 -13 13 0 55.68 93.09 177.18 <
-1 -13 13 1 15.58 -160.73 249.28 <
-1 -13 13 2 132.72 -129.36 151.88 <
0 13 13 -2 82.10 234.34 283.24 <
0 -13 13 -2 78.73 415.76 375.26 <
0 13 13 -1 160.88 30.78 361.26 <
0 -13 13 -1 164.59 175.97 129.10 <
0 13 13 0 888.95 1334.07 572.49 <
0 -13 13 0 972.76 941.80 433.16 <
0 13 13 1 4.68 330.20 434.16 <
0 -13 13 1 4.63 -139.86 299.02 <
1 13 13 -2 94.17 53.72 174.10 <
1 -13 13 -2 94.19 46.48 194.47 <
1 13 13 -1 47.76 4.96 146.77 <
1 -13 13 -1 46.77 378.40 403.29 <
1 13 13 0 13.84 156.60 248.65 <
1 -13 13 0 11.36 -49.07 231.63 <
2 13 13 -2 96.49 -117.49 157.16 <
2 -13 13 -2 96.01 -173.03 284.52 <
2 13 13 -1 103.41 292.46 255.39 <
2 -13 13 -1 104.02 707.16 429.29 <
3 13 13 -2 62.20 74.35 336.02 <
-1 14 13 -2 31.29 233.80 197.79 <
-1 -14 13 -2 23.41 235.97 313.30 <
-1 14 13 -1 155.47 -27.68 384.81 <
-1 -14 13 -1 153.32 3.24 131.23 <
-1 -14 13 0 431.78 709.26 317.00 <
-1 -14 13 1 88.79 31.18 129.53 <
0 14 13 -2 128.82 744.79 445.09 <
0 -14 13 -2 128.02 30.55 124.62 <
0 14 13 -1 92.13 580.32 476.16 <
0 -14 13 -1 84.78 -57.26 111.31 <
0 14 13 0 221.93 464.40 503.55 <
0 -14 13 0 198.21 -249.32 350.11 <
0 -14 13 1 64.60 -250.67 269.67 <
1 14 13 -2 117.30 -330.68 321.08 <
1 -14 13 -2 112.07 140.90 228.62 <
1 14 13 -1 148.39 -392.79 165.29 <
1 -14 13 -1 153.84 425.05 370.18 <
1 -14 13 0 265.58 671.87 415.31 <
2 14 13 -2 87.11 208.99 356.57 <
2 -14 13 -2 85.55 32.02 128.09 <
-1 -15 13 -2 205.32 407.76 389.46 <
-1 -15 13 -1 329.03 312.54 209.04 <
-1 -15 13 0 80.24 645.95 402.02 <
0 15 13 -2 179.27 291.22 243.17 <
0 -15 13 -2 171.80 391.81 206.56 <
0 -15 13 -1 561.55 143.42 221.78 <
0 -15 13 0 1095.57 967.50 464.12 <
1 15 13 -2 224.80 157.92 129.64 <
1 -15 13 -2 231.94 -80.53 250.06 <
1 -15 13 -1 88.03 -31.44 120.31 <
2 -15 13 -2 103.67 191.97 238.60 <
0 -16 13 -2 93.31 165.75 264.60 <
0 -16 13 -1 161.79 -341.33 207.91 <
0 -16 13 0 412.56 138.92 212.99 <
1 -16 13 -2 34.28 -81.83 249.12 <
1 -16 13 -1 58.62 376.26 259.11 <
1 -17 13 -2 143.33 -342.89 370.90 <
-2 0 14 -2 470.04 731.31 356.02 <
-2 0 14 -1 487.79 103.59 184.45 <
-2 0 14 0 30.43 -116.18 98.27 <
-2 0 14 1 316.95 409.39 363.15 <
-2 0 14 2 20.40 9.46 244.52 <
-1 0 14 -2 43.57 63.00 190.23 <
-1 0 14 -1 34.96 -247.78 149.81 <
-1 0 14 0 335.81 105.27 174.25 <
-1 0 14 1 0.04 -24.55 107.94 <
-1 0 14 2 31.97 246.17 210.58 <
0 0 14 -2 266.49 598.60 240.32 <
0 0 14 -1 555.08 770.55 264.48 <
0 0 14 0 35.51 43.31 156.31 <
0 0 14 1 386.18 66.89 148.66 <
0 0 14 2 151.38 -126.51 197.95 <
1 0 14 -2 78.84 32.20 96.68 <
1 0 14 -1 23.38 271.91 375.65 <
1 0 14 0 449.77 -53.89 126.92 <
1 0 14 1 3.04 167.36 328.04 <
1 0 14 2 0.78 284.50 257.89 <
2 0 14 -2 132.07 -271.74 348.11 <
2 0 14 -1 367.83 328.52 119.12 <
2 0 14 0 10.11 1035.13 508.29 <
2 0 14 1 481.02 -122.42 269.73 <
3 0 14 -2 52.06 190.90 212.21 <
3 0 14 -1 4.59 -470.42 331.65 <
-2 1 14 -2 6.97 -238.43 201.93 <
-2 -1 14 -2 3.33 -41.18 105.72 <
-2 1 14 -1 94.95 822.86 403.70 <
-2 -1 14 -1 82.18 -41.61 160.40 <
-2 1 14 0 159.59 298.13 272.89 <
-2 -1 14 0 144.74 -159.16 225.75 <
-2 1 14 1 106.98 451.60 317.35 <
-2 -1 14 1 106.50 34.94 132.44 <
-2 1 14 2 63.08 203.12 155.25 <
-2 -1 14 2 64.37 -76.35 219.95 <
-1 1 14 -2 71.75 377.90 252.34 <
-1 -1 14 -2 75.34 686.37 356.41 <
-1 1 14 -1 278.85 243.13 209.77 <
-1 -1 14 -1 264.36 184.64 175.49 <
-1 1 14 0 1268.35 1644.50 410.14 o
-1 -1 14 0 1264.60 1163.12 331.30 o
-1 1 14 1 555.97 503.82 254.88 <
-1 -1 14 1 542.32 495.16 208.02 <
-1 1 14 2 84.85 48.44 179.69 <
-1 -1 14 2 90.83 489.51 258.13 <
0 1 14 -2 66.48 -37.26 126.23 <
0 -1 14 -2 67.48 -229.04 275.08 <
0 1 14 -1 35.43 407.31 190.75 <
0 -1 14 -1 21.98 24.74 122.86 <
0 1 14 0 391.38 281.47 212.77 <
0 -1 14 0 402.53 377.05 212.27 <
0 1 14 1 141.40 34.20 128.31 <
0 -1 14 1 137.15 71.98 215.08 <
0 1 14 2 56.43 -235.47 354.65 <
0 -1 14 2 56.24 551.43 308.50 <
1 1 14 -2 171.43 57.24 127.49 <
1 -1 14 -2 175.73 165.51 129.36 <
1 1 14 -1 389.87 258.76 206.17 <
1 -1 14 -1 389.20 485.20 356.33 <
1 1 14 0 807.07 66.22 121.57 <
1 -1 14 0 819.19 901.88 502.95 <
1 1 14 1 46.63 -354.26 383.00 <
1 -1 14 1 69.38 144.47 274.10 <
1 1 14 2 106.94 164.84 165.79 <
1 -1 14 2 100.65 183.90 271.23 <
2 1 14 -2 109.47 224.62 189.40 <
2 -1 14 -2 109.60 15.78 312.13 <
2 1 14 -1 65.70 164.92 243.69 <
2 -1 14 -1 69.67 -504.08 376.74 <
2 1 14 0 207.77 197.64 162.18 <
2 -1 14 0 186.78 217.25 354.20 <
2 1 14 1 193.72 587.80 341.80 <
2 -1 14 1 202.77 904.52 537.62 <
3 1 14 -2 177.18 797.29 499.29 <
3 -1 14 -2 185.28 510.27 505.01 <
3 1 14 -1 100.14 -36.00 261.48 <
3 -1 14 -1 99.22 -339.22 392.74 <
-2 2 14 -2 255.01 -330.18 161.07 <
-2 -2 14 -2 220.36 589.26 351.30 <
-2 2 14 -1 136.26 504.67 398.14 <
-2 -2 14 -1 134.34 285.15 285.41 <
-2 2 14 0 558.81 940.22 471.51 <
-2 -2 14 0 571.11 265.52 225.93 <
-2 2 14 1 180.17 94.98 116.99 <
-2 -2 14 1 182.32 266.28 300.43 <
-2 2 14 2 137.10 27.55 147.86 <
-2 -2 14 2 129.40 215.36 283.34 <
-1 2 14 -2 3.94 183.12 248.84 <
-1 -2 14 -2 1.69 176.38 268.87 <
-1 2 14 -1 1054.33 921.28 382.40 <
-1 -2 14 -1 1101.02 837.77 299.48 <
-1 2 14 0 186.22 0.39 215.99 <
-1 -2 14 0 174.74 -56.79 130.09 <
-1 2 14 1 77.58 325.24 206.53 <
-1 -2 14 1 80.78 32.37 189.60 <
-1 2 14 2 174.51 325.63 204.79 <
-1 -2 14 2 174.88 -87.53 122.73 <
0 2 14 -2 470.04 80.53 203.71 <
0 -2 14 -2 467.66 170.88 211.88 <
0 2 14 -1 330.67 88.03 163.21 <
0 -2 14 -1 338.90 5.18 135.99 <
0 2 14 0 1580.42 1391.33 356.42 o
0 -2 14 0 1646.93 1370.59 529.01 <
0 2 14 1 205.58 287.43 227.32 <
0 -2 14 1 200.73 476.07 292.60 <
0 2 14 2 356.14 72.83 200.36 <
0 -2 14 2 352.95 321.76 148.46 <
1 2 14 -2 187.15 -55.90 196.51 <
1 -2 14 -2 179.56 149.44 171.79 <
1 2 14 -1 1010.61 557.34 228.52 <
1 -2 14 -1 1036.89 1379.35 509.34 <
1 2 14 0 119.44 -233.10 194.43 <
1 -2 14 0 115.33 -33.33 189.66 <
1 2 14 1 125.21 179.05 184.43 <
1 -2 14 1 118.32 401.31 367.31 <
1 2 14 2 72.68 -454.07 336.72 <
1 -2 14 2 73.35 225.47 283.43 <
2 2 14 -2 233.32 387.33 262.00 <
2 -2 14 -2 224.92 117.14 190.10 <
2 2 14 -1 232.70 -125.05 285.48 <
2 -2 14 -1 236.11 439.92 396.98 <
2 2 14 0 430.99 329.59 132.86 <
2 -2 14 0 415.61 432.51 402.33 <
2 2 14 1 219.84 -301.02 335.30 <
2 -2 14 1 230.21 347.33 386.02 <
3 2 14 -2 82.75 247.80 416.16 <
3 -2 14 -2 77.16 140.51 364.65 <
3 2 14 -1 338.46 -458.38 346.91 <
3 -2 14 -1 345.14 210.91 260.58 <
-2 3 14 -2 7.00 231.43 218.14 <
-2 -3 14 -2 10.04 215.25 255.62 <
-2 3 14 -1 913.18 950.02 436.79 <
-2 -3 14 -1 922.15 1012.02 457.09 <
-2 3 14 0 112.53 659.02 449.51 <
-2 -3 14 0 109.57 324.95 262.89 <
-2 3 14 1 39.69 306.85 326.39 <
-2 -3 14 1 36.16 328.98 259.61 <
-2 3 14 2 151.20 298.46 301.00 <
-2 -3 14 2 150.22 85.53 101.03 <
-1 3 14 -2 464.64 28.46 266.56 <
-1 -3 14 -2 451.29 81.01 191.75 <
-1 3 14 -1 188.68 406.01 353.13 <
-1 -3 14 -1 180.07 164.07 155.94 <
-1 3 14 0 703.55 1394.11 512.27 <
-1 -3 14 0 733.69 796.40 261.34 o
-1 3 14 1 53.53 276.60 207.02 <
-1 -3 14 1 53.00 9.98 123.09 <
-1 3 14 2 261.64 553.43 267.28 <
-1 -3 14 2 251.54 401.20 229.71 <
0 3 14 -2 22.83 405.53 199.17 <
0 -3 14 -2 18.63 177.23 173.84 <
0 3 14 -1 987.87 1130.40 336.13 o
0 -3 14 -1 991.62 678.78 261.48 <
0 3 14 0 81.63 103.12 144.36 <
0 -3 14 0 94.72 453.96 281.23 <
0 3 14 1 63.04 -80.16 224.17 <
0 -3 14 1 70.61 192.01 282.71 <
0 3 14 2 219.23 -16.48 176.25 <
0 -3 14 2 215.16 244.01 242.41 <
1 3 14 -2 295.91 -340.15 181.77 <
1 -3 14 -2 287.91 305.80 303.24 <
1 3 14 -1 169.40 151.62 174.16 <
1 -3 14 -1 160.93 426.14 380.50 <
1 3 14 0 492.57 696.79 364.70 <
1 -3 14 0 495.42 160.58 146.79 <
1 3 14 1 22.11 80.31 189.62 <
1 -3 14 1 19.52 385.31 370.59 <
1 3 14 2 346.00 796.99 389.83 <
1 -3 14 2 347.96 802.07 490.97 <
2 3 14 -2 21.76 -135.79 211.67 <
2 -3 14 -2 19.28 -24.26 135.64 <
2 3 14 -1 298.48 162.08 232.34 <
2 -3 14 -1 309.95 549.36 383.59 <
2 3 14 0 79.64 -44.65 106.57 <
2 -3 14 0 75.09 11.85 228.32 <
2 3 14 1 43.30 261.87 321.20 <
3 3 14 -2 189.10 86.12 347.55 <
3 -3 14 -2 187.61 -102.29 207.10 <
3 3 14 -1 16.10 220.75 212.54 <
-2 4 14 -2 1158.15 609.39 339.02 <
-2 -4 14 -2 1064.68 818.88 410.70 <
-2 4 14 -1 40.41 172.80 297.41 <
-2 -4 14 -1 37.35 67.66 241.99 <
-2 4 14 0 348.90 -113.36 136.29 <
-2 -4 14 0 385.33 68.26 129.40 <
-2 4 14 1 15.11 327.07 343.81 <
-2 -4 14 1 13.12 25.07 133.25 <
-2 4 14 2 197.30 410.85 333.13 <
-2 -4 14 2 203.90 432.40 320.43 <
-1 4 14 -2 47.76 -133.62 150.73 <
-1 -4 14 -2 49.50 7.50 196.90 <
-1 4 14 -1 205.28 129.01 227.80 <
-1 -4 14 -1 208.45 244.47 184.23 <
-1 4 14 0 46.32 287.04 195.32 <
-1 -4 14 0 43.38 340.83 187.49 <
-1 4 14 1 100.51 -137.68 170.95 <
-1 -4 14 1 97.84 -64.11 138.16 <
-1 4 14 2 211.22 204.73 217.93 <
-1 -4 14 2 213.46 -37.03 128.90 <
0 4 14 -2 330.19 -12.50 148.31 <
0 -4 14 -2 351.05 7.33 131.51 <
0 4 14 -1 6.87 385.94 202.75 <
0 -4 14 -1 10.08 95.96 109.11 <
0 4 14 0 1118.13 817.90 284.23 <
0 -4 14 0 1066.53 878.06 463.84 <
0 4 14 1 4.78 -31.24 152.86 <
0 -4 14 1 5.36 579.73 448.86 <
0 4 14 2 296.02 -190.29 149.40 <
0 -4 14 2 313.36 -94.59 228.12 <
1 4 14 -2 153.68 50.79 81.87 <
1 4 14 -1 217.06 96.44 145.40 <
1 -4 14 -1 213.52 262.61 274.19 <
1 4 14 0 23.65 -68.03 150.97 <
1 -4 14 0 22.83 51.74 151.27 <
1 4 14 1 413.01 133.49 123.18 <
1 -4 14 1 410.75 644.13 408.48 <
1 4 14 2 160.59 -158.27 175.79 <
1 -4 14 2 156.05 -66.50 156.36 <
2 4 14 -2 174.23 187.80 180.77 <
2 -4 14 -2 175.42 -264.26 251.02 <
2 4 14 -1 16.77 -32.92 230.82 <
2 -4 14 -1 14.33 113.55 286.50 <
2 4 14 0 98.42 -124.96 116.47 <
2 -4 14 0 107.65 406.55 359.85 <
2 4 14 1 3.90 136.14 248.91 <
3 4 14 -2 99.24 -300.76 407.40 <
3 -4 14 -2 102.22 477.81 424.90 <
3 4 14 -1 52.61 -298.59 358.87 <
-2 5 14 -2 250.51 1071.88 466.75 <
-2 -5 14 -2 255.23 214.67 198.91 <
-2 5 14 -1 593.08 570.04 341.33 <
-2 -5 14 -1 611.77 412.72 262.67 <
-2 5 14 0 54.70 309.24 279.32 <
-2 -5 14 0 53.76 238.19 219.47 <
-2 5 14 1 8.36 550.69 387.16 <
-2 -5 14 1 7.67 -45.61 214.65 <
-2 5 14 2 198.43 13.44 107.66 <
-2 -5 14 2 188.43 208.38 367.48 <
-1 5 14 -2 446.35 349.67 317.83 <
-1 -5 14 -2 447.85 -8.56 228.56 <
-1 5 14 -1 23.12 -83.22 138.68 <
-1 -5 14 -1 23.60 66.63 175.90 <
-1 5 14 0 104.17 569.23 288.00 <
-1 -5 14 0 100.73 135.86 214.34 <
-1 5 14 1 28.11 -119.70 246.36 <
-1 -5 14 1 26.51 -124.36 78.07 <
-1 5 14 2 193.35 -166.88 218.71 <
-1 -5 14 2 178.37 -45.15 144.20 <
0 5 14 -2 238.97 312.13 183.60 <
0 -5 14 -2 236.78 196.41 152.01 <
0 5 14 -1 460.43 60.14 98.77 <
0 -5 14 -1 478.23 286.50 269.61 <
0 5 14 0 77.01 -41.00 161.23 <
0 -5 14 0 76.47 367.13 344.65 <
0 5 14 1 17.42 71.31 94.22 <
0 -5 14 1 17.01 96.99 171.05 <
0 5 14 2 199.70 -88.38 249.04 <
0 -5 14 2 194.85 107.72 161.40 <
1 5 14 -2 252.46 -64.77 138.27 <
1 -5 14 -2 243.93 151.34 200.53 <
1 5 14 -1 3.28 -40.96 115.18 <
1 -5 14 -1 2.26 83.85 173.77 <
1 5 14 0 100.00 39.79 141.59 <
1 -5 14 0 93.64 145.94 314.85 <
1 5 14 1 237.57 261.97 98.24 <
1 -5 14 1 232.65 521.54 401.81 <
1 5 14 2 384.95 27.07 212.82 <
1 -5 14 2 390.43 460.68 473.16 <
2 5 14 -2 178.00 -58.74 173.43 <
2 -5 14 -2 170.34 921.06 514.06 <
2 5 14 -1 278.63 -62.87 223.62 <
2 -5 14 -1 293.73 537.25 398.79 <
2 5 14 0 50.87 76.14 202.17 <
2 -5 14 0 50.17 -261.56 248.34 <
2 5 14 1 24.00 139.71 232.58 <
3 5 14 -2 100.81 30.04 338.74 <
3 -5 14 -2 97.85 720.09 468.64 <
3 5 14 -1 3.41 -107.57 311.02 <
-2 6 14 -2 509.27 712.37 406.77 <
-2 -6 14 -2 469.92 288.08 182.42 <
-2 6 14 -1 52.81 1190.43 499.82 <
-2 -6 14 -1 48.23 61.85 161.79 <
-2 6 14 0 2075.51 2039.20 672.74 o
-2 -6 14 0 2086.35 1825.32 572.89 o
-2 6 14 1 228.03 335.65 284.98 <
-2 -6 14 1 228.85 159.66 327.85 <
-2 6 14 2 168.56 205.47 234.25 <
-2 -6 14 2 182.46 410.00 371.72 <
-1 6 14 -2 154.05 325.28 240.60 <
-1 -6 14 -2 153.96 -136.16 205.84 <
-1 6 14 -1 227.49 315.72 264.97 <
-1 -6 14 -1 229.71 286.67 205.43 <
-1 6 14 0 77.43 230.73 208.95 <
-1 -6 14 0 70.70 175.68 179.18 <
-1 6 14 1 64.00 -208.65 304.72 <
-1 -6 14 1 60.14 793.62 330.98 <
-1 6 14 2 121.38 240.06 132.68 <
-1 -6 14 2 122.42 186.06 105.46 <
0 6 14 -2 177.18 -114.38 169.55 <
0 6 14 -1 58.13 -55.55 121.71 <
0 -6 14 -1 57.66 -341.15 200.06 <
0 6 14 0 730.75 318.46 261.73 <
0 -6 14 0 748.19 528.01 391.66 <
0 6 14 1 156.60 72.18 204.36 <
0 -6 14 1 157.52 209.69 273.98 <
0 6 14 2 131.77 12.37 153.32 <
0 -6 14 2 143.67 149.01 236.84 <
1 6 14 -2 36.91 243.75 168.14 <
1 -6 14 -2 38.27 270.74 318.46 <
1 6 14 -1 108.90 50.65 134.70 <
1 -6 14 -1 104.09 397.52 342.54 <
1 6 14 0 53.05 67.53 166.55 <
1 -6 14 0 51.95 -192.60 124.57 <
1 6 14 1 64.64 -205.40 159.64 <
1 -6 14 1 68.12 -149.44 194.17 <
1 6 14 2 142.61 401.79 291.67 <
2 6 14 -2 171.33 199.64 208.77 <
2 -6 14 -2 162.80 100.61 147.51 <
2 6 14 -1 103.18 244.67 227.71 <
2 -6 14 -1 96.15 128.38 106.22 <
2 6 14 0 1788.31 847.06 425.57 <
2 -6 14 0 1774.25 1709.68 599.23 <
3 6 14 -2 23.00 -329.85 125.44 <
3 -6 14 -2 25.24 356.44 358.54 <
-2 7 14 -2 126.73 478.81 338.39 <
-2 -7 14 -2 137.67 -502.08 356.04 <
-2 7 14 -1 128.61 108.18 148.82 <
-2 -7 14 -1 113.79 -112.83 144.88 <
-2 7 14 0 23.42 527.40 353.65 <
-2 -7 14 0 20.28 207.06 290.15 <
-2 -7 14 1 98.60 -347.05 279.73 <
-2 -7 14 2 122.91 -31.33 150.96 <
-1 7 14 -2 19.40 379.31 227.40 <
-1 -7 14 -2 19.58 432.31 255.30 <
-1 7 14 -1 578.97 246.47 225.06 <
-1 -7 14 -1 523.50 672.39 318.32 <
-1 7 14 0 671.70 208.88 239.60 <
-1 -7 14 0 637.45 -115.44 132.29 <
-1 7 14 1 460.30 185.29 220.99 <
-1 -7 14 1 454.12 409.77 377.87 <
-1 7 14 2 108.62 -260.17 280.52 <
-1 -7 14 2 104.98 234.99 385.18 <
0 7 14 -2 86.23 280.48 321.41 <
0 -7 14 -2 94.30 47.35 257.80 <
0 7 14 -1 152.76 -124.73 168.43 <
0 -7 14 -1 129.92 -72.16 159.97 <
0 7 14 0 227.08 179.71 220.78 <
0 -7 14 0 235.39 455.01 329.20 <
0 7 14 1 299.45 190.79 113.20 <
0 -7 14 1 300.30 304.61 347.37 <
0 7 14 2 60.99 292.91 196.84 <
0 -7 14 2 63.10 220.52 159.21 <
1 7 14 -2 1.95 22.13 215.67 <
1 -7 14 -2 0.84 238.54 170.08 <
1 7 14 -1 96.00 76.51 165.51 <
1 -7 14 -1 87.67 21.09 118.57 <
1 7 14 0 746.20 755.44 269.87 <
1 -7 14 0 741.36 764.14 410.79 <
1 7 14 1 1435.15 577.95 241.84 <
1 -7 14 1 1417.22 940.45 466.90 <
2 7 14 -2 71.43 162.66 195.01 <
2 -7 14 -2 77.80 -491.36 306.80 <
2 -7 14 -1 22.65 -47.46 305.48 <
-2 8 14 -2 12.95 197.79 304.52 <
-2 -8 14 -2 17.61 59.16 145.36 <
-2 8 14 -1 78.66 389.61 255.88 <
-2 -8 14 -1 78.96 21.59 143.25 <
-2 -8 14 0 45.20 -410.20 374.07 <
-2 -8 14 1 30.40 298.28 251.62 <
-1 8 14 -2 291.08 112.51 219.60 <
-1 -8 14 -2 282.03 -218.62 167.60 <
-1 8 14 -1 65.27 346.00 501.30 <
-1 -8 14 -1 48.48 59.09 212.21 <
-1 8 14 0 296.79 -308.82 318.15 <
-1 -8 14 0 289.66 -158.36 137.09 <
-1 8 14 1 0.27 508.93 366.44 <
-1 -8 14 1 0.22 31.41 207.40 <
-1 8 14 2 20.62 -52.22 272.52 <
-1 -8 14 2 19.91 -72.88 204.71 <
0 8 14 -2 50.42 353.61 243.93 <
0 -8 14 -2 56.69 554.49 400.59 <
0 8 14 -1 197.42 369.96 321.72 <
0 -8 14 -1 205.20 -116.96 305.63 <
0 8 14 0 37.27 -1.02 128.40 <
0 -8 14 0 36.77 421.09 247.41 <
0 8 14 1 219.52 -19.54 218.32 <
0 -8 14 1 212.41 14.98 163.05 <
0 8 14 2 27.46 -189.14 272.36 <
0 -8 14 2 26.66 344.46 229.13 <
1 8 14 -2 178.30 443.79 230.69 <
1 -8 14 -2 178.82 139.57 260.95 <
1 8 14 -1 109.77 52.55 141.70 <
1 -8 14 -1 107.28 95.53 231.63 <
1 8 14 0 247.30 151.12 302.56 <
1 -8 14 0 246.79 -57.33 243.65 <
1 8 14 1 141.80 512.71 327.18 <
1 -8 14 1 155.34 209.29 271.06 <
2 8 14 -2 44.52 -245.06 272.80 <
2 -8 14 -2 47.03 441.96 308.45 <
2 -8 14 -1 110.48 -297.00 232.58 <
-2 -9 14 -2 14.57 -60.61 261.89 <
-2 -9 14 -1 153.06 -165.16 236.63 <
-2 -9 14 0 90.72 995.11 358.61 <
-2 -9 14 1 63.29 -438.98 269.23 <
-1 9 14 -2 210.28 -185.43 224.30 <
-1 -9 14 -2 191.66 393.77 222.17 <
-1 9 14 -1 962.88 514.88 291.17 <
-1 -9 14 -1 859.50 1617.35 697.16 <
-1 9 14 0 878.37 551.99 392.44 <
-1 -9 14 0 850.50 749.77 384.05 <
-1 9 14 1 88.07 169.77 350.42 <
-1 -9 14 1 95.28 378.03 352.20 <
0 9 14 -2 16.77 441.38 357.61 <
0 -9 14 -2 21.54 0.46 360.96 <
0 9 14 -1 90.73 311.78 385.27 <
0 -9 14 -1 87.55 30.28 271.63 <
0 9 14 0 167.57 216.84 286.80 <
0 -9 14 0 192.72 -263.17 308.70 <
0 9 14 1 31.70 -62.68 179.68 <
0 -9 14 1 29.53 339.39 360.04 <
0 9 14 2 1.54 197.30 186.79 <
1 9 14 -2 211.40 229.86 274.67 <
1 -9 14 -2 201.48 263.37 264.23 <
1 9 14 -1 154.95 504.42 415.96 <
1 -9 14 -1 166.72 334.22 427.51 <
1 9 14 0 1016.86 1458.81 598.71 <
1 -9 14 0 1000.44 1243.13 567.06 <
1 9 14 1 515.04 516.01 422.03 <
1 9 14 2 76.51 -129.29 294.80 <
2 9 14 -2 35.56 -431.03 303.50 <
2 -9 14 -2 42.00 -66.11 202.69 <
2 9 14 -1 34.25 -119.10 250.41 <
2 -9 14 -1 35.64 501.10 362.11 <
-2 -10 14 -2 134.33 52.65 231.01 <
-2 -10 14 -1 165.18 549.32 378.29 <
-2 -10 14 0 109.92 -202.60 126.44 <
-1 10 14 -2 164.91 472.03 339.28 <
-1 -10 14 -2 181.29 186.93 307.28 <
-1 10 14 -1 402.02 749.29 418.25 <
-1 -10 14 -1 400.40 -33.46 137.99 <
-1 10 14 0 38.54 202.38 384.64 <
-1 -10 14 0 41.03 733.98 488.51 <
-1 -10 14 1 91.76 -407.39 419.51 <
0 10 14 -2 217.12 258.39 281.78 <
0 -10 14 -2 219.86 239.41 216.75 <
0 10 14 -1 202.04 324.82 301.11 <
0 -10 14 -1 193.75 119.49 318.45 <
0 10 14 0 104.71 76.48 176.90 <
0 -10 14 0 90.51 -360.50 300.83 <
0 10 14 1 211.86 386.59 314.65 <
0 -10 14 1 211.43 148.57 258.02 <
1 10 14 -2 211.46 1412.14 560.49 <
1 -10 14 -2 218.74 -110.46 178.86 <
1 10 14 -1 590.83 979.08 525.71 <
1 -10 14 -1 584.76 1366.20 538.45 <
1 10 14 0 85.75 758.68 416.33 <
1 -10 14 0 92.31 138.81 201.43 <
1 10 14 1 159.26 -37.50 293.37 <
2 10 14 -2 175.07 70.87 181.21 <
2 -10 14 -2 178.14 100.98 182.71 <
2 10 14 -1 187.99 -398.16 316.00 <
-2 -11 14 -2 53.08 115.53 203.51 <
-2 -11 14 -1 416.88 350.37 318.43 <
-1 11 14 -2 242.16 -298.37 183.30 <
-1 11 14 -1 495.52 243.04 148.79 <
-1 -11 14 -1 497.26 -34.11 264.78 <
-1 -11 14 0 907.72 276.06 217.67 <
0 11 14 -2 50.61 331.59 295.76 <
0 -11 14 -2 49.55 -338.37 259.91 <
0 11 14 -1 298.26 216.43 364.07 <
0 -11 14 -1 310.11 303.22 355.54 <
0 11 14 0 277.31 276.41 217.75 <
0 -11 14 0 249.45 -127.31 259.76 <
1 11 14 -2 109.73 180.03 306.09 <
1 -11 14 -2 105.44 -108.70 106.72 <
1 11 14 -1 50.77 382.98 306.56 <
1 -11 14 -1 54.10 222.78 338.63 <
1 11 14 0 730.88 449.23 430.36 <
2 11 14 -2 38.68 -8.39 146.97 <
2 -11 14 -2 37.73 76.05 160.71 <
2 11 14 -1 210.93 177.90 185.18 <
-1 12 14 -2 270.34 131.01 185.58 <
-1 -12 14 -1 91.33 480.40 416.05 <
0 12 14 -2 75.00 73.68 381.16 <
0 -12 14 -2 71.64 123.49 179.71 <
0 12 14 -1 321.46 258.15 393.11 <
0 -12 14 -1 340.16 577.45 409.96 <
0 -12 14 0 649.46 182.49 355.02 <
1 12 14 -2 115.10 242.63 289.73 <
1 -12 14 -2 107.02 217.38 258.99 <
1 12 14 -1 45.24 46.50 365.22 <
1 -12 14 -1 38.94 382.83 365.13 <
2 12 14 -2 96.94 -3.24 153.12 <
-1 -13 14 -2 108.12 122.96 119.46 <
0 13 14 -2 112.83 137.49 381.76 <
0 -13 14 -2 113.44 -96.70 125.53 <
0 -13 14 -1 242.64 330.70 389.85 <
1 13 14 -2 103.60 -192.60 282.06 <
1 -13 14 -2 107.43 -17.92 231.17 <
0 -14 14 -2 55.26 327.91 309.26 <
1 -14 14 -2 108.63 263.41 323.82 <
0 -15 14 -2 147.81 749.40 435.68 <
-2 0 15 -2 284.70 9.07 177.14 <
-2 0 15 -1 1.82 63.11 218.40 <
-2 0 15 0 3.34 -46.48 148.51 <
-1 0 15 -2 181.12 892.01 425.16 <
-1 0 15 -1 60.22 188.73 217.02 <
-1 0 15 0 391.28 579.17 264.39 <
-1 0 15 1 21.71 87.16 243.76 <
-1 0 15 2 171.23 624.47 368.00 <
0 0 15 -2 228.42 -2.81 142.12 <
0 0 15 -1 10.28 403.33 189.64 <
0 0 15 0 37.39 -56.00 254.00 <
0 0 15 1 0.44 295.35 256.32 <
1 0 15 -2 49.91 -111.20 183.71 <
1 0 15 -1 523.91 1082.55 511.86 <
1 0 15 0 257.57 491.58 420.22 <
1 0 15 1 0.88 -224.30 349.74 <
2 0 15 -2 163.85 359.81 348.07 <
2 0 15 -1 8.63 314.82 294.41 <
-2 1 15 -2 22.15 238.95 202.45 <
-2 -1 15 -2 22.24 301.15 328.57 <
-2 1 15 -1 335.99 -31.39 185.86 <
-2 -1 15 -1 323.33 451.64 315.59 <
-2 -1 15 0 211.28 -89.29 253.86 <
-1 1 15 -2 380.52 -53.27 115.22 <
-1 -1 15 -2 373.82 31.00 194.79 <
-1 1 15 -1 121.20 -127.75 186.08 <
-1 -1 15 -1 100.29 99.16 286.74 <
-1 1 15 0 666.08 336.98 246.82 <
-1 -1 15 0 646.40 309.06 226.82 <
-1 1 15 1 4.43 264.86 214.43 <
-1 -1 15 1 5.39 -94.18 170.97 <
-1 1 15 2 194.06 462.99 263.43 <
0 1 15 -2 8.97 90.77 151.40 <
0 -1 15 -2 8.45 23.11 106.25 <
0 1 15 -1 129.42 -49.07 113.22 <
0 -1 15 -1 127.19 -180.06 250.88 <
0 1 15 0 149.12 229.47 159.36 <
0 -1 15 0 183.80 645.56 365.59 <
0 1 15 1 437.50 -173.45 305.35 <
0 -1 15 1 446.80 938.26 447.22 <
1 1 15 -2 194.25 -97.49 238.65 <
1 -1 15 -2 204.72 -4.93 155.53 <
1 1 15 -1 0.70 -21.11 139.34 <
1 -1 15 -1 0.73 -177.77 155.36 <
1 1 15 0 675.54 862.84 459.35 <
1 -1 15 0 672.17 930.11 371.02 <
1 1 15 1 79.85 -87.70 129.92 <
2 1 15 -2 3.16 79.88 264.76 <
2 -1 15 -2 2.98 -319.08 284.87 <
2 1 15 -1 39.43 213.67 179.93 <
2 -1 15 -1 37.46 219.84 259.41 <
-2 2 15 -2 135.31 236.41 265.58 <
-2 -2 15 -2 155.12 439.14 275.60 <
-2 2 15 -1 254.52 608.28 441.01 <
-2 -2 15 -1 260.00 304.65 244.58 <
-2 -2 15 0 93.45 154.44 186.04 <
-1 2 15 -2 146.70 -160.42 152.05 <
-1 -2 15 -2 143.18 5.07 100.24 <
-1 2 15 -1 9.33 240.52 258.11 <
-1 -2 15 -1 4.48 -10.91 148.44 <
-1 2 15 0 136.62 88.53 134.14 <
-1 -2 15 0 138.29 -20.92 160.49 <
-1 2 15 1 138.93 187.12 280.74 <
-1 -2 15 1 125.64 -27.35 266.24 <
-1 2 15 2 157.15 92.37 162.53 <
0 2 15 -2 137.65 -59.02 108.94 <
0 -2 15 -2 130.02 194.06 193.40 <
0 2 15 -1 486.48 314.22 213.67 <
0 -2 15 -1 490.29 385.29 234.95 <
0 2 15 0 294.35 406.31 251.99 <
0 -2 15 0 309.36 277.39 365.18 <
0 2 15 1 584.13 425.75 390.20 <
0 -2 15 1 586.00 108.47 285.95 <
0 2 15 2 152.25 23.87 226.38 <
1 2 15 -2 232.85 1.87 209.97 <
1 -2 15 -2 229.22 30.17 284.21 <
1 2 15 -1 45.83 27.85 209.15 <
1 -2 15 -1 44.74 286.50 278.47 <
1 2 15 0 200.83 579.36 396.96 <
1 -2 15 0 192.73 -10.91 135.34 <
1 2 15 1 353.24 107.61 185.21 <
2 2 15 -2 98.42 -249.04 301.06 <
2 -2 15 -2 92.32 -55.18 296.08 <
2 2 15 -1 286.75 560.01 420.09 <
2 -2 15 -1 281.60 -115.40 147.77 <
3 2 15 -2 147.40 603.35 524.30 <
-2 3 15 -2 356.14 616.72 394.22 <
-2 -3 15 -2 407.94 -60.87 110.05 <
-2 -3 15 -1 31.63 187.75 199.23 <
-2 -3 15 0 549.86 636.15 365.13 <
-1 3 15 -2 247.01 295.28 201.91 <
-1 -3 15 -2 246.71 694.72 423.79 <
-1 3 15 -1 850.80 577.91 276.60 <
-1 -3 15 -1 846.61 405.61 212.77 <
-1 3 15 0 481.84 237.43 316.09 <
-1 -3 15 0 498.73 311.39 162.66 <
-1 3 15 1 126.45 111.05 145.20 <
-1 3 15 2 18.05 297.89 271.52 <
0 3 15 -2 147.18 71.42 120.36 <
0 -3 15 -2 141.46 31.59 212.10 <
0 3 15 -1 123.89 -74.55 199.95 <
0 -3 15 -1 122.68 162.05 202.80 <
0 3 15 0 1344.36 852.19 292.13 <
0 -3 15 0 1392.80 603.84 454.46 <
0 3 15 1 20.16 331.56 221.01 <
0 -3 15 1 17.63 383.24 358.42 <
0 3 15 2 69.35 -426.23 421.57 <
1 3 15 -2 151.44 226.17 137.73 <
1 -3 15 -2 154.60 -107.83 120.90 <
1 3 15 -1 251.69 -297.41 264.13 <
1 -3 15 -1 247.01 45.78 213.15 <
1 3 15 0 679.12 412.62 366.74 <
1 -3 15 0 672.47 364.54 305.24 <
1 3 15 1 467.11 142.21 191.66 <
2 3 15 -2 99.23 192.58 274.43 <
2 -3 15 -2 96.95 102.64 172.99 <
2 3 15 -1 17.60 -15.94 125.47 <
2 -3 15 -1 17.21 639.85 536.80 <
3 3 15 -2 117.47 203.15 271.24 <
-2 -4 15 -2 17.71 -155.68 290.21 <
-2 -4 15 -1 34.75 452.77 324.85 <
-2 -4 15 0 517.88 1083.64 467.88 <
-1 4 15 -2 184.92 333.30 345.13 <
-1 -4 15 -2 182.49 -281.69 225.38 <
-1 4 15 -1 118.93 445.64 309.91 <
-1 -4 15 -1 100.24 259.17 247.60 <
-1 -4 15 0 558.21 -50.76 146.77 <
-1 4 15 1 51.20 498.82 364.33 <
-1 4 15 2 4.47 -177.69 146.32 <
0 4 15 -2 33.99 -0.33 241.69 <
0 -4 15 -2 38.72 381.87 228.75 <
0 4 15 -1 49.51 -80.40 193.97 <
0 -4 15 -1 46.86 291.56 435.46 <
0 4 15 0 1105.55 979.72 309.65 o
0 -4 15 0 1093.88 1679.55 609.78 <
0 4 15 1 170.56 -366.98 227.71 <
0 4 15 2 6.17 595.41 438.27 <
1 4 15 -2 238.89 95.18 151.60 <
1 -4 15 -2 226.74 3.22 189.53 <
1 4 15 -1 11.90 -296.56 276.89 <
1 -4 15 -1 13.33 537.54 359.35 <
1 4 15 0 390.44 23.96 115.92 <
1 -4 15 0 403.47 29.26 105.12 <
1 4 15 1 463.75 556.90 406.89 <
2 4 15 -2 65.98 95.79 186.69 <
2 -4 15 -2 74.57 -124.86 321.43 <
2 4 15 -1 71.16 241.04 253.47 <
3 4 15 -2 216.91 -17.70 296.56 <
-2 -5 15 -2 281.07 70.13 206.82 <
-2 -5 15 -1 149.22 180.36 345.59 <
-2 -5 15 0 228.35 284.41 302.28 <
-1 5 15 -2 173.82 235.52 239.39 <
-1 -5 15 -2 181.60 297.67 227.93 <
-1 5 15 -1 255.06 318.41 393.50 <
-1 -5 15 -1 264.90 570.21 284.47 <
-1 5 15 0 72.46 -350.63 352.15 <
-1 -5 15 0 75.69 664.37 373.31 <
-1 5 15 1 238.16 -157.77 222.65 <
0 5 15 -2 141.50 244.84 192.41 <
0 -5 15 -2 141.73 459.25 355.52 <
0 5 15 -1 71.71 3.31 130.40 <
0 -5 15 -1 75.80 80.42 225.97 <
0 5 15 0 133.45 -230.58 182.79 <
0 -5 15 0 141.11 261.61 251.93 <
0 5 15 1 45.90 12.43 153.70 <
0 5 15 2 4.55 -77.88 90.68 <
1 5 15 -2 161.18 -56.57 121.14 <
1 -5 15 -2 164.58 6.50 193.84 <
1 5 15 -1 468.90 112.38 156.20 <
1 -5 15 -1 477.66 -357.92 396.63 <
1 5 15 0 38.56 -261.15 319.28 <
1 5 15 1 104.19 -88.20 177.73 <
2 5 15 -2 167.64 333.55 191.17 <
2 -5 15 -2 170.58 537.12 294.30 <
2 5 15 -1 244.98 -538.40 339.54 <
2 5 15 0 167.65 -323.91 212.25 <
3 5 15 -2 74.32 1186.36 473.14 <
-2 -6 15 -2 473.87 49.94 146.32 <
-1 6 15 -2 67.48 145.08 236.30 <
-1 -6 15 -2 66.09 -143.49 136.38 <
-1 6 15 -1 889.03 474.70 310.32 <
-1 -6 15 -1 880.08 695.85 317.22 <
-1 6 15 0 559.43 712.79 387.77 <
0 6 15 -2 235.97 -193.19 287.37 <
0 -6 15 -2 225.66 -157.40 299.35 <
0 6 15 -1 275.88 404.81 225.54 <
0 -6 15 -1 260.79 773.99 445.68 <
0 6 15 0 81.15 -216.58 160.95 <
0 -6 15 0 104.63 -165.51 246.06 <
0 6 15 1 31.07 90.66 149.46 <
0 6 15 2 245.94 233.10 168.68 <
1 6 15 -2 42.51 -99.29 133.97 <
1 -6 15 -2 40.57 211.45 174.10 <
1 6 15 -1 139.67 51.44 109.83 <
1 -6 15 -1 132.04 99.51 147.18 <
1 6 15 0 480.37 664.46 429.62 <
1 6 15 1 113.64 412.33 250.15 <
2 6 15 -2 183.80 380.03 326.45 <
2 -6 15 -2 184.81 471.99 430.11 <
2 6 15 -1 196.27 -284.91 280.61 <
-1 7 15 -2 120.02 -110.85 184.32 <
-1 -7 15 -2 118.90 -116.99 194.21 <
-1 7 15 -1 400.04 761.49 392.13 <
-1 -7 15 -1 414.32 420.05 323.91 <
0 7 15 -2 45.22 335.74 331.52 <
0 -7 15 -2 49.20 193.36 305.41 <
0 7 15 -1 139.36 316.11 282.76 <
0 -7 15 -1 131.34 872.73 519.34 <
0 7 15 0 371.75 -48.42 126.53 <
0 7 15 1 122.32 3.98 124.55 <
1 7 15 -2 90.09 89.62 125.71 <
1 -7 15 -2 96.34 -122.01 181.68 <
1 7 15 -1 42.84 -41.39 151.47 <
1 -7 15 -1 36.38 -78.20 119.62 <
1 7 15 0 27.18 649.78 374.54 <
2 -7 15 -2 143.75 156.73 200.90 <
-1 8 15 -2 23.83 291.87 212.19 <
0 8 15 -2 263.25 -319.48 232.56 <
0 -8 15 -2 259.46 928.30 481.75 <
0 8 15 -1 52.47 -451.85 349.24 <
0 -8 15 -1 48.55 328.80 300.87 <
0 8 15 0 414.97 468.05 368.65 <
1 8 15 -2 83.52 289.78 395.98 <
1 -8 15 -2 85.44 108.92 164.95 <
1 8 15 -1 254.72 478.70 451.70 <
1 8 15 0 223.19 -482.79 406.90 <
0 9 15 -2 44.08 -201.51 165.01 <
0 -9 15 -2 48.92 586.97 396.42 <
0 9 15 -1 214.09 361.42 286.30 <
1 9 15 -2 74.50 256.56 350.81 <
1 -9 15 -2 80.74 229.88 100.09 <
1 9 15 -1 3.96 -220.06 340.04 <
2 9 15 -2 15.17 523.54 385.61 <
0 10 15 -2 8.46 -38.11 259.50 <
0 -10 15 -2 10.64 384.64 395.55 <
1 10 15 -2 139.78 -298.50 262.02 <
1 -10 15 -2 140.03 313.28 208.47 <
1 10 15 -1 102.00 637.96 408.61 <
2 10 15 -2 6.41 -169.88 250.65 <
1 11 15 -2 17.51 315.61 384.00 <
-1 0 16 -2 310.42 746.96 386.07 <
-1 0 16 -1 12.50 180.08 314.63 <
-1 0 16 0 58.19 360.83 327.04 <
0 0 16 -2 217.10 307.80 194.79 <
0 0 16 -1 1292.25 1023.37 497.69 <
1 0 16 -2 260.22 701.57 398.52 <
-1 1 16 -2 93.91 -120.96 130.23 <
-1 -1 16 -2 80.42 55.39 186.19 <
-1 1 16 -1 207.10 44.52 140.88 <
-1 -1 16 -1 198.49 6.85 312.89 <
-1 -1 16 0 209.07 105.75 279.50 <
0 1 16 -2 371.78 147.92 142.01 <
0 -1 16 -2 359.57 81.53 201.69 <
0 1 16 -1 267.55 331.13 187.12 <
1 1 16 -2 151.13 3.44 173.82 <
1 -1 16 -2 150.92 241.80 341.87 <
-1 2 16 -2 161.17 5.93 199.36 <
-1 -2 16 -2 154.90 -42.87 186.86 <
-1 2 16 -1 155.22 2.30 252.13 <
-1 -2 16 -1 145.70 125.42 189.29 <
-1 -2 16 0 730.33 223.62 206.03 <
0 2 16 -2 241.00 82.87 144.71 <
0 -2 16 -2 244.10 84.79 345.67 <
0 2 16 -1 98.96 -52.74 170.92 <
1 2 16 -2 94.83 882.40 433.55 <
1 -2 16 -2 92.60 141.70 211.91 <
-1 3 16 -2 384.42 404.35 326.96 <
-1 -3 16 -2 384.73 652.15 323.96 <
-1 -3 16 -1 857.49 684.42 332.93 <
0 3 16 -2 50.80 -67.74 146.42 <
0 -3 16 -2 49.48 358.67 363.13 <
0 3 16 -1 274.24 144.97 268.87 <
1 3 16 -2 184.02 242.95 256.02 <
1 -3 16 -2 178.95 -205.80 327.15 <
1 3 16 -1 203.90 678.61 496.23 <
-1 -4 16 -2 10.72 276.45 280.30 <
-1 -4 16 -1 305.99 414.26 299.61 <
0 4 16 -2 143.49 124.03 210.06 <
0 -4 16 -2 140.34 27.78 220.30 <
0 4 16 -1 112.52 50.20 189.71 <
0 4 16 0 65.99 -278.52 327.15 <
1 4 16 -2 12.07 157.45 298.72 <
1 4 16 -1 103.66 321.13 312.17 <
2 4 16 -2 47.95 72.70 293.28 <
-1 -5 16 -2 151.29 306.93 131.09 <
0 5 16 -2 38.24 388.89 283.06 <
0 5 16 -1 0.37 -237.52 226.19 <
1 5 16 -2 27.84 259.93 161.20 <
1 5 16 -1 283.14 22.65 185.92 <
2 5 16 -2 66.17 504.62 395.24 <
0 6 16 -2 21.92 -378.26 334.41 <
1 6 16 -2 73.88 121.79 180.69 <
1 6 16 -1 10.05 685.65 428.22 <
0 7 16 -2 196.02 -540.66 367.94 <
1 7 16 -2 87.38 256.39 287.34 <
1 8 16 -2 227.92 -553.88 419.07 <
loop_
_jana_cell_twin_matrix_id
_jana_cell_twin_volume_fraction
_jana_cell_twin_matrix_1_1
_jana_cell_twin_matrix_1_2
_jana_cell_twin_matrix_1_3
_jana_cell_twin_matrix_2_1
_jana_cell_twin_matrix_2_2
_jana_cell_twin_matrix_2_3
_jana_cell_twin_matrix_3_1
_jana_cell_twin_matrix_3_2
_jana_cell_twin_matrix_3_3
1 0.885(5) 1 0 0 0 1 0 0 0 1
2 0.115(5) -1 0 0 0 1 0 0 0 1
