#------------------------------------------------------------------------------
#$Date: 2015-12-09 16:41:57 +0200 (Wed, 09 Dec 2015) $
#$Revision: 171230 $
#$URL: svn://www.crystallography.net/cod/cif/7/03/67/7036706.cif $
#------------------------------------------------------------------------------
#
# This file is available in the Crystallography Open Database (COD),
# http://www.crystallography.net/
#
# All data on this site have been placed in the public domain by the
# contributors.
#
data_7036706
loop_
_publ_author_name
'Berenguer, J. R.'
'Pichel, J. G.'
'Gim\'enez, N'
'Lalinde, E.'
'Moreno, M. T.'
'Pi\~neiro-Hermida, S'
_publ_section_title
;
 Luminescent pentafluorophenyl-cycloplatinated complexes: synthesis,
 characterization, photophysics, cytotoxicity and cellular imaging.
;
_journal_issue                   43
_journal_name_full
'Dalton transactions (Cambridge, England : 2003)'
_journal_page_first              18839
_journal_page_last               18855
_journal_paper_doi               10.1039/c5dt02721g
_journal_volume                  44
_journal_year                    2015
_chemical_formula_sum            'C17 H12 F5 N O Pt S2'
_chemical_formula_weight         600.49
_space_group_IT_number           2
_symmetry_cell_setting           triclinic
_symmetry_Int_Tables_number      2
_symmetry_space_group_name_Hall  '-P 1'
_symmetry_space_group_name_H-M   'P -1'
_atom_sites_solution_hydrogens   geom
_audit_conform_dict_location     ftp://ftp.iucr.org/pub/cif_core.dic
_audit_conform_dict_name         cif_core.dic
_audit_conform_dict_version      2.4.3
_audit_creation_date             2015-01-20T18:18:50-00:00
_audit_creation_method           'WinGX routine CIF_UPDATE'
_audit_update_record
;
2015-07-14 deposited with the CCDC.
2015-09-28 downloaded from the CCDC.
;
_cell_angle_alpha                84.911(2)
_cell_angle_beta                 85.894(3)
_cell_angle_gamma                88.980(3)
_cell_formula_units_Z            2
_cell_length_a                   6.7971(2)
_cell_length_b                   10.3253(5)
_cell_length_c                   12.4185(6)
_cell_measurement_reflns_used    3524
_cell_measurement_temperature    173.0(10)
_cell_measurement_theta_max      0
_cell_measurement_theta_min      0
_cell_measurement_wavelength     0.71073
_cell_volume                     865.84(6)
_computing_cell_refinement       'HKL Scalepack (Otwinowski & Minor 1997)'
_computing_data_collection       'Collect (Bruker AXS BV, 1997-2004)'
_computing_data_reduction
'HKL Denzo and Scalepack (Otwinowski & Minor 1997)'
_computing_molecular_graphics    'Ortep for Windows (Farrugia, 2012)'
_computing_publication_material  'WinGX publication routines (Farrugia, 2012)'
_computing_structure_refinement  'SHELXL-2014/7 (Sheldrick, 2014)'
_diffrn_ambient_temperature      173.0(10)
_diffrn_detector                 'CCD plate'
_diffrn_detector_area_resol_mean 9
_diffrn_measured_fraction_theta_full 0.951
_diffrn_measured_fraction_theta_max 0.951
_diffrn_measurement_device       '95mm CCD camera on \k-goniostat'
_diffrn_measurement_device_type  KappaCCD
_diffrn_measurement_method       'CCD rotation images, thick slices'
_diffrn_orient_matrix_UB_11      -0.106105
_diffrn_orient_matrix_UB_12      0.068011
_diffrn_orient_matrix_UB_13      -0.006476
_diffrn_orient_matrix_UB_21      0.013727
_diffrn_orient_matrix_UB_22      -0.000459
_diffrn_orient_matrix_UB_23      -0.080679
_diffrn_orient_matrix_UB_31      -0.10155
_diffrn_orient_matrix_UB_32      -0.069496
_diffrn_orient_matrix_UB_33      0.004137
_diffrn_radiation_monochromator  'horizonally mounted graphite crystal'
_diffrn_radiation_probe          x-ray
_diffrn_radiation_type           MoK\a
_diffrn_radiation_wavelength     0.71073
_diffrn_reflns_av_unetI/netI     0.0226
_diffrn_reflns_laue_measured_fraction_full 0.951
_diffrn_reflns_laue_measured_fraction_max 0.951
_diffrn_reflns_limit_h_max       8
_diffrn_reflns_limit_h_min       0
_diffrn_reflns_limit_k_max       13
_diffrn_reflns_limit_k_min       -13
_diffrn_reflns_limit_l_max       16
_diffrn_reflns_limit_l_min       -15
_diffrn_reflns_number            2795
_diffrn_reflns_point_group_measured_fraction_full 0.951
_diffrn_reflns_point_group_measured_fraction_max 0.951
_diffrn_reflns_theta_full        24.711
_diffrn_reflns_theta_max         24.711
_diffrn_reflns_theta_min         1.65
_diffrn_source                   'Enraf Nonius FR590'
_diffrn_standards_number         0
_exptl_absorpt_coefficient_mu    8.403
_exptl_absorpt_correction_T_max  0.0564
_exptl_absorpt_correction_T_min  0.0296
_exptl_absorpt_correction_type   multi-scan
_exptl_absorpt_process_details
;
        [c.f. r.h. blessing, acta cryst. (1995), a51, 33-38]
;
_exptl_crystal_colour            orange
_exptl_crystal_density_diffrn    2.303
_exptl_crystal_density_method    'not measured'
_exptl_crystal_description       block
_exptl_crystal_F_000             568
_exptl_crystal_preparation       Luminescent
_exptl_crystal_size_max          0.8
_exptl_crystal_size_mid          0.7
_exptl_crystal_size_min          0.1
_refine_diff_density_max         2.834
_refine_diff_density_min         -3.185
_refine_diff_density_rms         0.425
_refine_ls_extinction_coef       0.072(5)
_refine_ls_extinction_expression Fc^*^=kFc[1+0.001xFc^2^\l^3^/sin(2\q)]^-1/4^
_refine_ls_extinction_method     'SHELXL-2014/7 (Sheldrick 2014'
_refine_ls_goodness_of_fit_ref   1.197
_refine_ls_hydrogen_treatment    constr
_refine_ls_matrix_type           full
_refine_ls_number_constraints    0
_refine_ls_number_parameters     215
_refine_ls_number_reflns         2795
_refine_ls_number_restraints     0
_refine_ls_restrained_S_all      1.197
_refine_ls_R_factor_all          0.0556
_refine_ls_R_factor_gt           0.0547
_refine_ls_shift/su_max          0
_refine_ls_shift/su_mean         0
_refine_ls_structure_factor_coef Fsqd
_refine_ls_weighting_details
'w=1/[\s^2^(Fo^2^)+(0.1227P)^2^+0.5901P] where P=(Fo^2^+2Fc^2^)/3'
_refine_ls_weighting_scheme      calc
_refine_ls_wR_factor_gt          0.1467
_refine_ls_wR_factor_ref         0.1501
_reflns_Friedel_coverage         0
_reflns_number_gt                2772
_reflns_number_total             2795
_reflns_threshold_expression     'I > 2\s(I)'
_iucr_refine_instructions_details
;
 
    shelx.res created by SHELXL-2014/7
 
TITL shelx.res in P-1
CELL  0.71073   6.7971  10.3253  12.4185   84.911   85.894   88.980
ZERR     2.00   0.0002   0.0005   0.0006    0.002    0.003    0.003
LATT   1
SFAC  C    H    F    N    O    PT   S
UNIT  34 24 10 2 2 2 4
MERG   2
SHEL 0.85 999
EADP C10 C11 C12 C13 C14 C15
FMAP   2
PLAN   25
ACTA
BOND   $H
L.S.  10
WGHT    0.122700    0.590100
EXTI    0.072059
FVAR       1.92449
PT1   6    0.241269    0.322050    0.688175    11.00000    0.02477    0.02104 =
         0.01216   -0.00152   -0.00205   -0.00027
S1    7    0.327714    0.291618    0.332383    11.00000    0.03716    0.04384 =
         0.01532   -0.00557    0.00063   -0.00220
O1    5   -0.019962    0.501738    0.846598    11.00000    0.04646    0.03887 =
         0.02121   -0.00274    0.00318    0.01573
S2    7    0.136592    0.401442    0.849750    11.00000    0.03435    0.02469 =
         0.01081   -0.00265    0.00031    0.00097
N1    4    0.219954    0.495712    0.587940    11.00000    0.02325    0.03029 =
         0.01045   -0.00315    0.00232    0.00123
C1    1    0.302297    0.256416    0.538291    11.00000    0.02330    0.03539 =
         0.01115   -0.00541    0.01015   -0.00787
C2    1    0.328469    0.131806    0.500517    11.00000    0.03912    0.03973 =
         0.01570   -0.00457    0.00241   -0.00092
AFIX  43
H2    2    0.334057    0.055257    0.545748    11.00000   -1.20000
AFIX   0
C3    1    0.344391    0.136446    0.391672    11.00000    0.04340    0.04353 =
         0.01381   -0.01047    0.00586   -0.00090
AFIX  43
H3    2    0.362429    0.063473    0.353072    11.00000   -1.20000
AFIX   0
C4    1    0.297401    0.349978    0.459768    11.00000    0.02016    0.03693 =
         0.00908   -0.00685   -0.00106   -0.00040
C5    1    0.257447    0.483853    0.479771    11.00000    0.01768    0.03483 =
         0.03196   -0.00366   -0.00190   -0.00159
C6    1    0.258458    0.590264    0.404770    11.00000    0.02246    0.04077 =
         0.01593    0.01084    0.00080   -0.00602
AFIX  43
H6    2    0.287597    0.579910    0.331695    11.00000   -1.20000
AFIX   0
C7    1    0.215698    0.713918    0.438394    11.00000    0.02707    0.02973 =
         0.02673    0.01292   -0.00226   -0.00336
AFIX  43
H7    2    0.211327    0.786844    0.388934    11.00000   -1.20000
AFIX   0
C8    1    0.179985    0.722989    0.549138    11.00000    0.03111    0.02544 =
         0.04116    0.00775    0.00400    0.00106
AFIX  43
H8    2    0.156160    0.803889    0.575256    11.00000   -1.20000
AFIX   0
C9    1    0.179694    0.616335    0.618144    11.00000    0.02758    0.02753 =
         0.02940   -0.00466   -0.00144   -0.00153
AFIX  43
H9    2    0.150018    0.625613    0.691352    11.00000   -1.20000
AFIX   0
C10   1    0.304325    0.146912    0.762005    11.00000    0.05682    0.02874 =
         0.01036    0.00049    0.00173    0.00886
C11   1    0.186624    0.038255    0.764452    11.00000    0.05682    0.02874 =
         0.01036    0.00049    0.00173    0.00886
C12   1    0.235275   -0.083040    0.812774    11.00000    0.05682    0.02874 =
         0.01036    0.00049    0.00173    0.00886
C13   1    0.409411   -0.098724    0.864567    11.00000    0.05682    0.02874 =
         0.01036    0.00049    0.00173    0.00886
C14   1    0.534086    0.004772    0.864163    11.00000    0.05682    0.02874 =
         0.01036    0.00049    0.00173    0.00886
C15   1    0.480863    0.122342    0.813363    11.00000    0.05682    0.02874 =
         0.01036    0.00049    0.00173    0.00886
C16   1    0.336869    0.465644    0.913602    11.00000    0.04965    0.04802 =
         0.02746   -0.01661   -0.01762   -0.00031
AFIX  33
H16A  2    0.442255    0.402599    0.917113    11.00000   -1.50000
H16B  2    0.383083    0.543589    0.872353    11.00000   -1.50000
H16C  2    0.292727    0.485191    0.985598    11.00000   -1.50000
AFIX   0
C17   1    0.057562    0.276513    0.952697    11.00000    0.05492    0.03526 =
         0.02571    0.00639    0.01125    0.00036
AFIX  33
H17A  2    0.156382    0.209029    0.957173    11.00000   -1.50000
H17B  2    0.038156    0.312886    1.021228    11.00000   -1.50000
H17C  2   -0.064128    0.240797    0.934759    11.00000   -1.50000
AFIX   0
F1    3    0.012321    0.048837    0.717875    11.00000    0.05613    0.04050 =
         0.03735    0.00145   -0.00254   -0.01559
F2    3    0.107512   -0.183089    0.814207    11.00000    0.09711    0.02826 =
         0.03702   -0.00162    0.01129   -0.01780
F3    3    0.453465   -0.215870    0.914777    11.00000    0.12850    0.02543 =
         0.03534    0.00871    0.00792    0.02256
F4    3    0.706397   -0.011691    0.910162    11.00000    0.06822    0.06143 =
         0.01589    0.00616   -0.00613    0.02650
F5    3    0.609602    0.220190    0.816639    11.00000    0.03464    0.04408 =
         0.02862    0.00090   -0.00535    0.00015
HKLF    4
 
REM  shelx.res in P-1
REM R1 =  0.0547 for    2772 Fo > 4sig(Fo)  and  0.0556 for all    2795 data
REM    215 parameters refined using      0 restraints
 
END
 
WGHT      0.1243      0.6787
 
REM Highest difference peak  2.834,  deepest hole -3.185,  1-sigma level  0.425
Q1    1   0.2550  0.4349  0.6841  11.00000  0.05    2.83
Q2    1   0.2307  0.2151  0.6982  11.00000  0.05    2.45
Q3    1   0.2643  0.3164  0.8427  11.00000  0.05    1.90
Q4    1   0.2845  0.4183  0.7755  11.00000  0.05    1.65
Q5    1   0.3211 -0.1038  0.8488  11.00000  0.05    1.65
Q6    1   0.0794  0.3114  0.7552  11.00000  0.05    1.59
Q7    1   0.2944  0.5127  0.6952  11.00000  0.05    1.54
Q8    1   0.2883  0.0303  0.9384  11.00000  0.05    1.47
Q9    1   0.3966  0.3198  0.6250  11.00000  0.05    1.46
Q10   1   0.1782  0.2334  0.6034  11.00000  0.05    1.25
Q11   1   0.5351  0.5768  0.8791  11.00000  0.05    1.22
Q12   1   0.8854  0.0278  0.8396  11.00000  0.05    1.19
Q13   1   0.0677  0.4262  0.8644  11.00000  0.05    1.18
Q14   1   0.0338  0.9177  0.4961  11.00000  0.05    1.16
Q15   1   0.2838  0.2637  0.7827  11.00000  0.05    1.12
Q16   1   0.4611 -0.1632  0.8871  11.00000  0.05    1.07
Q17   1   0.1460  0.7405  0.5345  11.00000  0.05    1.07
Q18   1   0.5334 -0.2874  0.8988  11.00000  0.05    1.06
Q19   1   0.5057  0.5799  0.8170  11.00000  0.05    1.06
Q20   1   0.5719 -0.2065  0.9137  11.00000  0.05    1.05
Q21   1   0.5311  0.6455  0.8174  11.00000  0.05    1.01
Q22   1  -0.0147  0.3447  1.0439  11.00000  0.05    0.99
Q23   1   0.1489  0.0591  0.6829  11.00000  0.05    0.97
Q24   1   0.0546  0.0998  0.5354  11.00000  0.05    0.97
Q25   1   0.4756  0.0842  0.8616  11.00000  0.05    0.96
;
_cod_data_source_file            c5dt02721g2.cif
_cod_data_source_block           3a
_cod_depositor_comments
'Adding full bibliography for 7036703--7036707.cif.'
_cod_database_code               7036706
_iucr_refine_reflections_details
;
   0   0   1   68.20    8.20   1
   0   0   223288.40  483.10   1
   0   0   3 6097.80  113.50   1
   0   0   412220.70  234.40   1
   0   0   548316.40 1182.50   1
   0   0   635162.40  622.50   1
   0   0   710577.60  179.00   1
   0   0   862591.40 1462.30   1
   0   0   9 2538.50   54.50   1
   0   0  1012364.00  231.90   1
   0   0  1125156.20  448.90   1
   0   0  12 1047.40   41.40   1
   0   0  1325970.40  527.40   1
   0   0  14 9073.60  205.40   1
   0   0  15  835.60   44.20   1
   0   0  16 6619.10  316.50   1
   0   1 -1510229.50  248.10   1
   0   1 -14 5014.00  136.50   1
   0   1 -1311277.60  251.10   1
   0   1 -1219612.60  418.10   1
   0   1 -11 1446.00   43.70   1
   0   1 -1013611.40  292.60   1
   0   1  -914104.80  309.40   1
   0   1  -8  644.50   21.00   1
   0   1  -743340.20 1027.90   1
   0   1  -6 1788.10   45.20   1
   0   1  -511129.00  179.10   1
   0   1  -4 9549.70  119.20   1
   0   1  -3  301.10    7.30   1
   0   1  -2 9313.50  123.20   1
   0   1  -1 9459.90  296.90   1
   0   1   0 5641.70  230.70   1
   0   1   212256.40  165.60   1
   0   1   440734.50 1448.70   1
   0   1   5 1977.10   35.00   1
   0   1   646483.80  738.90   1
   0   1   7 7918.50  112.40   1
   0   1   822818.50  406.20   1
   0   1   926353.50  462.70   1
   0   1  10 6234.50  109.00   1
   0   1  1123346.40  419.90   1
   0   1  1224652.60  426.50   1
   0   1  13 3988.10   90.00   1
   0   1  1416684.10  344.00   1
   0   1  15 4870.20  127.80   1
   0   1  16 1780.40  125.00   1
   0   2 -15 1328.50   56.40   1
   0   2 -1426051.90  695.10   1
   0   2 -13 1267.70   51.30   1
   0   2 -1215644.20  347.00   1
   0   2 -11 9795.40  225.00   1
   0   2 -10  634.80   25.80   1
   0   2  -927821.10  564.70   1
   0   2  -831429.60  629.30   1
   0   2  -712943.00  186.20   1
   0   2  -650375.10 1597.50   1
   0   2  -5  193.60    6.50   1
   0   2  -412941.40  228.80   1
   0   2  -320133.00  655.10   1
   0   2  -2 1514.80   21.10   1
   0   2   1 7575.30   91.60   1
   0   2   213160.40  290.90   1
   0   2   432874.20 1130.90   1
   0   2   542655.70 1434.60   1
   0   2   6   94.10    9.00   1
   0   2   715247.30  215.20   1
   0   2   814009.80  214.10   1
   0   2   9 3288.90   71.70   1
   0   2  1020546.20  373.20   1
   0   2  11  743.90   25.80   1
   0   2  1218062.10  319.50   1
   0   2  13 6451.90  129.60   1
   0   2  14  130.20   23.70   1
   0   2  15 5552.80  123.60   1
   0   2  16 4895.80  160.40   1
   0   3 -15 6575.50  244.90   1
   0   3 -14 3198.80  103.70   1
   0   3 -1312440.20  287.10   1
   0   3 -12  641.00   41.90   1
   0   3 -11 4430.20  123.80   1
   0   3 -10 3393.50   93.30   1
   0   3  -9 2596.60   68.70   1
   0   3  -823064.40  447.80   1
   0   3  -716485.90  277.90   1
   0   3  -614782.60  294.10   1
   0   3  -532061.00 1064.10   1
   0   3  -4  148.00    5.80   1
   0   3  -114192.80  224.80   1
   0   3   1 9056.80  109.20   1
   0   3   213635.00  176.90   1
   0   3   4   64.50    5.90   1
   0   3   616180.20  226.90   1
   0   3   7 2349.90   42.60   1
   0   3   828786.30  588.00   1
   0   3   916438.30  364.60   1
   0   3  10 4595.50   97.70   1
   0   3  1128411.80  626.60   1
   0   3  12  193.50   24.80   1
   0   3  1316038.10  294.30   1
   0   3  14 7185.10  148.10   1
   0   3  15  357.80   24.30   1
   0   4 -14 3776.80  140.80   1
   0   4 -13 2327.00   78.40   1
   0   4 -12 8179.20  195.60   1
   0   4 -11  663.10   35.20   1
   0   4 -10 6428.20  138.10   1
   0   4  -922088.20  437.00   1
   0   4  -8  196.10   12.00   1
   0   4  -724930.40  492.50   1
   0   4  -6 4152.40   88.80   1
   0   4  -5  308.00    9.90   1
   0   4  -427812.00  913.50   1
   0   4  -3 4824.40   72.80   1
   0   4  -114215.60  260.80   1
   0   4   0  258.80    6.90   1
   0   4   2 5756.30   71.70   1
   0   4   318057.30  291.70   1
   0   4   439078.80 1252.80   1
   0   4   5  217.10    7.20   1
   0   4   632299.00 1031.10   1
   0   4   7 9980.90  160.50   1
   0   4   8  318.70   17.90   1
   0   4   916916.80  356.90   1
   0   4  10 2008.40   54.40   1
   0   4  1114355.10  275.90   1
   0   4  12 8063.70  182.30   1
   0   4  13  215.70   31.60   1
   0   4  14 7706.60  188.90   1
   0   4  15 5009.00  114.30   1
   0   5 -14 7165.50  267.00   1
   0   5 -13  185.80   50.20   1
   0   5 -12 2157.50   83.50   1
   0   5 -11 9869.10  224.50   1
   0   5 -10   66.30   19.30   1
   0   5  -921869.10  442.30   1
   0   5  -811535.20  228.80   1
   0   5  -7 1956.40   42.20   1
   0   5  -635138.00  783.00   1
   0   5  -5 5836.50   95.10   1
   0   5  -410062.40  149.70   1
   0   5  -336903.80 1199.50   1
   0   5  -2  248.80    7.80   1
   0   5   024251.40  531.70   1
   0   5   1 2657.00   35.40   1
   0   5   223933.00  529.30   1
   0   5   313378.80  166.40   1
   0   5   426133.60  984.20   1
   0   5   6 1425.90   24.60   1
   0   5   718755.30  383.10   1
   0   5   823729.30  465.80   1
   0   5   9  798.20   30.10   1
   0   5  1020723.50  429.10   1
   0   5  11 5860.70  129.50   1
   0   5  12 4444.10  128.50   1
   0   5  13 6201.40  151.60   1
   0   5  14  738.00   38.30   1
   0   5  15 3021.70  112.10   1
   0   6 -12  374.60   42.90   1
   0   6 -11 3194.50  116.10   1
   0   6 -1010340.10  274.40   1
   0   6  -9  502.80   42.00   1
   0   6  -818092.10  454.10   1
   0   6  -7 5556.90  125.20   1
   0   6  -6 3184.90   70.40   1
   0   6  -515083.80  342.80   1
   0   6  -4 7297.90  140.00   1
   0   6  -321441.90  481.60   1
   0   6  -215674.10  351.90   1
   0   6  -1 1023.60   21.70   1
   0   6   025275.20  462.30   1
   0   6   112589.80  169.70   1
   0   6   2 7894.30  100.50   1
   0   6   322554.20  366.20   1
   0   6   4 3290.40   44.40   1
   0   6   526089.10  817.30   1
   0   6   612065.00  198.10   1
   0   6   7   22.10    7.50   1
   0   6   811723.70  249.40   1
   0   6   916699.40  344.40   1
   0   6  10 8260.50  178.70   1
   0   6  1117475.50  375.90   1
   0   6  12  884.20   41.50   1
   0   6  13 4972.40  146.20   1
   0   6  14 8814.20  210.70   1
   0   7 -11 4223.40  144.90   1
   0   7 -10 9230.30  209.00   1
   0   7  -917849.10  473.50   1
   0   7  -8  131.20   33.60   1
   0   7  -7 9446.80  249.40   1
   0   7  -611590.30  269.70   1
   0   7  -5  603.00   21.60   1
   0   7  -433229.10 1029.80   1
   0   7  -3 8264.90  189.40   1
   0   7  -219565.30  356.00   1
   0   7  -120609.50  371.70   1
   0   7   0  106.40    5.70   1
   0   7   114818.90  271.60   1
   0   7   218395.30  338.80   1
   0   7   3 3583.70   64.10   1
   0   7   5 1721.20   38.30   1
   0   7   6 9944.60  168.10   1
   0   7   7 6466.60  136.80   1
   0   7   8  121.70   16.60   1
   0   7   911103.30  232.80   1
   0   7  10 4122.60  101.90   1
   0   7  11 1262.30   47.20   1
   0   7  12 6450.50  160.90   1
   0   7  13  442.40   34.10   1
   0   7  14 3822.80  111.90   1
   0   8 -12  375.50   93.30   1
   0   8 -11 7203.70  214.40   1
   0   8 -10 1441.60   71.70   1
   0   8  -912705.50  334.00   1
   0   8  -8 9846.40  253.50   1
   0   8  -7  600.20   33.60   1
   0   8  -611234.00  272.80   1
   0   8  -5 5585.40  135.90   1
   0   8  -4 4501.30  109.60   1
   0   8  -2 1470.30   37.80   1
   0   8  -1 6462.00  123.60   1
   0   8   0 9952.80  186.30   1
   0   8   1   41.20    5.20   1
   0   8   243226.70 1373.20   1
   0   8   313605.80  258.70   1
   0   8   411757.50  222.70   1
   0   8   523843.10  744.20   1
   0   8   6 4017.20   83.00   1
   0   8   710469.20  206.70   1
   0   8   825468.20  814.20   1
   0   8   9  967.40   34.90   1
   0   8  1012693.80  268.90   1
   0   8  11 2180.20   64.70   1
   0   8  12  426.30   31.80   1
   0   8  13 7376.40  191.00   1
   0   9 -1010357.80  297.40   1
   0   9  -9  183.90   45.80   1
   0   9  -8 4027.10  125.00   1
   0   9  -7 5009.90  139.40   1
   0   9  -6   87.20   21.20   1
   0   9  -517048.50  434.90   1
   0   9  -4 4249.60   86.10   1
   0   9  -3 6119.40  119.30   1
   0   9  -213950.30  267.90   1
   0   9  -1 1588.30   35.90   1
   0   9   0 4425.50   88.50   1
   0   9   1 5123.40  103.10   1
   0   9   2   41.70   13.00   1
   0   9   310179.20  196.60   1
   0   9   4 3654.60   74.60   1
   0   9   5 5022.80  102.10   1
   0   9   614233.40  277.80   1
   0   9   7 1179.80   37.40   1
   0   9   813944.30  344.60   1
   0   9   9 6265.40  140.70   1
   0   9  10 2619.50   70.90   1
   0   9  11 6153.40  149.40   1
   0   9  12 2850.20   79.60   1
   0  10  -9 5203.60  172.40   1
   0  10  -8  482.50   37.90   1
   0  10  -7 6947.10  187.20   1
   0  10  -611071.30  222.80   1
   0  10  -5 1698.40   49.30   1
   0  10  -416395.20  307.00   1
   0  10  -3 3868.20   81.60   1
   0  10  -2 3616.20   75.70   1
   0  10  -113804.90  257.10   1
   0  10   0 3840.20   78.00   1
   0  10   119511.40  360.80   1
   0  10   211139.60  220.30   1
   0  10   3 3786.00   78.10   1
   0  10   4 2095.30   47.20   1
   0  10   5 5727.80  118.50   1
   0  10   6  786.50   26.10   1
   0  10   720467.50  656.10   1
   0  10   8  527.10   27.90   1
   0  10   9 7990.30  206.30   1
   0  10  10 3465.70   90.90   1
   0  10  11   13.80   31.70   1
   0  11  -8 2264.10  124.30   1
   0  11  -7  602.70   34.30   1
   0  11  -6 5856.20  131.60   1
   0  11  -5 5486.70  129.30   1
   0  11  -4 2181.80   54.20   1
   0  11  -3 7528.30  154.90   1
   0  11  -2 2032.20   49.40   1
   0  11  -1 4080.80   85.00   1
   0  11   013687.50  258.50   1
   0  11   1   55.80   14.80   1
   0  11   214108.60  329.00   1
   0  11   3 5063.80  106.70   1
   0  11   4 2040.90   51.20   1
   0  11   5 9005.60  177.80   1
   0  11   6 2134.90   52.00   1
   0  11   7 4719.10  102.10   1
   0  11   8 7319.80  194.70   1
   0  11   9  107.00   21.70   1
   0  11  10 6094.30  160.20   1
   0  12  -5 5684.30  164.30   1
   0  12  -4 1569.50   47.60   1
   0  12  -3   82.80   20.60   1
   0  12  -2 4694.00   97.70   1
   0  12  -1 4183.20   90.90   1
   0  12   0 2791.80   66.40   1
   0  12   1 9463.10  188.70   1
   0  12   2   64.10   15.50   1
   0  12   3 3747.20   79.00   1
   0  12   4 3218.60   69.60   1
   0  12   5  157.50   20.50   1
   0  12   6 9312.60  313.90   1
   0  12   7  368.10   26.80   1
   0  12   8 3345.60   80.60   1
   0  13  -2  668.90   29.40   1
   0  13  -1 5078.60  109.90   1
   0  13   0  515.40   24.70   1
   0  13   1 4944.80  109.40   1
   0  13   2 6641.50  171.70   1
   0  13   3  344.30   23.20   1
   0  13   4 4101.30   90.40   1
   0  13   5 4322.80  114.40   1
   1 -13  -4 1420.90   56.10   1
   1 -13  -3 3804.70  103.20   1
   1 -13  -2  250.50   18.30   1
   1 -13  -1 2453.60   61.50   1
   1 -13   0 4180.00   92.00   1
   1 -13   1   68.00   16.70   1
   1 -13   2 4307.90  168.80   1
   1 -12  -8  958.10   43.40   1
   1 -12  -710341.80  348.20   1
   1 -12  -6  153.20   22.90   1
   1 -12  -5 9603.20  192.20   1
   1 -12  -4 2917.50   65.30   1
   1 -12  -3  840.40   28.20   1
   1 -12  -2 7571.50  153.00   1
   1 -12  -1 1942.40   48.20   1
   1 -12   0 4069.80   86.30   1
   1 -12   1 9902.80  202.10   1
   1 -12   2  -30.90   16.30   1
   1 -12   3 4593.80  101.30   1
   1 -12   4 1598.80   45.60   1
   1 -12   5  509.40   34.10   1
   1 -11  -9 4833.40  133.60   1
   1 -11  -8  299.80   21.70   1
   1 -11  -7 1435.30   40.50   1
   1 -11  -6 8916.00  219.10   1
   1 -11  -5   90.10   20.50   1
   1 -11  -412530.00  299.00   1
   1 -11  -3 2958.20   65.10   1
   1 -11  -2 1192.70   32.60   1
   1 -11  -112990.30  303.70   1
   1 -11   0  856.40   27.70   1
   1 -11   1 7606.90  151.30   1
   1 -11   2 6599.40  134.80   1
   1 -11   3  121.20   17.50   1
   1 -11   4 9024.20  179.50   1
   1 -11   5 3961.70   89.80   1
   1 -11   6 4363.10  113.40   1
   1 -11   711148.00  235.10   1
   1 -10 -11 6468.80  156.90   1
   1 -10 -10 3330.60   87.60   1
   1 -10  -9  440.40   30.40   1
   1 -10  -815340.60  504.60   1
   1 -10  -7  910.90   30.80   1
   1 -10  -6 7566.70  152.90   1
   1 -10  -5 3297.70   74.40   1
   1 -10  -4   44.10   12.10   1
   1 -10  -3 6132.50  122.00   1
   1 -10  -2 7009.90  147.50   1
   1 -10  -1 3123.20   65.50   1
   1 -10   015082.20  344.30   1
   1 -10   1 1035.80   29.30   1
   1 -10   2 5096.40  100.30   1
   1 -10   3 4613.00   94.30   1
   1 -10   4   22.90   21.80   1
   1 -10   5 9987.50  194.70   1
   1 -10   6 4343.00  129.10   1
   1 -10   7 5045.90  150.60   1
   1 -10   8 3696.50  120.70   1
   1 -10   9  302.70   57.00   1
   1  -9 -12 4862.20  127.90   1
   1  -9 -11 1124.90   44.00   1
   1  -9 -10 7474.80  165.10   1
   1  -9  -9 5949.80  140.00   1
   1  -9  -8 5675.00  128.70   1
   1  -9  -724560.60  564.80   1
   1  -9  -6  116.20   14.30   1
   1  -9  -516130.20  384.80   1
   1  -9  -4 9626.50  181.60   1
   1  -9  -3  197.20   16.50   1
   1  -9  -221961.40  492.60   1
   1  -9  -1 9731.70  184.20   1
   1  -9   0 9711.60  185.80   1
   1  -9   1 7074.80  141.60   1
   1  -9   2  143.60   12.90   1
   1  -9   3 8102.90  159.70   1
   1  -9   422901.80  512.40   1
   1  -9   5  409.10   24.20   1
   1  -9   621419.20  502.60   1
   1  -9   7 2108.30   62.40   1
   1  -9   8 2745.70   84.90   1
   1  -9   9 6355.10  187.20   1
   1  -9  10 1780.70   91.80   1
   1  -8 -13   12.00   26.60   1
   1  -8 -12 2820.30   87.00   1
   1  -8 -11 3163.70   91.10   1
   1  -8 -10  398.60   26.20   1
   1  -8  -913242.00  278.80   1
   1  -8  -8 7005.00  153.90   1
   1  -8  -7 7657.30  157.30   1
   1  -8  -6 9201.40  182.50   1
   1  -8  -5   54.80   12.90   1
   1  -8  -4 8059.00  135.10   1
   1  -8  -316760.50  382.70   1
   1  -8  -2 1262.30   32.60   1
   1  -8  -136397.10  825.10   1
   1  -8   0 2565.50   46.70   1
   1  -8   1 4961.40   79.40   1
   1  -8   2 6621.50  119.10   1
   1  -8   3   29.60    9.10   1
   1  -8   419505.20  439.00   1
   1  -8   512168.00  312.50   1
   1  -8   6 2592.70   65.90   1
   1  -8   720838.60  411.10   1
   1  -8   8 2765.10   83.40   1
   1  -8   9 5163.50  156.40   1
   1  -8  1011003.40  297.60   1
   1  -8  11  166.90   55.40   1
   1  -7 -14 5025.80  146.50   1
   1  -7 -1310912.30  235.70   1
   1  -7 -12   72.50   24.80   1
   1  -7 -11 5595.50  135.30   1
   1  -7 -1013417.00  278.80   1
   1  -7  -9  111.50   19.30   1
   1  -7  -824790.60  799.50   1
   1  -7  -7  990.70   25.30   1
   1  -7  -6 5176.70   81.90   1
   1  -7  -522800.90  516.80   1
   1  -7  -4 3627.50   63.60   1
   1  -7  -327267.60  876.60   1
   1  -7  -224951.70  459.30   1
   1  -7  -1  791.60   23.20   1
   1  -7   025945.10  503.10   1
   1  -7   1 6314.20  118.20   1
   1  -7   2  743.90   19.40   1
   1  -7   319897.20  371.90   1
   1  -7   4 1463.90   38.00   1
   1  -7   520352.90  463.10   1
   1  -7   6 3548.80   77.20   1
   1  -7   7 1215.70   39.00   1
   1  -7   814022.00  336.90   1
   1  -7   9 9116.40  198.70   1
   1  -7  10 5685.30  171.90   1
   1  -7  11 6355.40  197.60   1
   1  -7  12  329.50   58.90   1
   1  -6 -14  118.10   28.10   1
   1  -6 -13 4616.80  138.50   1
   1  -6 -12 5622.40  138.10   1
   1  -6 -11   54.10   21.00   1
   1  -6 -1022659.20  603.00   1
   1  -6  -916861.40  346.40   1
   1  -6  -8 1413.30   34.70   1
   1  -6  -713931.90  283.60   1
   1  -6  -6  149.00    8.80   1
   1  -6  -517731.70  344.70   1
   1  -6  -421896.00  402.40   1
   1  -6  -3   82.20    4.90   1
   1  -6  -1 8260.40  107.30   1
   1  -6   010160.20  151.80   1
   1  -6   126188.20  605.60   1
   1  -6   212632.40  244.30   1
   1  -6   328284.00  626.10   1
   1  -6   422921.30  513.40   1
   1  -6   5   32.60    8.60   1
   1  -6   612061.80  305.70   1
   1  -6   716304.20  318.20   1
   1  -6   8 3604.50   86.30   1
   1  -6   918825.00  461.50   1
   1  -6  10 3993.90  129.30   1
   1  -6  11 7120.40  213.50   1
   1  -6  13  110.40   40.90   1
   1  -5 -15  652.40   38.80   1
   1  -5 -14 6336.20  224.70   1
   1  -5 -13 1615.40   52.40   1
   1  -5 -12 2629.70   68.10   1
   1  -5 -1113920.70  331.30   1
   1  -5 -10  486.00   28.50   1
   1  -5  -922846.70  593.70   1
   1  -5  -813590.30  243.30   1
   1  -5  -7 1078.60   23.60   1
   1  -5  -616478.30  255.80   1
   1  -5  -511403.00  154.60   1
   1  -5  -416652.50  270.40   1
   1  -5  -323007.10  422.30   1
   1  -5  -2  177.50    5.90   1
   1  -5  -135849.40  820.60   1
   1  -5   015986.50  259.10   1
   1  -5   111572.10  196.50   1
   1  -5   215187.30  282.20   1
   1  -5   3 1993.20   31.30   1
   1  -5   423110.80  513.40   1
   1  -5   512520.30  215.00   1
   1  -5   6  845.20   20.20   1
   1  -5   715277.60  300.10   1
   1  -5   8 9346.20  231.70   1
   1  -5   9 9168.80  237.00   1
   1  -5  1012613.80  262.10   1
   1  -5  11   88.80   23.90   1
   1  -5  13 4300.60  158.10   1
   1  -5  14   46.70   46.20   1
   1  -4 -15 2866.90   77.90   1
   1  -4 -14 5433.10  151.20   1
   1  -4 -1311768.90  324.10   1
   1  -4 -12 1241.00   51.60   1
   1  -4 -1112140.80  333.70   1
   1  -4 -1018492.80  349.10   1
   1  -4  -9  380.20   21.60   1
   1  -4  -829139.30  710.90   1
   1  -4  -715641.10  209.40   1
   1  -4  -6 7793.60  114.00   1
   1  -4  -410871.10  126.80   1
   1  -4  -319415.60  309.80   1
   1  -4  -225938.40  481.70   1
   1  -4  -1 1633.40   21.50   1
   1  -4   222323.40  409.30   1
   1  -4   4 1997.20   29.90   1
   1  -4   5 6402.60  107.20   1
   1  -4   623866.70  540.30   1
   1  -4   7 1291.70   29.10   1
   1  -4   825884.80  498.80   1
   1  -4   9 7539.00  163.70   1
   1  -4  10 4933.40  113.60   1
   1  -4  11 8214.70  185.30   1
   1  -4  12  401.60   34.60   1
   1  -4  13 2898.70  132.00   1
   1  -4  14 7942.60  267.50   1
   1  -3 -15 5191.80  166.60   1
   1  -3 -14 2332.90   63.30   1
   1  -3 -13 1101.20   41.60   1
   1  -3 -1216105.80  338.10   1
   1  -3 -11 1785.00   56.30   1
   1  -3 -1010990.50  243.10   1
   1  -3  -910443.30  223.70   1
   1  -3  -8 1779.50   39.10   1
   1  -3  -727548.80  541.30   1
   1  -3  -6 1079.10   24.20   1
   1  -3  -5 6675.60   90.60   1
   1  -3  -3   76.30    3.30   1
   1  -3  -1 9841.80  131.10   1
   1  -3   0  605.60    9.20   1
   1  -3   126194.70  834.80   1
   1  -3   215135.90  242.60   1
   1  -3   322887.40  759.00   1
   1  -3   5 1924.50   35.80   1
   1  -3   625819.90  434.10   1
   1  -3   722494.40  357.40   1
   1  -3   8 1005.00   29.20   1
   1  -3   922395.20  464.20   1
   1  -3  10 3078.30   83.40   1
   1  -3  11 8115.10  189.40   1
   1  -3  1214106.30  329.30   1
   1  -3  13 1656.00   65.30   1
   1  -3  1412229.00  372.70   1
   1  -3  1516223.80  492.80   1
   1  -2 -15  999.60   41.00   1
   1  -2 -1414436.80  317.00   1
   1  -2 -13 7603.50  155.50   1
   1  -2 -12 3224.10   73.00   1
   1  -2 -1133112.20 1073.80   1
   1  -2 -10 1838.50   50.60   1
   1  -2  -917477.70  379.30   1
   1  -2  -822512.50  462.60   1
   1  -2  -7 1497.80   26.00   1
   1  -2  -535865.70  920.10   1
   1  -2  -437828.30 1389.00   1
   1  -2  -316979.20  318.20   1
   1  -2  -2  113.40    2.80   1
   1  -2  -1 2196.20   25.10   1
   1  -2   025756.90  914.60   1
   1  -2   1 3255.10   51.90   1
   1  -2   229856.10  998.10   1
   1  -2   315167.60  254.00   1
   1  -2   432418.40  623.00   1
   1  -2   519403.40  277.10   1
   1  -2   6 2112.40   36.50   1
   1  -2   711519.10  203.70   1
   1  -2   822588.50  450.40   1
   1  -2   9  563.80   27.60   1
   1  -2  10 8663.00  194.60   1
   1  -2  11 1047.30   42.80   1
   1  -2  1210654.20  252.00   1
   1  -2  1311800.60  269.70   1
   1  -2  14   55.60   30.00   1
   1  -2  15 7120.70  236.70   1
   1  -1 -15 2420.80   77.90   1
   1  -1 -14  742.20   36.20   1
   1  -1 -1313624.70  288.10   1
   1  -1 -12 8650.40  188.30   1
   1  -1 -1117929.50  366.70   1
   1  -1 -1027326.00  483.80   1
   1  -1  -9  345.30   18.40   1
   1  -1  -818862.60  353.40   1
   1  -1  -7 3938.40   72.80   1
   1  -1  -6  372.80   12.10   1
   1  -1  -226832.10  960.60   1
   1  -1  -1 1047.90   14.40   1
   1  -1   214495.90  272.80   1
   1  -1   326059.30  654.50   1
   1  -1   418748.10  282.90   1
   1  -1   529637.20  504.10   1
   1  -1   650029.60 1218.50   1
   1  -1   7   25.60    9.20   1
   1  -1   830988.50  777.40   1
   1  -1   929559.70  614.30   1
   1  -1  10 1533.00   41.70   1
   1  -1  1121443.00  391.10   1
   1  -1  1213240.30  260.30   1
   1  -1  1311259.30  254.40   1
   1  -1  1425711.20  667.60   1
   1  -1  15  324.60   55.30   1
   1   0 -15 6036.50  154.70   1
   1   0 -1411686.00  261.10   1
   1   0 -13   89.30   24.80   1
   1   0 -1222565.00  460.40   1
   1   0 -11 7098.90  160.80   1
   1   0 -1016558.70  345.00   1
   1   0  -912272.30  267.10   1
   1   0  -8 3297.00   82.60   1
   1   0  -715095.30  324.80   1
   1   0  -631270.90  488.30   1
   1   0  -5 7449.80  139.20   1
   1   0  -417075.40  232.40   1
   1   0  -318566.50  369.90   1
   1   0  -2 1642.60   25.40   1
   1   0   0  131.10    2.70   1
   1   0   132341.20 1070.90   1
   1   0   211388.60  205.20   1
   1   0   3 8873.70  154.80   1
   1   0   446074.20 1139.30   1
   1   0   5 1674.90   40.40   1
   1   0   617701.80  277.40   1
   1   0   758301.60 1135.80   1
   1   0   8 2670.70   55.70   1
   1   0   939326.90  777.30   1
   1   0  10 8067.70  136.20   1
   1   0  11 2518.40   54.20   1
   1   0  1236931.70  652.80   1
   1   0  13 1890.30   55.50   1
   1   0  1419408.20  398.70   1
   1   0  1514031.40  316.30   1
   1   0  16  627.10   51.70   1
   1   1 -15  197.80   54.30   1
   1   1 -1414872.90  331.30   1
   1   1 -1319320.70  408.70   1
   1   1 -12 2973.40   83.40   1
   1   1 -1150851.50 1046.80   1
   1   1 -10 1921.40   58.20   1
   1   1  -925031.10  618.50   1
   1   1  -824677.70  604.70   1
   1   1  -7 1053.90   36.70   1
   1   1  -631322.50  601.70   1
   1   1  -520293.30  492.30   1
   1   1  -4 8377.30  117.00   1
   1   1  -214600.80  237.40   1
   1   1   1  233.90    6.50   1
   1   1   235964.00 1193.60   1
   1   1   323517.90  298.80   1
   1   1   4  511.10   13.20   1
   1   1   572053.10 1793.10   1
   1   1   630494.40  486.90   1
   1   1   721180.90  382.30   1
   1   1   814264.40  261.10   1
   1   1   9 1212.60   34.90   1
   1   1  10 6529.40  115.70   1
   1   1  1123099.00  361.60   1
   1   1  12  633.40   26.40   1
   1   1  1326998.90  542.00   1
   1   1  14  326.90   25.50   1
   1   1  15 4928.00  115.50   1
   1   1  16 4783.00  154.50   1
   1   2 -15 7188.40  240.10   1
   1   2 -14  128.40   38.70   1
   1   2 -1316268.90  362.10   1
   1   2 -12 5090.70  150.70   1
   1   2 -11 1308.50   48.60   1
   1   2 -10 7571.40  176.10   1
   1   2  -9 3556.10  106.00   1
   1   2  -818701.00  384.60   1
   1   2  -740458.00  934.00   1
   1   2  -6 6353.50   86.00   1
   1   2  -4 4384.90   72.30   1
   1   2  -3 3293.60   45.30   1
   1   2  -112435.70  285.80   1
   1   2   418080.90  299.70   1
   1   2   521129.50  294.90   1
   1   2   7 4098.40   65.50   1
   1   2   827066.30  494.00   1
   1   2   918776.30  347.50   1
   1   2  10  194.90   18.60   1
   1   2  1119944.80  326.50   1
   1   2  1212973.20  225.00   1
   1   2  13 5998.80  117.90   1
   1   2  1415252.90  279.70   1
   1   2  15 2194.80   66.70   1
   1   2  16 3161.20  116.80   1
   1   3 -15 5419.30  296.00   1
   1   3 -1416378.30  394.10   1
   1   3 -13   34.80   28.30   1
   1   3 -1214377.20  321.10   1
   1   3 -11 6950.40  166.40   1
   1   3 -10  396.60   29.10   1
   1   3  -9 8177.80  157.60   1
   1   3  -810911.00  223.70   1
   1   3  -723897.20  458.00   1
   1   3  -631034.10  578.00   1
   1   3  -5 2479.70   50.20   1
   1   3  -413299.00  220.30   1
   1   3  -2 7299.50  107.20   1
   1   3   0 1878.40   25.10   1
   1   3   3   45.30    4.40   1
   1   3   420988.40  399.70   1
   1   3   525287.40  415.60   1
   1   3   621363.40  415.70   1
   1   3   725943.90  454.60   1
   1   3   8  741.20   33.70   1
   1   3   9 6669.40  137.50   1
   1   3  1014838.30  290.20   1
   1   3  11 2326.50   61.70   1
   1   3  1224439.60  463.90   1
   1   3  13  569.70   30.60   1
   1   3  14 3394.40   83.30   1
   1   3  15 6422.60  135.70   1
   1   4 -14 9902.30  317.00   1
   1   4 -13 6833.60  209.30   1
   1   4 -12 1540.30   58.00   1
   1   4 -11 5097.10  161.70   1
   1   4 -10 5769.10  129.50   1
   1   4  -9 5007.10  111.20   1
   1   4  -825999.00  489.90   1
   1   4  -7  130.80    9.30   1
   1   4  -628325.70  530.00   1
   1   4  -512937.50  245.30   1
   1   4  -4 5827.00   75.60   1
   1   4  -110601.30  154.30   1
   1   4   1 1890.30   24.00   1
   1   4   217437.70  313.80   1
   1   4   4  140.90    7.00   1
   1   4   612369.80  188.60   1
   1   4   7 4924.30   93.10   1
   1   4   831563.30  763.50   1
   1   4   9 6307.30  151.40   1
   1   4  1014449.20  278.70   1
   1   4  1113981.30  282.60   1
   1   4  12  864.10   35.90   1
   1   4  1311339.30  244.90   1
   1   4  14 2913.50   75.80   1
   1   4  15  491.80   29.60   1
   1   5 -14  161.00   47.90   1
   1   5 -13 4146.40  146.20   1
   1   5 -12 3366.40  111.60   1
   1   5 -11   97.00   22.40   1
   1   5 -1010605.40  233.90   1
   1   5  -9 8726.50  187.40   1
   1   5  -8 5248.10  114.60   1
   1   5  -719300.80  371.90   1
   1   5  -6  185.30    8.40   1
   1   5  -5 8718.90  202.70   1
   1   5  -413065.20  317.50   1
   1   5  -3 2914.70   39.20   1
   1   5  -1  260.30    6.60   1
   1   5   017284.60  320.30   1
   1   5   2   71.60    3.90   1
   1   5   312682.60  166.00   1
   1   5   412378.10  150.40   1
   1   5   5 3242.10   47.70   1
   1   5   7 1801.40   44.70   1
   1   5   8 7626.20  165.70   1
   1   5   923398.30  575.00   1
   1   5  10  142.30   22.80   1
   1   5  1119813.90  370.60   1
   1   5  12 5724.90  134.40   1
   1   5  13  943.80   55.10   1
   1   5  14 9047.50  203.90   1
   1   5  15 2777.70   79.00   1
   1   6 -13  215.30   42.10   1
   1   6 -12 6220.40  220.30   1
   1   6 -11 4491.10  145.80   1
   1   6 -10   68.40   22.10   1
   1   6  -920651.40  515.00   1
   1   6  -8 7493.20  196.00   1
   1   6  -7 8953.20  216.90   1
   1   6  -624559.40  557.60   1
   1   6  -5 1137.00   29.70   1
   1   6  -426261.30  580.90   1
   1   6  -328886.00  670.10   1
   1   6  -2 2225.10   42.70   1
   1   6  -130538.60  966.50   1
   1   6   013970.80  256.00   1
   1   6   110094.50  136.50   1
   1   6   239559.20 1270.00   1
   1   6   3   43.20    3.90   1
   1   6   424242.10  543.00   1
   1   6   5 6410.90  109.00   1
   1   6   6  337.70   16.90   1
   1   6   7 5340.30  112.50   1
   1   6   8 5184.10  113.20   1
   1   6   913308.60  275.40   1
   1   6  1021682.20  544.00   1
   1   6  11   23.20   22.10   1
   1   6  12 4594.90  107.40   1
   1   6  13 2794.50   93.20   1
   1   6  14  328.70   41.20   1
   1   7 -12   32.00   46.40   1
   1   7 -11 4214.30  160.60   1
   1   7 -10 5188.70  158.90   1
   1   7  -9 4300.50  136.10   1
   1   7  -815595.80  399.80   1
   1   7  -7 2550.60   72.90   1
   1   7  -6 5766.20  144.50   1
   1   7  -510768.20  249.60   1
   1   7  -4    2.60   14.10   1
   1   7  -316697.70  307.80   1
   1   7  -217877.80  325.70   1
   1   7  -111035.00  204.10   1
   1   7   1 5152.40   88.00   1
   1   7   216200.80  304.20   1
   1   7   4   92.30   12.20   1
   1   7   610807.00  205.90   1
   1   7   7  988.70   23.70   1
   1   7   812472.10  251.80   1
   1   7   9 2019.40   55.20   1
   1   7  1014844.70  304.40   1
   1   7  1114854.00  322.90   1
   1   7  12   38.20   34.70   1
   1   7  13 7227.70  199.10   1
   1   7  14 5316.10  164.70   1
   1   8 -11  546.60   60.10   1
   1   8 -10 6047.70  171.60   1
   1   8  -9 6369.10  175.40   1
   1   8  -8 3724.20  107.20   1
   1   8  -712502.30  313.00   1
   1   8  -6 4703.00  118.70   1
   1   8  -5 5781.70  143.60   1
   1   8  -415615.70  296.70   1
   1   8  -3  579.10   14.90   1
   1   8  -2 5057.80   89.90   1
   1   8  -1 1991.00   31.50   1
   1   8   0  266.90    8.20   1
   1   8   122132.40  407.70   1
   1   8   2 6030.30  123.10   1
   1   8   315663.10  288.90   1
   1   8   415834.70  291.00   1
   1   8   5  887.00   25.50   1
   1   8   6 9435.20  185.00   1
   1   8   7 4369.60   93.50   1
   1   8   8 1533.60   41.90   1
   1   8   916527.50  553.30   1
   1   8  10  259.50   23.90   1
   1   8  11 7158.20  157.80   1
   1   8  12 3868.90  105.40   1
   1   8  13  184.60   32.40   1
   1   9 -10  196.90   51.30   1
   1   9  -913636.10  376.00   1
   1   9  -8 2726.10   91.20   1
   1   9  -7 2421.00   78.70   1
   1   9  -614462.30  339.10   1
   1   9  -5 3221.30   75.90   1
   1   9  -413144.10  249.40   1
   1   9  -329453.30  662.20   1
   1   9  -2  843.90   22.10   1
   1   9  -111744.40  219.50   1
   1   9   0  281.30   12.70   1
   1   9   1  790.70   23.60   1
   1   9   223045.60  763.50   1
   1   9   3 5376.20  105.10   1
   1   9   413960.80  260.00   1
   1   9   512596.30  238.00   1
   1   9   6  117.40   18.20   1
   1   9   711714.10  233.40   1
   1   9   8 6647.40  141.20   1
   1   9   9 1896.80   53.10   1
   1   9  10 8462.20  182.70   1
   1   9  11  570.90   32.50   1
   1   9  12 2438.80   78.60   1
   1  10  -9  304.30   52.90   1
   1  10  -8 4361.00  186.20   1
   1  10  -7 2028.60   57.30   1
   1  10  -6 1286.00   43.20   1
   1  10  -514437.80  280.60   1
   1  10  -4  386.00   24.20   1
   1  10  -311235.80  214.70   1
   1  10  -2 6948.70  136.40   1
   1  10  -1  372.10   20.20   1
   1  10   013898.90  269.00   1
   1  10   1 5619.30  111.70   1
   1  10   2 7512.50  147.60   1
   1  10   311484.90  218.10   1
   1  10   4   74.70   15.30   1
   1  10   5 6662.50  131.30   1
   1  10   6 7635.80  155.10   1
   1  10   7  551.90   26.80   1
   1  10   815086.80  370.70   1
   1  10   9 2853.00   72.80   1
   1  10  10 5454.70  123.80   1
   1  10  11 6840.50  156.50   1
   1  11  -7 3874.80  120.70   1
   1  11  -6 5556.50  128.60   1
   1  11  -5  973.30   37.30   1
   1  11  -410947.80  217.00   1
   1  11  -3  632.90   27.80   1
   1  11  -2 4803.10   99.80   1
   1  11  -1 5512.70  112.30   1
   1  11   0  115.50   20.20   1
   1  11   112094.40  230.60   1
   1  11   2 4456.80   94.70   1
   1  11   3 4277.00   88.60   1
   1  11   4 6410.60  130.40   1
   1  11   5 1168.60   33.60   1
   1  11   6 4459.10   97.60   1
   1  11   7 6892.30  141.30   1
   1  11   8 1101.30   36.70   1
   1  11   9 6345.90  135.90   1
   1  11  10 1027.00   37.20   1
   1  12  -5 1386.30   58.30   1
   1  12  -4 3280.80   84.30   1
   1  12  -3 3801.80   92.60   1
   1  12  -2   71.60   18.00   1
   1  12  -1 5271.20  109.30   1
   1  12   0 9206.90  183.20   1
   1  12   1 1146.80   36.60   1
   1  12   210531.60  209.30   1
   1  12   3  505.10   24.00   1
   1  12   4 1814.90   44.60   1
   1  12   5 7026.90  138.50   1
   1  12   6  760.80   30.50   1
   1  12   7 7500.40  188.10   1
   1  12   8 3720.20   87.10   1
   1  13  -2 3685.70  160.80   1
   1  13  -1  173.40   19.60   1
   1  13   0 6159.50  132.20   1
   1  13   1 2237.70   58.00   1
   1  13   2 1026.90   32.10   1
   1  13   3 3843.10   84.80   1
   1  13   4  644.90   31.60   1
   1  13   5 1932.90   95.90   1
   2 -13  -1 5220.40  140.90   1
   2 -12  -7  279.30   36.30   1
   2 -12  -6 6264.30  158.80   1
   2 -12  -5 1188.70   49.00   1
   2 -12  -4 4220.20  110.80   1
   2 -12  -3 3702.30  105.00   1
   2 -12  -2   68.40   27.40   1
   2 -12  -1 5768.70  148.20   1
   2 -12   0 5809.10  145.60   1
   2 -12   1 1736.30   55.10   1
   2 -12   2 8102.60  171.80   1
   2 -12   3  252.20   22.70   1
   2 -12   4 3439.80   93.70   1
   2 -12   5 4182.80  124.80   1
   2 -11  -9    8.00   33.70   1
   2 -11  -8 2824.60   87.00   1
   2 -11  -7 6258.90  157.80   1
   2 -11  -6  621.70   30.80   1
   2 -11  -5 9783.60  236.90   1
   2 -11  -4  965.50   37.30   1
   2 -11  -3 2551.70   58.20   1
   2 -11  -2 7405.40  149.10   1
   2 -11  -1  290.90   18.20   1
   2 -11   0 8003.30  158.00   1
   2 -11   1 5007.90  102.90   1
   2 -11   2 1553.50   40.70   1
   2 -11   3 5950.50  122.50   1
   2 -11   4  603.00   25.90   1
   2 -11   5 1561.50   48.80   1
   2 -11   6 5921.20  133.90   1
   2 -11   7  222.00   28.00   1
   2 -10 -10 6468.10  168.80   1
   2 -10  -9 6723.40  172.80   1
   2 -10  -8    3.30   21.80   1
   2 -10  -712350.70  296.70   1
   2 -10  -6 5584.20  116.50   1
   2 -10  -5 3940.00   82.30   1
   2 -10  -412831.40  248.90   1
   2 -10  -3  112.50   13.10   1
   2 -10  -2 4832.90   99.50   1
   2 -10  -112292.20  286.30   1
   2 -10   0  109.80   16.00   1
   2 -10   119473.60  372.40   1
   2 -10   2 5181.50   98.60   1
   2 -10   3 3573.50   68.50   1
   2 -10   410916.30  214.40   1
   2 -10   5 2186.10   64.70   1
   2 -10   6 4754.90  133.60   1
   2 -10   7 9161.00  207.00   1
   2 -10   8  110.30   32.60   1
   2 -10   9 3443.00  124.20   1
   2  -9 -11 6033.90  161.00   1
   2  -9 -10  827.70   42.10   1
   2  -9  -9 1998.10   62.40   1
   2  -9  -8 8974.20  199.20   1
   2  -9  -7   26.20   17.30   1
   2  -9  -614529.50  345.00   1
   2  -9  -5 4918.10   99.40   1
   2  -9  -4 3441.40   76.10   1
   2  -9  -3 6134.90  121.90   1
   2  -9  -2  929.20   25.70   1
   2  -9  -110257.30  201.80   1
   2  -9   010348.60  206.50   1
   2  -9   1 3155.50   52.30   1
   2  -9   2 9932.10  169.40   1
   2  -9   3 6287.60  113.10   1
   2  -9   4 3825.60   80.90   1
   2  -9   518932.20  475.50   1
   2  -9   6  236.80   25.60   1
   2  -9   7 9773.00  208.20   1
   2  -9   8 4367.10  116.80   1
   2  -9   9 1161.20   53.40   1
   2  -9  10 5718.10  180.30   1
   2  -8 -12 1868.40   61.40   1
   2  -8 -11 4599.20  110.10   1
   2  -8 -10 7265.80  173.80   1
   2  -8  -9 2635.10   74.90   1
   2  -8  -811282.90  243.80   1
   2  -8  -721634.40  493.60   1
   2  -8  -6 1767.90   44.60   1
   2  -8  -516682.90  375.60   1
   2  -8  -410303.00  243.40   1
   2  -8  -3 2274.10   44.80   1
   2  -8  -221876.00  356.90   1
   2  -8  -1 5432.50   95.00   1
   2  -8   0 8365.70  142.40   1
   2  -8   1 7261.30  112.40   1
   2  -8   2 2345.20   46.50   1
   2  -8   312255.30  202.10   1
   2  -8   413643.30  314.80   1
   2  -8   5 2950.20   78.10   1
   2  -8   620784.60  476.00   1
   2  -8   7  147.40   35.30   1
   2  -8   8 6652.60  160.50   1
   2  -8   9 6486.80  187.90   1
   2  -8  10   15.20   34.80   1
   2  -8  11 8262.80  246.80   1
   2  -7 -13 1157.80   51.90   1
   2  -7 -12 5571.70  124.50   1
   2  -7 -11 1087.40   40.80   1
   2  -7 -10 2891.50   77.70   1
   2  -7  -912893.50  279.20   1
   2  -7  -8  190.90   18.20   1
   2  -7  -717231.80  400.10   1
   2  -7  -6 6680.70  119.40   1
   2  -7  -5 6939.30  118.90   1
   2  -7  -416688.10  377.00   1
   2  -7  -3 6534.90  104.80   1
   2  -7  -210116.00  170.20   1
   2  -7   0 1522.00   27.60   1
   2  -7   110031.70  163.70   1
   2  -7   2 7111.60  121.20   1
   2  -7   3   47.60   12.40   1
   2  -7   426876.60  946.20   1
   2  -7   5 4317.60   87.30   1
   2  -7   6 8122.30  200.00   1
   2  -7   714023.90  273.20   1
   2  -7   8  134.30   25.40   1
   2  -7   910475.20  226.30   1
   2  -7  1011001.80  312.40   1
   2  -7  11  400.70   46.00   1
   2  -7  1210592.30  318.60   1
   2  -6 -1410097.60  303.90   1
   2  -6 -13 5555.00  154.00   1
   2  -6 -12  259.20   22.90   1
   2  -6 -11 9431.30  288.70   1
   2  -6 -10 7125.40  150.00   1
   2  -6  -9 3008.50   78.80   1
   2  -6  -823069.30  574.90   1
   2  -6  -7  122.00   10.20   1
   2  -6  -610952.90  173.00   1
   2  -6  -514804.00  331.10   1
   2  -6  -4  235.50    6.80   1
   2  -6  -2 3394.00   48.50   1
   2  -6  -111805.10  197.10   1
   2  -6   010466.90  153.00   1
   2  -6   1   92.60    7.40   1
   2  -6   210871.80  206.50   1
   2  -6   316162.60  367.00   1
   2  -6   4 3280.40   82.30   1
   2  -6   527487.00  614.30   1
   2  -6   6  147.90   11.60   1
   2  -6   7 5984.50  130.70   1
   2  -6   8 7384.10  201.30   1
   2  -6   9  468.20   38.90   1
   2  -6  1012511.60  329.80   1
   2  -6  11 4862.40  154.20   1
   2  -6  12 1858.90   85.90   1
   2  -6  13 2272.60   97.40   1
   2  -5 -14  492.40   40.80   1
   2  -5 -13 7131.20  236.50   1
   2  -5 -12 4612.90  148.70   1
   2  -5 -11 2105.00   60.80   1
   2  -5 -1029629.50  776.70   1
   2  -5  -9 5681.60  124.00   1
   2  -5  -815745.90  304.30   1
   2  -5  -717088.00  358.40   1
   2  -5  -6  156.20    8.10   1
   2  -5  -512983.40  218.10   1
   2  -5  -3  491.40    8.60   1
   2  -5  -1  291.90    7.40   1
   2  -5   030577.50  566.50   1
   2  -5   124803.80  488.20   1
   2  -5   2 3541.00   74.00   1
   2  -5   427666.50  633.20   1
   2  -5   5 7987.70  162.60   1
   2  -5   625904.30  584.80   1
   2  -5   7 5498.00  102.50   1
   2  -5   8 6389.10  169.00   1
   2  -5   918505.10  464.30   1
   2  -5  10   76.40   28.60   1
   2  -5  11 9386.90  254.60   1
   2  -5  12 3009.40  130.60   1
   2  -5  13   58.20   53.80   1
   2  -5  14 3657.40  166.00   1
   2  -4 -15 2116.10  133.20   1
   2  -4 -14 3713.80  130.50   1
   2  -4 -13  149.30   22.90   1
   2  -4 -12 4449.40  155.60   1
   2  -4 -11 9517.40  275.10   1
   2  -4 -10 3683.80  113.70   1
   2  -4  -912708.90  359.70   1
   2  -4  -8  119.30    9.70   1
   2  -4  -712750.40  173.00   1
   2  -4  -614053.80  183.00   1
   2  -4  -5   81.10    4.70   1
   2  -4  -422588.30  537.80   1
   2  -4  -2 4143.60   50.40   1
   2  -4  -114330.30  210.20   1
   2  -4   0 1758.10   23.40   1
   2  -4   116762.80  310.10   1
   2  -4   229442.20  973.30   1
   2  -4   3 2549.10   36.70   1
   2  -4   430547.30  678.30   1
   2  -4   5 7235.10  114.60   1
   2  -4   6 7260.90  149.90   1
   2  -4   731179.00  605.30   1
   2  -4   8  879.90   44.20   1
   2  -4   918704.50  497.50   1
   2  -4  1016106.30  325.10   1
   2  -4  11   21.80   25.20   1
   2  -4  12 7872.70  233.70   1
   2  -4  13 3850.70  148.90   1
   2  -4  14 1397.50   82.10   1
   2  -3 -15  793.00   50.50   1
   2  -3 -13 8943.40  259.50   1
   2  -3 -12  730.30   37.20   1
   2  -3 -1117031.80  458.20   1
   2  -3 -1034902.40  865.10   1
   2  -3  -9 8896.70  195.30   1
   2  -3  -843970.10 1474.30   1
   2  -3  -7  188.40    8.50   1
   2  -3  -6 9836.10  113.70   1
   2  -3  -528878.10 1213.90   1
   2  -3  -4  977.80   14.50   1
   2  -3  -327504.30  920.60   1
   2  -3  -213318.40  164.40   1
   2  -3  -1 1435.10   22.10   1
   2  -3   042009.20 1019.10   1
   2  -3   1 2339.40   31.50   1
   2  -3   220335.90  330.50   1
   2  -3   324179.60  467.20   1
   2  -3   4 2361.00   48.00   1
   2  -3   525552.40  492.50   1
   2  -3   610105.80  192.60   1
   2  -3   7 1514.30   33.80   1
   2  -3   827424.50  539.80   1
   2  -3   9   85.80   14.20   1
   2  -3  10 6963.60  160.20   1
   2  -3  11  754.70   35.50   1
   2  -3  12  316.90   42.70   1
   2  -3  13 9072.60  287.40   1
   2  -3  14 7308.90  255.20   1
   2  -3  15 5711.50  208.30   1
   2  -2 -14  103.50   35.30   1
   2  -2 -13 9212.20  210.60   1
   2  -2 -1211432.10  303.70   1
   2  -2 -11   89.20   20.60   1
   2  -2 -1010687.10  242.10   1
   2  -2  -9 5388.00  134.30   1
   2  -2  -8 4899.00   96.50   1
   2  -2  -761737.20 2248.00   1
   2  -2  -6   94.10    5.80   1
   2  -2  -422530.70  475.50   1
   2  -2  -3 4154.10   48.90   1
   2  -2  -225279.20  638.30   1
   2  -2  -111628.90  157.60   1
   2  -2   0 9070.90  125.20   1
   2  -2   2  294.60    6.90   1
   2  -2   323359.10  842.10   1
   2  -2   423815.80  413.20   1
   2  -2   5  916.50   20.90   1
   2  -2   639602.50  669.80   1
   2  -2   713789.80  311.10   1
   2  -2   822158.10  450.50   1
   2  -2   933924.10  826.70   1
   2  -2  10 2201.10   67.70   1
   2  -2  1111646.00  261.20   1
   2  -2  12 4161.70  113.50   1
   2  -2  13   83.60   28.90   1
   2  -2  1410223.50  312.60   1
   2  -2  15 8663.60  295.40   1
   2  -1 -15 3391.40  118.10   1
   2  -1 -1411651.70  324.30   1
   2  -1 -13  820.30   39.90   1
   2  -1 -12 6511.60  149.40   1
   2  -1 -1121884.40  447.90   1
   2  -1 -10  258.50   20.10   1
   2  -1  -923047.00  465.60   1
   2  -1  -8 5172.50  127.40   1
   2  -1  -7  225.10   11.70   1
   2  -1  -626059.60  538.10   1
   2  -1  -5 8920.70  131.10   1
   2  -1  -321872.20  455.80   1
   2  -1  -2  301.40    6.90   1
   2  -1  -120383.90  495.60   1
   2  -1   016063.70  305.40   1
   2  -1   111441.20  315.10   1
   2  -1   225404.60  620.70   1
   2  -1   3  793.10   13.70   1
   2  -1   432367.10  618.40   1
   2  -1   511858.00  155.30   1
   2  -1   6 1977.50   37.50   1
   2  -1   742893.70 1027.10   1
   2  -1   812686.80  264.00   1
   2  -1   938310.00  922.30   1
   2  -1  1025600.20  404.70   1
   2  -1  11  328.00   21.20   1
   2  -1  1218973.80  318.00   1
   2  -1  1312699.90  227.20   1
   2  -1  14 5802.70  213.30   1
   2  -1  1510489.50  320.10   1
   2   0 -15 2733.10  109.10   1
   2   0 -14 9835.00  281.40   1
   2   0 -1323177.90  508.00   1
   2   0 -12  199.60   28.00   1
   2   0 -1125051.80  512.20   1
   2   0 -1018072.90  328.80   1
   2   0  -9 7501.40  168.30   1
   2   0  -826956.60  531.50   1
   2   0  -714814.90  321.30   1
   2   0  -614323.60  214.40   1
   2   0  -4   78.00    4.90   1
   2   0  -341197.00 1344.80   1
   2   0  -215407.30  287.20   1
   2   0  -1 8243.30  115.80   1
   2   0   022214.60  809.40   1
   2   0   147708.10 1590.00   1
   2   0   2 3621.40   54.20   1
   2   0   331866.40  769.00   1
   2   0   4  957.80   22.70   1
   2   0   510287.00  265.20   1
   2   0   610765.90  245.70   1
   2   0   7  655.90   21.10   1
   2   0   843618.90  881.30   1
   2   0   914452.70  241.50   1
   2   0  1013547.20  221.70   1
   2   0  1119927.10  318.70   1
   2   0  12 2429.50   55.40   1
   2   0  1315340.60  257.80   1
   2   0  1412673.10  243.70   1
   2   0  15 1372.40   58.20   1
   2   1 -15 2612.30  115.10   1
   2   1 -14 2945.80  113.10   1
   2   1 -13 2681.00  100.60   1
   2   1 -1224611.60  507.10   1
   2   1 -11  213.00   25.00   1
   2   1 -1024793.40  522.40   1
   2   1  -9 4783.80  119.60   1
   2   1  -8 2105.60   69.60   1
   2   1  -720182.40  416.50   1
   2   1  -611350.10  224.90   1
   2   1  -518273.60  317.00   1
   2   1  -430870.50  699.90   1
   2   1  -3 4133.30   62.30   1
   2   1  -2   -8.10    6.90   1
   2   1  -1  587.90   10.40   1
   2   1   215119.00  297.50   1
   2   1   328020.60  503.70   1
   2   1   424515.70  388.00   1
   2   1   5   60.00    9.30   1
   2   1   656880.50 1381.50   1
   2   1   718671.60  341.70   1
   2   1   814425.80  312.90   1
   2   1   933049.80  672.50   1
   2   1  10 4044.60  114.50   1
   2   1  11 8701.40  169.10   1
   2   1  1225772.70  511.50   1
   2   1  13   57.10   20.40   1
   2   1  1422333.60  469.30   1
   2   1  15 7886.00  192.30   1
   2   2 -1411461.50  346.60   1
   2   2 -13 5076.70  164.80   1
   2   2 -12 6482.10  198.20   1
   2   2 -1119765.10  417.70   1
   2   2 -10  290.50   22.60   1
   2   2  -910121.70  280.40   1
   2   2  -814042.90  304.90   1
   2   2  -7 1827.40   42.80   1
   2   2  -5 7473.40   96.20   1
   2   2  -416373.70  192.60   1
   2   2  -318932.00  301.90   1
   2   2  -2 4187.00   50.90   1
   2   2   1 2676.50   34.70   1
   2   2   3 1368.70   24.00   1
   2   2   419711.40  343.50   1
   2   2   524036.70  371.10   1
   2   2   6 1832.20   39.20   1
   2   2   734820.90  625.00   1
   2   2   8 3942.40   99.60   1
   2   2   911157.60  244.60   1
   2   2  1011322.60  253.00   1
   2   2  11 3152.60   75.40   1
   2   2  1212737.50  247.00   1
   2   2  1312792.90  215.50   1
   2   2  14 1337.40   45.20   1
   2   2  15 6460.70  136.90   1
   2   3 -14  635.50   62.80   1
   2   3 -1315002.70  427.30   1
   2   3 -12  416.90   31.10   1
   2   3 -11 6503.90  218.60   1
   2   3 -10 2027.30   68.10   1
   2   3  -9 1925.70   55.10   1
   2   3  -828929.70  658.90   1
   2   3  -718781.30  313.30   1
   2   3  -6 7279.60  149.80   1
   2   3  -533331.20 1062.20   1
   2   3  -4 1929.40   32.60   1
   2   3  -317020.50  320.40   1
   2   3  -1 1904.40   21.60   1
   2   3   325907.50  602.80   1
   2   3   424635.60  396.50   1
   2   3   532457.40 1169.90   1
   2   3   665136.50 2215.30   1
   2   3   7 2697.80   58.90   1
   2   3   823954.90  438.60   1
   2   3   915856.70  309.00   1
   2   3  10  934.00   32.40   1
   2   3  1120277.20  378.20   1
   2   3  12 2227.30   64.70   1
   2   3  1313409.30  268.90   1
   2   3  1410143.10  203.60   1
   2   3  15   41.00   22.50   1
   2   4 -14 7673.80  266.60   1
   2   4 -13 1334.90   65.70   1
   2   4 -12 8243.20  236.60   1
   2   4 -11  532.80   31.50   1
   2   4 -10 2506.50   81.80   1
   2   4  -9 9764.00  206.10   1
   2   4  -8  152.50   11.50   1
   2   4  -722897.10  439.20   1
   2   4  -6 6483.50  115.50   1
   2   4  -511521.00  222.70   1
   2   4  -411052.50  151.90   1
   2   4  -3 1134.00   19.40   1
   2   4  -226088.40  833.60   1
   2   4  -116964.00  244.50   1
   2   4   0 3675.80   50.80   1
   2   4   114306.80  262.60   1
   2   4   2 9050.00  118.70   1
   2   4   3 5258.20   67.30   1
   2   4   5 2244.30   35.70   1
   2   4   637006.30 1206.70   1
   2   4   7 9765.30  176.50   1
   2   4   8 2089.30   61.10   1
   2   4   910367.10  207.30   1
   2   4  10 8604.90  179.40   1
   2   4  11 7733.50  164.10   1
   2   4  1219683.60  371.40   1
   2   4  13   92.20   23.00   1
   2   4  14 9905.00  214.00   1
   2   4  15 5401.40  127.00   1
   2   5 -13 2130.80  100.90   1
   2   5 -12 2956.00  105.20   1
   2   5 -11 7508.50  215.90   1
   2   5 -10 1336.20   45.10   1
   2   5  -912920.40  270.00   1
   2   5  -830619.10  600.10   1
   2   5  -7  752.70   22.80   1
   2   5  -628773.80  670.00   1
   2   5  -5 9093.30  212.10   1
   2   5  -4 3008.20   50.20   1
   2   5  -2 7513.90   88.60   1
   2   5   020656.90  456.60   1
   2   5   1 3631.00   65.00   1
   2   5   2 4730.50   64.10   1
   2   5   3 8122.60  109.10   1
   2   5   4 4630.60   60.80   1
   2   5   6  379.00   17.10   1
   2   5   717856.50  339.00   1
   2   5   8 9730.40  211.60   1
   2   5   9  576.10   29.50   1
   2   5  1011134.90  221.20   1
   2   5  11 3669.90   90.60   1
   2   5  12 3659.50   93.70   1
   2   5  13 5421.70  124.30   1
   2   5  14   19.80   27.10   1
   2   5  15 1819.80   65.70   1
   2   6 -13 3540.60  197.80   1
   2   6 -12  206.30   43.90   1
   2   6 -11 1970.00   78.50   1
   2   6 -10 9315.30  256.50   1
   2   6  -9  371.30   21.00   1
   2   6  -811992.00  290.30   1
   2   6  -7 5360.30  142.10   1
   2   6  -6  182.90   11.70   1
   2   6  -520429.60  460.30   1
   2   6  -4 7531.90  145.80   1
   2   6  -310363.70  157.50   1
   2   6  -1   53.50    5.70   1
   2   6   118142.90  329.80   1
   2   6   2  653.20   13.00   1
   2   6   329514.30  950.10   1
   2   6   4 4767.00   67.40   1
   2   6   524423.10  771.90   1
   2   6   625131.80  473.90   1
   2   6   7  211.50   16.50   1
   2   6   813776.40  271.20   1
   2   6   915590.90  323.50   1
   2   6  10 2163.20   65.80   1
   2   6  1121095.50  398.00   1
   2   6  12 3688.20   92.90   1
   2   6  13 4854.10  123.10   1
   2   6  14 7146.70  203.70   1
   2   7 -12 4516.20  224.50   1
   2   7 -11 2156.60  122.40   1
   2   7 -10 2051.20  111.50   1
   2   7  -919474.20  667.80   1
   2   7  -8  119.70   25.10   1
   2   7  -714747.70  350.30   1
   2   7  -6 1813.70   54.00   1
   2   7  -5   56.60   10.90   1
   2   7  -4 7412.80  144.10   1
   2   7  -315831.00  304.30   1
   2   7  -2 8135.80  137.30   1
   2   7  -125163.40  559.20   1
   2   7   0   89.40    7.50   1
   2   7   1 9103.70  148.50   1
   2   7   210404.20  172.90   1
   2   7   3 1304.20   23.90   1
   2   7   418117.60  336.70   1
   2   7   5 3943.20   63.20   1
   2   7   6 7109.40  122.50   1
   2   7   711060.90  217.60   1
   2   7   8   26.70   11.90   1
   2   7   911917.30  243.10   1
   2   7  10 5766.60  142.50   1
   2   7  11 2597.20   80.30   1
   2   7  12 6113.50  137.00   1
   2   7  13 1049.70   52.70   1
   2   7  14 2727.60   99.50   1
   2   8 -11 6934.20  281.90   1
   2   8 -10 2219.00  108.00   1
   2   8  -9 7917.50  300.70   1
   2   8  -815667.60  552.40   1
   2   8  -7   90.10   27.60   1
   2   8  -615484.00  364.30   1
   2   8  -5 6441.60  131.60   1
   2   8  -4 8332.70  161.50   1
   2   8  -314005.90  262.90   1
   2   8  -2 4482.80   65.10   1
   2   8  -1 7327.10  146.10   1
   2   8   016862.10  319.10   1
   2   8   1   88.80    8.00   1
   2   8   222379.60  502.70   1
   2   8   318864.20  347.80   1
   2   8   4 5937.20  118.30   1
   2   8   516932.00  316.40   1
   2   8   6 4509.60   83.60   1
   2   8   7 2687.20   54.30   1
   2   8   813736.50  271.00   1
   2   8   9  289.90   22.00   1
   2   8  10 9786.70  208.70   1
   2   8  11 4375.90  111.50   1
   2   8  12  978.00   50.20   1
   2   8  13 3134.40   97.30   1
   2   9 -10 5989.90  276.70   1
   2   9  -9 2104.70  123.70   1
   2   9  -8 5956.40  259.60   1
   2   9  -7 5426.10  207.20   1
   2   9  -6   36.00   19.00   1
   2   9  -5 8199.20  162.60   1
   2   9  -4 7829.90  154.00   1
   2   9  -3 5452.10  111.80   1
   2   9  -219828.10  457.20   1
   2   9  -1  977.70   29.90   1
   2   9   0 3309.00   69.40   1
   2   9   1 6375.90  130.70   1
   2   9   2  486.00   18.40   1
   2   9   319411.60  357.30   1
   2   9   4 3192.00   67.50   1
   2   9   5 5747.00  115.60   1
   2   9   614834.00  289.50   1
   2   9   7 1153.80   36.40   1
   2   9   8 9868.60  199.00   1
   2   9   910714.10  216.10   1
   2   9  10  686.10   31.60   1
   2   9  11 9402.50  247.80   1
   2   9  12 1638.30   61.20   1
   2  10  -8 1071.10   58.40   1
   2  10  -7 3150.70   99.10   1
   2  10  -6 8003.30  200.80   1
   2  10  -5   93.60   17.10   1
   2  10  -414238.70  273.40   1
   2  10  -3 6093.00  128.20   1
   2  10  -2 2530.00   62.70   1
   2  10  -110644.00  203.10   1
   2  10   0 3583.10   74.50   1
   2  10   1 3552.70   73.60   1
   2  10   215401.40  288.30   1
   2  10   3   52.40   17.30   1
   2  10   410557.50  200.80   1
   2  10   5 1636.60   40.20   1
   2  10   6 1354.10   36.20   1
   2  10   7 8541.10  171.30   1
   2  10   8 2626.50   68.90   1
   2  10   9 4825.70  106.10   1
   2  10  10 6084.20  134.30   1
   2  10  11  976.90   43.30   1
   2  11  -7   17.80   37.50   1
   2  11  -6 3292.20  100.20   1
   2  11  -5 6235.90  168.20   1
   2  11  -4  670.80   37.60   1
   2  11  -312669.70  244.60   1
   2  11  -2 1549.20   41.90   1
   2  11  -1 3580.90   79.30   1
   2  11   0 8648.20  171.10   1
   2  11   1 1413.60   39.60   1
   2  11   2 8002.90  156.70   1
   2  11   3 8875.60  172.70   1
   2  11   4  639.60   23.50   1
   2  11   5 7017.90  139.90   1
   2  11   6 3408.20   76.00   1
   2  11   7 2253.30   56.20   1
   2  11   8 9254.10  233.90   1
   2  11   9  326.80   33.10   1
   2  12  -4 4596.50  131.30   1
   2  12  -3 1443.20   53.50   1
   2  12  -2 4130.40  118.70   1
   2  12  -1 1745.40   56.70   1
   2  12   0 1732.50   48.50   1
   2  12   1 7214.10  150.90   1
   2  12   2   28.30   16.00   1
   2  12   3 5894.70  120.80   1
   2  12   4 2773.50   64.60   1
   2  12   5  477.70   24.00   1
   2  12   6 4237.50   92.00   1
   2  12   7 2089.40   57.10   1
   2  13   1 3524.40  101.00   1
   2  13   2 7454.30  186.20   1
   2  13   3   22.40   29.60   1
   3 -12  -5 3794.90  144.50   1
   3 -12  -4 4320.70  112.50   1
   3 -12  -3  851.30   41.20   1
   3 -12  -2 4645.20  121.80   1
   3 -12  -1 1426.70   53.20   1
   3 -12   0 1488.80   50.80   1
   3 -12   1 5981.60  153.70   1
   3 -12   2   78.60   30.90   1
   3 -12   3 3270.70   96.60   1
   3 -11  -8 1446.20   77.50   1
   3 -11  -7 3100.80   87.90   1
   3 -11  -6 5881.90  146.90   1
   3 -11  -5   89.90   21.50   1
   3 -11  -4 6567.70  158.50   1
   3 -11  -3 4566.40  120.10   1
   3 -11  -2  885.80   38.20   1
   3 -11  -1 9357.30  225.20   1
   3 -11   0 1527.30   46.90   1
   3 -11   1 6554.90  161.30   1
   3 -11   2 6722.30  144.90   1
   3 -11   3   65.50   28.80   1
   3 -11   4 4167.10  100.20   1
   3 -11   5 3388.60  126.10   1
   3 -11   6  919.10   42.00   1
   3 -10  -9  567.10   33.40   1
   3 -10  -8 6331.70  164.20   1
   3 -10  -7 1991.50   64.70   1
   3 -10  -6 3053.80   83.10   1
   3 -10  -5 7208.10  174.20   1
   3 -10  -4  367.70   30.30   1
   3 -10  -3 6969.70  168.80   1
   3 -10  -2 2688.70   64.80   1
   3 -10  -1  280.10   23.90   1
   3 -10   016521.60  335.50   1
   3 -10   1 1561.20   36.40   1
   3 -10   2 6209.30  118.80   1
   3 -10   3 3283.00   67.00   1
   3 -10   4   79.80   16.30   1
   3 -10   5 7845.80  160.40   1
   3 -10   6 2828.80   94.80   1
   3 -10   7 2898.00   90.50   1
   3 -10   8 7630.40  227.30   1
   3  -9 -10 8406.10  254.30   1
   3  -9  -9 2911.50   87.50   1
   3  -9  -8  850.50   42.20   1
   3  -9  -716452.10  545.50   1
   3  -9  -6 2970.10   80.10   1
   3  -9  -5 8198.70  191.70   1
   3  -9  -4 8864.30  212.20   1
   3  -9  -3   34.60    8.00   1
   3  -9  -210249.50  204.50   1
   3  -9  -1 7679.00  154.90   1
   3  -9   0 1654.40   35.30   1
   3  -9   114748.30  283.90   1
   3  -9   2 1458.60   28.80   1
   3  -9   3 6752.20  105.60   1
   3  -9   4 9084.30  177.90   1
   3  -9   5  280.40   25.80   1
   3  -9   611034.00  276.40   1
   3  -9   7 6768.70  152.50   1
   3  -9   8 3481.20   99.60   1
   3  -9   9 4582.50  153.20   1
   3  -8 -11 3907.30  104.50   1
   3  -8 -10  353.60   26.60   1
   3  -8  -9 7253.50  173.00   1
   3  -8  -8 3074.40   88.60   1
   3  -8  -7 3456.90   97.10   1
   3  -8  -613954.90  322.60   1
   3  -8  -5   78.90    9.90   1
   3  -8  -413151.70  256.20   1
   3  -8  -3 5146.30   83.20   1
   3  -8  -2  214.90    9.70   1
   3  -8  -117899.30  336.40   1
   3  -8   010690.40  179.80   1
   3  -8   1 7452.30  112.20   1
   3  -8   2 5124.00   81.20   1
   3  -8   3   63.20    8.60   1
   3  -8   411873.60  232.60   1
   3  -8   517389.10  402.30   1
   3  -8   6  647.30   32.30   1
   3  -8   716394.60  331.60   1
   3  -8   8 4658.80  132.80   1
   3  -8   9 4377.10  139.40   1
   3  -8  10 6513.50  202.20   1
   3  -8  11  851.50   67.30   1
   3  -7 -12  602.90   44.70   1
   3  -7 -11 4599.30  112.00   1
   3  -7 -10 5801.30  137.90   1
   3  -7  -9  374.50   22.30   1
   3  -7  -816153.30  379.20   1
   3  -7  -713321.40  281.50   1
   3  -7  -611307.70  226.10   1
   3  -7  -510680.80  184.30   1
   3  -7  -4  370.60   12.00   1
   3  -7  -3 5541.60   87.30   1
   3  -7  -221401.30  495.40   1
   3  -7  -1   94.70    7.50   1
   3  -7   021603.10  415.60   1
   3  -7   1 4230.40   74.80   1
   3  -7   2 3415.40   56.60   1
   3  -7   3 4439.20   94.40   1
   3  -7   4  406.30   17.80   1
   3  -7   510280.60  243.30   1
   3  -7   610094.60  243.20   1
   3  -7   7 3657.50   98.80   1
   3  -7   812227.30  332.00   1
   3  -7   9 2903.20  108.90   1
   3  -7  10 1501.40   57.70   1
   3  -7  11 6006.50  200.40   1
   3  -7  12   40.60   44.40   1
   3  -6 -12 8412.80  247.10   1
   3  -6 -11   59.00   16.80   1
   3  -6 -10 8217.10  215.40   1
   3  -6  -914214.00  268.90   1
   3  -6  -8  697.10   29.20   1
   3  -6  -720962.40  558.10   1
   3  -6  -6 2246.70   34.90   1
   3  -6  -519352.00  379.30   1
   3  -6  -3  824.40   16.60   1
   3  -6  -227385.40  983.40   1
   3  -6  -124449.10  556.50   1
   3  -6   0 2975.00   44.90   1
   3  -6   130000.00  682.40   1
   3  -6   2 8754.30  131.60   1
   3  -6   3 4485.00   90.80   1
   3  -6   428556.20  634.70   1
   3  -6   5 1613.90   35.80   1
   3  -6   616864.20  328.00   1
   3  -6   7 7312.00  139.40   1
   3  -6   8 1491.00   52.50   1
   3  -6   913478.70  343.90   1
   3  -6  10 6585.80  197.20   1
   3  -6  11 4012.30  136.00   1
   3  -6  12 6643.10  216.70   1
   3  -5 -13  315.20   53.20   1
   3  -5 -12 3084.50  136.70   1
   3  -5 -11 3196.90   94.40   1
   3  -5 -10  482.70   23.90   1
   3  -5  -913982.50  285.20   1
   3  -5  -817380.40  320.50   1
   3  -5  -7  389.80   12.50   1
   3  -5  -6 7714.10  102.50   1
   3  -5  -5  757.90   13.50   1
   3  -5  -4 3637.50   49.80   1
   3  -5  -2  171.70    6.90   1
   3  -5  -131462.90 1024.20   1
   3  -5   0 4121.60   56.40   1
   3  -5   1 2069.70   30.20   1
   3  -5   216645.90  251.10   1
   3  -5   3 6249.90  100.20   1
   3  -5   421727.70  487.30   1
   3  -5   520539.10  384.60   1
   3  -5   6  561.70   30.00   1
   3  -5   710832.20  226.70   1
   3  -5   812992.60  321.70   1
   3  -5   9 1908.30   76.40   1
   3  -5  1019098.00  478.30   1
   3  -5  11 1361.20   75.50   1
   3  -5  12 5762.00  177.80   1
   3  -5  13 3509.00  137.00   1
   3  -4 -14  713.20   50.20   1
   3  -4 -1015046.60  387.10   1
   3  -4  -9  250.60   20.90   1
   3  -4  -823357.50  546.70   1
   3  -4  -713385.00  213.70   1
   3  -4  -6 2021.80   29.80   1
   3  -4  -519372.80  493.20   1
   3  -4  -420762.30  431.30   1
   3  -4  -317647.50  306.00   1
   3  -4  -214050.60  389.10   1
   3  -4  -1 2365.00   34.90   1
   3  -4   011679.70  153.70   1
   3  -4   125897.20  508.80   1
   3  -4   2  303.80    7.90   1
   3  -4   320815.10  746.00   1
   3  -4   410611.60  243.70   1
   3  -4   521673.50  489.30   1
   3  -4   6 6853.60  144.30   1
   3  -4   7  370.80   24.20   1
   3  -4   8 1150.90   51.50   1
   3  -4   914881.10  406.80   1
   3  -4  10 1695.80   72.00   1
   3  -4  1112440.10  325.40   1
   3  -4  12  166.00   56.50   1
   3  -4  13 2108.60  106.70   1
   3  -4  14 4771.20  179.50   1
   3  -3 -14  977.60   51.80   1
   3  -3 -11 5902.20  195.40   1
   3  -3 -1011753.70  338.10   1
   3  -3  -915328.90  403.60   1
   3  -3  -8 6254.20  100.10   1
   3  -3  -716442.90  286.50   1
   3  -3  -6 7392.80  107.80   1
   3  -3  -5 5918.30   75.50   1
   3  -3  -429892.00 1049.50   1
   3  -3  -3 6587.90   77.90   1
   3  -3  -224997.60  855.30   1
   3  -3   0 1829.70   25.60   1
   3  -3   120224.10  336.80   1
   3  -3   220910.10  465.30   1
   3  -3   320310.60  466.20   1
   3  -3   430259.40 1144.60   1
   3  -3   5 4120.30  102.50   1
   3  -3   617394.60  336.50   1
   3  -3   721791.50  503.10   1
   3  -3   8 1038.80   45.50   1
   3  -3   916162.80  423.30   1
   3  -3  10 3752.00  124.30   1
   3  -3  11 1483.60   73.80   1
   3  -3  1210340.30  305.80   1
   3  -3  13 1977.50   93.80   1
   3  -3  14 4945.70  189.20   1
   3  -2 -13 4625.60  152.50   1
   3  -2 -12  924.40   50.60   1
   3  -2 -1113739.50  298.80   1
   3  -2 -10 9647.00  223.10   1
   3  -2  -9 9515.10  225.80   1
   3  -2  -816931.90  375.10   1
   3  -2  -7  119.60   12.90   1
   3  -2  -610308.70  135.40   1
   3  -2  -524394.90  457.40   1
   3  -2  -4 3228.90   44.10   1
   3  -2  -329527.20  734.50   1
   3  -2  -2  165.00    4.00   1
   3  -2  -112561.10  185.20   1
   3  -2   013975.20  234.50   1
   3  -2   1  166.30    4.60   1
   3  -2   212217.80  339.20   1
   3  -2   316741.90  280.20   1
   3  -2   417036.40  298.80   1
   3  -2   543332.10  737.70   1
   3  -2   6  940.80   24.60   1
   3  -2   711829.80  220.00   1
   3  -2   832222.10  800.30   1
   3  -2   9 2280.20   80.40   1
   3  -2  1011046.20  253.70   1
   3  -2  11  236.00   28.30   1
   3  -2  12 4545.60  159.10   1
   3  -2  1314730.70  422.60   1
   3  -2  14  446.30   50.30   1
   3  -2  1512621.30  397.70   1
   3  -1 -14 1689.20   79.10   1
   3  -1 -1313103.40  348.00   1
   3  -1 -12 5267.30  164.90   1
   3  -1 -11 4314.60  107.90   1
   3  -1 -1029016.20 1053.50   1
   3  -1  -9  220.60   19.50   1
   3  -1  -821852.40  460.90   1
   3  -1  -711326.10  244.90   1
   3  -1  -6 2072.60   39.90   1
   3  -1  -533475.30 1138.30   1
   3  -1  -3 5807.10   62.70   1
   3  -1  -1 7199.70   97.10   1
   3  -1   027985.90  674.50   1
   3  -1   2 1754.20   27.30   1
   3  -1   325323.00  426.00   1
   3  -1   417334.10  374.10   1
   3  -1   5 3553.60   54.80   1
   3  -1   641681.60  719.40   1
   3  -1   7 4296.10   97.70   1
   3  -1   830617.60  744.50   1
   3  -1   938451.80  916.60   1
   3  -1  10   94.20   17.60   1
   3  -1  1110608.10  209.60   1
   3  -1  12 5138.40  120.70   1
   3  -1  13 3230.20   85.80   1
   3  -1  1416723.70  398.50   1
   3  -1  15  682.90   63.10   1
   3   0 -14 5498.90  183.20   1
   3   0 -13  189.00   46.50   1
   3   0 -1210136.40  292.00   1
   3   0 -11 6998.80  208.90   1
   3   0 -10 8164.20  187.30   1
   3   0  -919316.70  493.00   1
   3   0  -8  706.40   24.60   1
   3   0  -710180.60  192.50   1
   3   0  -612615.70  260.80   1
   3   0  -5 9428.50  112.60   1
   3   0  -436837.80  866.10   1
   3   0  -310233.50  161.00   1
   3   0  -218002.70  325.50   1
   3   0  -124525.10  585.40   1
   3   0   0  221.60    4.40   1
   3   0   227119.80  677.40   1
   3   0   320656.80  365.20   1
   3   0   421795.80  317.50   1
   3   0   5 1823.40   35.60   1
   3   0   6 8255.80  177.80   1
   3   0   733513.50  865.70   1
   3   0   8   89.80   21.00   1
   3   0   928748.50  599.20   1
   3   0  1014341.20  243.50   1
   3   0  11 1628.40   39.30   1
   3   0  1222889.60  587.00   1
   3   0  13 5851.30  153.40   1
   3   0  14 9418.80  226.90   1
   3   0  1517467.50  409.60   1
   3   1 -14 9091.00  291.30   1
   3   1 -1313050.20  359.60   1
   3   1 -12   94.10   31.40   1
   3   1 -1118697.50  498.30   1
   3   1 -10 9685.10  274.90   1
   3   1  -910498.30  279.60   1
   3   1  -812345.20  334.90   1
   3   1  -7 2771.40   63.20   1
   3   1  -613907.20  291.20   1
   3   1  -4 2985.80   46.00   1
   3   1  -331595.00  748.70   1
   3   1  -218034.30  258.40   1
   3   1  -113578.10  214.40   1
   3   1   029236.00 1076.30   1
   3   1   1 3858.90   56.00   1
   3   1   223226.80  553.50   1
   3   1   317882.60  314.30   1
   3   1   4 4982.20   84.70   1
   3   1   522596.70  409.30   1
   3   1   6 7335.60  141.60   1
   3   1   7 7195.50  177.20   1
   3   1   826501.10  553.90   1
   3   1   9 1822.80   59.40   1
   3   1  1017563.10  382.30   1
   3   1  11 5867.80  147.20   1
   3   1  12  378.80   24.50   1
   3   1  1312789.90  280.70   1
   3   1  14 1345.30   53.80   1
   3   1  15 7427.20  228.70   1
   3   2 -14   72.70   36.00   1
   3   2 -13 7564.20  235.20   1
   3   2 -12 8503.30  258.10   1
   3   2 -11 3388.20  118.90   1
   3   2 -10 7411.70  213.10   1
   3   2  -9  191.60   21.30   1
   3   2  -818308.90  454.70   1
   3   2  -722101.30  432.70   1
   3   2  -6  626.70   17.50   1
   3   2  -526184.90  593.10   1
   3   2  -3 5142.60   67.50   1
   3   2  -232185.30  732.70   1
   3   2  -1 4669.40   64.70   1
   3   2   0 9172.80  153.10   1
   3   2   2 1265.30   18.90   1
   3   2   349798.60 1245.20   1
   3   2   412238.10  164.80   1
   3   2   5 1539.40   30.80   1
   3   2   718312.00  345.50   1
   3   2   816307.70  349.00   1
   3   2   925517.10  522.30   1
   3   2  10   50.10   20.40   1
   3   2  1117697.60  376.10   1
   3   2  1211795.10  265.10   1
   3   2  13  668.50   31.90   1
   3   2  1419150.00  402.80   1
   3   2  15 1526.80   77.40   1
   3   3 -13 1160.50   64.80   1
   3   3 -12 9663.00  276.60   1
   3   3 -11 6106.30  194.30   1
   3   3 -10  521.30   40.10   1
   3   3  -9 4833.50  133.10   1
   3   3  -8 1384.30   33.50   1
   3   3  -710013.00  199.20   1
   3   3  -634304.30  871.10   1
   3   3  -5 1715.50   34.20   1
   3   3  -417403.10  285.20   1
   3   3  -3 3354.50   43.10   1
   3   3  -2  494.00    8.60   1
   3   3  -127097.30  876.70   1
   3   3   012784.90  203.80   1
   3   3   123284.10  424.40   1
   3   3   216589.00  274.80   1
   3   3   3 4824.70   70.60   1
   3   3   4 8712.70  125.40   1
   3   3   5 8397.90  116.60   1
   3   3   6 3796.60   72.60   1
   3   3   735725.70  646.60   1
   3   3   8  628.70   30.30   1
   3   3   915407.70  292.60   1
   3   3  1011950.50  262.90   1
   3   3  11  126.10   21.70   1
   3   3  1217298.30  372.50   1
   3   3  13 7124.20  159.70   1
   3   3  14 4411.90  129.80   1
   3   3  1510385.70  239.20   1
   3   4 -13 8890.20  274.40   1
   3   4 -12  130.70   33.00   1
   3   4 -1110530.00  295.70   1
   3   4 -10 5413.40  166.00   1
   3   4  -9 1489.90   54.50   1
   3   4  -818433.70  370.10   1
   3   4  -7 6339.20  116.30   1
   3   4  -622567.50  525.10   1
   3   4  -535821.40 1146.90   1
   3   4  -4 6943.80  135.60   1
   3   4  -218143.40  412.70   1
   3   4  -1  226.00    4.90   1
   3   4   1 5225.40   65.60   1
   3   4   226393.90  838.00   1
   3   4   325437.40  481.40   1
   3   4   4  127.20    6.90   1
   3   4   523027.20  390.50   1
   3   4   616157.70  246.30   1
   3   4   7 5641.40  102.00   1
   3   4   815542.50  299.50   1
   3   4   9 1768.30   52.70   1
   3   4  10 3260.80   80.30   1
   3   4  11 8213.90  169.30   1
   3   4  12   52.80   20.30   1
   3   4  1310725.10  220.70   1
   3   4  14 2151.00   78.10   1
   3   4  15  816.20   53.70   1
   3   5 -12 3065.60  113.90   1
   3   5 -11  855.30   54.10   1
   3   5 -10 2636.80   92.60   1
   3   5  -9 9080.40  238.60   1
   3   5  -8  901.40   34.50   1
   3   5  -719540.00  379.20   1
   3   5  -6  187.60   10.50   1
   3   5  -514351.50  331.70   1
   3   5  -4 7969.40  186.20   1
   3   5  -3 2537.50   40.60   1
   3   5  -228409.60  891.10   1
   3   5  -117574.70  322.70   1
   3   5   020606.80  456.30   1
   3   5   2  187.90    6.20   1
   3   5   311525.40  170.20   1
   3   5   423475.60  532.60   1
   3   5   5 2338.40   40.20   1
   3   5   7 5800.80   96.30   1
   3   5   8 7251.90  165.90   1
   3   5   920592.50  380.20   1
   3   5  10 1080.60   39.70   1
   3   5  1114416.90  289.90   1
   3   5  12 9622.30  199.00   1
   3   5  13 1181.50   46.90   1
   3   5  14 7425.40  187.30   1
   3   6 -11 4889.60  156.30   1
   3   6 -10  688.50   48.90   1
   3   6  -9 6371.50  183.10   1
   3   6  -8 6774.20  249.20   1
   3   6  -7  977.30   37.30   1
   3   6  -619426.60  638.50   1
   3   6  -5 2091.50   60.30   1
   3   6  -4 9133.20  182.90   1
   3   6  -315927.10  366.80   1
   3   6  -2   95.00    7.40   1
   3   6  -121904.60  678.30   1
   3   6   0 2873.40   41.80   1
   3   6   1 2222.70   30.90   1
   3   6   213964.80  256.20   1
   3   6   3 5614.50   77.70   1
   3   6   415061.20  247.40   1
   3   6   513640.90  224.90   1
   3   6   6 2539.60   45.10   1
   3   6   710869.20  183.50   1
   3   6   8 1020.70   28.60   1
   3   6   9 1699.40   56.50   1
   3   6  1018941.40  365.10   1
   3   6  11 1825.20   60.60   1
   3   6  1213238.20  269.40   1
   3   6  13 2220.60   65.30   1
   3   6  14 1389.00   58.80   1
   3   7 -11 5284.70  229.80   1
   3   7 -10 7888.70  307.20   1
   3   7  -9 1161.90   71.60   1
   3   7  -821092.40  704.10   1
   3   7  -7  563.40   41.90   1
   3   7  -6 5145.20  138.10   1
   3   7  -5 7868.40  156.20   1
   3   7  -4  699.90   24.70   1
   3   7  -318294.30  349.40   1
   3   7  -220163.00  454.40   1
   3   7  -1 4986.10   69.30   1
   3   7   1 2745.40   46.90   1
   3   7   2 3611.70   52.90   1
   3   7   324377.20  774.10   1
   3   7   4 2070.20   32.70   1
   3   7   519961.10  327.30   1
   3   7   612255.70  205.30   1
   3   7   7  219.60   15.20   1
   3   7   8 6111.40  126.10   1
   3   7   9 1587.60   43.30   1
   3   7  10 4962.80  128.70   1
   3   7  1115936.60  368.10   1
   3   7  12 1187.00   48.00   1
   3   7  13 4979.90  126.90   1
   3   8 -10 3396.90  171.10   1
   3   8  -9 5693.00  245.30   1
   3   8  -8 1157.10   74.50   1
   3   8  -713498.30  333.00   1
   3   8  -6 2369.50   70.20   1
   3   8  -5 2169.90   64.80   1
   3   8  -4 8874.00  173.90   1
   3   8  -3  244.10   15.90   1
   3   8  -214646.60  280.90   1
   3   8  -1 4121.00   65.80   1
   3   8   0 5312.10   92.70   1
   3   8   110038.60  187.30   1
   3   8   2 4040.00   72.30   1
   3   8   310428.00  173.90   1
   3   8   420609.70  462.80   1
   3   8   5  762.70   19.60   1
   3   8   614564.50  243.20   1
   3   8   7 3807.20   72.70   1
   3   8   8 1538.60   37.10   1
   3   8   9 7595.60  200.30   1
   3   8  10 1288.10   47.70   1
   3   8  11 8050.10  196.90   1
   3   8  12 4698.50  132.30   1
   3   9  -9 6948.80  276.30   1
   3   9  -8 6357.40  178.60   1
   3   9  -7 2454.40   86.30   1
   3   9  -6 8549.40  229.70   1
   3   9  -5 3539.10   97.50   1
   3   9  -4 2889.90   82.50   1
   3   9  -318730.20  427.10   1
   3   9  -2 1077.80   32.40   1
   3   9  -1 8060.70  156.70   1
   3   9   0 3668.20   77.70   1
   3   9   1 2523.70   55.20   1
   3   9   215531.00  356.10   1
   3   9   3 5025.90  102.60   1
   3   9   4 4980.90  101.50   1
   3   9   513148.30  254.10   1
   3   9   6  337.50   20.60   1
   3   9   7 8091.20  164.30   1
   3   9   8 4707.20  102.60   1
   3   9   9 1195.10   40.60   1
   3   9  10 7117.50  205.50   1
   3   9  11  278.70   33.50   1
   3  10  -7 1722.00   67.50   1
   3  10  -6 1979.20   67.90   1
   3  10  -5 8413.10  207.70   1
   3  10  -4  921.50   42.70   1
   3  10  -3 8453.60  204.60   1
   3  10  -2 9667.50  236.00   1
   3  10  -1   -8.20   18.90   1
   3  10   0 5954.10  121.80   1
   3  10   1 3492.60   74.60   1
   3  10   2 2071.30   48.50   1
   3  10   315588.50  371.80   1
   3  10   4  747.80   28.00   1
   3  10   5 7836.20  159.30   1
   3  10   6 7238.10  151.70   1
   3  10   7   15.80   21.70   1
   3  10   8 9777.30  244.00   1
   3  10   9 5845.00  157.70   1
   3  10  10 2247.10   62.60   1
   3  11  -6 1778.60   92.10   1
   3  11  -5  485.20   38.50   1
   3  11  -4 8487.30  215.80   1
   3  11  -3  530.10   38.20   1
   3  11  -2 4818.80  134.60   1
   3  11  -1 3216.30   90.20   1
   3  11   0  113.00   22.90   1
   3  11   1 7561.90  187.30   1
   3  11   2 3418.60   93.10   1
   3  11   3 1677.90   45.20   1
   3  11   4 6228.80  126.30   1
   3  11   5  219.10   19.40   1
   3  11   6 2755.80   65.00   1
   3  11   7 3519.50   81.90   1
   3  11   8   12.40   23.30   1
   3  11   9 6405.50  255.00   1
   3  12  -3 7694.30  295.40   1
   3  12  -2  114.50   31.50   1
   3  12  -1 4728.50  131.40   1
   3  12   0 4943.70  132.70   1
   3  12   1   81.60   23.40   1
   3  12   2 7706.60  196.80   1
   3  12   3 3166.50   97.30   1
   3  12   4 2955.50   89.10   1
   3  12   5 5685.90  147.30   1
   3  12   6  547.70   32.80   1
   4 -11  -5 4923.00  179.60   1
   4 -11  -4 2275.50   64.00   1
   4 -11  -3 2976.20   84.80   1
   4 -11  -2 3571.10  100.80   1
   4 -11  -1   39.90   17.20   1
   4 -11   0 3269.80   88.80   1
   4 -11   1 5344.80  118.60   1
   4 -11   2 1497.70   49.00   1
   4 -11   3 4673.00  113.40   1
   4 -11   4  299.80   33.30   1
   4 -10  -8  122.00   34.90   1
   4 -10  -7 3946.70  139.90   1
   4 -10  -6 6522.70  153.90   1
   4 -10  -5 1192.10   39.20   1
   4 -10  -4 8393.90  197.70   1
   4 -10  -3 1189.90   37.80   1
   4 -10  -2 2435.50   60.50   1
   4 -10  -1 9378.90  223.70   1
   4 -10   0  380.90   21.60   1
   4 -10   1 8556.90  176.10   1
   4 -10   2 5452.10  117.30   1
   4 -10   3  853.60   33.70   1
   4 -10   4 7749.60  197.90   1
   4 -10   5 1495.00   55.40   1
   4 -10   6 1395.50   51.40   1
   4 -10   7 6579.40  187.60   1
   4  -9  -9 2406.40  101.00   1
   4  -9  -8 4001.70  137.70   1
   4  -9  -7  -40.50   24.80   1
   4  -9  -6 8111.70  181.90   1
   4  -9  -5 3942.50   96.70   1
   4  -9  -4 2281.20   56.50   1
   4  -9  -3 7096.90  145.00   1
   4  -9  -2  111.10   19.90   1
   4  -9  -1 4528.60   98.30   1
   4  -9   010696.70  209.20   1
   4  -9   1  187.10   15.80   1
   4  -9   211885.70  258.50   1
   4  -9   3 2797.60   57.90   1
   4  -9   4 1207.40   32.60   1
   4  -9   512370.00  295.80   1
   4  -9   6 1001.70   36.20   1
   4  -9   7 5037.60  108.90   1
   4  -9   8 5590.20  171.30   1
   4  -8 -1013010.20  523.20   1
   4  -8  -9  495.40   43.70   1
   4  -8  -8 2840.60  115.50   1
   4  -8  -710693.60  226.00   1
   4  -8  -6  233.80   23.40   1
   4  -8  -514268.20  267.30   1
   4  -8  -4 5685.50   98.50   1
   4  -8  -3  760.20   17.80   1
   4  -8  -2 9763.30  192.00   1
   4  -8  -1 1824.10   40.80   1
   4  -8   0 4556.10   85.20   1
   4  -8   1 5488.90   99.50   1
   4  -8   2 1007.10   24.80   1
   4  -8   310265.50  205.30   1
   4  -8   4 5316.50  130.70   1
   4  -8   5 1252.20   38.60   1
   4  -8   613213.90  264.00   1
   4  -8   7  406.80   41.80   1
   4  -8   8 5477.90  166.80   1
   4  -8   9 1780.70   78.70   1
   4  -8  10  -26.80   37.70   1
   4  -7 -10 3071.20  100.10   1
   4  -7  -9 9446.90  263.50   1
   4  -7  -8  649.20   28.80   1
   4  -7  -710513.80  222.80   1
   4  -7  -612486.70  255.90   1
   4  -7  -5 2816.50   51.90   1
   4  -7  -414769.50  259.80   1
   4  -7  -3 7471.10  115.80   1
   4  -7  -2 4406.00   78.70   1
   4  -7   0 2104.30   36.30   1
   4  -7   1 7851.70  125.70   1
   4  -7   2 8189.10  132.00   1
   4  -7   3 1345.80   27.70   1
   4  -7   417080.90  321.90   1
   4  -7   511095.60  219.30   1
   4  -7   6 3481.70   84.00   1
   4  -7   718412.60  383.10   1
   4  -7   8  106.00   36.20   1
   4  -7   9 8173.40  247.50   1
   4  -7  10 4479.90  146.60   1
   4  -7  11   64.00   32.70   1
   4  -6 -12   72.60   38.90   1
   4  -6 -10 1560.10   68.60   1
   4  -6  -9  825.60   41.90   1
   4  -6  -810822.70  226.30   1
   4  -6  -7 1777.80   37.60   1
   4  -6  -610729.40  187.50   1
   4  -6  -5 5588.90   89.10   1
   4  -6  -4 1123.00   22.00   1
   4  -6  -310094.90  151.70   1
   4  -6  -2 9673.20  170.50   1
   4  -6  -1 5097.70   81.00   1
   4  -6   018146.70  343.30   1
   4  -6   1  866.90   15.70   1
   4  -6   2 6857.20  119.00   1
   4  -6   3 4904.80   91.30   1
   4  -6   4  198.00   13.90   1
   4  -6   524842.70  466.20   1
   4  -6   6 5039.00  116.90   1
   4  -6   710675.80  229.10   1
   4  -6   8 8771.00  192.40   1
   4  -6   9   74.70   27.90   1
   4  -6  10 7982.10  234.30   1
   4  -6  11 4974.30  164.70   1
   4  -6  12  605.40   72.30   1
   4  -5 -11 1084.40   57.90   1
   4  -5  -8 3036.00   77.60   1
   4  -5  -727216.70  644.20   1
   4  -5  -6  203.90   10.20   1
   4  -5  -512839.90  214.20   1
   4  -5  -4 9282.70  138.00   1
   4  -5  -3  683.00   14.00   1
   4  -5  -1 8161.60  129.20   1
   4  -5   011327.70  172.40   1
   4  -5   122580.00  810.10   1
   4  -5   2   45.40    6.20   1
   4  -5   3 7857.50  186.50   1
   4  -5   4 6703.50  140.00   1
   4  -5   5  965.10   29.20   1
   4  -5   621459.70  367.50   1
   4  -5   7 4684.00  120.40   1
   4  -5   8 3876.30  117.00   1
   4  -5   9 7369.50  215.00   1
   4  -5  10  822.20   53.30   1
   4  -5  11 7327.10  239.30   1
   4  -5  12 3106.40  123.70   1
   4  -4 -13  143.50   34.10   1
   4  -4 -10  288.60   40.20   1
   4  -4  -8 2241.20   71.30   1
   4  -4  -714432.60  251.80   1
   4  -4  -613715.00  270.90   1
   4  -4  -5  399.80   10.00   1
   4  -4  -415454.20  296.30   1
   4  -4  -318757.90  392.80   1
   4  -4  -2  632.90   12.70   1
   4  -4  -129731.80  990.70   1
   4  -4   0  131.30    8.60   1
   4  -4   116851.40  273.80   1
   4  -4   220163.40  368.20   1
   4  -4   3  244.70   10.40   1
   4  -4   416677.00  673.60   1
   4  -4   5 8147.50  168.70   1
   4  -4   6 8958.90  160.30   1
   4  -4   712412.00  251.30   1
   4  -4   8 5227.10  144.60   1
   4  -4   9 6550.40  176.50   1
   4  -4  1017067.60  423.50   1
   4  -4  11   30.90   29.30   1
   4  -4  12 5661.90  190.80   1
   4  -4  13 2389.70  114.00   1
   4  -3 -12  177.60   28.70   1
   4  -3  -9  103.00   28.60   1
   4  -3  -819705.50  794.20   1
   4  -3  -7 1720.50   28.20   1
   4  -3  -6 8769.80  130.00   1
   4  -3  -514350.30  237.80   1
   4  -3  -4 1254.90   19.00   1
   4  -3  -315004.20  190.40   1
   4  -3  -219940.00  337.90   1
   4  -3  -1 1084.00   17.90   1
   4  -3   017422.30  284.30   1
   4  -3   1 4788.00   67.60   1
   4  -3   2 9252.00  155.30   1
   4  -3   326661.00  507.80   1
   4  -3   4  202.40    9.70   1
   4  -3   526182.10  628.20   1
   4  -3   6 3241.40   66.60   1
   4  -3   7 4581.30   96.60   1
   4  -3   8 7431.40  169.90   1
   4  -3   9 1908.30   70.80   1
   4  -3  1010901.80  295.70   1
   4  -3  11 6543.60  204.50   1
   4  -3  12  734.50   58.00   1
   4  -3  13 4090.70  157.80   1
   4  -2 -13 8213.40  244.40   1
   4  -2 -12 8896.60  273.40   1
   4  -2 -11  148.00   32.70   1
   4  -2 -1012123.80  362.60   1
   4  -2  -9 6586.40  208.60   1
   4  -2  -8 9420.30  220.10   1
   4  -2  -717788.40  370.20   1
   4  -2  -6 3291.20   59.70   1
   4  -2  -511934.20  236.10   1
   4  -2  -434732.80 1183.60   1
   4  -2  -3 1191.90   16.90   1
   4  -2  -1 5708.10   78.30   1
   4  -2   0  734.30   13.00   1
   4  -2   114511.70  405.80   1
   4  -2   215201.90  258.10   1
   4  -2   430235.60  791.20   1
   4  -2   5  278.20   13.00   1
   4  -2   617813.80  328.60   1
   4  -2   712576.30  276.70   1
   4  -2   8 1839.90   57.60   1
   4  -2   925444.50  638.10   1
   4  -2  10 7325.50  217.50   1
   4  -2  11 9277.50  264.60   1
   4  -2  12 6737.50  205.10   1
   4  -2  13   94.10   35.60   1
   4  -2  14 6874.50  183.20   1
   4  -1 -13  624.80   46.70   1
   4  -1 -12 3851.50  130.90   1
   4  -1 -1115268.30  397.00   1
   4  -1 -10  288.10   27.50   1
   4  -1  -8 2901.80   94.50   1
   4  -1  -7 2102.20   57.00   1
   4  -1  -612986.10  209.90   1
   4  -1  -5 1432.90   23.50   1
   4  -1  -420011.20  302.60   1
   4  -1  -318932.30  267.00   1
   4  -1  -2 2118.30   25.40   1
   4  -1  -127568.60  623.20   1
   4  -1   0  489.70    8.40   1
   4  -1   1 6339.80   95.00   1
   4  -1   3 1905.50   27.60   1
   4  -1   429340.40  612.60   1
   4  -1   5 6532.20  109.10   1
   4  -1   6  522.90   16.10   1
   4  -1   716812.20  322.00   1
   4  -1   810855.40  295.70   1
   4  -1   916329.80  417.40   1
   4  -1  1033747.00  829.30   1
   4  -1  11 1100.10   43.20   1
   4  -1  12 7726.10  186.20   1
   4  -1  13 8660.60  194.40   1
   4  -1  14  393.60   31.70   1
   4   0 -1312246.00  358.70   1
   4   0 -12 2250.20   92.60   1
   4   0 -11 8920.50  278.90   1
   4   0  -9  241.90   28.40   1
   4   0  -814381.10  555.00   1
   4   0  -7 7862.90  147.00   1
   4   0  -6 1284.00   22.10   1
   4   0  -535624.70 1159.90   1
   4   0  -4 5569.00   89.20   1
   4   0  -334200.40  817.80   1
   4   0  -220144.90  332.60   1
   4   0  -1  167.50    4.00   1
   4   0   1 5947.90  196.70   1
   4   0   2 2930.90   42.70   1
   4   0   319159.60  345.10   1
   4   0   4  318.70    9.90   1
   4   0   514137.60  266.60   1
   4   0   6 9428.70  178.30   1
   4   0   7 1026.40   36.60   1
   4   0   815130.40  423.10   1
   4   0   9 6156.00  169.80   1
   4   0  10 8105.60  151.20   1
   4   0  1111376.20  223.00   1
   4   0  12  478.90   32.00   1
   4   0  13 4990.80  134.40   1
   4   0  14 8494.90  266.60   1
   4   1 -13 2463.80  109.80   1
   4   1 -12 9772.80  281.00   1
   4   1 -11  162.20   29.70   1
   4   1  -8  829.80   40.20   1
   4   1  -714272.50  294.10   1
   4   1  -6 6936.90  136.50   1
   4   1  -5 8630.50  134.70   1
   4   1  -422816.20  540.40   1
   4   1  -3  221.50   11.20   1
   4   1  -223029.20  384.00   1
   4   1  -1 7490.70  126.00   1
   4   1   012048.50  220.10   1
   4   1   131045.60 1076.40   1
   4   1   227440.80 1074.80   1
   4   1   314047.30  239.80   1
   4   1   422144.70  345.50   1
   4   1   5 1084.20   24.20   1
   4   1   619220.80  404.70   1
   4   1   722832.00  603.90   1
   4   1   8 3676.40   91.60   1
   4   1   927569.30  581.60   1
   4   1  10 7915.40  194.00   1
   4   1  11 8615.60  207.40   1
   4   1  1218831.70  483.00   1
   4   1  13  359.70   32.10   1
   4   1  1412055.80  357.70   1
   4   2 -13 2844.10  112.80   1
   4   2 -12 2117.30   95.40   1
   4   2 -1110743.70  321.50   1
   4   2 -10  161.00   28.70   1
   4   2  -8 5218.60  148.70   1
   4   2  -7  237.20   11.20   1
   4   2  -6 9287.40  183.00   1
   4   2  -513887.10  270.10   1
   4   2  -4 5256.20   79.90   1
   4   2  -318416.10  356.60   1
   4   2  -2   82.40    8.50   1
   4   2  -110624.70  170.60   1
   4   2   0 6056.20  140.50   1
   4   2   1 3018.00   53.60   1
   4   2   222243.40  565.70   1
   4   2   3 5319.50   99.40   1
   4   2   4 6755.90  112.90   1
   4   2   515752.20  275.40   1
   4   2   6  345.20   15.50   1
   4   2   717677.70  322.50   1
   4   2   8 8363.70  178.90   1
   4   2   9 5987.40  151.70   1
   4   2  1018742.30  400.90   1
   4   2  11 3105.30   87.00   1
   4   2  12 6207.50  187.50   1
   4   2  1316386.90  388.30   1
   4   2  14  205.10   32.50   1
   4   3 -13 5768.70  253.00   1
   4   3 -12 2001.50   83.30   1
   4   3 -10 7576.80  213.00   1
   4   3  -9  663.00   34.40   1
   4   3  -826263.10  905.70   1
   4   3  -716322.50  387.10   1
   4   3  -6  953.90   25.00   1
   4   3  -4 5069.50   74.60   1
   4   3  -311015.60  213.30   1
   4   3  -220425.50  323.00   1
   4   3  -1 1084.20   16.50   1
   4   3   118305.70  355.10   1
   4   3   2 5674.80   79.40   1
   4   3   322467.80  385.10   1
   4   3   4 3936.70   70.20   1
   4   3   5 8620.40  144.40   1
   4   3   623356.80  442.70   1
   4   3   7  877.50   23.30   1
   4   3   813427.30  303.90   1
   4   3   9 9221.50  260.00   1
   4   3  10 1046.30   47.00   1
   4   3  11 6813.10  173.90   1
   4   3  12 2922.90   79.00   1
   4   3  13 4306.30  117.10   1
   4   3  1413121.40  297.30   1
   4   4 -12 5931.20  182.70   1
   4   4 -11 2033.30   78.90   1
   4   4 -10 2983.00  104.80   1
   4   4  -9 3071.20   93.10   1
   4   4  -8  212.80   23.00   1
   4   4  -713944.80  344.10   1
   4   4  -610122.60  204.10   1
   4   4  -5 3352.00   65.10   1
   4   4  -419917.30  464.90   1
   4   4  -3  288.30   10.70   1
   4   4  -211083.10  254.00   1
   4   4  -121137.90  476.20   1
   4   4   0   25.00    5.60   1
   4   4   2 7283.70  113.30   1
   4   4   3 6471.30  124.90   1
   4   4   418370.00  352.60   1
   4   4   5 4550.40   72.30   1
   4   4   621416.80  393.40   1
   4   4   723570.40  425.40   1
   4   4   8 4504.70   87.80   1
   4   4   917757.80  336.90   1
   4   4  10 3913.30   97.40   1
   4   4  11 1434.10   47.20   1
   4   4  1213271.70  297.20   1
   4   4  13 1195.20   44.20   1
   4   4  14 8552.90  187.00   1
   4   5 -12 1244.10   85.00   1
   4   5 -11 4923.40  156.80   1
   4   5 -10 1474.90   60.00   1
   4   5  -9 3887.00  124.00   1
   4   5  -817542.70  442.20   1
   4   5  -7  849.20   37.60   1
   4   5  -616669.10  422.10   1
   4   5  -5 7396.40  144.10   1
   4   5  -4 3916.10   82.00   1
   4   5  -3 6685.10  113.50   1
   4   5  -2 7155.80  123.00   1
   4   5  -1 5757.40   78.10   1
   4   5   1  631.20   13.20   1
   4   5   212954.60  175.20   1
   4   5   3 3590.50   58.80   1
   4   5   4 2038.80   39.10   1
   4   5   514280.20  215.70   1
   4   5   6 8438.20  134.90   1
   4   5   711493.10  194.10   1
   4   5   818467.80  299.80   1
   4   5   9 1220.10   38.20   1
   4   5  10 5161.60  101.30   1
   4   5  11 1799.70   53.70   1
   4   5  12 2458.40   66.00   1
   4   5  13 7976.10  169.10   1
   4   5  14   61.40   66.50   1
   4   6 -11 4983.90  176.60   1
   4   6 -10 3782.50  122.80   1
   4   6  -9  375.20   36.00   1
   4   6  -8 5491.80  207.20   1
   4   6  -714478.10  488.90   1
   4   6  -6 1226.30   46.10   1
   4   6  -517911.70  579.50   1
   4   6  -4 3096.60   78.90   1
   4   6  -3 5021.60   98.10   1
   4   6  -216894.30  528.80   1
   4   6  -1 1664.10   29.30   1
   4   6   025363.30  572.20   1
   4   6   117034.70  311.50   1
   4   6   2  280.80    9.80   1
   4   6   3 9171.10  125.50   1
   4   6   4 5172.40   83.90   1
   4   6   5 6763.30  107.50   1
   4   6   624543.70  484.30   1
   4   6   7 1384.20   35.40   1
   4   6   8 7712.70  134.20   1
   4   6   910782.60  186.50   1
   4   6  10  253.40   22.90   1
   4   6  1113114.20  232.20   1
   4   6  12 5404.10  110.10   1
   4   6  13 2732.30   75.50   1
   4   7 -10 1136.20   74.60   1
   4   7  -9 7295.70  298.90   1
   4   7  -8 1799.20   86.10   1
   4   7  -7 7938.40  202.00   1
   4   7  -6 7203.60  178.60   1
   4   7  -5 1274.70   43.20   1
   4   7  -4 7087.30  172.80   1
   4   7  -3 4036.60  100.90   1
   4   7  -2 1961.00   43.30   1
   4   7  -119035.90  427.30   1
   4   7   0  164.20   10.40   1
   4   7   114395.20  238.30   1
   4   7   2 5510.20   78.50   1
   4   7   3 1297.20   23.40   1
   4   7   412164.70  181.20   1
   4   7   5 1835.20   34.20   1
   4   7   6 8163.50  144.00   1
   4   7   7 9845.20  177.90   1
   4   7   8   96.00   15.60   1
   4   7   9 5000.70  124.30   1
   4   7  10 6281.00  121.10   1
   4   7  11  568.40   29.60   1
   4   7  12 8999.30  291.20   1
   4   8  -9 1775.80   70.00   1
   4   8  -811431.50  300.50   1
   4   8  -7  868.70   40.90   1
   4   8  -6 7117.40  175.50   1
   4   8  -5 5535.90  151.70   1
   4   8  -4  172.00   18.10   1
   4   8  -315786.20  361.40   1
   4   8  -2 6042.00  149.60   1
   4   8  -1 6265.90  152.80   1
   4   8   012727.30  295.80   1
   4   8   1 1289.00   34.20   1
   4   8   2 7005.30  122.90   1
   4   8   317510.30  336.40   1
   4   8   4  526.70   18.00   1
   4   8   518669.60  437.40   1
   4   8   6 2437.10   51.00   1
   4   8   7 3017.90   62.40   1
   4   8   8 4290.30  100.60   1
   4   8   9  445.00   28.40   1
   4   8  10 5209.10  136.90   1
   4   8  11 5209.90  121.60   1
   4   8  12  891.70  100.90   1
   4   9  -8 3818.70  167.50   1
   4   9  -7 6429.70  173.40   1
   4   9  -6  136.20   25.20   1
   4   9  -5 3717.60  104.00   1
   4   9  -4 4135.20  110.80   1
   4   9  -3 1700.90   57.50   1
   4   9  -213691.10  328.80   1
   4   9  -1 2252.40   68.70   1
   4   9   0 3826.70  102.60   1
   4   9   1 4710.90  119.50   1
   4   9   2   63.70   18.90   1
   4   9   311484.80  276.10   1
   4   9   410390.70  207.90   1
   4   9   5 3329.90   79.00   1
   4   9   614531.10  285.20   1
   4   9   7 1497.40   44.10   1
   4   9   8 2777.50   71.50   1
   4   9   9 9569.50  258.20   1
   4   9  10  104.80   27.90   1
   4  10  -6 3525.20  105.30   1
   4  10  -5   30.70   26.00   1
   4  10  -4 5856.30  154.30   1
   4  10  -3 6192.30  154.40   1
   4  10  -2 2233.40   71.80   1
   4  10  -1 8235.50  207.30   1
   4  10   0 1391.40   47.10   1
   4  10   1 1292.70   45.00   1
   4  10   2 5089.50  131.40   1
   4  10   3   68.10   19.50   1
   4  10   4 7040.70  171.90   1
   4  10   5 2291.70   71.90   1
   4  10   6 2343.70   74.60   1
   4  10   7 4505.30  124.80   1
   4  10   8 1243.90   51.30   1
   4  10   9 2363.60   84.40   1
   4  11  -4   63.90   36.30   1
   4  11  -3 9962.80  252.70   1
   4  11  -2 3090.50   97.10   1
   4  11  -1 1679.70   56.90   1
   4  11   0 7760.20  196.30   1
   4  11   1 1538.00   55.60   1
   4  11   2 3525.00   97.70   1
   4  11   3 8874.60  224.20   1
   4  11   4  104.70   27.30   1
   4  11   5 6761.40  169.40   1
   4  11   6 1613.00   58.90   1
   4  11   7  837.40   47.50   1
   4  12   1 4059.00  158.20   1
   4  12   2  587.80   49.10   1
   4  12   3 4392.50  177.90   1
   5 -10  -5 4938.50  103.00   1
   5 -10  -4    7.10   22.10   1
   5 -10  -3 5478.40  147.50   1
   5 -10  -2 2330.10   73.40   1
   5 -10  -1  328.90   22.30   1
   5 -10   0 5020.20  129.90   1
   5 -10   1 2195.40   58.40   1
   5 -10   2 4201.80  103.30   1
   5 -10   3 3266.90   85.40   1
   5 -10   4   84.00   33.10   1
   5  -9  -6 3275.80   74.60   1
   5  -9  -5 3134.10   80.40   1
   5  -9  -4 4820.40  135.50   1
   5  -9  -3  -11.30   15.60   1
   5  -9  -2 4356.40   97.40   1
   5  -9  -1 4388.40   95.70   1
   5  -9   0  496.20   24.30   1
   5  -9   110815.20  222.10   1
   5  -9   2 1809.70   44.30   1
   5  -9   3 3753.30   76.50   1
   5  -9   4 2702.70   71.80   1
   5  -9   5   30.90   22.90   1
   5  -9   6 2743.10   76.20   1
   5  -9   7 4072.50  130.20   1
   5  -8  -9 4122.80  156.70   1
   5  -8  -8 1883.50   79.10   1
   5  -8  -7  830.00   40.40   1
   5  -8  -613280.00  608.50   1
   5  -8  -5  599.10   22.70   1
   5  -8  -4 7409.10  157.10   1
   5  -8  -3 4866.60   79.10   1
   5  -8  -2   42.70   11.70   1
   5  -8  -110934.00  195.40   1
   5  -8   0 8127.70  141.20   1
   5  -8   1 1975.30   44.20   1
   5  -8   210031.30  178.70   1
   5  -8   3  250.00   17.30   1
   5  -8   4 6698.30  143.70   1
   5  -8   510173.20  210.80   1
   5  -8   6   37.80   22.20   1
   5  -8   7 8462.90  186.70   1
   5  -8   8 3778.00  107.30   1
   5  -7  -9   81.00   34.60   1
   5  -7  -8 4710.50  158.90   1
   5  -7  -7 5578.70  129.10   1
   5  -7  -6  794.10   24.20   1
   5  -7  -5 9290.20  197.80   1
   5  -7  -4  254.40   12.20   1
   5  -7  -3 6310.10  103.20   1
   5  -7  -2 3799.10   66.60   1
   5  -7  -1   30.90    9.50   1
   5  -7   0 6516.70  116.60   1
   5  -7   1 8804.60  153.50   1
   5  -7   2 2176.90   46.10   1
   5  -7   3 5303.70   97.10   1
   5  -7   4   39.90   17.50   1
   5  -7   5 7521.60  151.80   1
   5  -7   611163.30  224.30   1
   5  -7   7 1311.10   43.00   1
   5  -7   8 8922.10  199.80   1
   5  -7   9 2179.80   88.60   1
   5  -6  -8   72.90   26.80   1
   5  -6  -7 8598.10  382.30   1
   5  -6  -6 5130.50   94.80   1
   5  -6  -5 6067.90  122.80   1
   5  -6  -415665.30  379.90   1
   5  -6  -3 1284.20   25.10   1
   5  -6  -213583.60  214.60   1
   5  -6  -114219.00  245.10   1
   5  -6   0  462.40   15.70   1
   5  -6   1 7457.00  133.10   1
   5  -6   2 8691.50  152.90   1
   5  -6   3  590.50   21.10   1
   5  -6   410408.50  206.10   1
   5  -6   5 1882.00   53.90   1
   5  -6   6 6406.00  121.70   1
   5  -6   7 8021.40  162.30   1
   5  -6   8 1277.10   47.90   1
   5  -6   9 7661.50  229.40   1
   5  -6  10 3849.80  111.60   1
   5  -5 -10   78.40   34.70   1
   5  -5  -811617.80  447.50   1
   5  -5  -7  142.30   12.90   1
   5  -5  -6 6755.20  145.90   1
   5  -5  -5  870.60   20.00   1
   5  -5  -4 9113.40  142.90   1
   5  -5  -311550.10  176.40   1
   5  -5  -2  606.40   16.80   1
   5  -5  -118235.00  463.40   1
   5  -5   012848.70  219.70   1
   5  -5   1 7888.50  143.20   1
   5  -5   212088.20  208.80   1
   5  -5   3 1536.20   36.20   1
   5  -5   4 2482.00   56.20   1
   5  -5   521925.30  412.00   1
   5  -5   6  259.30   21.60   1
   5  -5   712502.60  215.00   1
   5  -5   8 4280.80  125.30   1
   5  -5   9  606.70   39.00   1
   5  -5  10 9108.50  267.40   1
   5  -5  11 2498.30  101.50   1
   5  -4 -12 1447.80  111.80   1
   5  -4  -9 1422.40   62.20   1
   5  -4  -810158.70  404.10   1
   5  -4  -7 9186.60  379.60   1
   5  -4  -6   91.50   12.40   1
   5  -4  -5 7046.40  131.80   1
   5  -4  -4 5268.40   79.40   1
   5  -4  -3 1560.70   26.00   1
   5  -4  -219061.50  441.60   1
   5  -4  -1  881.00   18.20   1
   5  -4   019265.70  372.40   1
   5  -4   1 9361.40  161.60   1
   5  -4   2  777.30   14.60   1
   5  -4   3 8827.90  171.60   1
   5  -4   4 4001.40   64.20   1
   5  -4   5 4999.70   84.10   1
   5  -4   615967.70  274.90   1
   5  -4   7  506.10   29.00   1
   5  -4   8 6844.90  201.40   1
   5  -4   9 2724.20   93.60   1
   5  -4  10  434.40   44.20   1
   5  -4  11 7368.00  225.40   1
   5  -4  12  747.00   67.30   1
   5  -3 -11  298.00   32.70   1
   5  -3 -10 2746.70  108.30   1
   5  -3  -911909.70  348.70   1
   5  -3  -8   45.60   20.90   1
   5  -3  -716629.70  687.80   1
   5  -3  -6 4760.70  111.90   1
   5  -3  -5 4678.40   77.10   1
   5  -3  -411692.30  203.70   1
   5  -3  -310345.30  142.30   1
   5  -3  -2 5250.00   93.70   1
   5  -3  -129653.10  979.40   1
   5  -3   0  629.20   13.40   1
   5  -3   113590.60  340.70   1
   5  -3   210081.10  187.30   1
   5  -3   3  514.30   13.10   1
   5  -3   417674.60  726.60   1
   5  -3   5 8438.40  148.40   1
   5  -3   6 8864.30  190.10   1
   5  -3   713065.80  268.20   1
   5  -3   8  150.50   24.00   1
   5  -3   9 7332.00  193.30   1
   5  -3  10 7128.10  218.70   1
   5  -3  11  920.00   58.50   1
   5  -2 -12 1234.80   63.90   1
   5  -2 -11 5046.50  165.70   1
   5  -2 -10 5413.60  171.10   1
   5  -2  -9 2956.90  106.30   1
   5  -2  -7  320.90   16.80   1
   5  -2  -6 7914.10  171.90   1
   5  -2  -5 4760.20   68.30   1
   5  -2  -4 2648.00   38.00   1
   5  -2  -314397.50  204.60   1
   5  -2  -2 2200.80   27.90   1
   5  -2  -114828.00  247.80   1
   5  -2   010997.60  185.80   1
   5  -2   1 1343.70   22.50   1
   5  -2   2 5521.10   95.80   1
   5  -2   3 9784.20  160.50   1
   5  -2   4 6392.90   98.30   1
   5  -2   528955.70  596.20   1
   5  -2   6  805.50   22.60   1
   5  -2   7 5996.70  121.10   1
   5  -2   812435.30  342.90   1
   5  -2   9   39.60   24.80   1
   5  -2  1018660.40  494.00   1
   5  -2  11 4486.10  145.00   1
   5  -2  12 7059.40  217.40   1
   5  -2  1310771.20  328.60   1
   5  -1 -12 5239.00  169.30   1
   5  -1 -11 1055.80   55.50   1
   5  -1 -1012535.50  511.30   1
   5  -1  -8 9123.60  354.70   1
   5  -1  -714740.10  377.70   1
   5  -1  -6  126.70   13.40   1
   5  -1  -514373.90  249.60   1
   5  -1  -423296.20  558.70   1
   5  -1  -3 1695.80   24.10   1
   5  -1  -230305.90 1096.00   1
   5  -1  -1 1751.50   25.60   1
   5  -1   0 6290.90  119.50   1
   5  -1   112662.20  202.20   1
   5  -1   2   70.50    5.90   1
   5  -1   4 7392.60  116.70   1
   5  -1   5 5279.50  103.00   1
   5  -1   616839.80  277.70   1
   5  -1   7 2017.50   48.40   1
   5  -1   8 6802.10  164.40   1
   5  -1   919065.60  494.50   1
   5  -1  10  281.70   26.80   1
   5  -1  11 8254.90  235.10   1
   5  -1  12  372.70   35.90   1
   5  -1  13 1511.50   59.80   1
   5   0 -12 3067.20  115.20   1
   5   0 -11 3421.50  115.20   1
   5   0 -10 1733.60   71.00   1
   5   0  -9 9929.10  432.60   1
   5   0  -8  212.50   22.70   1
   5   0  -7 6064.90  117.70   1
   5   0  -6 4953.00   83.30   1
   5   0  -5 1137.90   19.20   1
   5   0  -429968.10  729.20   1
   5   0  -311925.20  184.10   1
   5   0  -2 7326.10  114.60   1
   5   0  -120312.20  451.90   1
   5   0   0  667.90   13.00   1
   5   0   111378.70  259.20   1
   5   0   212179.30  381.10   1
   5   0   3 1306.70   23.90   1
   5   0   434188.50  866.70   1
   5   0   5 3724.40   80.30   1
   5   0   6 4264.50   80.60   1
   5   0   722873.60  461.30   1
   5   0   8 1935.10   56.60   1
   5   0   918412.80  534.00   1
   5   0  1012702.60  380.90   1
   5   0  11  649.70   44.80   1
   5   0  12 7694.40  198.60   1
   5   0  13 3236.50   91.30   1
   5   1 -12   27.50   29.40   1
   5   1 -11 4894.50  165.20   1
   5   1 -10 2872.20  110.10   1
   5   1  -9 1073.10   47.40   1
   5   1  -7 1575.10   43.40   1
   5   1  -6 5733.80   99.20   1
   5   1  -512626.10  246.60   1
   5   1  -4  510.20   20.70   1
   5   1  -318396.10  295.60   1
   5   1  -2 3598.30   60.10   1
   5   1  -1 1451.40   28.80   1
   5   1   013007.40  241.40   1
   5   1   1 3890.70   54.80   1
   5   1   211221.20  210.50   1
   5   1   313104.10  264.00   1
   5   1   4 2495.80   48.00   1
   5   1   5 9945.90  164.30   1
   5   1   6 3218.90   61.10   1
   5   1   7 2023.70   50.00   1
   5   1   816646.10  345.40   1
   5   1   9  365.00   26.30   1
   5   1  1019204.80  536.30   1
   5   1  11 6077.20  203.20   1
   5   1  12 1236.80   51.80   1
   5   1  13 5139.80  178.90   1
   5   2 -11  714.50   43.00   1
   5   2  -9 1761.60   64.50   1
   5   2  -8 5426.40  156.80   1
   5   2  -6 1337.70   39.50   1
   5   2  -514480.00  287.70   1
   5   2  -421357.80  491.20   1
   5   2  -3 4043.10   76.00   1
   5   2  -217749.40  262.90   1
   5   2  -1 4055.50   69.20   1
   5   2   0 7143.90  134.90   1
   5   2   2  421.60   11.70   1
   5   2   317530.50  337.90   1
   5   2   410089.10  162.80   1
   5   2   5  758.50   21.30   1
   5   2   615829.70  256.40   1
   5   2   710060.50  193.80   1
   5   2   8 1549.00   41.20   1
   5   2   915405.10  435.80   1
   5   2  10  322.20   30.40   1
   5   2  11 9298.00  288.40   1
   5   2  12 7320.50  182.40   1
   5   2  13   74.50   38.10   1
   5   3 -11 3854.10  218.30   1
   5   3 -10  444.80   32.90   1
   5   3  -9 4096.10  121.40   1
   5   3  -8  506.30   26.60   1
   5   3  -7 4856.90  136.20   1
   5   3  -614223.60  349.40   1
   5   3  -5  717.90   28.90   1
   5   3  -415334.10  291.20   1
   5   3  -3 7001.70  142.10   1
   5   3  -2 2439.60   51.10   1
   5   3  -111129.50  201.90   1
   5   3   0 5908.90  111.90   1
   5   3   1 6664.90  130.20   1
   5   3   3 1023.90   20.30   1
   5   3   424329.80  486.10   1
   5   3   5 2664.30   47.00   1
   5   3   6 4825.60   90.60   1
   5   3   718705.90  368.30   1
   5   3   8 3536.00   90.80   1
   5   3   910847.00  259.00   1
   5   3  1011904.20  286.90   1
   5   3  11   20.80   19.60   1
   5   3  12 9708.80  230.90   1
   5   3  13 7809.90  246.80   1
   5   4 -11 6036.00  327.40   1
   5   4 -10 5671.40  279.80   1
   5   4  -9  724.20   38.90   1
   5   4  -8 7195.00  188.50   1
   5   4  -7 2220.50   56.90   1
   5   4  -6 3190.90   75.20   1
   5   4  -518973.70  448.80   1
   5   4  -4  295.20   21.60   1
   5   4  -316415.50  332.40   1
   5   4  -2 9519.00  179.90   1
   5   4  -1   60.30   12.10   1
   5   4   013363.30  245.30   1
   5   4   1 4189.80   82.00   1
   5   4   2 3127.90   49.60   1
   5   4   317319.80  431.60   1
   5   4   4 1319.90   29.60   1
   5   4   514066.80  257.40   1
   5   4   6 7032.30  138.70   1
   5   4   7 1987.70   49.70   1
   5   4   812891.40  260.90   1
   5   4   9  739.90   29.90   1
   5   4  10 3474.60   95.60   1
   5   4  11 4839.70  125.00   1
   5   4  12   22.10   26.70   1
   5   4  13 7274.20  191.00   1
   5   5 -10 6021.80  316.90   1
   5   5  -9 2393.40  143.20   1
   5   5  -8  800.00   31.20   1
   5   5  -7 9031.70  191.20   1
   5   5  -6 1201.50   37.80   1
   5   5  -511570.70  382.40   1
   5   5  -4 9509.90  217.60   1
   5   5  -3 2806.80   52.30   1
   5   5  -218091.40  575.80   1
   5   5  -110277.50  193.30   1
   5   5   0 1885.50   43.00   1
   5   5   120403.90  374.00   1
   5   5   2 1021.10   21.70   1
   5   5   3 7700.10  146.90   1
   5   5   4 9862.40  178.90   1
   5   5   5  298.80   17.10   1
   5   5   615194.40  251.70   1
   5   5   713333.70  244.10   1
   5   5   8 4325.30   85.20   1
   5   5   912622.70  210.50   1
   5   5  10 1349.20   39.50   1
   5   5  11 2914.90   66.70   1
   5   5  12 9724.80  171.40   1
   5   6  -9 4215.10  197.20   1
   5   6  -8 4747.40  186.20   1
   5   6  -7  312.30   23.40   1
   5   6  -6 9991.40  253.00   1
   5   6  -5 1371.30   43.60   1
   5   6  -4 4617.50  117.40   1
   5   6  -3 7590.60  182.80   1
   5   6  -2  107.30   12.20   1
   5   6  -112664.30  293.40   1
   5   6   0 4121.80   76.30   1
   5   6   1 6754.60  132.00   1
   5   6   2 9982.80  169.90   1
   5   6   3  235.80   13.50   1
   5   6   4 4355.60   89.70   1
   5   6   5 6390.10  119.70   1
   5   6   6  288.10   18.80   1
   5   6   713808.90  227.20   1
   5   6   8 1918.40   47.10   1
   5   6   9 3932.50   80.20   1
   5   6  10 5213.90  111.70   1
   5   6  11 1023.10   41.20   1
   5   6  12 5074.50  110.90   1
   5   7  -8 6416.70  256.80   1
   5   7  -7 6155.40  170.80   1
   5   7  -6 3935.10  109.20   1
   5   7  -510095.70  241.20   1
   5   7  -4  302.20   20.00   1
   5   7  -3 4709.60  116.80   1
   5   7  -214975.80  482.90   1
   5   7  -1  190.60   15.20   1
   5   7   022769.90  520.20   1
   5   7   1 7011.50  123.90   1
   5   7   2 4220.80   81.60   1
   5   7   3 9631.00  165.90   1
   5   7   4 2127.10   45.20   1
   5   7   5 6046.10  110.00   1
   5   7   612533.50  253.50   1
   5   7   7  300.30   19.60   1
   5   7   8 6146.90  124.10   1
   5   7   9  617.50   27.90   1
   5   7  10 2188.20   62.00   1
   5   7  11 9597.30  191.70   1
   5   8  -7 9745.10  389.60   1
   5   8  -6 1643.30   60.60   1
   5   8  -5 1942.40   60.00   1
   5   8  -4 3205.30   91.60   1
   5   8  -3  203.00   18.90   1
   5   8  -2 6915.20  170.10   1
   5   8  -1 6653.50  165.50   1
   5   8   0 1514.00   50.00   1
   5   8   113063.30  309.80   1
   5   8   2 1519.20   35.20   1
   5   8   3 3063.10   59.80   1
   5   8   413106.40  261.70   1
   5   8   5 1063.80   29.70   1
   5   8   612906.90  263.90   1
   5   8   7 5966.00  131.70   1
   5   8   8  498.80   36.20   1
   5   8   9 4326.00  119.50   1
   5   8  10 1598.30   62.20   1
   5   9  -6 8066.30  301.60   1
   5   9  -4  845.40   39.60   1
   5   9  -3 6775.60  174.70   1
   5   9  -2  890.60   39.50   1
   5   9  -1 4895.10  128.90   1
   5   9   0 2900.00   83.20   1
   5   9   1 1681.20   56.70   1
   5   9   2 7032.70  178.90   1
   5   9   3 2517.60   78.10   1
   5   9   4 1839.50   61.50   1
   5   9   5 8807.60  221.60   1
   5   9   6   76.40   25.90   1
   5   9   7 3646.70  119.20   1
   5   9   8 1911.20   75.50   1
   5   9   9  125.20   40.30   1
   5  10  -4 1419.20   70.00   1
   5  10  -3 3091.70   90.90   1
   5  10  -210923.50  267.40   1
   5  10  -1  228.50   24.60   1
   5  10   0 4730.80  127.20   1
   5  10   1 2126.70   65.90   1
   5  10   2 1746.90   58.50   1
   5  10   3 9641.00  239.50   1
   5  10   4 2701.60   80.10   1
   5  10   5 5949.90  161.10   1
   5  10   6 6108.50  163.30   1
   5  10   7   36.20   29.50   1
   5  11   0   16.30   32.30   1
   5  11   1 3313.10  129.20   1
   5  11   2 3049.30  119.20   1
   5  11   3  736.40   52.90   1
   5  11   4 6723.00  245.50   1
   6  -9  -4  737.40   37.20   1
   6  -9  -3 6795.10  179.90   1
   6  -9  -2  242.90   26.10   1
   6  -9  -1 2875.70   94.40   1
   6  -9   1  127.80   24.20   1
   6  -9   2 6972.20  205.50   1
   6  -9   3 2308.40   98.90   1
   6  -8  -6    2.20   20.30   1
   6  -8  -5 3235.60   80.80   1
   6  -8  -4 2549.40   55.00   1
   6  -8  -3   78.40   14.70   1
   6  -8  -2 3643.40   76.50   1
   6  -8  -1  778.70   27.40   1
   6  -8   0 2641.80   74.90   1
   6  -8   1 5701.30  142.60   1
   6  -8   2  199.50   18.70   1
   6  -8   3 7280.20  160.40   1
   6  -8   4 1563.60   49.50   1
   6  -8   5  231.00   29.20   1
   6  -8   6 6099.70  168.90   1
   6  -7  -8  678.60   51.80   1
   6  -7  -7 3299.00   86.90   1
   6  -7  -6 7851.00  366.90   1
   6  -7  -5  371.30   18.60   1
   6  -7  -410800.60  420.60   1
   6  -7  -3 1962.20   37.90   1
   6  -7  -2   93.70   14.50   1
   6  -7  -1 9159.20  187.20   1
   6  -7   0 4414.10   98.50   1
   6  -7   1 3507.30   81.00   1
   6  -7   2 4205.70   96.80   1
   6  -7   3  542.40   24.80   1
   6  -7   4 7132.50  176.20   1
   6  -7   5 5617.20  146.00   1
   6  -7   6  302.50   28.80   1
   6  -7   7 9245.30  234.80   1
   6  -7   8  796.50   71.80   1
   6  -6  -9  582.20   52.70   1
   6  -6  -8 5184.90  276.40   1
   6  -6  -7  700.90   40.10   1
   6  -6  -6 4231.80  103.80   1
   6  -6  -5 5739.90  108.70   1
   6  -6  -4 1044.00   24.90   1
   6  -6  -310861.70  193.50   1
   6  -6  -2 1540.80   42.30   1
   6  -6  -1 1702.90   47.00   1
   6  -6   0 9243.00  189.90   1
   6  -6   1  684.10   24.70   1
   6  -6   2 7138.50  158.50   1
   6  -6   3 3221.70   84.90   1
   6  -6   4  543.60   27.50   1
   6  -6   5 8401.50  209.80   1
   6  -6   6 5289.00  111.60   1
   6  -6   7 2768.90   79.70   1
   6  -6   8 7581.10  205.10   1
   6  -6   9  179.40   39.20   1
   6  -5  -9 2771.30   99.70   1
   6  -5  -8  186.00   25.00   1
   6  -5  -7 6924.80  327.70   1
   6  -5  -6 1290.70   40.90   1
   6  -5  -5 6515.90  176.90   1
   6  -5  -4 8004.20  130.80   1
   6  -5  -3  122.20   13.30   1
   6  -5  -2 8909.00  179.30   1
   6  -5  -1 6531.60  137.00   1
   6  -5   0 2223.00   56.80   1
   6  -5   1 9942.70  200.10   1
   6  -5   2  352.40   16.90   1
   6  -5   3 4613.50   88.00   1
   6  -5   4 5363.00  111.70   1
   6  -5   5  100.90   18.50   1
   6  -5   6 7814.90  142.30   1
   6  -5   7 2669.40   64.10   1
   6  -5   8 2078.20   66.50   1
   6  -5   9 4432.60   99.60   1
   6  -5  10  227.80   44.60   1
   6  -4 -10 1476.80   73.00   1
   6  -4  -9 5990.40  189.90   1
   6  -4  -8 1999.30   62.30   1
   6  -4  -7 2115.10   58.20   1
   6  -4  -610991.00  285.40   1
   6  -4  -5  108.90   14.00   1
   6  -4  -412101.40  240.00   1
   6  -4  -3 7421.10  133.50   1
   6  -4  -2   38.90   10.70   1
   6  -4  -114287.70  355.50   1
   6  -4   0 3513.30   66.50   1
   6  -4   1 8824.20  183.10   1
   6  -4   211519.70  198.60   1
   6  -4   3  810.20   24.00   1
   6  -4   410065.80  205.90   1
   6  -4   510957.20  213.50   1
   6  -4   6  741.90   35.80   1
   6  -4   712538.20  223.00   1
   6  -4   8 2640.70   72.40   1
   6  -4   9 1867.10   60.30   1
   6  -4  10 6218.40  156.10   1
   6  -3 -10 3205.50  198.10   1
   6  -3  -9   23.50   27.30   1
   6  -3  -8 6063.20  148.30   1
   6  -3  -7 1513.80   50.20   1
   6  -3  -6 5016.10  113.10   1
   6  -3  -5 7932.30  207.10   1
   6  -3  -4   43.30   10.40   1
   6  -3  -3 7185.00  126.80   1
   6  -3  -2 7854.30  138.10   1
   6  -3  -1   82.20    9.70   1
   6  -3   010757.50  211.90   1
   6  -3   1  464.20   16.80   1
   6  -3   2 4673.70   94.80   1
   6  -3   3 7144.60  139.80   1
   6  -3   4  462.90   18.30   1
   6  -3   5 9918.30  175.80   1
   6  -3   6 4810.50   91.20   1
   6  -3   7 2909.00   77.90   1
   6  -3   8 6537.50  140.50   1
   6  -3   9  702.30   31.90   1
   6  -3  10 4121.60  133.70   1
   6  -3  11 8497.40  249.50   1
   6  -2 -10 3933.60  194.20   1
   6  -2  -9 4605.90  210.80   1
   6  -2  -8  484.50   28.00   1
   6  -2  -716303.70  599.70   1
   6  -2  -6 2211.20   61.20   1
   6  -2  -5 6621.30  124.20   1
   6  -2  -411881.20  201.40   1
   6  -2  -3 1708.20   35.70   1
   6  -2  -215875.50  262.40   1
   6  -2  -113879.40  271.80   1
   6  -2   0 2426.20   49.80   1
   6  -2   1 9026.30  207.10   1
   6  -2   2 2962.30   61.90   1
   6  -2   3 4352.00   87.60   1
   6  -2   416713.40  376.10   1
   6  -2   5  311.20   16.40   1
   6  -2   6 9035.40  178.60   1
   6  -2   7 4139.70   95.40   1
   6  -2   8 1296.30   55.20   1
   6  -2   9 7192.50  222.10   1
   6  -2  10 3013.50  103.90   1
   6  -2  11 4265.30  151.10   1
   6  -2  12 3398.40  184.20   1
   6  -1 -10  249.30   54.20   1
   6  -1  -9 2841.50  149.90   1
   6  -1  -8 2986.70  145.10   1
   6  -1  -7 3784.40  115.60   1
   6  -1  -6 8040.30  204.70   1
   6  -1  -5  547.80   27.00   1
   6  -1  -4 5169.10   83.20   1
   6  -1  -315478.40  267.60   1
   6  -1  -2   18.00    8.10   1
   6  -1  -117569.80  707.80   1
   6  -1   0 3141.10   55.90   1
   6  -1   1 3960.70   95.20   1
   6  -1   211289.20  230.30   1
   6  -1   3 5581.20  113.50   1
   6  -1   412822.60  255.70   1
   6  -1   518997.40  395.40   1
   6  -1   6 1381.80   37.20   1
   6  -1   711309.70  215.30   1
   6  -1   8 4159.90  114.70   1
   6  -1   9 2047.50   57.40   1
   6  -1  1015434.70  394.10   1
   6  -1  11 3111.60   96.60   1
   6  -1  12 4739.20  114.30   1
   6   0 -10 6158.40  288.20   1
   6   0  -9  196.20   49.00   1
   6   0  -8 8860.90  344.00   1
   6   0  -7 4041.80   95.30   1
   6   0  -6 1163.70   30.30   1
   6   0  -5 6819.80  123.00   1
   6   0  -4 5022.50   81.80   1
   6   0  -3 6972.20  113.70   1
   6   0  -214529.00  248.30   1
   6   0  -1  135.00   11.40   1
   6   0   0 6124.90  118.90   1
   6   0   1 3275.40   67.60   1
   6   0   2  263.00    8.50   1
   6   0   310024.00  229.90   1
   6   0   4 2764.50   63.80   1
   6   0   5 9446.00  183.30   1
   6   0   6 7940.60  158.80   1
   6   0   7  695.20   27.60   1
   6   0   8 7015.10  166.50   1
   6   0   9 4637.80  135.20   1
   6   0  10 3197.60   81.90   1
   6   0  1110433.20  210.80   1
   6   0  12  193.00   36.70   1
   6   1 -10 3419.50  185.10   1
   6   1  -9 6654.60  291.80   1
   6   1  -8  638.00   42.40   1
   6   1  -711645.70  240.20   1
   6   1  -6 2519.60   55.70   1
   6   1  -5 1719.10   42.40   1
   6   1  -419770.70  395.30   1
   6   1  -3 1630.20   35.00   1
   6   1  -219878.50  501.20   1
   6   1  -1 6405.40  108.20   1
   6   1   0 2488.20   67.40   1
   6   1   3  771.20   21.70   1
   6   1   412849.90  253.40   1
   6   1   5  611.30   24.50   1
   6   1   6 5837.30  127.80   1
   6   1   7 8346.30  183.60   1
   6   1   8    4.30   25.50   1
   6   1   912584.80  271.00   1
   6   1  10 3941.20  113.60   1
   6   1  11 2885.30   85.10   1
   6   1  12 6535.60  220.90   1
   6   2 -10  683.70   76.10   1
   6   2  -9 4279.50  131.20   1
   6   2  -8 4234.90  118.70   1
   6   2  -7  446.40   35.10   1
   6   2  -6 6403.30  126.80   1
   6   2  -5 4744.10  101.00   1
   6   2  -4 1410.30   39.50   1
   6   2  -311526.30  192.70   1
   6   2  -2  352.60   16.40   1
   6   2  -1 9184.20  179.10   1
   6   2   0 5371.90  104.10   1
   6   2   1 6049.60  140.20   1
   6   2   2 9543.10  413.20   1
   6   2   3 4580.00  107.70   1
   6   2   4 4708.40  105.30   1
   6   2   5 8227.90  181.50   1
   6   2   6    7.40   15.70   1
   6   2   7 6985.60  176.70   1
   6   2   8 8765.50  196.90   1
   6   2   9 2435.90   69.40   1
   6   2  1011953.40  314.40   1
   6   2  11 1029.50   48.00   1
   6   2  12 1602.20   68.80   1
   6   3 -10 5491.90  239.10   1
   6   3  -9   67.20   38.40   1
   6   3  -8 8065.30  224.20   1
   6   3  -7 9554.40  242.50   1
   6   3  -6  112.20   24.70   1
   6   3  -510768.00  216.80   1
   6   3  -4 5638.00  115.60   1
   6   3  -3 3183.20   72.00   1
   6   3  -2 6889.40  127.40   1
   6   3  -1 2237.30   49.70   1
   6   3   0 5988.30  117.50   1
   6   3   119381.40  462.40   1
   6   3   2 1354.30   31.70   1
   6   3   4 2553.90   55.30   1
   6   3   5 2968.00   62.60   1
   6   3   6 8459.50  163.20   1
   6   3   7 1888.50   52.70   1
   6   3   8 6829.80  178.20   1
   6   3   9 5629.60  141.80   1
   6   3  10 1901.20   61.60   1
   6   3  11 5586.40  194.80   1
   6   3  12  895.70   52.80   1
   6   4  -9 2526.40  102.40   1
   6   4  -8  933.90   58.30   1
   6   4  -710508.60  266.20   1
   6   4  -6 8215.70  209.50   1
   6   4  -5 1142.20   38.00   1
   6   4  -411329.20  265.90   1
   6   4  -3  742.60   35.20   1
   6   4  -2 6442.60  121.80   1
   6   4  -1 8094.70  156.20   1
   6   4   0  297.50   17.90   1
   6   4   110435.40  204.50   1
   6   4   210375.00  195.50   1
   6   4   3 2185.40   48.60   1
   6   4   413182.00  232.30   1
   6   4   5 1348.30   35.10   1
   6   4   6 4119.20   84.20   1
   6   4   715006.40  298.10   1
   6   4   8  244.30   27.10   1
   6   4   912457.60  276.40   1
   6   4  10 4694.20  122.10   1
   6   4  11  293.90   29.30   1
   6   4  12 7357.60  325.80   1
   6   5  -8 4176.50  137.80   1
   6   5  -7  759.30   72.90   1
   6   5  -6 7008.50  242.20   1
   6   5  -4 2042.80   69.30   1
   6   5  -3 7930.00  176.20   1
   6   5  -2  474.30   29.90   1
   6   5  -1 3113.10   68.30   1
   6   5   0 8109.80  156.20   1
   6   5   1   46.40    8.40   1
   6   5   2 9758.80  166.20   1
   6   5   3 3127.70   58.30   1
   6   5   4 2127.00   49.20   1
   6   5   5 6279.90  118.90   1
   6   5   6 1337.10   39.20   1
   6   5   7 4037.60   91.90   1
   6   5   8 8088.60  177.00   1
   6   5   9  238.00   26.00   1
   6   5  10 4510.60  118.80   1
   6   5  11 1610.10   54.70   1
   6   6  -7 7469.00  280.10   1
   6   6  -6  465.30   62.70   1
   6   6  -3 2227.00   67.70   1
   6   6  -211924.10  295.10   1
   6   6  -1 2041.20   68.00   1
   6   6   0 6235.10  131.40   1
   6   6   116120.70  305.00   1
   6   6   2   21.90   18.70   1
   6   6   3 7577.90  133.20   1
   6   6   4 2662.50   51.10   1
   6   6   5 1711.50   48.20   1
   6   6   612873.40  259.60   1
   6   6   7 2136.20   54.10   1
   6   6   8 5346.80  122.60   1
   6   6   9 6004.90  124.00   1
   6   6  10   66.90   25.20   1
   6   7  -6 6202.10  252.10   1
   6   7  -5  332.20   46.40   1
   6   7  -4 5556.80  202.10   1
   6   7  -3 1866.80   89.60   1
   6   7  -2 1345.60   55.50   1
   6   7  -1 6800.80  177.40   1
   6   7   0  823.70   30.70   1
   6   7   1 7751.10  137.80   1
   6   7   2 7873.80  140.20   1
   6   7   3  391.50   20.00   1
   6   7   4 5153.80   91.80   1
   6   7   5 2786.80   55.30   1
   6   7   6 3651.80   71.10   1
   6   7   712221.20  257.00   1
   6   7   8  167.30   28.20   1
   6   7   9 4631.00  102.20   1
   6   8  -5 4332.20  194.10   1
   6   8  -4  269.40   45.00   1
   6   8  -3 5495.30  208.50   1
   6   8  -2 3486.90  159.60   1
   6   8  -1 1361.10   74.20   1
   6   8   0 8890.00  230.30   1
   6   8   1  661.30   30.20   1
   6   8   2 3534.70   73.60   1
   6   8   3 3035.00   62.10   1
   6   8   4   87.50   16.90   1
   6   8   5 5199.00  113.00   1
   6   8   6 2663.90   62.90   1
   6   8   7 1962.70   68.10   1
   6   8   8 3458.30   98.20   1
   6   9  -3  341.20   49.70   1
   6   9  -2 8490.70  319.10   1
   6   9  -1 2990.50  127.60   1
   6   9   0 3139.00  136.10   1
   6   9   1 6350.20  166.50   1
   6   9   2   74.40   29.40   1
   6   9   3 5584.90  163.90   1
   6   9   4 6596.30  181.50   1
   6   9   5  350.10   39.00   1
   6   9   6 9332.00  247.00   1
   6  10   2 1977.00  101.50   1
   7  -7  -4  323.80   22.10   1
   7  -7  -3 3219.30   83.70   1
   7  -7  -2 2544.60   54.70   1
   7  -7  -1   35.20   17.00   1
   7  -7   0 3951.90  103.10   1
   7  -7   1 3413.70   94.50   1
   7  -7   2  702.00   31.50   1
   7  -7   3 3819.60  102.00   1
   7  -7   4   10.50   25.20   1
   7  -6  -6 4199.70  171.40   1
   7  -6  -5  930.60   32.90   1
   7  -6  -4 7845.20  174.00   1
   7  -6  -3  426.80   17.80   1
   7  -6  -2 2346.40   51.30   1
   7  -6  -1 6495.20  140.40   1
   7  -6   0  206.30   22.40   1
   7  -6   1 6283.50  155.40   1
   7  -6   2 2562.60   64.80   1
   7  -6   3  313.60   21.40   1
   7  -6   4 2268.60   67.50   1
   7  -6   5  526.90   29.90   1
   7  -6   6 2381.70   71.80   1
   7  -5  -6 3700.80  115.50   1
   7  -5  -5 1230.00   45.00   1
   7  -5  -4 4189.00   97.60   1
   7  -5  -3 7332.50  133.60   1
   7  -5  -2  421.30   16.40   1
   7  -5  -1 4636.80  110.20   1
   7  -5   0 9943.00  203.60   1
   7  -5   1  661.10   25.90   1
   7  -5   2 8570.30  175.80   1
   7  -5   3 2548.20   64.80   1
   7  -5   4  734.60   31.00   1
   7  -5   5 7304.30  182.70   1
   7  -5   6 1169.90   47.80   1
   7  -5   7 4020.70  122.50   1
   7  -4  -7 7133.10  287.90   1
   7  -4  -6  117.60   36.50   1
   7  -4  -5 3407.20   98.60   1
   7  -4  -4  870.10   27.70   1
   7  -4  -3 1909.50   40.50   1
   7  -4  -2 5718.50  101.40   1
   7  -4  -1  581.60   20.20   1
   7  -4   0 5472.80  122.50   1
   7  -4   1 5030.90  109.50   1
   7  -4   2  572.30   26.10   1
   7  -4   3 4339.00  117.00   1
   7  -4   4 1327.00   45.70   1
   7  -4   5 1929.40   59.60   1
   7  -4   6 7444.20  190.00   1
   7  -4   7   83.40   29.70   1
   7  -4   8 4392.00  134.50   1
   7  -3  -8  419.40   48.40   1
   7  -3  -7 6427.00  182.30   1
   7  -3  -6 9336.30  240.90   1
   7  -3  -5  696.80   37.40   1
   7  -3  -4 8312.70  175.10   1
   7  -3  -3 3589.30   71.00   1
   7  -3  -2 1160.20   35.60   1
   7  -3  -111681.30  287.50   1
   7  -3   0  136.20   11.50   1
   7  -3   1 8933.60  179.20   1
   7  -3   2 5239.20  133.70   1
   7  -3   3  133.90   15.40   1
   7  -3   4 7228.80  174.80   1
   7  -3   5 3317.90   81.90   1
   7  -3   6 1556.50   50.90   1
   7  -3   7 7592.50  205.40   1
   7  -3   8   90.00   29.90   1
   7  -3   9 3307.40  113.70   1
   7  -2  -8 3653.80  120.10   1
   7  -2  -7  114.90   39.40   1
   7  -2  -6 7919.40  201.00   1
   7  -2  -5 2727.80   73.40   1
   7  -2  -4 1480.60   40.30   1
   7  -2  -3 7273.60  134.70   1
   7  -2  -2 2759.20   55.80   1
   7  -2  -1 3511.80   60.50   1
   7  -2   012127.70  315.30   1
   7  -2   1   97.70   12.00   1
   7  -2   3 2862.50   76.70   1
   7  -2   4 1332.00   40.30   1
   7  -2   512228.50  250.40   1
   7  -2   6 2700.40   64.60   1
   7  -2   7 3988.50  109.00   1
   7  -2   8 5285.50  148.60   1
   7  -2   9   -0.50   37.70   1
   7  -2  10 4722.30  210.70   1
   7  -1  -8 1553.40   65.70   1
   7  -1  -7 9670.30  366.20   1
   7  -1  -6   25.60   26.30   1
   7  -1  -5 5022.20  138.60   1
   7  -1  -4 4548.90   92.30   1
   7  -1  -3   45.10   19.10   1
   7  -1  -2 8036.00  141.80   1
   7  -1  -1 2419.40   52.10   1
   7  -1   0 2505.20   64.00   1
   7  -1   2   77.50   10.60   1
   7  -1   3 5823.40  139.80   1
   7  -1   4 4817.80  110.00   1
   7  -1   5 1373.80   44.70   1
   7  -1   6 9751.60  203.20   1
   7  -1   7  974.70   37.90   1
   7  -1   8 2218.70   61.90   1
   7  -1   9 6346.00  214.80   1
   7  -1  10  303.50   34.70   1
   7   0  -8 1510.10  113.70   1
   7   0  -7 5929.20  171.00   1
   7   0  -6 6585.10  177.30   1
   7   0  -5 1580.00   52.30   1
   7   0  -410637.20  222.70   1
   7   0  -3 7953.40  142.30   1
   7   0  -2 1636.10   39.80   1
   7   0  -112341.60  221.60   1
   7   0   3  168.00   12.90   1
   7   0   5 6156.40  124.10   1
   7   0   6 3470.20   96.00   1
   7   0   7 7991.60  198.60   1
   7   0   8 1483.10   49.30   1
   7   0   9 2853.20   75.80   1
   7   0  1010223.30  240.50   1
   7   1  -8 5818.90  297.70   1
   7   1  -7  694.40   50.50   1
   7   1  -6 1774.00   73.90   1
   7   1  -5 5026.60  118.00   1
   7   1  -4    0.70   29.80   1
   7   1  -313997.30  326.00   1
   7   1  -2 3846.00   69.90   1
   7   1  -1 3113.90   61.90   1
   7   1   0 5013.60   99.40   1
   7   1   1  319.80   20.60   1
   7   1   2 3493.20   90.10   1
   7   1   3 6661.70  159.70   1
   7   1   4  209.20   15.70   1
   7   1   512625.10  284.40   1
   7   1   6  729.70   28.50   1
   7   1   7 2736.10   83.30   1
   7   1   8 5438.90  127.20   1
   7   1   9  959.00   44.90   1
   7   1  10 6004.20  150.30   1
   7   2  -8 2248.00  139.00   1
   7   2  -7 5533.80  247.30   1
   7   2  -6  494.70   49.70   1
   7   2  -5 1963.30   73.20   1
   7   2  -411988.40  219.60   1
   7   2  -3  152.10   17.40   1
   7   2  -215624.80  303.40   1
   7   2  -1 3133.40   67.30   1
   7   2   0 2555.60   57.80   1
   7   2   1 9572.90  179.60   1
   7   2   2 3162.70   82.90   1
   7   2   3 4289.20  106.10   1
   7   2   4 9121.70  163.90   1
   7   2   5  378.20   21.30   1
   7   2   6 7072.80  173.10   1
   7   2   7 2587.20   71.00   1
   7   2   8  361.30   28.60   1
   7   2   9 6767.50  173.40   1
   7   2  10  288.40   33.10   1
   7   3  -7 2883.60  147.30   1
   7   3  -6 5357.00  127.40   1
   7   3  -5  488.20   30.40   1
   7   3  -4 5267.50  123.80   1
   7   3  -3 5993.90  148.90   1
   7   3  -2  765.40   28.10   1
   7   3  -1 7794.90  152.60   1
   7   3   0 1663.10   42.60   1
   7   3   1 2572.60   58.00   1
   7   3   2 9926.60  229.90   1
   7   3   3  181.10   11.50   1
   7   3   410091.90  209.90   1
   7   3   5 5054.80   99.20   1
   7   3   6 1033.40   36.10   1
   7   3   7 9900.30  236.50   1
   7   3   8 4845.00  117.70   1
   7   3   9 2342.10   68.00   1
   7   3  10 5906.60  147.10   1
   7   4  -7  716.90   47.60   1
   7   4  -6 1564.90   85.50   1
   7   4  -5 7719.40  203.40   1
   7   4  -4  491.30   33.20   1
   7   4  -3 5849.60  153.30   1
   7   4  -2 4651.00   93.90   1
   7   4  -1  229.10   23.50   1
   7   4   0 5366.70  115.50   1
   7   4   1 2638.90   63.60   1
   7   4   2 2334.30   57.70   1
   7   4   3 6304.10  149.90   1
   7   4   4   24.90   13.90   1
   7   4   5 3579.10   75.70   1
   7   4   6 2573.90   61.90   1
   7   4   7  497.50   28.80   1
   7   4   8 7775.00  181.20   1
   7   4   9  747.40   35.40   1
   7   5  -6 1341.30   90.10   1
   7   5  -5 3918.10  162.30   1
   7   5  -4 8264.20  210.30   1
   7   5  -3   43.70   27.30   1
   7   5  -2 9738.60  215.40   1
   7   5  -1 6965.90  141.50   1
   7   5   0  112.60   18.00   1
   7   5   1 9671.50  191.90   1
   7   5   2 2584.90   59.90   1
   7   5   3 5633.70  116.40   1
   7   5   4 6305.90  117.40   1
   7   5   5  166.60   17.80   1
   7   5   6 4749.20   96.10   1
   7   5   7 5874.20  134.80   1
   7   5   8  680.60   31.90   1
   7   5   9 6379.10  178.10   1
   7   6  -5  692.30   71.50   1
   7   6  -3 3197.50   89.00   1
   7   6  -2  113.00   32.80   1
   7   6  -1 5525.50  150.00   1
   7   6   0 3599.40   82.10   1
   7   6   1  947.20   33.90   1
   7   6   2 9446.70  183.20   1
   7   6   3  499.70   27.50   1
   7   6   4 2948.50   58.20   1
   7   6   5 3965.20   76.20   1
   7   6   6   37.80   17.00   1
   7   6   7 7791.90  154.40   1
   7   6   8 3282.30   84.50   1
   7   7  -3 2779.60  111.50   1
   7   7  -2 3834.80  102.30   1
   7   7  -1  118.90   25.60   1
   7   7   0 4460.00  123.40   1
   7   7   1 3868.70   87.50   1
   7   7   2  990.00   35.40   1
   7   7   3 4174.80   95.90   1
   7   7   4  578.60   28.10   1
   7   7   5 1159.30   33.60   1
   7   7   6 4805.50   90.40   1
   7   7   7  -79.60   39.50   1
   7   8   0   63.50   30.50   1
   7   8   2 1725.60   50.20   1
   7   8   3 2101.90   64.50   1
   7   8   4 3896.60  107.00   1
   8  -5  -1 2142.90   63.30   1
   8  -5   0  283.00   19.70   1
   8  -5   1 4154.80   96.50   1
   8  -5   2  235.60   22.40   1
   8  -5   3 1953.90   84.70   1
   8  -4  -3 3709.70   89.60   1
   8  -4  -2   -2.10   26.40   1
   8  -4  -1 4559.40  115.40   1
   8  -4   0 2891.90   92.90   1
   8  -4   1 1849.90   52.00   1
   8  -4   2 5312.30  151.60   1
   8  -4   3  466.20   26.00   1
   8  -4   4 2221.90   66.20   1
   8  -4   5 3536.80  134.70   1
   8  -3  -4  127.80   23.80   1
   8  -3  -3 3718.70   87.90   1
   8  -3  -2 4633.80  102.30   1
   8  -3  -1   96.00   21.30   1
   8  -3   0 4605.10  132.80   1
   8  -3   1  739.60   41.60   1
   8  -3   2 2834.00   70.20   1
   8  -3   3 4274.20  112.40   1
   8  -3   4  179.50   18.00   1
   8  -3   5 3362.50   84.10   1
   8  -3   6 3483.80  141.00   1
   8  -2  -5 1782.70   68.10   1
   8  -2  -4 4225.60   93.50   1
   8  -2  -3  957.80   32.80   1
   8  -2  -2 3548.50   75.90   1
   8  -2  -1 6920.70  154.00   1
   8  -2   0  132.20   37.70   1
   8  -2   1 4413.40  124.80   1
   8  -2   2  813.00   47.60   1
   8  -2   3 1275.40   42.30   1
   8  -2   4 4283.70  111.60   1
   8  -2   5  815.30   34.20   1
   8  -2   6 3484.00   94.40   1
   8  -2   7 2365.60  105.10   1
   8  -1  -5  379.90   44.20   1
   8  -1  -4 2900.50   89.80   1
   8  -1  -3 5392.80  108.20   1
   8  -1  -2  188.90   23.40   1
   8  -1  -1 6713.10  125.30   1
   8  -1   0 5159.60  111.40   1
   8  -1   1 1128.80   60.20   1
   8  -1   4 1827.40   55.20   1
   8  -1   5 7592.80  182.70   1
   8  -1   6  206.40   20.50   1
   8  -1   7 4646.60  130.50   1
   8   0  -5 3615.20  111.30   1
   8   0  -4  446.70   32.60   1
   8   0  -3 1423.70   42.70   1
   8   0  -2 5273.10  113.20   1
   8   0  -1  113.30   25.30   1
   8   0   0 4605.30  105.60   1
   8   0   4  967.20   58.90   1
   8   0   5 2568.70   69.30   1
   8   0   6 4508.30   96.80   1
   8   0   7  245.80   28.00   1
   8   1  -5 1184.70   56.00   1
   8   1  -4 5928.30  161.00   1
   8   1  -3 1746.70   44.70   1
   8   1  -2 3445.10   88.80   1
   8   1  -1 8228.80  178.60   1
   8   1   0   51.60   27.40   1
   8   1   1 7244.20  177.60   1
   8   1   3  105.10   33.60   1
   8   1   4 4551.10  146.90   1
   8   1   5  953.40   66.30   1
   8   1   6 2926.90   82.20   1
   8   1   7 2803.40   86.10   1
   8   2  -4  674.00   52.00   1
   8   2  -3 5175.10  123.10   1
   8   2  -2  448.40   34.60   1
   8   2  -1 4729.10  128.50   1
   8   2   0 2645.90   85.90   1
   8   2   1 1321.80   55.50   1
   8   2   2 9588.00  227.50   1
   8   2   4  745.80   48.50   1
   8   2   6   15.80   18.00   1
   8   2   7 2517.10   80.30   1
   8   3  -4 3144.30  145.10   1
   8   3  -3  741.10   64.00   1
   8   3  -2 5294.10  132.00   1
   8   3  -1   37.20   33.60   1
   8   3   0 2365.40   75.00   1
   8   3   1 2551.10   81.80   1
   8   3   2   -3.80   19.80   1
   8   3   3 7155.30  177.00   1
   8   3   4 2351.70   69.30   1
   8   3   5 1913.10   65.50   1
   8   3   6 2410.20   75.90   1
   8   3   7  213.20   31.50   1
   8   4  -3 2409.20   90.70   1
   8   4  -2 2718.30  105.60   1
   8   4  -1 5457.70  147.50   1
   8   4   0  104.80   21.10   1
   8   4   1 3085.50   73.70   1
   8   4   2 5979.10  125.60   1
   8   4   3  343.00   22.70   1
   8   4   4 8065.20  198.40   1
   8   4   5 1060.20   47.30   1
   8   4   6 1678.90   60.20   1
   8   5  -1 1688.10   45.90   1
   8   5   0 3194.70   79.30   1
   8   5   1  240.20   25.60   1
   8   5   2 4264.10   95.70   1
   8   5   3 3717.50   89.80   1
   8   5   4  952.60   39.50   1
   0   0   0    0.00    0.00
;
loop_
_symmetry_equiv_pos_as_xyz
'x, y, z'
'-x, -y, -z'
loop_
_atom_site_label
_atom_site_type_symbol
_atom_site_fract_x
_atom_site_fract_y
_atom_site_fract_z
_atom_site_U_iso_or_equiv
_atom_site_adp_type
_atom_site_occupancy
_atom_site_site_symmetry_order
_atom_site_calc_flag
_atom_site_refinement_flags_posn
_atom_site_refinement_flags_adp
Pt1 Pt 0.24127(3) 0.32205(2) 0.68818(2) 0.0193(3) Uani 1 1 d . .
S1 S 0.3277(3) 0.2916(2) 0.33238(16) 0.0320(5) Uani 1 1 d . .
O1 O -0.0200(9) 0.5017(6) 0.8466(5) 0.0360(13) Uani 1 1 d . .
S2 S 0.1366(4) 0.4014(2) 0.84975(18) 0.0233(5) Uani 1 1 d . .
N1 N 0.2200(9) 0.4957(7) 0.5879(5) 0.0214(14) Uani 1 1 d . .
C1 C 0.3023(13) 0.2564(10) 0.5383(7) 0.0235(19) Uani 1 1 d . .
C2 C 0.3285(12) 0.1318(8) 0.5005(6) 0.0316(17) Uani 1 1 d . .
H2 H 0.3341 0.0553 0.5457 0.038 Uiso 1 1 calc R U
C3 C 0.3444(12) 0.1364(9) 0.3917(6) 0.0335(18) Uani 1 1 d . .
H3 H 0.3624 0.0635 0.3531 0.04 Uiso 1 1 calc R U
C4 C 0.2974(11) 0.3500(8) 0.4598(6) 0.0218(15) Uani 1 1 d . .
C5 C 0.2574(10) 0.4839(8) 0.4798(7) 0.0281(17) Uani 1 1 d . .
C6 C 0.2585(11) 0.5903(8) 0.4048(7) 0.0272(17) Uani 1 1 d . .
H6 H 0.2876 0.5799 0.3317 0.033 Uiso 1 1 calc R U
C7 C 0.2157(11) 0.7139(8) 0.4384(7) 0.0287(17) Uani 1 1 d . .
H7 H 0.2113 0.7868 0.3889 0.034 Uiso 1 1 calc R U
C8 C 0.1800(13) 0.7230(9) 0.5491(8) 0.034(2) Uani 1 1 d . .
H8 H 0.1562 0.8039 0.5753 0.04 Uiso 1 1 calc R U
C9 C 0.1797(12) 0.6163(7) 0.6181(7) 0.0280(17) Uani 1 1 d . .
H9 H 0.15 0.6256 0.6914 0.034 Uiso 1 1 calc R U
C10 C 0.3043(17) 0.1469(10) 0.7620(8) 0.0324(8) Uani 1 1 d . .
C11 C 0.1866(15) 0.0383(8) 0.7645(6) 0.0324(8) Uani 1 1 d . .
C12 C 0.2353(15) -0.0830(9) 0.8128(7) 0.0324(8) Uani 1 1 d . .
C13 C 0.4094(14) -0.0987(8) 0.8646(6) 0.0324(8) Uani 1 1 d . .
C14 C 0.5341(14) 0.0048(8) 0.8642(6) 0.0324(8) Uani 1 1 d . .
C15 C 0.4809(13) 0.1223(7) 0.8134(6) 0.0324(8) Uani 1 1 d . .
C16 C 0.3369(14) 0.4656(9) 0.9136(7) 0.040(2) Uani 1 1 d . .
H16A H 0.4423 0.4026 0.9171 0.06 Uiso 1 1 calc R U
H16B H 0.3831 0.5436 0.8724 0.06 Uiso 1 1 calc R U
H16C H 0.2927 0.4852 0.9856 0.06 Uiso 1 1 calc R U
C17 C 0.0576(16) 0.2765(9) 0.9527(7) 0.040(2) Uani 1 1 d . .
H17A H 0.1564 0.209 0.9572 0.06 Uiso 1 1 calc R U
H17B H 0.0382 0.3129 1.0212 0.06 Uiso 1 1 calc R U
H17C H -0.0641 0.2408 0.9348 0.06 Uiso 1 1 calc R U
F1 F 0.0123(8) 0.0488(5) 0.7179(4) 0.0448(12) Uani 1 1 d . .
F2 F 0.1075(10) -0.1831(5) 0.8142(5) 0.0548(16) Uani 1 1 d . .
F3 F 0.4535(12) -0.2159(5) 0.9148(5) 0.065(2) Uani 1 1 d . .
F4 F 0.7064(9) -0.0117(6) 0.9102(4) 0.0493(15) Uani 1 1 d . .
F5 F 0.6096(7) 0.2202(5) 0.8166(4) 0.0359(11) Uani 1 1 d . .
loop_
_atom_site_aniso_label
_atom_site_aniso_U_11
_atom_site_aniso_U_22
_atom_site_aniso_U_33
_atom_site_aniso_U_23
_atom_site_aniso_U_13
_atom_site_aniso_U_12
Pt1 0.0248(4) 0.0210(4) 0.0122(3) -0.00152(17) -0.00205(18) -0.00027(17)
S1 0.0372(11) 0.0438(12) 0.0153(10) -0.0056(8) 0.0006(8) -0.0022(8)
O1 0.046(3) 0.039(3) 0.021(3) -0.003(2) 0.003(2) 0.016(3)
S2 0.0344(12) 0.0247(10) 0.0108(10) -0.0027(8) 0.0003(8) 0.0010(8)
N1 0.023(3) 0.030(3) 0.010(3) -0.003(3) 0.002(2) 0.001(2)
C1 0.023(4) 0.035(5) 0.011(4) -0.005(3) 0.010(3) -0.008(3)
C2 0.039(4) 0.040(4) 0.016(4) -0.005(3) 0.002(3) -0.001(3)
C3 0.043(5) 0.044(5) 0.014(4) -0.010(3) 0.006(3) -0.001(4)
C4 0.020(3) 0.037(4) 0.009(4) -0.007(3) -0.001(3) 0.000(3)
C5 0.018(4) 0.035(4) 0.032(4) -0.004(3) -0.002(3) -0.002(3)
C6 0.022(4) 0.041(5) 0.016(4) 0.011(3) 0.001(3) -0.006(3)
C7 0.027(4) 0.030(4) 0.027(4) 0.013(3) -0.002(3) -0.003(3)
C8 0.031(4) 0.025(4) 0.041(6) 0.008(4) 0.004(4) 0.001(3)
C9 0.028(4) 0.028(4) 0.029(4) -0.005(3) -0.001(3) -0.002(3)
C10 0.057(2) 0.0287(16) 0.0104(15) 0.0005(12) 0.0017(15) 0.0089(15)
C11 0.057(2) 0.0287(16) 0.0104(15) 0.0005(12) 0.0017(15) 0.0089(15)
C12 0.057(2) 0.0287(16) 0.0104(15) 0.0005(12) 0.0017(15) 0.0089(15)
C13 0.057(2) 0.0287(16) 0.0104(15) 0.0005(12) 0.0017(15) 0.0089(15)
C14 0.057(2) 0.0287(16) 0.0104(15) 0.0005(12) 0.0017(15) 0.0089(15)
C15 0.057(2) 0.0287(16) 0.0104(15) 0.0005(12) 0.0017(15) 0.0089(15)
C16 0.050(5) 0.048(5) 0.027(5) -0.017(4) -0.018(4) 0.000(4)
C17 0.055(6) 0.035(5) 0.026(5) 0.006(4) 0.011(4) 0.000(4)
F1 0.056(3) 0.040(3) 0.037(3) 0.001(2) -0.003(2) -0.016(2)
F2 0.097(5) 0.028(3) 0.037(3) -0.002(2) 0.011(3) -0.018(3)
F3 0.128(6) 0.025(3) 0.035(3) 0.009(2) 0.008(3) 0.023(3)
F4 0.068(4) 0.061(4) 0.016(3) 0.006(2) -0.006(2) 0.026(3)
F5 0.035(3) 0.044(3) 0.029(3) 0.001(2) -0.005(2) 0.000(2)
loop_
_atom_type_symbol
_atom_type_description
_atom_type_scat_dispersion_real
_atom_type_scat_dispersion_imag
_atom_type_scat_source
C C 0.0033 0.0016 'International Tables Vol C Tables 4.2.6.8 and 6.1.1.4'
H H 0 0 'International Tables Vol C Tables 4.2.6.8 and 6.1.1.4'
F F 0.0171 0.0103 'International Tables Vol C Tables 4.2.6.8 and 6.1.1.4'
N N 0.0061 0.0033 'International Tables Vol C Tables 4.2.6.8 and 6.1.1.4'
O O 0.0106 0.006 'International Tables Vol C Tables 4.2.6.8 and 6.1.1.4'
Pt Pt -1.7033 8.3905 'International Tables Vol C Tables 4.2.6.8 and 6.1.1.4'
S S 0.1246 0.1234 'International Tables Vol C Tables 4.2.6.8 and 6.1.1.4'
loop_
_geom_angle_atom_site_label_1
_geom_angle_atom_site_label_2
_geom_angle_atom_site_label_3
_geom_angle
C10 Pt1 C1 91.5(4)
C10 Pt1 N1 168.6(3)
C1 Pt1 N1 79.0(3)
C10 Pt1 S2 92.0(3)
C1 Pt1 S2 173.3(3)
N1 Pt1 S2 98.09(18)
C3 S1 C4 90.0(4)
O1 S2 C16 107.1(4)
O1 S2 C17 107.0(4)
C16 S2 C17 99.5(5)
O1 S2 Pt1 116.9(3)
C16 S2 Pt1 111.5(3)
C17 S2 Pt1 113.1(3)
C9 N1 C5 117.1(7)
C9 N1 Pt1 127.8(6)
C5 N1 Pt1 115.1(5)
C4 C1 C2 113.1(8)
C4 C1 Pt1 112.5(7)
C2 C1 Pt1 134.0(7)
C3 C2 C1 112.3(8)
C3 C2 H2 123.8
C1 C2 H2 123.8
C2 C3 S1 112.3(6)
C2 C3 H3 123.8
S1 C3 H3 123.8
C1 C4 C5 122.5(7)
C1 C4 S1 112.2(6)
C5 C4 S1 125.2(6)
N1 C5 C6 121.6(8)
N1 C5 C4 110.9(7)
C6 C5 C4 127.5(8)
C5 C6 C7 120.0(8)
C5 C6 H6 120
C7 C6 H6 120
C8 C7 C6 117.0(7)
C8 C7 H7 121.5
C6 C7 H7 121.5
C9 C8 C7 120.4(8)
C9 C8 H8 119.8
C7 C8 H8 119.8
C8 C9 N1 123.8(8)
C8 C9 H9 118.1
N1 C9 H9 118.1
C11 C10 C15 113.4(8)
C11 C10 Pt1 124.7(8)
C15 C10 Pt1 121.9(8)
F1 C11 C10 119.3(8)
F1 C11 C12 116.7(8)
C10 C11 C12 124.0(10)
F2 C12 C13 120.8(8)
F2 C12 C11 119.8(9)
C13 C12 C11 119.2(9)
F3 C13 C14 121.0(8)
F3 C13 C12 119.2(9)
C14 C13 C12 119.7(8)
F4 C14 C15 121.5(8)
F4 C14 C13 119.8(7)
C15 C14 C13 118.7(8)
F5 C15 C14 115.6(8)
F5 C15 C10 119.5(7)
C14 C15 C10 124.9(9)
S2 C16 H16A 109.5
S2 C16 H16B 109.5
H16A C16 H16B 109.5
S2 C16 H16C 109.5
H16A C16 H16C 109.5
H16B C16 H16C 109.5
S2 C17 H17A 109.5
S2 C17 H17B 109.5
H17A C17 H17B 109.5
S2 C17 H17C 109.5
H17A C17 H17C 109.5
H17B C17 H17C 109.5
loop_
_geom_bond_atom_site_label_1
_geom_bond_atom_site_label_2
_geom_bond_distance
Pt1 C10 2.007(10)
Pt1 C1 2.049(9)
Pt1 N1 2.099(7)
Pt1 S2 2.296(2)
S1 C3 1.708(9)
S1 C4 1.740(7)
O1 S2 1.472(6)
S2 C16 1.789(9)
S2 C17 1.795(9)
N1 C9 1.350(11)
N1 C5 1.365(11)
C1 C4 1.312(13)
C1 C2 1.412(12)
C2 C3 1.345(11)
C2 H2 0.93
C3 H3 0.93
C4 C5 1.444(11)
C5 C6 1.376(13)
C6 C7 1.397(12)
C6 H6 0.93
C7 C8 1.390(13)
C7 H7 0.93
C8 C9 1.334(13)
C8 H8 0.93
C9 H9 0.93
C10 C11 1.386(15)
C10 C15 1.408(14)
C11 F1 1.354(11)
C11 C12 1.385(12)
C12 F2 1.359(12)
C12 C13 1.387(13)
C13 F3 1.350(10)
C13 C14 1.375(13)
C14 F4 1.341(11)
C14 C15 1.372(11)
C15 F5 1.354(10)
C16 H16A 0.96
C16 H16B 0.96
C16 H16C 0.96
C17 H17A 0.96
C17 H17B 0.96
C17 H17C 0.96
