#------------------------------------------------------------------------------
#$Date: 2015-12-09 15:33:01 +0200 (Wed, 09 Dec 2015) $
#$Revision: 171117 $
#$URL: svn://www.crystallography.net/cod/cif/7/03/70/7037023.cif $
#------------------------------------------------------------------------------
#
# This file is available in the Crystallography Open Database (COD),
# http://www.crystallography.net/
#
# All data on this site have been placed in the public domain by the
# contributors.
#
data_7037023
loop_
_publ_author_name
'Lin, Xinsong'
'Tabassum, Danisa'
'Mar, Arthur'
_publ_section_title
;
 Narrowing the gap: from semiconductor to semimetal in the homologous
 series of rare-earth zinc arsenides RE2-yZn4As4&#x00B7;n(REAs) and
 Mn-substituted derivatives RE2-yMnxZn4-xAs4&#x00B7;n(REAs) (RE = La-Nd,
 Sm, Gd).
;
_journal_issue                   46
_journal_name_full
'Dalton transactions (Cambridge, England : 2003)'
_journal_page_first              20254
_journal_page_last               20264
_journal_paper_doi               10.1039/c5dt03596a
_journal_volume                  44
_journal_year                    2015
_chemical_formula_structural     'Gd5.27 Mn0.62 Zn3.38 As8'
_chemical_formula_sum            'As8 Gd5.27 Mn0.62 Zn3.38'
_chemical_formula_weight         1682.59
_chemical_name_common
'gadolinium manganese zinc arsenide (5.3/0.6/3.4/8)'
_chemical_name_systematic
'gadolinium manganese zinc arsenide (5.3/0.6/3.4/8)'
_space_group_crystal_system      trigonal
_space_group_IT_number           166
_space_group_name_Hall           '-R 3 2"'
_space_group_name_H-M_alt        'R -3 m :H'
_symmetry_space_group_name_Hall  '-R 3 2"'
_symmetry_space_group_name_H-M   'R -3 m :H'
_atom_sites_solution_primary     direct
_atom_sites_solution_secondary   difmap
_audit_creation_method           SHELXL-2013
_cell_angle_alpha                90
_cell_angle_beta                 90
_cell_angle_gamma                120
_cell_formula_units_Z            3
_cell_length_a                   4.1398(12)
_cell_length_b                   4.1398(12)
_cell_length_c                   81.17(2)
_cell_measurement_reflns_used    1323
_cell_measurement_temperature    296(2)
_cell_measurement_theta_max      32.87
_cell_measurement_theta_min      5.28
_cell_volume                     1204.7(6)
_computing_cell_refinement       'Bruker SAINT 7.68A (Bruker, 2009)'
_computing_data_collection       'Bruker APEX 2 (Bruker, 2008)'
_computing_data_reduction        'Bruker SAINT 7.68A'
_computing_molecular_graphics    'ATOMS 5.1 (Dowty, 1999)'
_computing_publication_material  'Bruker SHELXTL'
_computing_structure_refinement  'Bruker SHELXTL'
_computing_structure_solution    'Bruker SHELXTL'
_diffrn_ambient_temperature      296(2)
_diffrn_measured_fraction_theta_full 0.994
_diffrn_measured_fraction_theta_max 0.994
_diffrn_measurement_device_type  'Bruker PLATFORM/SMART APEX II CCD'
_diffrn_measurement_method       '\w and \f scans'
_diffrn_radiation_type           MoK\a
_diffrn_radiation_wavelength     0.71073
_diffrn_reflns_av_R_equivalents  0.0512
_diffrn_reflns_av_unetI/netI     0.0253
_diffrn_reflns_laue_measured_fraction_full 0.994
_diffrn_reflns_laue_measured_fraction_max 0.994
_diffrn_reflns_limit_h_max       6
_diffrn_reflns_limit_h_min       -6
_diffrn_reflns_limit_k_max       6
_diffrn_reflns_limit_k_min       -6
_diffrn_reflns_limit_l_max       123
_diffrn_reflns_limit_l_min       -123
_diffrn_reflns_number            5634
_diffrn_reflns_point_group_measured_fraction_full 0.994
_diffrn_reflns_point_group_measured_fraction_max 0.994
_diffrn_reflns_theta_full        25.242
_diffrn_reflns_theta_max         33.153
_diffrn_reflns_theta_min         2.258
_diffrn_source                   'fine-focus sealed tube'
_exptl_absorpt_coefficient_mu    43.152
_exptl_absorpt_correction_T_max  0.4991
_exptl_absorpt_correction_T_min  0.2607
_exptl_absorpt_correction_type   numerical
_exptl_absorpt_process_details   'Bruker SHELXTL (Sheldrick, 2013)'
_exptl_crystal_colour            black
_exptl_crystal_density_diffrn    6.957
_exptl_crystal_description       irregular
_exptl_crystal_F_000             2154
_exptl_crystal_size_max          0.047
_exptl_crystal_size_mid          0.036
_exptl_crystal_size_min          0.021
_refine_diff_density_max         3.994
_refine_diff_density_min         -5.180
_refine_diff_density_rms         0.426
_refine_ls_extinction_method     none
_refine_ls_goodness_of_fit_ref   1.091
_refine_ls_hydrogen_treatment    undef
_refine_ls_matrix_type           full
_refine_ls_number_parameters     32
_refine_ls_number_reflns         705
_refine_ls_number_restraints     0
_refine_ls_restrained_S_all      1.091
_refine_ls_R_factor_all          0.0459
_refine_ls_R_factor_gt           0.0332
_refine_ls_shift/su_max          0.002
_refine_ls_shift/su_mean         0.000
_refine_ls_structure_factor_coef Fsqd
_refine_ls_weighting_details
'w=1/[\s^2^(Fo^2^)+(0.0432P)^2^+7.2599P] where P=(Fo^2^+2Fc^2^)/3'
_refine_ls_weighting_scheme      calc
_refine_ls_wR_factor_gt          0.0823
_refine_ls_wR_factor_ref         0.0878
_reflns_Friedel_coverage         0.000
_reflns_number_gt                568
_reflns_number_total             705
_reflns_threshold_expression     'I > 2\s(I)'
_cod_data_source_file            c5dt03596a2.cif
_cod_data_source_block           Gd6-x(Mn,Zn)4As8
_cod_depositor_comments
'Adding full bibliography for 7037017--7037025.cif.'
_cod_original_cell_volume        1204.8(8)
_cod_database_code               7037023
_shelx_space_group_comment
;
The symmetry employed for this shelxl refinement is uniquely defined
by the following loop, which should always be used as a source of
symmetry information in preference to the above space-group names.
They are only intended as comments.
;
_shelx_estimated_absorpt_t_min   0.236
_shelx_estimated_absorpt_t_max   0.464
_shelxl_version_number           2013-4
_shelx_res_file
;
TITL Gd5.3Mn0.7Zn3.3As8 R-3m lsf final refinement
CELL 0.71073   4.13980   4.13980  81.17360  90.0000  90.0000 120.0000
ZERR    3.00   0.00120   0.00120   0.02270   0.0000   0.0000   0.0000
LATT  3
SYMM -Y, X-Y, Z
SYMM -X+Y, -X, Z
SYMM Y, X, -Z
SYMM X-Y, -Y, -Z
SYMM -X, -X+Y, -Z
SFAC MN ZN AS GD
UNIT 1.85 10.15 24 15.8
TEMP 23
SIZE 0.021 0.036 0.047

L.S. 4
ACTA

EADP ZN2 MN2
WGHT    0.043200    7.259900
FVAR       0.01992   0.69207
GD1   4    0.000000    0.000000    0.291921    10.16667    0.01024    0.01024 =
         0.01305    0.00000    0.00000    0.00512
GD2   4    0.000000    0.000000    0.416239    10.16667    0.01193    0.01193 =
         0.01618    0.00000    0.00000    0.00596
GD3   4    0.000000    0.000000    0.500000     0.02257    0.03035    0.03035 =
         0.02689    0.00000    0.00000    0.01517
GD4   4    0.000000    0.000000    0.000000    10.08333    0.01012    0.01012 =
         0.01254    0.00000    0.00000    0.00506
ZN1   2    0.000000    0.000000    0.116000    10.16667    0.02420    0.02420 =
         0.02714    0.00000    0.00000    0.01210
ZN2   2    0.000000    0.000000    0.195108    20.16667    0.02381    0.02381 =
         0.03505    0.00000    0.00000    0.01190
MN2   1    0.000000    0.000000    0.181118   -20.16667    0.02381    0.02381 =
         0.03505    0.00000    0.00000    0.01190
AS1   3    0.000000    0.000000    0.062695    10.16667    0.00922    0.00922 =
         0.01389    0.00000    0.00000    0.00461
AS2   3    0.000000    0.000000    0.147065    10.16667    0.01911    0.01911 =
         0.01836    0.00000    0.00000    0.00956
AS3   3    0.000000    0.000000    0.228548    10.16667    0.01160    0.01160 =
         0.01519    0.00000    0.00000    0.00580
AS4   3    0.000000    0.000000    0.354231    10.16667    0.00971    0.00971 =
         0.01279    0.00000    0.00000    0.00486
HKLF 4

REM  Gd5.3Mn0.7Zn3.3As8 R-3m lsf final refinement
REM R1 =  0.0332 for     568 Fo > 4sig(Fo)  and  0.0459 for all     705 data
REM     32 parameters refined using      0 restraints

END

WGHT      0.0431      8.4491

REM Highest difference peak  3.994,  deepest hole -5.180,  1-sigma level  0.426
Q1    1   0.0000  0.0000  0.4069  10.16667  0.05    3.99
Q2    1   0.0000  0.0000  0.3009  10.16667  0.05    3.38
Q3    1   0.0000  0.0000  0.2824  10.16667  0.05    3.26
Q4    1   0.0000  0.0000  0.0507  10.16667  0.05    2.99
Q5    1   0.0000  0.0000  0.3967  10.16667  0.05    2.78
Q6    1   0.0000  0.0000  0.3108  10.16667  0.05    2.51
Q7    1   0.0000  0.0000  0.0725  10.16667  0.05    2.46
Q8    1   0.0000  0.0000  0.0092  10.16667  0.05    2.44
Q9    1   0.0000  0.0000  0.3340  10.16667  0.05    2.38
Q10   1   0.0000  0.0000  0.3189  10.16667  0.05    2.30
Q11   1   0.0000  0.0000  0.0355  10.16667  0.05    2.10
Q12   1   0.0000  0.0000  0.1250  10.16667  0.05    2.09
Q13   1  -0.0691 -0.1382  0.1858  10.50000  0.05    2.05
Q14   1   0.0000  0.0000  0.4272  10.16667  0.05    2.03
Q15   1   0.0000  0.0000  0.2400  10.16667  0.05    1.90
Q16   1   0.0000  0.0000  0.3637  10.16667  0.05    1.82
Q17   1  -0.0670 -0.1339  0.1772  10.50000  0.05    1.65
Q18   1   0.0737  0.1474  0.1333  10.50000  0.05    1.46
Q19   1  -0.0601  0.0601  0.3452  10.50000  0.05    1.34
Q20   1   0.0000  0.0000  0.4909  10.16667  0.05    1.33
;
_shelx_res_checksum              51925
_shelx_hkl_file
;
   0   0-123    9.84    1.27
   0  -1-122    1.12    1.00
  -1   0-121    0.40    0.60
   0   1-121    1.10    1.01
   0   0-120    4.81    0.94
   0  -1-119    2.99    1.20
   1   0-119    0.07    0.83
  -1   1-119    2.19    1.05
   1  -1-118   -0.47    0.80
  -1   0-118    0.30    0.57
   0   1-118    0.23    0.58
   1  -2-117    1.02    1.04
  -1  -1-117   -0.21    0.79
   0   0-117    0.14    0.54
   0  -1-116    3.88    1.26
   1   0-116    3.72    1.31
  -1   1-116    3.75    1.18
   1  -1-115   -0.38    0.74
  -1   0-115    0.23    0.57
   0   1-115    0.15    0.55
   1  -2-114    0.43    0.89
  -1  -1-114   -0.29    0.69
   2  -1-114   -0.02    0.79
   0   0-114   -0.14    0.48
  -2   1-114   -0.17    0.69
   1   1-114    0.40    0.79
  -1   2-114    0.06    0.87
   2  -2-113   39.72    3.79
   0  -1-113   52.12    2.26
  -2   0-113   40.84    3.12
   1   0-113   50.34    3.42
  -1   1-113   50.68    3.27
   0   2-113   46.53    3.25
   1  -1-112    0.45    0.82
  -1   0-112    0.94    0.59
   2   0-112    0.89    0.92
   0   1-112    1.28    0.63
  -2   2-112    1.02    0.96
   1  -2-111   -1.06    0.76
  -1  -1-111    1.31    0.90
   2  -1-111   -0.10    0.76
   0   0-111    0.05    0.51
  -2   1-111   -0.04    0.75
   1   1-111    0.17    0.84
  -1   2-111   -0.38    0.71
   2  -2-110   28.25    3.25
   0  -1-110   32.06    1.91
  -2   0-110   29.52    3.02
   1   0-110   35.10    2.79
  -1   1-110   33.91    2.63
   0   2-110   28.02    2.96
   1  -1-109    0.70    0.83
  -1   0-109    1.28    0.61
   2   0-109    0.06    0.87
   0   1-109    0.77    0.56
  -2   2-109    1.61    0.94
   1   2-109    0.81    1.08
   1  -2-108    0.26    0.80
  -1  -1-108    1.63    1.00
   2  -1-108    0.17    0.83
   0   0-108    0.63    0.56
  -2   1-108    0.21    0.75
   1   1-108    1.13    0.94
  -1   2-108    0.17    0.73
  -1  -2-107   -0.22    0.83
   2  -2-107    2.49    1.22
   0  -1-107    2.17    0.68
  -2   0-107    1.81    0.95
   1   0-107    3.68    1.24
  -1   1-107    2.87    1.02
   2   1-107    3.55    1.34
   0   2-107    2.02    1.06
   2  -3-106    7.28    1.93
  -2  -1-106    2.53    1.23
   1  -1-106    5.74    1.44
  -1   0-106    6.11    1.00
   2   0-106    7.44    1.67
   0   1-106    6.72    0.96
  -2   2-106    3.11    1.12
   1   2-106    4.45    1.41
   1  -2-105   -0.06    0.81
  -1  -1-105    0.46    0.79
   2  -1-105    0.63    0.88
   0   0-105    1.98    0.66
  -2   1-105    1.71    0.90
   1   1-105    2.92    0.80
  -1   2-105    1.74    0.98
   1  -3-104    1.65    1.14
  -1  -2-104    1.08    0.97
   2  -2-104   -0.10    0.79
   0  -1-104    0.32    0.50
   3  -1-104    0.60    1.11
  -2   0-104   -0.63    0.54
   1   0-104   -0.44    0.66
  -1   1-104   -0.77    0.61
   2   1-104    1.27    0.94
  -3   2-104    0.97    0.96
   0   2-104   -0.05    0.73
  -2   3-104    2.10    1.12
   2  -3-103    5.72    1.71
   0  -2-103    4.71    1.37
   3  -2-103    5.18    1.59
  -2  -1-103    6.26    1.59
   1  -1-103    8.84    1.76
  -1   0-103    9.32    1.15
   2   0-103    6.19    1.45
  -3   1-103    4.90    1.30
   0   1-103    6.76    1.02
  -2   2-103    4.80    1.31
   1   2-103    5.19    1.42
  -1   3-103    5.76    1.54
   1  -2-102    0.07    0.84
  -1  -1-102    0.36    0.82
   2  -1-102   -0.01    0.85
   0   0-102    0.39    0.49
   3   0-102   -0.53    0.85
  -2   1-102    0.82    0.78
   1   1-102   -0.03    0.52
  -1   2-102    1.60    0.91
  -3   3-102   -0.50    0.82
   0   3-102    0.12    0.81
   1  -3-101    1.57    1.00
  -1  -2-101    1.26    0.99
   2  -2-101    2.87    1.22
   0  -1-101    1.66    0.64
   3  -1-101    1.91    1.18
  -2   0-101    1.56    0.88
   1   0-101    2.35    0.98
  -1   1-101    3.01    1.07
   2   1-101    1.40    1.07
  -3   2-101    1.89    0.99
   0   2-101    1.08    0.81
  -2   3-101    1.68    0.68
   2  -3-100    1.96    1.29
   0  -2-100    0.29    0.76
   3  -2-100    0.27    1.03
  -2  -1-100   -0.60    0.73
   1  -1-100    1.16    0.83
  -1   0-100    0.35    0.53
   2   0-100    0.23    0.78
  -3   1-100    0.93    0.82
   0   1-100    0.90    0.58
  -2   2-100    0.14    0.76
   1   2-100    0.02    0.88
  -1   3-100    1.44    0.95
   3  -3 -99    4.74    1.61
   1  -2 -99    5.15    1.43
  -1  -1 -99    5.12    1.34
   2  -1 -99    7.18    1.60
  -3   0 -99    4.81    1.48
   0   0 -99    7.18    0.97
   3   0 -99    4.86    1.45
  -2   1 -99    4.89    1.26
   1   1 -99    5.71    0.97
  -1   2 -99    6.12    1.40
  -3   3 -99    4.84    1.01
   0   3 -99    4.90    1.48
   1  -3 -98    1.04    1.05
  -1  -2 -98    1.18    1.05
   2  -2 -98    1.22    0.97
   0  -1 -98    1.27    0.57
   3  -1 -98    0.88    1.12
  -2   0 -98    2.64    1.07
   1   0 -98    2.52    0.67
  -1   1 -98    2.11    0.91
   2   1 -98    1.89    1.08
  -3   2 -98    1.38    0.66
   0   2 -98    1.19    0.84
  -2   3 -98    1.47    0.68
   2  -3 -97   -0.45    0.88
   0  -2 -97    0.52    0.55
   3  -2 -97    1.22    1.04
  -2  -1 -97    0.50    0.89
   1  -1 -97    0.61    0.78
  -1   0 -97    0.25    0.49
   2   0 -97    0.72    0.81
  -3   1 -97   -0.41    0.67
   0   1 -97    0.91    0.55
  -2   2 -97   -0.45    0.59
   1   2 -97    0.31    0.94
  -1   3 -97    0.52    0.59
   2  -4 -96   61.18    4.27
   1  -2 -96  106.08    5.12
  -1  -1 -96   97.16    4.54
   2  -1 -96  111.05    5.15
  -3   0 -96   68.62    4.18
   0   0 -96  137.79    3.68
   3   0 -96   80.72    4.38
  -2   1 -96  103.14    4.67
   1   1 -96  105.79    3.34
  -4   2 -96   61.86    3.88
  -1   2 -96  110.02    4.86
  -3   3 -96   76.59    3.00
   0   3 -96   80.30    4.34
  -2   4 -96   67.60    4.09
   1  -3 -95   -0.31    0.82
  -1  -2 -95   -0.26    0.75
   2  -2 -95   -0.19    0.79
   0  -1 -95    0.09    0.40
   3  -1 -95    0.30    0.89
  -2   0 -95   -0.14    0.65
   1   0 -95   -0.31    0.37
  -1   1 -95    0.12    0.48
   2   1 -95    0.38    0.90
  -3   2 -95    0.33    0.49
   0   2 -95    0.14    0.64
  -2   3 -95   -0.04    0.52
   2  -3 -94    0.82    0.99
   0  -2 -94    1.56    0.62
   3  -2 -94    2.39    1.23
  -2  -1 -94    1.23    0.95
   1  -1 -94   -0.20    0.59
   4  -1 -94    0.01    1.11
  -1   0 -94    1.25    0.58
   2   0 -94    0.79    0.86
  -3   1 -94    0.57    0.77
   0   1 -94    1.20    0.54
  -2   2 -94    1.56    0.63
   1   2 -94    0.77    0.89
  -1   3 -94    0.32    0.59
   2  -4 -93    7.50    1.87
   3  -3 -93    6.82    1.89
  -2  -2 -93    5.80    1.64
   1  -2 -93   10.03    1.83
   4  -2 -93    4.08    1.68
  -1  -1 -93    9.56    1.65
   2  -1 -93   16.62    2.25
  -3   0 -93    9.44    1.83
   0   0 -93   14.55    1.31
   3   0 -93    7.59    1.67
  -2   1 -93   13.14    1.89
   1   1 -93   13.23    1.33
  -4   2 -93    8.54    1.23
  -1   2 -93   11.91    1.82
  -3   3 -93    7.91    1.16
   0   3 -93    7.57    1.68
  -2   4 -93    6.17    1.64
   1  -3 -92    3.43    1.30
  -1  -2 -92    1.16    0.93
   2  -2 -92    2.30    1.16
   0  -1 -92    1.48    0.58
   3  -1 -92    2.26    1.06
  -2   0 -92    2.31    1.02
   1   0 -92    3.31    0.71
  -4   1 -92    1.36    1.13
  -1   1 -92    3.53    0.72
   2   1 -92    2.13    1.13
  -3   2 -92    2.62    0.74
   0   2 -92    2.00    0.85
  -2   3 -92    2.23    0.71
   1   3 -92    0.93    1.01
  -1   4 -92    1.12    1.14
  -1  -3 -91   -1.13    0.75
   2  -3 -91   -0.20    0.81
   0  -2 -91    0.99    0.58
   3  -2 -91   -1.16    0.79
  -2  -1 -91    0.22    0.75
   1  -1 -91    1.23    0.82
   4  -1 -91    1.66    1.21
  -1   0 -91    0.05    0.45
   2   0 -91    0.88    0.85
  -3   1 -91    0.35    0.51
   0   1 -91    0.63    0.50
  -2   2 -91    0.37    0.50
   1   2 -91    0.43    0.82
  -4   3 -91    0.63    0.68
  -1   3 -91    0.08    0.52
  -3   4 -91    0.25    0.68
   2  -4 -90    1.83    1.16
   0  -3 -90    3.15    1.14
   3  -3 -90    3.20    1.27
  -2  -2 -90    5.85    1.60
   1  -2 -90   12.44    2.02
   4  -2 -90    3.46    1.51
  -1  -1 -90    8.15    1.60
   2  -1 -90    7.42    1.58
  -3   0 -90    4.33    1.29
   0   0 -90   12.29    1.18
   3   0 -90    6.03    1.52
  -2   1 -90    9.67    1.59
   1   1 -90   12.23    1.26
  -4   2 -90    4.04    0.94
  -1   2 -90    8.84    1.09
  -3   3 -90    5.81    1.01
   0   3 -90    7.02    1.10
  -2   4 -90    5.14    1.06
   3  -4 -89    5.09    1.56
   1  -3 -89   11.09    1.97
   4  -3 -89    7.37    2.00
  -1  -2 -89   12.88    1.99
   2  -2 -89   11.33    2.04
  -3  -1 -89    5.47    1.62
   0  -1 -89   14.35    1.33
   3  -1 -89    9.90    1.89
  -2   0 -89   10.38    1.74
   1   0 -89   13.96    1.27
  -4   1 -89    9.09    1.26
  -1   1 -89   14.22    1.34
   2   1 -89    8.11    1.67
  -3   2 -89    8.75    1.14
   0   2 -89   11.47    1.70
  -2   3 -89   11.11    1.30
   1   3 -89    6.90    1.61
  -1   4 -89    8.58    1.33
  -1  -3 -88    0.49    0.85
   2  -3 -88    0.32    0.84
   0  -2 -88   -0.01    0.45
   3  -2 -88   -0.18    0.87
  -2  -1 -88   -0.07    0.70
   1  -1 -88    0.39    0.43
   4  -1 -88   -0.10    0.90
  -1   0 -88    0.53    0.47
   2   0 -88    0.15    0.74
  -3   1 -88    0.14    0.48
   0   1 -88    0.09    0.42
  -2   2 -88    0.30    0.44
   1   2 -88   -0.01    0.66
  -4   3 -88   -0.10    0.58
  -1   3 -88    0.30    0.53
  -3   4 -88   -0.31    0.60
   2  -4 -87   -0.16    0.83
   0  -3 -87    0.40    0.76
   3  -3 -87    1.43    1.02
  -2  -2 -87   -0.76    0.71
   1  -2 -87    1.15    0.90
   4  -2 -87   -0.08    1.03
  -1  -1 -87    1.54    0.86
   2  -1 -87    2.11    0.98
  -3   0 -87    0.84    0.90
   0   0 -87    1.09    0.50
   3   0 -87    0.99    0.97
  -2   1 -87    2.09    0.59
   1   1 -87    1.92    0.64
  -4   2 -87    0.54    0.63
  -1   2 -87    1.67    0.60
  -3   3 -87    0.41    0.52
   0   3 -87    1.09    0.63
  -2   4 -87    0.89    0.67
   3  -4 -86    0.85    1.07
   1  -3 -86    2.32    1.16
   4  -3 -86    1.75    1.25
  -1  -2 -86    2.38    1.03
   2  -2 -86    2.71    1.13
  -3  -1 -86    1.44    1.07
   0  -1 -86    2.13    0.60
   3  -1 -86    1.71    1.05
  -2   0 -86    2.32    0.94
   1   0 -86    2.85    0.65
  -4   1 -86    1.38    0.73
  -1   1 -86    2.80    0.68
   2   1 -86    1.97    1.03
  -3   2 -86    2.85    0.71
   0   2 -86    1.90    0.60
  -2   3 -86    2.48    0.74
   1   3 -86    2.67    1.19
  -1   4 -86    0.81    0.68
  -1  -3 -85    0.63    0.86
   2  -3 -85    0.00    0.77
   0  -2 -85    1.57    0.63
   3  -2 -85    1.04    1.01
  -2  -1 -85    1.32    0.90
   1  -1 -85    2.30    0.58
   4  -1 -85    0.10    0.88
  -1   0 -85    2.45    0.61
   2   0 -85    2.90    1.06
  -3   1 -85    1.12    0.63
   0   1 -85    4.66    0.79
  -2   2 -85    2.29    0.62
   1   2 -85    2.31    1.03
  -4   3 -85    0.52    0.63
  -1   3 -85    1.32    0.63
  -3   4 -85    1.18    0.71
   2  -4 -84   -0.21    0.90
   0  -3 -84    0.13    0.71
   3  -3 -84   -0.25    0.64
  -2  -2 -84    1.85    1.07
   1  -2 -84   -0.37    0.74
   4  -2 -84    1.13    1.23
  -1  -1 -84    1.07    0.76
   2  -1 -84    0.92    0.83
  -3   0 -84    0.74    0.77
   0   0 -84    0.98    0.44
   3   0 -84    1.01    0.89
  -2   1 -84    0.80    0.47
   1   1 -84    0.17    0.46
  -4   2 -84    0.38    0.59
  -1   2 -84    0.01    0.39
  -3   3 -84    0.04    0.48
   0   3 -84    0.92    0.61
  -2   4 -84    0.39    0.60
   3  -4 -83    0.08    0.86
   1  -3 -83   -0.04    0.82
   4  -3 -83    0.09    0.87
  -1  -2 -83   -0.19    0.64
   2  -2 -83   -0.66    0.57
  -3  -1 -83   -0.27    0.69
   0  -1 -83   -0.60    0.37
   3  -1 -83   -0.41    0.79
  -2   0 -83   -0.19    0.54
   1   0 -83    0.38    0.43
   4   0 -83   -0.33    0.79
  -4   1 -83    0.17    0.61
  -1   1 -83    0.09    0.31
   2   1 -83    0.36    0.74
  -3   2 -83    0.13    0.46
   0   2 -83    0.12    0.40
  -2   3 -83    0.33    0.49
   1   3 -83    0.19    0.63
  -4   4 -83   -0.26    0.90
  -1   4 -83    0.78    0.67
  -1  -3 -82   39.93    3.00
   2  -3 -82   58.79    3.66
   0  -2 -82   75.66    2.63
   3  -2 -82   53.79    3.77
  -2  -1 -82   54.62    3.47
   1  -1 -82   98.05    2.84
   4  -1 -82   42.79    3.30
  -4   0 -82   34.95    2.21
  -1   0 -82   96.34    2.93
   2   0 -82   79.00    4.00
  -3   1 -82   61.39    2.43
   0   1 -82   99.07    3.00
  -2   2 -82   75.46    2.56
   1   2 -82   59.79    3.33
  -4   3 -82   40.06    2.16
  -1   3 -82   58.03    2.42
  -3   4 -82   44.30    2.30
   0   4 -82   39.94    3.98
   2  -4 -81    0.50    0.93
   0  -3 -81    1.66    0.90
   3  -3 -81   -0.11    0.85
  -2  -2 -81    0.21    0.78
   1  -2 -81    3.58    1.15
   4  -2 -81    0.72    1.13
  -1  -1 -81    0.75    0.48
   2  -1 -81    2.61    1.14
  -3   0 -81    0.43    0.52
   0   0 -81    2.47    0.59
   3   0 -81    0.58    0.89
  -2   1 -81    1.44    0.51
   1   1 -81    1.87    0.57
  -4   2 -81    0.61    0.59
  -1   2 -81    1.58    0.55
   2   2 -81    1.84    1.05
  -3   3 -81    1.16    0.60
   0   3 -81    0.81    0.61
  -2   4 -81    1.32    0.70
   3  -4 -80    0.96    0.91
   1  -3 -80    1.35    0.90
   4  -3 -80   -0.76    0.81
  -1  -2 -80    0.35    0.72
   2  -2 -80    1.49    0.91
  -3  -1 -80    0.39    0.84
   0  -1 -80    1.49    0.53
   3  -1 -80    1.43    0.96
  -2   0 -80    0.65    0.44
   1   0 -80    2.40    0.61
   4   0 -80   -0.22    0.74
  -4   1 -80    0.43    0.63
  -1   1 -80    1.04    0.37
   2   1 -80    0.82    0.87
  -3   2 -80    1.34    0.59
   0   2 -80    0.72    0.50
  -2   3 -80    0.43    0.51
   1   3 -80    0.20    0.63
  -4   4 -80   -0.33    0.61
  -1   4 -80    0.18    0.56
   4  -4 -79   37.93    3.74
  -1  -3 -79   45.85    3.16
   2  -3 -79   64.03    3.82
   0  -2 -79   77.29    2.65
   3  -2 -79   57.32    3.80
  -2  -1 -79   64.85    3.68
   1  -1 -79  100.66    2.85
   4  -1 -79   51.72    2.35
  -4   0 -79   39.22    2.30
  -1   0 -79   97.78    2.95
   2   0 -79   77.28    3.99
  -3   1 -79   64.09    2.47
   0   1 -79   99.36    2.98
  -2   2 -79   80.54    2.65
   1   2 -79   69.44    2.52
  -4   3 -79   44.06    2.25
  -1   3 -79   67.46    2.58
  -3   4 -79   45.70    2.31
   0   4 -79   33.99    2.41
   2  -4 -78   -1.08    0.59
   0  -3 -78    0.41    0.73
   3  -3 -78    0.78    0.78
  -2  -2 -78   -0.22    0.73
   1  -2 -78   -0.10    0.38
   4  -2 -78   -0.29    0.96
  -1  -1 -78   -0.36    0.43
   2  -1 -78    1.07    0.84
  -3   0 -78   -0.63    0.43
   0   0 -78    0.31    0.40
   3   0 -78   -0.10    0.78
  -2   1 -78   -0.15    0.37
   1   1 -78    0.24    0.42
  -4   2 -78   -0.19    0.49
  -1   2 -78    0.32    0.43
   2   2 -78    0.31    0.73
  -3   3 -78   -0.34    0.44
   0   3 -78    0.36    0.50
  -2   4 -78   -0.06    0.50
   0  -4 -77   -0.27    0.86
   3  -4 -77    0.90    0.92
   1  -3 -77    0.95    0.85
   4  -3 -77    0.97    1.06
  -1  -2 -77    0.55    0.71
   2  -2 -77    1.24    0.83
  -3  -1 -77    1.01    0.92
   0  -1 -77    1.88    0.53
   3  -1 -77    0.26    0.86
  -2   0 -77    0.18    0.40
   1   0 -77    1.85    0.56
   4   0 -77    0.10    0.82
  -4   1 -77    0.07    0.58
  -1   1 -77    2.25    0.45
   2   1 -77    0.61    0.48
  -3   2 -77    0.51    0.49
   0   2 -77    1.61    0.55
  -2   3 -77    1.57    0.57
   1   3 -77    0.98    0.67
  -4   4 -77    0.03    0.63
  -1   4 -77    0.17    0.58
   4  -4 -76    3.38    1.31
  -1  -3 -76    2.67    1.07
   2  -3 -76    6.78    1.47
   0  -2 -76    6.35    0.89
   3  -2 -76    6.86    1.58
  -2  -1 -76    4.67    1.23
   1  -1 -76   10.13    1.00
   4  -1 -76    2.55    0.77
  -4   0 -76    1.57    0.77
  -1   0 -76    9.88    1.07
   2   0 -76    6.81    1.41
  -3   1 -76    6.49    0.98
   0   1 -76   11.78    0.89
  -2   2 -76    8.16    0.99
   1   2 -76    5.79    0.92
  -4   3 -76    3.28    0.86
  -1   3 -76    5.52    0.91
   2   3 -76    0.83    1.22
  -3   4 -76    1.56    0.68
   0   4 -76    2.11    0.80
   2  -4 -75    7.61    1.61
   0  -3 -75   13.71    1.78
   3  -3 -75   10.17    1.81
  -2  -2 -75    6.47    1.49
   1  -2 -75   14.71    1.23
   4  -2 -75    9.48    2.01
  -1  -1 -75   14.64    1.26
   2  -1 -75   14.27    2.11
  -3   0 -75    8.80    1.13
   0   0 -75   21.82    1.34
   3   0 -75   13.04    1.28
  -2   1 -75   15.00    1.25
   1   1 -75   16.51    1.32
  -4   2 -75    8.41    1.20
  -1   2 -75   16.16    1.35
   2   2 -75    6.41    1.41
  -3   3 -75   12.08    1.29
   0   3 -75   12.15    1.31
  -2   4 -75    7.05    1.14
   0  -4 -74   -0.06    0.74
   3  -4 -74   -0.27    0.75
   1  -3 -74   -0.14    0.70
   4  -3 -74    0.93    0.97
  -1  -2 -74    0.56    0.70
   2  -2 -74    0.20    0.65
  -3  -1 -74    0.18    0.54
   0  -1 -74   -0.07    0.36
   3  -1 -74   -0.80    0.65
  -2   0 -74    0.40    0.42
   1   0 -74   -0.21    0.34
   4   0 -74    0.21    0.71
  -4   1 -74   -0.99    0.49
  -1   1 -74    0.28    0.29
   2   1 -74   -0.04    0.40
  -3   2 -74    0.20    0.44
   0   2 -74   -0.11    0.36
  -2   3 -74   -0.14    0.40
   1   3 -74    0.24    0.54
  -4   4 -74    0.21    0.58
  -1   4 -74   -0.12    0.52
  -3   5 -74   -0.57    0.88
   3  -5 -73    3.63    1.42
   4  -4 -73    6.00    1.62
  -1  -3 -73    5.96    1.41
   2  -3 -73   12.23    1.85
   5  -3 -73    5.29    1.73
   0  -2 -73   17.51    1.40
   3  -2 -73    8.98    1.74
  -2  -1 -73   14.17    1.95
   1  -1 -73   20.87    1.27
   4  -1 -73    7.43    1.09
  -4   0 -73    7.42    1.11
  -1   0 -73   21.29    1.02
   2   0 -73   15.25    2.00
  -3   1 -73   10.85    1.17
   0   1 -73   22.68    1.07
   3   1 -73    6.10    1.27
  -2   2 -73   15.62    1.31
   1   2 -73   14.31    1.30
  -4   3 -73    8.45    1.19
  -1   3 -73   10.30    1.20
   2   3 -73    5.81    1.75
  -3   4 -73    8.61    1.19
   0   4 -73    6.70    1.15
   2  -4 -72    2.99    1.09
   0  -3 -72    4.71    1.15
   3  -3 -72    5.02    1.27
  -2  -2 -72    5.18    1.32
   1  -2 -72    7.04    0.89
   4  -2 -72    4.59    0.91
  -1  -1 -72    9.03    1.00
   2  -1 -72    7.06    1.49
  -3   0 -72    5.18    0.87
   0   0 -72    7.17    0.86
   3   0 -72    6.21    0.93
  -2   1 -72    7.89    0.90
   1   1 -72    6.88    0.71
  -4   2 -72    5.91    1.04
  -1   2 -72    6.66    0.87
   2   2 -72    3.44    0.84
  -3   3 -72    4.82    0.88
   0   3 -72    5.20    0.90
  -2   4 -72    2.74    0.79
   0  -4 -71    2.33    1.04
   3  -4 -71    4.48    1.27
  -2  -3 -71    1.16    1.04
   1  -3 -71    6.15    1.37
   4  -3 -71    2.94    1.32
  -1  -2 -71    6.95    1.37
   2  -2 -71    9.49    1.61
  -3  -1 -71    4.50    0.87
   0  -1 -71   13.11    1.15
   3  -1 -71    6.47    0.96
  -2   0 -71    9.63    1.02
   1   0 -71   11.18    1.05
   4   0 -71    2.98    0.97
  -4   1 -71    4.65    0.96
  -1   1 -71   11.62    0.86
   2   1 -71    6.79    0.89
  -3   2 -71    6.06    0.94
   0   2 -71    8.65    0.97
  -2   3 -71    6.66    0.96
   1   3 -71    3.05    0.85
  -4   4 -71    2.63    0.81
  -1   4 -71    3.81    0.83
  -3   5 -71    4.19    1.31
   3  -5 -70    0.93    1.00
   4  -4 -70    1.56    0.98
  -1  -3 -70    0.21    0.66
   2  -3 -70    1.22    0.89
   5  -3 -70    0.67    1.12
  -3  -2 -70    0.31    0.85
   0  -2 -70    2.13    0.61
   3  -2 -70    2.13    0.97
  -2  -1 -70    2.47    0.62
   1  -1 -70    3.58    0.59
   4  -1 -70    1.51    0.66
  -4   0 -70    1.61    0.76
  -1   0 -70    4.47    0.54
   2   0 -70    2.71    0.98
  -3   1 -70    2.18    0.64
   0   1 -70    4.39    0.57
   3   1 -70    2.60    0.94
  -5   2 -70   -0.72    0.81
  -2   2 -70    1.80    0.55
   1   2 -70    3.78    0.75
  -4   3 -70    1.54    0.71
  -1   3 -70    1.88    0.62
   2   3 -70   -1.28    1.06
  -3   4 -70    0.43    0.55
   0   4 -70   -0.48    0.52
  -2   5 -70    1.48    0.79
   2  -4 -69    1.61    0.98
   0  -3 -69    1.24    0.74
   3  -3 -69    1.73    0.90
  -2  -2 -69    3.05    1.08
   1  -2 -69    3.13    0.60
   4  -2 -69    2.18    0.72
  -4  -1 -69    1.15    1.11
  -1  -1 -69    4.03    0.70
   2  -1 -69    3.84    1.18
  -3   0 -69    1.61    0.60
   0   0 -69    4.40    0.68
   3   0 -69    2.97    0.65
  -5   1 -69    0.78    1.17
  -2   1 -69    2.08    0.53
   1   1 -69    3.38    0.50
  -4   2 -69    1.78    0.68
  -1   2 -69    5.20    0.80
   2   2 -69    1.68    0.68
  -3   3 -69    2.35    0.68
   0   3 -69    1.39    0.59
  -2   4 -69    1.76    0.68
   0  -4 -68    8.22    1.58
   3  -4 -68    8.94    1.66
  -2  -3 -68    6.98    1.60
   1  -3 -68   16.05    1.94
   4  -3 -68   11.04    1.94
  -1  -2 -68   16.33    1.93
   2  -2 -68   17.37    2.12
   5  -2 -68    3.14    1.18
  -3  -1 -68    9.57    1.14
   0  -1 -68   31.32    1.51
   3  -1 -68   17.01    1.46
  -2   0 -68   22.17    1.34
   1   0 -68   32.40    1.44
   4   0 -68    9.54    1.57
  -4   1 -68    9.38    1.23
  -1   1 -68   28.64    1.12
   2   1 -68   19.02    1.39
  -3   2 -68   16.22    1.41
   0   2 -68   21.58    1.49
  -5   3 -68    2.91    1.39
  -2   3 -68   17.49    1.48
   1   3 -68    9.52    1.19
  -4   4 -68    7.25    1.07
  -1   4 -68   10.36    1.25
  -3   5 -68    5.21    1.06
   3  -5 -67    0.63    0.94
   4  -4 -67    0.11    0.79
  -1  -3 -67    2.66    1.02
   2  -3 -67    2.40    0.95
   5  -3 -67    1.42    0.76
  -3  -2 -67    1.70    1.09
   0  -2 -67    5.41    0.81
   3  -2 -67    1.70    0.94
  -2  -1 -67    3.60    0.69
   1  -1 -67    7.65    0.83
   4  -1 -67    2.94    0.76
  -4   0 -67    2.56    0.79
  -1   0 -67    6.33    0.62
   2   0 -67    4.77    0.70
  -3   1 -67    4.06    0.80
   0   1 -67    6.20    0.65
   3   1 -67    1.59    0.80
  -5   2 -67    0.08    0.89
  -2   2 -67    5.25    0.78
   1   2 -67    4.05    0.75
  -4   3 -67    1.38    0.67
  -1   3 -67    2.85    0.68
   2   3 -67    1.30    1.22
  -3   4 -67    1.19    0.64
   0   4 -67    1.34    0.75
  -2   5 -67    0.85    0.66
  -1  -4 -66    0.91    0.95
   2  -4 -66    0.60    0.72
   0  -3 -66    0.39    0.63
   3  -3 -66    0.11    0.69
  -2  -2 -66    0.46    0.68
   1  -2 -66   -0.03    0.37
   4  -2 -66    0.27    0.53
  -4  -1 -66    0.04    0.84
  -1  -1 -66   -0.20    0.35
   2  -1 -66   -0.66    0.61
  -3   0 -66   -0.01    0.44
   0   0 -66    0.60    0.26
   3   0 -66    0.25    0.42
  -5   1 -66    1.58    1.16
  -2   1 -66    0.12    0.35
   1   1 -66   -0.31    0.27
  -4   2 -66    0.45    0.54
  -1   2 -66    0.67    0.44
   2   2 -66    0.63    0.44
  -3   3 -66    0.26    0.45
   0   3 -66    0.61    0.46
  -2   4 -66    0.59    0.52
   0  -4 -65   32.17    2.96
   3  -4 -65   41.73    3.03
  -2  -3 -65   29.58    3.00
   1  -3 -65   64.11    2.19
  -1  -2 -65   66.17    3.33
   2  -2 -65   77.09    3.82
   5  -2 -65   33.60    3.01
  -3  -1 -65   44.96    2.07
   0  -1 -65  103.02    2.84
   3  -1 -65   63.74    2.42
  -2   0 -65   82.70    2.49
   1   0 -65  106.58    2.75
   4   0 -65   39.52    2.59
  -4   1 -65   42.41    2.12
  -1   1 -65  102.08    2.23
   2   1 -65   71.91    1.44
  -3   2 -65   67.01    2.42
   0   2 -65   80.99    2.50
   3   2 -65   36.46    3.33
  -5   3 -65   34.69    3.48
  -2   3 -65   72.27    2.55
   1   3 -65   47.39    2.23
  -4   4 -65   40.28    2.23
  -1   4 -65   43.17    2.15
  -3   5 -65   35.29    2.17
   3  -5 -64    5.38    1.45
   4  -4 -64    5.26    1.40
  -1  -3 -64   12.97    1.91
   2  -3 -64   16.68    2.03
   5  -3 -64    4.93    1.02
  -3  -2 -64    6.66    1.56
   0  -2 -64   25.45    1.35
   3  -2 -64   17.45    2.24
  -2  -1 -64   18.72    1.38
   1  -1 -64   33.50    1.43
   4  -1 -64    9.28    1.17
  -4   0 -64    6.31    1.07
  -1   0 -64   34.67    1.15
   2   0 -64   23.02    0.98
  -3   1 -64   16.51    1.41
   0   1 -64   34.40    1.21
   3   1 -64    9.36    1.41
  -5   2 -64    6.34    1.68
  -2   2 -64   22.68    1.53
   1   2 -64   17.57    1.10
  -4   3 -64   10.43    1.28
  -1   3 -64   15.16    1.34
   2   3 -64    3.74    0.98
  -3   4 -64    8.76    1.18
   0   4 -64    7.84    1.14
  -2   5 -64    7.93    1.22
   4  -5 -63    0.95    0.91
  -1  -4 -63    1.19    0.93
   2  -4 -63    0.60    0.74
   5  -4 -63    0.58    1.02
   0  -3 -63    2.73    0.90
   3  -3 -63    1.86    0.94
  -2  -2 -63    1.71    0.84
   1  -2 -63    5.21    0.72
   4  -2 -63    2.46    0.68
  -4  -1 -63    0.74    0.69
  -1  -1 -63    5.71    0.58
   2  -1 -63    3.24    1.13
   5  -1 -63    0.43    0.67
  -3   0 -63    2.62    0.66
   0   0 -63    8.97    0.65
   3   0 -63    2.40    0.63
  -5   1 -63    1.72    1.16
  -2   1 -63    4.24    0.68
   1   1 -63    4.48    0.55
  -4   2 -63    1.12    0.57
  -1   2 -63    4.94    0.75
   2   2 -63    1.65    0.52
  -3   3 -63    1.96    0.65
   0   3 -63    2.27    0.66
  -2   4 -63    0.96    0.55
   1   4 -63    0.02    0.70
  -1   5 -63    0.56    0.88
   2  -5 -62   41.58    3.10
   0  -4 -62   51.06    3.15
   3  -4 -62   71.05    3.83
  -2  -3 -62   36.53    3.43
   1  -3 -62  111.39    2.94
   4  -3 -62   61.98    3.75
  -1  -2 -62  115.43    4.41
   2  -2 -62  143.14    5.24
   5  -2 -62   47.94    3.09
  -3  -1 -62   69.10    2.54
   0  -1 -62  197.80    4.21
   3  -1 -62  116.64    3.27
  -2   0 -62  142.38    3.42
   1   0 -62  195.00    3.15
   4   0 -62   54.36    2.99
  -4   1 -62   64.39    2.60
  -1   1 -62  195.07    3.33
   2   1 -62  112.11    1.88
  -3   2 -62  109.83    3.21
   0   2 -62  138.45    3.42
   3   2 -62   50.47    3.38
  -5   3 -62   51.93    3.67
  -2   3 -62  109.93    3.22
   1   3 -62   66.37    2.14
  -4   4 -62   53.25    2.39
  -1   4 -62   64.47    2.61
  -3   5 -62   46.73    2.34
   3  -5 -61    2.39    1.08
   4  -4 -61    4.56    1.35
  -1  -3 -61    8.40    1.56
   2  -3 -61   13.00    1.71
   5  -3 -61    5.09    1.02
  -3  -2 -61    4.31    0.88
   0  -2 -61   20.82    1.26
   3  -2 -61   12.05    1.79
  -2  -1 -61   13.57    1.16
   1  -1 -61   27.05    1.28
   4  -1 -61    7.22    0.99
  -4   0 -61    6.71    1.05
  -1   0 -61   30.49    1.06
   2   0 -61   21.41    0.93
  -3   1 -61   15.09    1.33
   0   1 -61   30.50    1.12
   3   1 -61    9.91    1.07
  -5   2 -61    5.47    1.57
  -2   2 -61   19.69    1.43
   1   2 -61   14.57    0.99
  -4   3 -61    8.27    1.14
  -1   3 -61   13.86    1.26
   2   3 -61    2.38    0.86
  -3   4 -61    7.94    1.08
   0   4 -61    6.19    0.87
  -2   5 -61    3.51    0.86
   4  -5 -60    3.46    1.28
  -1  -4 -60    1.94    1.09
   2  -4 -60    6.64    1.41
   5  -4 -60    2.20    1.17
   0  -3 -60    6.64    1.26
   3  -3 -60    8.27    1.51
  -2  -2 -60    5.06    0.79
   1  -2 -60   14.47    1.10
   4  -2 -60    5.05    0.85
  -4  -1 -60    2.25    0.79
  -1  -1 -60   14.44    0.80
   2  -1 -60   14.54    1.89
   5  -1 -60    3.28    1.10
  -3   0 -60    6.50    0.93
   0   0 -60   21.33    0.86
   3   0 -60    9.32    1.02
  -5   1 -60    4.68    1.47
  -2   1 -60   13.78    1.15
   1   1 -60   14.69    0.72
  -4   2 -60    8.05    1.08
  -1   2 -60   12.81    1.10
   2   2 -60    4.49    0.67
  -3   3 -60    7.60    1.00
   0   3 -60    6.51    0.76
  -5   4 -60    1.86    1.15
  -2   4 -60    4.25    0.81
   1   4 -60    1.86    0.91
  -4   5 -60    1.94    1.23
  -1   5 -60    2.01    0.81
   2  -5 -59    1.74    1.02
   0  -4 -59    2.75    1.07
   3  -4 -59    3.49    1.09
  -2  -3 -59    1.99    1.04
   1  -3 -59    6.03    0.78
   4  -3 -59    2.43    0.70
  -1  -2 -59    6.40    1.17
   2  -2 -59    7.94    1.41
   5  -2 -59    0.58    0.75
  -3  -1 -59    4.18    0.80
   0  -1 -59   11.53    1.03
   3  -1 -59    6.26    0.87
  -2   0 -59    9.77    0.97
   1   0 -59   11.79    0.74
   4   0 -59    3.47    1.01
  -4   1 -59    2.21    0.68
  -1   1 -59   13.18    0.85
   2   1 -59    6.64    0.51
  -3   2 -59    5.12    0.83
   0   2 -59   10.86    0.80
   3   2 -59    2.76    1.21
  -5   3 -59    1.08    0.99
  -2   3 -59    6.32    0.87
   1   3 -59    3.55    0.66
  -4   4 -59    3.10    0.81
  -1   4 -59    2.75    0.60
  -3   5 -59    1.88    0.79
   3  -5 -58    5.38    1.43
   4  -4 -58    2.14    1.00
  -1  -3 -58    3.69    1.09
   2  -3 -58    4.58    1.07
   5  -3 -58    1.93    0.70
  -3  -2 -58    2.61    0.76
   0  -2 -58    6.70    0.79
   3  -2 -58    5.29    0.81
  -2  -1 -58    5.02    0.75
   1  -1 -58    8.03    0.79
   4  -1 -58    4.63    0.83
  -4   0 -58    4.42    0.90
  -1   0 -58    7.75    0.66
   2   0 -58    6.18    0.50
  -3   1 -58    6.51    0.89
   0   1 -58    7.32    0.65
   3   1 -58    3.97    0.75
  -5   2 -58    3.72    1.37
  -2   2 -58    6.61    0.83
   1   2 -58    6.00    0.66
  -4   3 -58    3.44    0.81
  -1   3 -58    5.02    0.63
   2   3 -58    3.52    0.94
  -3   4 -58    4.59    0.88
   0   4 -58    3.07    0.70
  -2   5 -58    1.82    0.70
   4  -5 -57    0.78    0.90
  -1  -4 -57    0.13    0.86
   2  -4 -57    2.29    0.96
   5  -4 -57   -0.23    0.78
   0  -3 -57    4.82    1.09
   3  -3 -57    3.44    0.98
  -2  -2 -57    2.69    0.64
   1  -2 -57    6.64    0.75
   4  -2 -57    2.18    0.65
  -4  -1 -57   -0.05    0.61
  -1  -1 -57    6.68    0.60
   2  -1 -57    5.81    1.21
   5  -1 -57    0.11    0.73
  -3   0 -57    2.87    0.67
   0   0 -57   10.27    0.68
   3   0 -57    4.40    0.72
  -5   1 -57    2.85    1.22
  -2   1 -57    5.60    0.77
   1   1 -57    6.69    0.53
   4   1 -57    1.13    0.80
  -4   2 -57    2.17    0.67
  -1   2 -57    6.36    0.57
   2   2 -57    2.31    0.56
  -3   3 -57    2.03    0.58
   0   3 -57    3.83    0.60
  -5   4 -57    0.98    1.00
  -2   4 -57    1.82    0.51
   1   4 -57    0.44    0.76
  -4   5 -57    1.48    1.18
  -1   5 -57   -0.18    0.51
   2  -5 -56    0.24    0.79
   0  -4 -56    1.32    0.81
   3  -4 -56    2.13    0.87
  -2  -3 -56    2.61    1.11
   1  -3 -56    2.48    0.55
   4  -3 -56    1.31    0.57
  -1  -2 -56    3.72    0.59
   2  -2 -56    3.57    0.94
   5  -2 -56    0.76    0.68
  -3  -1 -56    1.54    0.59
   0  -1 -56    4.05    0.40
   3  -1 -56    2.23    0.59
  -2   0 -56    4.09    0.64
   1   0 -56    3.73    0.42
   4   0 -56    1.64    0.81
  -4   1 -56    1.20    0.59
  -1   1 -56    4.57    0.52
   2   1 -56    2.15    0.34
  -3   2 -56    2.53    0.64
   0   2 -56    2.70    0.45
   3   2 -56    1.37    1.07
  -5   3 -56    0.86    1.01
  -2   3 -56    2.56    0.48
   1   3 -56    0.95    0.46
  -4   4 -56    0.58    0.82
  -1   4 -56    0.98    0.48
  -3   5 -56    0.63    0.61
   3  -5 -55    4.24    1.28
   1  -4 -55    4.76    1.19
   4  -4 -55    3.86    1.20
  -1  -3 -55    7.56    1.45
   2  -3 -55    8.34    1.33
   5  -3 -55    4.58    0.91
  -3  -2 -55    2.15    0.69
   0  -2 -55   10.12    0.90
   3  -2 -55    8.92    1.01
  -2  -1 -55    8.72    0.92
   1  -1 -55   14.20    0.89
   4  -1 -55    6.07    0.92
  -4   0 -55    4.07    0.82
  -1   0 -55   13.89    0.84
   2   0 -55   12.65    0.65
  -3   1 -55    9.12    1.03
   0   1 -55   14.97    0.63
   3   1 -55    9.35    1.02
  -5   2 -55    4.87    1.53
  -2   2 -55   12.35    0.81
   1   2 -55   10.27    0.85
  -4   3 -55    6.47    0.92
  -1   3 -55    9.60    0.84
   2   3 -55    4.76    1.02
  -3   4 -55    5.37    0.90
   0   4 -55    4.09    0.74
  -2   5 -55    3.43    0.72
   4  -5 -54    2.15    1.07
  -1  -4 -54    0.48    0.85
   2  -4 -54    1.04    0.72
   5  -4 -54    0.87    0.96
   0  -3 -54    1.10    0.66
   3  -3 -54    1.55    0.76
  -2  -2 -54    1.34    0.51
   1  -2 -54    2.14    0.48
   4  -2 -54    0.71    0.48
  -4  -1 -54    0.09    0.55
  -1  -1 -54    2.85    0.42
   2  -1 -54    0.75    0.41
   5  -1 -54    0.35    0.72
  -3   0 -54    1.51    0.53
   0   0 -54    4.07    0.43
   3   0 -54    1.18    0.48
  -5   1 -54    0.55    0.95
  -2   1 -54    1.59    0.47
   1   1 -54    1.96    0.32
   4   1 -54    2.12    0.93
  -4   2 -54    1.63    0.58
  -1   2 -54    2.06    0.36
   2   2 -54    1.04    0.44
  -3   3 -54    1.20    0.41
   0   3 -54    0.92    0.40
  -5   4 -54    1.26    1.07
  -2   4 -54    0.35    0.39
   1   4 -54    0.84    0.78
  -4   5 -54    0.90    1.02
  -1   5 -54    0.97    0.56
   2  -5 -53    1.81    1.01
   0  -4 -53    4.42    1.11
   3  -4 -53    2.82    0.97
  -2  -3 -53    3.06    1.15
   1  -3 -53    5.69    0.72
   4  -3 -53    2.62    0.70
  -1  -2 -53    5.55    0.71
   2  -2 -53    5.78    1.10
   5  -2 -53    3.38    1.04
  -3  -1 -53    2.92    0.67
   0  -1 -53    8.16    0.51
   3  -1 -53    4.21    0.70
  -2   0 -53    6.76    0.58
   1   0 -53    8.40    0.60
   4   0 -53    2.16    0.84
  -4   1 -53    3.78    0.84
  -1   1 -53    9.33    0.44
   2   1 -53    5.07    0.45
  -3   2 -53    5.66    0.65
   0   2 -53    8.15    0.68
   3   2 -53    2.58    1.28
  -5   3 -53    1.62    1.18
  -2   3 -53    4.48    0.59
   1   3 -53    2.09    0.53
  -4   4 -53    2.68    1.14
  -1   4 -53    1.57    0.49
  -3   5 -53    1.54    0.57
   0  -5 -52    0.48    0.93
   3  -5 -52   -0.46    0.66
   1  -4 -52    0.90    0.49
   4  -4 -52    1.55    0.92
  -1  -3 -52    1.10    0.70
   2  -3 -52    2.37    0.86
   5  -3 -52    0.76    0.62
  -3  -2 -52    0.87    0.57
   0  -2 -52    4.18    0.63
   3  -2 -52    2.25    0.56
  -2  -1 -52    2.77    0.57
   1  -1 -52    5.43    0.63
   4  -1 -52    1.21    0.56
  -4   0 -52    1.21    0.60
  -1   0 -52    4.94    0.52
   2   0 -52    2.82    0.36
  -3   1 -52    2.97    0.48
   0   1 -52    6.50    0.45
   3   1 -52    1.83    0.54
  -5   2 -52    1.75    1.02
  -2   2 -52    3.77    0.45
   1   2 -52    1.06    0.38
  -4   3 -52    1.64    0.60
  -1   3 -52    2.26    0.45
   2   3 -52    1.13    0.73
  -3   4 -52    1.27    0.46
   0   4 -52    1.73    0.58
  -2   5 -52    0.14    0.46
   4  -5 -51   13.85    2.08
  -1  -4 -51   16.45    2.14
   2  -4 -51   20.24    2.17
   5  -4 -51   11.54    1.36
   0  -3 -51   28.54    1.95
   3  -3 -51   30.06    2.23
  -2  -2 -51   24.67    1.50
   1  -2 -51   48.16    1.61
   4  -2 -51   23.21    1.47
  -4  -1 -51   15.73    1.60
  -1  -1 -51   51.17    1.34
   2  -1 -51   51.99    1.25
   5  -1 -51   14.46    1.85
  -3   0 -51   29.16    1.24
   0   0 -51   73.48    1.54
   3   0 -51   33.86    1.50
  -5   1 -51   14.94    2.30
  -2   1 -51   49.60    1.29
   1   1 -51   52.40    1.05
   4   1 -51   13.87    1.81
  -4   2 -51   21.65    1.66
  -1   2 -51   49.27    1.37
   2   2 -51   25.20    1.33
  -3   3 -51   29.73    1.29
   0   3 -51   28.49    1.31
  -5   4 -51   13.57    2.33
  -2   4 -51   22.59    1.36
   1   4 -51   12.70    1.61
  -4   5 -51   18.09    2.64
  -1   5 -51   13.17    1.25
   2  -5 -50    1.21    0.92
   0  -4 -50   -0.36    0.53
   3  -4 -50   -0.36    0.45
  -2  -3 -50    0.31    0.46
   1  -3 -50    0.80    0.37
   4  -3 -50    0.41    0.46
  -1  -2 -50    1.15    0.39
   2  -2 -50    0.78    0.57
   5  -2 -50    0.09    0.63
  -3  -1 -50    0.66    0.39
   0  -1 -50    0.46    0.20
   3  -1 -50   -0.01    0.35
  -2   0 -50    0.13    0.24
   1   0 -50    0.49    0.22
   4   0 -50   -0.40    0.49
  -4   1 -50    0.73    0.54
  -1   1 -50    0.48    0.18
   2   1 -50    0.31    0.22
  -3   2 -50    0.35    0.32
   0   2 -50   -0.14    0.24
   3   2 -50    1.33    1.05
  -5   3 -50    0.36    0.84
  -2   3 -50    0.36    0.31
   1   3 -50    0.45    0.41
  -4   4 -50   -0.28    0.52
  -1   4 -50   -0.03    0.32
  -3   5 -50    0.48    0.50
   0   5 -50    0.14    1.14
   0  -5 -49    0.88    0.90
   3  -5 -49    2.11    0.99
   1  -4 -49    3.46    0.65
   4  -4 -49    1.34    0.85
  -1  -3 -49    2.96    0.91
   2  -3 -49    4.56    0.99
   5  -3 -49    0.27    0.52
  -3  -2 -49    1.03    0.59
   0  -2 -49    5.37    0.48
   3  -2 -49    4.16    0.67
  -2  -1 -49    3.89    0.60
   1  -1 -49    9.18    0.77
   4  -1 -49    2.79    0.67
  -4   0 -49    1.20    0.61
  -1   0 -49    8.61    0.63
   2   0 -49    6.53    0.48
  -3   1 -49    4.02    0.54
   0   1 -49    9.37    0.50
   3   1 -49    1.72    0.54
  -5   2 -49    0.78    0.97
  -2   2 -49    7.61    0.64
   1   2 -49    4.47    0.58
  -4   3 -49    2.55    0.55
  -1   3 -49    3.00    0.50
   2   3 -49    0.98    0.72
  -3   4 -49    2.03    0.51
   0   4 -49    1.06    0.50
  -2   5 -49    1.49    0.52
   4  -5 -48   65.09    3.85
  -1  -4 -48   61.49    3.67
   2  -4 -48  128.39    4.80
   5  -4 -48   66.62    2.69
   0  -3 -48  159.84    5.16
   3  -3 -48  160.03    5.56
  -2  -2 -48  124.17    3.35
   1  -2 -48  269.31    4.85
   4  -2 -48  127.56    3.43
  -4  -1 -48   70.03    2.80
  -1  -1 -48  280.35    4.00
   2  -1 -48  280.03    3.90
   5  -1 -48   69.96    3.54
  -3   0 -48  162.68    3.12
   0   0 -48  390.44    5.11
   3   0 -48  170.48    3.75
  -5   1 -48   70.05    4.19
  -2   1 -48  277.00    4.03
   1   1 -48  275.67    3.12
   4   1 -48   76.15    3.42
  -4   2 -48  124.85    2.83
  -1   2 -48  276.31    4.12
   2   2 -48  126.73    2.87
  -3   3 -48  161.88    3.15
   0   3 -48  159.03    3.23
  -5   4 -48   71.93    4.40
  -2   4 -48  126.98    2.90
   1   4 -48   66.23    3.04
  -4   5 -48   73.23    3.07
  -1   5 -48   67.87    2.35
   2  -5 -47    0.38    0.75
   0  -4 -47    1.36    0.72
   3  -4 -47    2.07    0.79
  -2  -3 -47    0.34    0.48
   1  -3 -47    2.20    0.47
   4  -3 -47    2.37    0.62
  -1  -2 -47    2.65    0.52
   2  -2 -47    4.03    0.90
   5  -2 -47    0.78    0.68
  -3  -1 -47    1.10    0.50
   0  -1 -47    6.43    0.45
   3  -1 -47    2.36    0.54
  -2   0 -47    3.99    0.47
   1   0 -47    5.60    0.47
   4   0 -47    2.40    0.79
  -4   1 -47    1.59    0.51
  -1   1 -47    6.06    0.39
   2   1 -47    2.69    0.34
  -3   2 -47    2.52    0.45
   0   2 -47    3.57    0.47
   3   2 -47    1.82    1.06
  -5   3 -47    0.86    0.99
  -2   3 -47    1.79    0.41
   1   3 -47    2.22    0.52
  -4   4 -47    1.56    0.64
  -1   4 -47    1.84    0.53
  -3   5 -47    0.65    0.51
   0   5 -47    0.26    1.20
   0  -5 -46    0.13    0.77
   3  -5 -46    0.17    0.66
   1  -4 -46    0.44    0.38
   4  -4 -46   -0.23    0.56
  -1  -3 -46    0.12    0.38
   2  -3 -46   -0.23    0.40
   5  -3 -46    0.11    0.48
  -3  -2 -46   -0.41    0.43
   0  -2 -46    0.13    0.20
   3  -2 -46   -0.08    0.29
  -2  -1 -46    0.04    0.32
   1  -1 -46    0.31    0.28
   4  -1 -46   -0.10    0.42
  -4   0 -46    0.14    0.42
  -1   0 -46    0.18    0.16
   2   0 -46    0.28    0.20
   5   0 -46    0.59    0.74
  -3   1 -46   -0.13    0.27
   0   1 -46    0.26    0.19
   3   1 -46    0.22    0.39
  -5   2 -46    0.42    0.82
  -2   2 -46    0.21    0.25
   1   2 -46    0.00    0.27
  -4   3 -46    0.23    0.38
  -1   3 -46   -0.16    0.25
   2   3 -46   -0.80    0.53
  -3   4 -46    0.83    0.40
   0   4 -46    0.83    0.47
  -2   5 -46    0.18    0.43
   4  -5 -45   10.11    1.78
  -1  -4 -45   11.50    1.84
   2  -4 -45   14.71    1.74
   5  -4 -45    8.41    1.17
   0  -3 -45   22.77    1.66
   3  -3 -45   18.40    1.93
  -2  -2 -45   18.02    1.36
   1  -2 -45   31.20    1.21
   4  -2 -45   15.58    1.31
  -4  -1 -45   12.84    1.43
  -1  -1 -45   34.04    1.03
   2  -1 -45   34.68    0.92
   5  -1 -45    5.23    1.19
  -3   0 -45   22.61    1.16
   0   0 -45   46.14    1.11
   3   0 -45   20.03    1.22
  -5   1 -45   11.64    2.08
  -2   1 -45   37.75    1.08
   1   1 -45   33.35    0.80
   4   1 -45    7.45    1.36
  -4   2 -45   15.85    1.11
  -1   2 -45   34.17    1.09
   2   2 -45   13.25    1.36
  -3   3 -45   23.40    1.15
   0   3 -45   19.19    1.19
  -5   4 -45   11.84    1.46
  -2   4 -45   17.07    1.15
   1   4 -45    5.87    1.15
  -4   5 -45    9.41    1.34
  -1   5 -45    9.62    1.02
   2  -5 -44    1.71    0.85
   5  -5 -44    1.30    1.03
   0  -4 -44    1.16    0.68
   3  -4 -44    1.89    0.76
  -2  -3 -44    1.18    0.55
   1  -3 -44    4.84    0.61
   4  -3 -44    1.63    0.53
  -1  -2 -44    3.55    0.57
   2  -2 -44    6.12    1.06
   5  -2 -44    0.16    0.64
  -3  -1 -44    2.51    0.57
   0  -1 -44    7.92    0.44
   3  -1 -44    4.56    0.67
  -2   0 -44    5.64    0.54
   1   0 -44    8.04    0.47
   4   0 -44    2.36    0.77
  -4   1 -44    1.31    0.46
  -1   1 -44    8.12    0.46
   2   1 -44    4.23    0.39
  -3   2 -44    4.25    0.55
   0   2 -44    5.48    0.55
   3   2 -44    2.05    1.15
  -5   3 -44    1.76    0.71
  -2   3 -44    3.98    0.55
   1   3 -44    3.07    0.59
  -4   4 -44    2.82    0.78
  -1   4 -44    2.74    0.57
  -3   5 -44    1.62    0.52
   0   5 -44   -0.13    1.12
   0  -5 -43    1.19    0.96
   3  -5 -43   -0.31    0.58
   1  -4 -43    1.00    0.44
   4  -4 -43    0.80    0.69
  -1  -3 -43    0.61    0.41
   2  -3 -43    3.29    0.82
   5  -3 -43    0.42    0.52
  -3  -2 -43    0.36    0.51
   0  -2 -43    1.77    0.31
   3  -2 -43    2.60    0.54
  -2  -1 -43    1.25    0.43
   1  -1 -43    3.33    0.47
   4  -1 -43    1.00    0.59
  -4   0 -43    0.38    0.44
  -1   0 -43    2.59    0.26
   2   0 -43    2.19    0.28
   5   0 -43    0.11    0.68
  -3   1 -43    0.98    0.35
   0   1 -43    2.94    0.32
   3   1 -43    0.80    0.47
  -5   2 -43    0.26    0.57
  -2   2 -43    1.87    0.36
   1   2 -43    1.68    0.41
  -4   3 -43    0.72    0.41
  -1   3 -43    0.87    0.33
   2   3 -43    1.76    0.76
  -3   4 -43    1.20    0.41
   0   4 -43    0.99    0.46
  -5   5 -43    0.41    0.77
  -2   5 -43    0.79    0.48
   4  -5 -42    2.08    0.95
  -1  -4 -42   -0.20    0.66
   2  -4 -42    1.01    0.64
   5  -4 -42    0.28    0.54
   0  -3 -42    1.17    0.40
   3  -3 -42    0.88    0.60
  -2  -2 -42    1.26    0.48
   1  -2 -42    1.40    0.34
   4  -2 -42    0.76    0.42
  -4  -1 -42    0.90    0.49
  -1  -1 -42    1.95    0.32
   2  -1 -42    1.99    0.26
   5  -1 -42    1.14    0.79
  -3   0 -42    1.55    0.43
   0   0 -42    2.00    0.30
   3   0 -42    0.58    0.35
  -5   1 -42    0.52    0.63
  -2   1 -42    1.54    0.31
   1   1 -42    1.37    0.23
   4   1 -42    2.55    0.89
  -4   2 -42    1.00    0.40
  -1   2 -42    1.55    0.33
   2   2 -42    0.67    0.55
  -3   3 -42    1.60    0.41
   0   3 -42    1.37    0.43
  -5   4 -42    1.10    0.70
  -2   4 -42    1.38    0.40
   1   4 -42    0.18    0.65
  -4   5 -42   -0.19    0.60
  -1   5 -42    1.10    0.55
   2  -5 -41   18.04    2.12
   5  -5 -41   11.74    1.97
   0  -4 -41   13.78    1.75
   3  -4 -41   19.45    2.00
  -2  -3 -41   14.66    1.37
   1  -3 -41   39.65    1.39
   4  -3 -41   21.61    1.53
  -1  -2 -41   37.87    1.44
   2  -2 -41   49.37    2.43
   5  -2 -41   12.88    1.71
  -3  -1 -41   23.92    1.62
   0  -1 -41   71.47    1.34
   3  -1 -41   38.82    1.54
  -5   0 -41    9.43    1.94
  -2   0 -41   52.23    1.35
   1   0 -41   68.87    1.22
   4   0 -41   20.20    1.97
  -4   1 -41   24.32    1.41
  -1   1 -41   71.12    1.38
   2   1 -41   38.06    0.92
  -3   2 -41   37.12    1.28
   0   2 -41   48.47    1.36
   3   2 -41   13.60    2.21
  -5   3 -41   15.02    1.56
  -2   3 -41   37.81    1.28
   1   3 -41   21.74    1.35
  -4   4 -41   20.65    1.70
  -1   4 -41   22.89    1.37
  -3   5 -41   15.03    1.22
   0   5 -41    9.70    1.42
   0  -5 -40    0.73    0.85
   3  -5 -40   -0.04    0.60
   1  -4 -40   -0.07    0.36
   4  -4 -40    0.41    0.60
  -1  -3 -40    0.62    0.42
   2  -3 -40    0.55    0.51
   5  -3 -40   -0.11    0.43
  -3  -2 -40   -0.23    0.42
   0  -2 -40    0.56    0.23
   3  -2 -40    0.24    0.33
  -2  -1 -40    0.75    0.36
   1  -1 -40    0.32    0.24
   4  -1 -40    0.10    0.45
  -4   0 -40    0.18    0.40
  -1   0 -40    0.10    0.14
   2   0 -40    0.85    0.20
   5   0 -40    1.97    0.94
  -3   1 -40    0.39    0.31
   0   1 -40    0.71    0.20
   3   1 -40   -0.03    0.36
  -5   2 -40    0.41    0.59
  -2   2 -40    0.91    0.29
   1   2 -40    0.46    0.22
  -4   3 -40    0.55    0.40
  -1   3 -40   -0.13    0.27
   2   3 -40    0.94    0.68
  -3   4 -40    0.61    0.36
   0   4 -40    0.48    0.43
  -5   5 -40    0.62    0.74
  -2   5 -40    0.33    0.44
   3  -6 -39    1.65    1.07
   4  -5 -39    0.56    0.77
  -1  -4 -39    1.42    0.83
   2  -4 -39    2.68    0.81
   5  -4 -39    0.65    0.55
  -3  -3 -39    0.09    0.94
   0  -3 -39    3.66    0.55
   3  -3 -39    4.68    0.68
  -2  -2 -39    1.55    0.49
   1  -2 -39    8.82    0.70
   4  -2 -39    2.25    0.52
  -4  -1 -39    0.84    0.53
  -1  -1 -39    8.92    0.62
   2  -1 -39    9.02    0.43
   5  -1 -39    2.02    0.83
  -3   0 -39    4.40    0.58
   0   0 -39   14.94    0.60
   3   0 -39    4.84    0.69
  -5   1 -39    0.84    0.67
  -2   1 -39   10.11    0.66
   1   1 -39    9.13    0.47
   4   1 -39    0.44    0.64
  -4   2 -39    3.24    0.57
  -1   2 -39    9.97    0.69
   2   2 -39    3.59    0.76
  -6   3 -39    1.13    1.16
  -3   3 -39    3.83    0.54
   0   3 -39    4.97    0.63
  -5   4 -39    1.46    0.72
  -2   4 -39    3.24    0.55
   1   4 -39    0.65    0.66
  -4   5 -39    0.53    0.64
  -1   5 -39    1.84    0.58
   2  -5 -38   -0.04    0.67
   5  -5 -38    0.80    0.83
   0  -4 -38    0.08    0.53
   3  -4 -38    0.00    0.47
  -2  -3 -38   -0.08    0.45
   1  -3 -38    0.18    0.27
   4  -3 -38    0.34    0.39
  -1  -2 -38    0.19    0.28
   2  -2 -38   -0.01    0.28
   5  -2 -38   -0.07    0.52
  -3  -1 -38    0.35    0.40
   0  -1 -38    0.27    0.15
   3  -1 -38    0.14    0.29
  -5   0 -38    1.03    0.79
  -2   0 -38    0.03    0.23
   1   0 -38    0.37    0.16
   4   0 -38    0.36    0.54
  -4   1 -38    0.11    0.36
  -1   1 -38    0.09    0.17
   2   1 -38    0.03    0.18
  -3   2 -38    0.04    0.27
   0   2 -38    0.47    0.26
   3   2 -38   -0.02    0.78
  -5   3 -38    0.06    0.55
  -2   3 -38    0.04    0.27
   1   3 -38    0.00    0.33
  -4   4 -38    0.31    0.49
  -1   4 -38   -0.15    0.31
  -3   5 -38    0.16    0.41
   0   5 -38   -0.09    0.73
   0  -5 -37    0.87    0.89
   3  -5 -37    4.07    1.12
   1  -4 -37    6.26    0.77
   4  -4 -37    4.48    1.10
  -1  -3 -37    4.95    0.78
   2  -3 -37    8.74    1.25
   5  -3 -37    3.84    0.77
  -3  -2 -37    2.62    0.72
   0  -2 -37   15.56    0.64
   3  -2 -37   11.28    0.97
  -2  -1 -37   11.02    0.97
   1  -1 -37   25.36    0.94
   4  -1 -37    4.33    0.96
  -4   0 -37    3.02    0.60
  -1   0 -37   24.11    0.62
   2   0 -37   15.20    0.61
   5   0 -37    2.12    0.97
  -3   1 -37   11.12    0.83
   0   1 -37   24.24    0.69
   3   1 -37    4.08    0.67
  -5   2 -37    2.50    0.82
  -2   2 -37   16.29    0.82
   1   2 -37   10.46    0.61
  -4   3 -37    4.17    0.77
  -1   3 -37    8.72    0.75
   2   3 -37    2.49    0.82
  -3   4 -37    5.13    0.66
   0   4 -37    4.35    0.67
  -5   5 -37    1.07    0.79
  -2   5 -37    2.56    0.61
   3  -6 -36    0.49    0.90
   1  -5 -36    4.00    1.13
   4  -5 -36    3.60    1.08
  -1  -4 -36    2.59    0.74
   2  -4 -36    7.87    1.29
   5  -4 -36    2.64    0.67
  -3  -3 -36    0.99    0.98
   0  -3 -36    8.65    0.64
   3  -3 -36    9.87    0.95
  -2  -2 -36    5.44    0.75
   1  -2 -36   15.79    0.78
   4  -2 -36    6.62    0.82
  -4  -1 -36    2.06    0.60
  -1  -1 -36   15.59    0.67
   2  -1 -36   17.89    0.55
   5  -1 -36    2.56    0.91
  -3   0 -36    6.80    0.69
   0   0 -36   24.72    0.74
   3   0 -36   11.19    0.96
  -5   1 -36    3.75    0.87
  -2   1 -36   16.37    0.77
   1   1 -36   17.40    0.55
   4   1 -36    5.07    0.89
  -4   2 -36    5.82    0.72
  -1   2 -36   17.65    0.78
   2   2 -36    5.43    0.89
  -6   3 -36    2.26    1.33
  -3   3 -36    7.64    0.71
   0   3 -36    6.47    0.70
  -5   4 -36    2.75    0.86
  -2   4 -36    4.22    0.62
   1   4 -36    3.39    0.93
  -4   5 -36    2.70    0.88
  -1   5 -36    2.86    0.66
  -3   6 -36    0.78    1.35
   2  -5 -35    0.80    0.79
   5  -5 -35    0.76    0.84
   0  -4 -35    2.95    0.91
   3  -4 -35    1.51    0.72
   6  -4 -35    1.14    1.01
  -2  -3 -35    1.26    0.56
   1  -3 -35    5.09    0.61
   4  -3 -35    2.58    0.56
  -1  -2 -35    6.60    0.71
   2  -2 -35    9.35    0.80
   5  -2 -35    1.25    0.71
  -3  -1 -35    2.77    0.65
   0  -1 -35   14.93    0.52
   3  -1 -35    6.97    0.74
  -5   0 -35    0.02    0.67
  -2   0 -35    8.94    0.64
   1   0 -35   13.93    0.43
   4   0 -35    2.16    0.70
  -4   1 -35    1.54    0.47
  -1   1 -35   14.59    0.57
   2   1 -35    7.08    0.45
  -6   2 -35   -0.67    1.09
  -3   2 -35    5.98    0.63
   0   2 -35    8.88    0.67
   3   2 -35    1.12    0.89
  -5   3 -35    1.55    0.65
  -2   3 -35    6.77    0.65
   1   3 -35    2.76    0.52
  -4   4 -35    1.81    0.63
  -1   4 -35    2.91    0.54
  -3   5 -35    1.20    0.52
   0   5 -35    1.57    0.84
   0  -5 -34   45.79    3.14
   3  -5 -34   67.45    3.55
  -2  -4 -34   43.41    3.22
   1  -4 -34  114.93    2.93
   4  -4 -34   85.02    2.66
  -1  -3 -34  119.76    3.12
   2  -3 -34  203.47    5.81
   5  -3 -34   70.34    2.48
  -3  -2 -34   66.97    2.53
   0  -2 -34  283.56    3.83
   3  -2 -34  201.05    4.02
  -2  -1 -34  206.61    4.09
   1  -1 -34  407.77    6.20
   4  -1 -34  114.93    4.08
  -4   0 -34   83.54    2.37
  -1   0 -34  403.93    4.97
   2   0 -34  286.84    3.44
   5   0 -34   43.79    2.77
  -3   1 -34  197.84    3.43
   0   1 -34  407.09    4.46
   3   1 -34  116.78    3.10
  -5   2 -34   67.89    2.81
  -2   2 -34  270.62    4.09
   1   2 -34  203.99    2.81
  -4   3 -34  114.78    3.47
  -1   3 -34  196.40    3.46
   2   3 -34   69.49    2.95
  -6   4 -34   41.57    3.98
  -3   4 -34  112.05    2.61
   0   4 -34   78.54    2.35
  -5   5 -34   49.14    2.63
  -2   5 -34   62.78    2.14
   3  -6 -33   -0.56    0.75
   1  -5 -33    1.67    0.86
   4  -5 -33    2.00    0.87
  -1  -4 -33    0.54    0.55
   2  -4 -33    0.37    0.55
   5  -4 -33    0.60    0.50
  -3  -3 -33    0.44    0.93
   0  -3 -33    1.33    0.40
   3  -3 -33    0.85    0.38
   6  -3 -33    0.04    0.79
  -2  -2 -33    0.72    0.41
   1  -2 -33    1.81    0.34
   4  -2 -33    1.34    0.44
  -4  -1 -33    0.07    0.46
  -1  -1 -33    1.13    0.25
   2  -1 -33    1.41    0.33
   5  -1 -33    0.30    0.59
  -3   0 -33    0.38    0.31
   0   0 -33    2.76    0.31
   3   0 -33    1.35    0.42
  -5   1 -33    0.87    0.65
  -2   1 -33    1.21    0.29
   1   1 -33    2.04    0.24
   4   1 -33    1.03    0.51
  -4   2 -33    0.22    0.35
  -1   2 -33    1.17    0.29
   2   2 -33    0.58    0.51
  -6   3 -33   -0.31    1.01
  -3   3 -33    1.65    0.41
   0   3 -33    1.10    0.36
  -5   4 -33   -0.05    0.62
  -2   4 -33    0.80    0.37
   1   4 -33    0.19    0.61
  -4   5 -33    0.12    0.60
  -1   5 -33   -0.06    0.44
  -3   6 -33   -0.06    0.82
   2  -5 -32    1.52    0.79
   5  -5 -32    1.15    0.96
   0  -4 -32    2.49    0.84
   3  -4 -32    1.43    0.63
   6  -4 -32    1.05    0.88
  -2  -3 -32    1.88    0.62
   1  -3 -32    2.71    0.45
   4  -3 -32    1.82    0.51
  -1  -2 -32    3.51    0.56
   2  -2 -32    4.86    0.58
   5  -2 -32    0.71    0.66
  -3  -1 -32    0.83    0.48
   0  -1 -32    6.15    0.39
   3  -1 -32    3.82    0.58
  -5   0 -32    0.04    0.70
  -2   0 -32    4.37    0.48
   1   0 -32    7.58    0.34
   4   0 -32    2.10    0.75
  -4   1 -32    2.44    0.54
  -1   1 -32    6.47    0.44
   2   1 -32    3.80    0.38
  -6   2 -32   -0.74    1.02
  -3   2 -32    3.22    0.49
   0   2 -32    5.20    0.52
   3   2 -32   -0.09    0.73
  -5   3 -32    1.84    0.74
  -2   3 -32    2.50    0.42
   1   3 -32    2.14    0.66
  -4   4 -32    1.08    0.55
  -1   4 -32    1.96    0.49
  -3   5 -32    0.95    0.62
   0   5 -32    0.49    0.74
   0  -5 -31   40.73    2.95
   3  -5 -31   60.22    3.26
  -2  -4 -31   38.93    3.07
   1  -4 -31   91.16    2.47
   4  -4 -31   73.36    2.43
  -1  -3 -31   89.85    2.66
   2  -3 -31  143.54    4.49
   5  -3 -31   60.22    2.29
  -3  -2 -31   58.59    2.36
   0  -2 -31  200.05    2.86
   3  -2 -31  142.05    3.15
  -2  -1 -31  153.16    3.27
   1  -1 -31  272.40    4.36
   4  -1 -31   93.86    3.52
  -4   0 -31   72.52    2.19
  -1   0 -31  277.14    3.10
   2   0 -31  195.52    2.56
   5   0 -31   46.53    2.78
  -3   1 -31  147.10    2.79
   0   1 -31  271.45    3.63
   3   1 -31   92.08    2.69
  -5   2 -31   57.20    2.58
  -2   2 -31  192.78    3.12
   1   2 -31  147.52    2.23
  -4   3 -31   96.19    3.09
  -1   3 -31  141.82    2.77
   2   3 -31   58.25    3.99
  -6   4 -31   40.19    3.99
  -3   4 -31   89.22    2.25
   0   4 -31   67.86    2.14
  -5   5 -31   45.23    2.70
  -2   5 -31   61.26    2.05
   3  -6 -30    1.62    1.03
   1  -5 -30    1.46    0.75
   4  -5 -30    1.81    0.86
  -1  -4 -30    2.83    0.74
   2  -4 -30    2.31    0.74
   5  -4 -30    1.70    0.63
  -3  -3 -30    0.49    0.62
   0  -3 -30    6.13    0.64
   3  -3 -30    4.68    0.66
   6  -3 -30    1.21    0.91
  -2  -2 -30    3.60    0.63
   1  -2 -30   13.16    0.68
   4  -2 -30    3.33    0.61
  -4  -1 -30    1.62    0.54
  -1  -1 -30   12.88    0.61
   2  -1 -30   13.65    0.79
   5  -1 -30    1.34    0.70
  -3   0 -30    6.45    0.68
   0   0 -30   23.76    0.69
   3   0 -30    7.83    0.78
  -5   1 -30    0.72    0.67
  -2   1 -30   13.93    0.77
   1   1 -30   13.01    0.48
   4   1 -30    1.07    0.58
  -4   2 -30    5.09    0.67
  -1   2 -30   12.12    0.72
   2   2 -30    4.00    0.53
  -6   3 -30    0.55    0.80
  -3   3 -30    5.12    0.58
   0   3 -30    5.37    0.62
   3   3 -30    0.24    1.03
  -5   4 -30    0.66    0.64
  -2   4 -30    3.51    0.55
   1   4 -30    1.77    0.74
  -4   5 -30    1.26    0.71
  -1   5 -30    1.07    0.72
  -3   6 -30    0.69    0.84
   2  -5 -29    0.59    0.63
   5  -5 -29    0.88    0.94
   0  -4 -29    0.97    0.64
   3  -4 -29    0.51    0.54
   6  -4 -29    0.74    0.88
  -2  -3 -29    0.99    0.53
   1  -3 -29    1.96    0.39
   4  -3 -29    0.46    0.38
  -4  -2 -29   -0.48    0.85
  -1  -2 -29    1.67    0.39
   2  -2 -29    2.59    0.41
   5  -2 -29   -0.08    0.49
  -3  -1 -29    1.08    0.45
   0  -1 -29    5.72    0.37
   3  -1 -29    1.72    0.41
  -5   0 -29    0.37    0.69
  -2   0 -29    4.39    0.47
   1   0 -29    5.38    0.29
   4   0 -29   -0.11    0.47
  -4   1 -29    0.86    0.41
  -1   1 -29    6.67    0.44
   2   1 -29    1.59    0.28
  -6   2 -29    1.50    1.25
  -3   2 -29    2.07    0.42
   0   2 -29    2.73    0.40
   3   2 -29    0.86    0.91
  -5   3 -29    0.27    0.55
  -2   3 -29    1.19    0.33
   1   3 -29    0.18    0.44
  -4   4 -29   -0.02    0.46
  -1   4 -29    0.89    0.40
  -3   5 -29    0.26    0.58
   0   5 -29    0.21    0.69
   0  -5 -28    0.58    0.82
   3  -5 -28    1.19    0.78
  -2  -4 -28    2.69    1.23
   1  -4 -28    4.23    0.65
   4  -4 -28    3.71    0.68
  -1  -3 -28    4.29    0.72
   2  -3 -28    9.74    0.69
   5  -3 -28    3.58    0.75
  -3  -2 -28    3.15    0.73
   0  -2 -28   12.06    0.72
   3  -2 -28    9.59    0.82
  -2  -1 -28   10.79    0.90
   1  -1 -28   20.76    0.75
   4  -1 -28    5.80    1.04
  -4   0 -28    4.94    0.70
  -1   0 -28   20.09    0.64
   2   0 -28   12.51    0.54
   5   0 -28    1.65    0.83
  -3   1 -28   10.25    0.79
   0   1 -28   21.12    0.58
   3   1 -28    6.11    0.82
  -5   2 -28    4.20    0.92
  -2   2 -28   13.10    0.77
   1   2 -28    9.67    0.56
  -4   3 -28    6.37    0.94
  -1   3 -28    9.41    0.76
   2   3 -28    3.40    0.89
  -6   4 -28    1.99    1.01
  -3   4 -28    5.00    0.61
   0   4 -28    3.50    0.62
  -5   5 -28    3.14    0.97
  -2   5 -28    3.02    0.62
  -4   6 -28    2.68    1.46
   3  -6 -27    7.72    1.60
   1  -5 -27   11.37    1.63
   4  -5 -27   10.22    1.62
  -1  -4 -27   13.18    1.31
   2  -4 -27   22.94    1.72
   5  -4 -27   11.39    1.17
  -3  -3 -27    6.48    1.08
   0  -3 -27   33.35    1.27
   3  -3 -27   32.15    1.33
   6  -3 -27    9.40    1.62
  -2  -2 -27   26.45    1.34
   1  -2 -27   67.19    1.56
   4  -2 -27   25.25    1.26
  -4  -1 -27   12.11    1.15
  -1  -1 -27   67.21    1.33
   2  -1 -27   67.90    1.70
   5  -1 -27   11.83    1.61
  -3   0 -27   30.99    1.20
   0   0 -27  111.85    1.75
   3   0 -27   38.62    1.25
  -5   1 -27   11.67    1.47
  -2   1 -27   65.48    1.48
   1   1 -27   66.62    1.05
   4   1 -27   12.74    1.30
  -4   2 -27   23.40    1.67
  -1   2 -27   65.03    1.45
   2   2 -27   25.59    1.12
  -6   3 -27    8.85    1.49
  -3   3 -27   33.95    1.20
   0   3 -27   29.89    1.26
   3   3 -27    6.77    1.91
  -5   4 -27   12.53    1.51
  -2   4 -27   22.16    1.15
   1   4 -27   10.34    1.46
  -4   5 -27   15.24    1.68
  -1   5 -27   10.30    1.41
  -3   6 -27    5.40    1.23
   2  -5 -26    5.43    1.19
   5  -5 -26    3.07    1.10
   0  -4 -26    9.84    1.42
   3  -4 -26   12.68    1.56
   6  -4 -26    3.05    1.16
  -2  -3 -26    8.51    1.08
   1  -3 -26   26.42    1.06
   4  -3 -26   12.28    1.04
  -4  -2 -26    2.92    1.21
  -1  -2 -26   27.75    1.18
   2  -2 -26   36.11    1.25
   5  -2 -26    6.24    1.19
  -3  -1 -26   12.10    1.11
   0  -1 -26   61.44    1.10
   3  -1 -26   24.10    1.11
  -5   0 -26    3.55    1.01
  -2   0 -26   37.63    1.11
   1   0 -26   60.85    0.89
   4   0 -26    6.64    1.14
  -4   1 -26   12.19    1.00
  -1   1 -26   64.11    1.23
   2   1 -26   24.76    0.77
  -6   2 -26    2.25    1.44
  -3   2 -26   25.11    1.01
   0   2 -26   38.29    1.14
   3   2 -26    5.57    1.53
  -5   3 -26    7.16    1.13
  -2   3 -26   24.07    1.00
   1   3 -26   11.35    1.27
  -4   4 -26    8.17    1.11
  -1   4 -26   12.73    1.02
  -3   5 -26    6.76    1.11
   0   5 -26    2.38    0.91
  -2   6 -26    3.16    1.33
   0  -5 -25    2.22    1.03
   3  -5 -25    4.40    1.07
  -2  -4 -25    0.74    1.00
   1  -4 -25    6.12    0.74
   4  -4 -25    3.45    1.03
  -1  -3 -25    6.27    0.79
   2  -3 -25    9.87    0.63
   5  -3 -25    4.21    0.74
  -3  -2 -25    2.80    0.69
   0  -2 -25   14.69    0.70
   3  -2 -25    9.74    0.82
  -2  -1 -25   11.27    0.92
   1  -1 -25   20.08    0.59
   4  -1 -25    6.99    1.11
  -4   0 -25    4.37    0.66
  -1   0 -25   21.09    0.63
   2   0 -25   14.68    0.72
   5   0 -25    2.04    0.85
  -3   1 -25    9.75    0.76
   0   1 -25   21.44    0.58
   3   1 -25    5.67    0.75
  -5   2 -25    2.18    0.75
  -2   2 -25   13.27    0.71
   1   2 -25   10.60    0.55
  -4   3 -25    6.07    0.97
  -1   3 -25    9.80    0.75
   2   3 -25    1.97    0.82
  -6   4 -25    2.67    1.03
  -3   4 -25    6.08    0.67
   0   4 -25    4.75    0.91
  -5   5 -25    1.87    0.86
  -2   5 -25    4.05    0.71
  -4   6 -25    2.47    1.02
   3  -6 -24    2.18    1.00
   1  -5 -24    1.95    0.80
   4  -5 -24    3.90    1.07
  -1  -4 -24    3.40    0.75
   2  -4 -24    4.30    0.94
   5  -4 -24    2.74    0.64
  -3  -3 -24    2.39    0.79
   0  -3 -24    6.64    0.65
   3  -3 -24    6.49    0.70
   6  -3 -24    2.85    1.08
  -2  -2 -24    4.62    0.68
   1  -2 -24    9.32    0.56
   4  -2 -24    3.77    0.60
  -4  -1 -24    3.33    0.66
  -1  -1 -24    9.49    0.51
   2  -1 -24    9.84    0.70
   5  -1 -24    2.27    0.82
  -3   0 -24    7.30    0.69
   0   0 -24   11.11    0.47
   3   0 -24    5.78    0.72
  -5   1 -24    2.76    0.87
  -2   1 -24    9.85    0.65
   1   1 -24    9.70    0.41
   4   1 -24    3.11    0.71
  -4   2 -24    4.69    0.76
  -1   2 -24    9.43    0.62
   2   2 -24    3.27    0.49
  -6   3 -24    3.50    1.10
  -3   3 -24    5.02    0.55
   0   3 -24    4.57    0.58
   3   3 -24    1.85    1.45
  -5   4 -24    3.80    0.94
  -2   4 -24    4.00    0.53
   1   4 -24    2.64    0.82
  -4   5 -24    2.67    0.86
  -1   5 -24    2.75    0.91
  -3   6 -24    2.97    1.00
   2  -5 -23   13.36    1.74
   5  -5 -23    7.10    1.53
   0  -4 -23   15.98    1.80
   3  -4 -23   23.51    1.80
   6  -4 -23    7.46    1.54
  -2  -3 -23   15.82    1.44
   1  -3 -23   44.22    1.41
   4  -3 -23   23.35    1.23
  -4  -2 -23    8.66    1.76
  -1  -2 -23   47.19    1.56
   2  -2 -23   69.74    1.72
   5  -2 -23   11.68    1.51
  -3  -1 -23   23.40    1.54
   0  -1 -23  106.72    1.62
   3  -1 -23   49.28    1.53
  -5   0 -23    7.08    1.31
  -2   0 -23   66.17    1.81
   1   0 -23  110.83    1.32
   4   0 -23   18.39    1.80
  -4   1 -23   23.57    1.38
  -1   1 -23  111.75    1.79
   2   1 -23   47.30    1.05
  -6   2 -23    5.93    1.87
  -3   2 -23   47.24    1.38
   0   2 -23   67.91    1.14
   3   2 -23   14.65    2.36
  -5   3 -23   13.76    1.55
  -2   3 -23   46.81    1.34
   1   3 -23   20.13    1.69
  -4   4 -23   17.83    1.60
  -1   4 -23   22.02    1.20
  -3   5 -23   14.13    1.54
   0   5 -23    6.54    1.24
  -2   6 -23    4.36    1.52
   0  -5 -22   -0.59    0.66
   3  -5 -22    0.03    0.52
  -2  -4 -22    0.75    1.03
   1  -4 -22    0.25    0.32
   4  -4 -22    0.54    0.60
  -1  -3 -22    0.24    0.34
   2  -3 -22    0.67    0.25
   5  -3 -22    0.09    0.40
  -3  -2 -22    0.18    0.44
   0  -2 -22    1.49    0.29
   3  -2 -22    0.88    0.33
  -2  -1 -22    0.68    0.34
   1  -1 -22    2.00    0.23
   4  -1 -22    0.66    0.49
  -4   0 -22   -0.21    0.33
  -1   0 -22    2.03    0.24
   2   0 -22    1.35    0.29
   5   0 -22    0.25    0.63
  -3   1 -22    0.76    0.32
   0   1 -22    2.31    0.28
   3   1 -22    0.91    0.43
  -5   2 -22    0.63    0.62
  -2   2 -22    0.87    0.26
   1   2 -22    0.96    0.23
  -4   3 -22    0.31    0.45
  -1   3 -22    0.81    0.30
   2   3 -22    0.32    0.55
  -6   4 -22    0.33    0.79
  -3   4 -22    0.59    0.33
   0   4 -22    0.07    0.52
  -5   5 -22    0.92    0.77
  -2   5 -22    0.75    0.43
  -4   6 -22   -0.39    0.79
   3  -6 -21    2.82    1.07
   1  -5 -21    3.07    0.99
   4  -5 -21    1.98    0.87
  -1  -4 -21    3.78    0.80
   2  -4 -21    7.31    0.72
   5  -4 -21    4.02    0.76
  -3  -3 -21    2.99    0.85
   0  -3 -21    9.28    0.75
   3  -3 -21    9.34    0.82
   6  -3 -21    2.66    0.98
  -2  -2 -21    8.20    0.92
   1  -2 -21   17.55    0.70
   4  -2 -21    6.75    0.74
  -4  -1 -21    3.73    0.72
  -1  -1 -21   16.65    0.60
   2  -1 -21   18.31    0.78
   5  -1 -21    3.74    0.97
  -3   0 -21    8.86    0.77
   0   0 -21   28.35    0.66
   3   0 -21   10.64    0.93
  -5   1 -21    3.23    0.90
  -2   1 -21   17.12    0.72
   1   1 -21   19.51    0.50
   4   1 -21    3.27    0.73
  -4   2 -21    8.16    1.02
  -1   2 -21   18.21    0.70
   2   2 -21    8.92    0.73
  -6   3 -21    4.43    1.11
  -3   3 -21   11.04    0.78
   0   3 -21    9.83    0.79
   3   3 -21    1.04    1.22
  -5   4 -21    3.98    0.94
  -2   4 -21    6.54    0.68
   1   4 -21    2.52    0.85
  -4   5 -21    4.64    1.01
  -1   5 -21    3.57    0.95
  -3   6 -21    2.36    0.93
   4  -6 -20    4.30    1.33
   2  -5 -20    6.52    1.28
   5  -5 -20    5.53    1.34
   0  -4 -20    9.44    1.42
   3  -4 -20   13.82    1.61
  -2  -3 -20    7.29    0.98
   1  -3 -20   22.31    1.01
   4  -3 -20   14.94    1.11
  -4  -2 -20    3.97    1.34
  -1  -2 -20   23.01    1.06
   2  -2 -20   33.36    1.11
   5  -2 -20    9.21    1.39
  -3  -1 -20   10.39    1.05
   0  -1 -20   48.91    0.90
   3  -1 -20   22.66    1.04
  -5   0 -20    5.39    1.19
  -2   0 -20   31.36    1.16
   1   0 -20   48.88    0.74
   4   0 -20    9.64    1.32
  -4   1 -20   10.77    0.93
  -1   1 -20   49.50    1.03
   2   1 -20   24.68    0.73
  -6   2 -20    3.16    1.08
  -3   2 -20   22.70    1.03
   0   2 -20   30.73    0.68
   3   2 -20    4.87    1.52
  -5   3 -20    4.67    0.96
  -2   3 -20   22.71    0.95
   1   3 -20   13.66    1.36
  -4   4 -20    8.03    1.13
  -1   4 -20   12.86    0.99
  -3   5 -20    6.26    1.08
   0   5 -20    3.69    0.98
  -2   6 -20    4.50    1.19
   0  -5 -19    0.79    0.75
   3  -5 -19    0.24    0.55
  -2  -4 -19    0.42    0.89
   1  -4 -19    0.39    0.35
   4  -4 -19    1.41    0.68
  -1  -3 -19    0.83    0.41
   2  -3 -19    0.57    0.26
   5  -3 -19    0.16    0.39
  -3  -2 -19    0.48    0.44
   0  -2 -19    0.74    0.23
   3  -2 -19    0.11    0.25
  -2  -1 -19    0.98    0.35
   1  -1 -19    1.11    0.17
   4  -1 -19    0.67    0.48
  -4   0 -19    0.37    0.41
  -1   0 -19    1.06    0.26
   2   0 -19    0.31    0.20
   5   0 -19    0.31    0.68
  -3   1 -19    1.28    0.35
   0   1 -19    0.84    0.15
   3   1 -19    0.37    0.37
  -5   2 -19    0.05    0.54
  -2   2 -19    0.81    0.26
   1   2 -19    0.57    0.19
  -4   3 -19    0.58    0.48
  -1   3 -19    0.37    0.27
   2   3 -19    1.04    0.66
  -6   4 -19   -0.80    0.72
  -3   4 -19    0.12    0.30
   0   4 -19    0.40    0.50
  -5   5 -19    0.57    0.71
  -2   5 -19    0.19    0.38
  -4   6 -19    0.15    0.80
   3  -6 -18   -0.05    0.76
   1  -5 -18   -0.29    0.58
   4  -5 -18    1.61    0.78
  -1  -4 -18    0.45    0.50
   2  -4 -18    0.27    0.29
   5  -4 -18    0.19    0.63
  -3  -3 -18    0.17    0.57
   0  -3 -18    0.38    0.28
   3  -3 -18    1.24    0.38
   6  -3 -18    0.28    0.71
  -2  -2 -18    0.58    0.37
   1  -2 -18    2.07    0.29
   4  -2 -18    1.03    0.38
  -4  -1 -18    0.45    0.45
  -1  -1 -18    1.31    0.31
   2  -1 -18    2.49    0.35
   5  -1 -18    1.00    0.66
  -3   0 -18    0.69    0.33
   0   0 -18    3.02    0.26
   3   0 -18    1.43    0.40
  -5   1 -18    0.44    0.62
  -2   1 -18    2.08    0.33
   1   1 -18    2.65    0.22
   4   1 -18    1.53    0.57
  -4   2 -18    0.63    0.47
  -1   2 -18    1.95    0.31
   2   2 -18    1.02    0.34
  -6   3 -18   -0.42    0.72
  -3   3 -18    0.86    0.30
   0   3 -18    1.13    0.38
   3   3 -18    0.47    1.08
  -5   4 -18    0.87    0.66
  -2   4 -18    0.80    0.34
   1   4 -18    1.14    0.69
  -4   5 -18    0.44    0.68
  -1   5 -18    0.02    0.60
  -3   6 -18   -0.20    0.75
   4  -6 -17   43.15    3.13
   2  -5 -17   78.59    3.68
   5  -5 -17   53.89    3.28
   0  -4 -17   95.72    3.93
   3  -4 -17  121.41    4.45
  -2  -3 -17   81.06    2.81
   1  -3 -17  230.51    4.04
   4  -3 -17  124.50    2.99
  -4  -2 -17   47.70    2.39
  -1  -2 -17  220.96    4.20
   2  -2 -17  315.54    5.01
   5  -2 -17   77.47    3.49
  -3  -1 -17  125.57    3.23
   0  -1 -17  485.96    6.93
   3  -1 -17  223.03    4.05
  -5   0 -17   47.65    2.82
  -2   0 -17  310.93    5.20
   1   0 -17  487.34    4.43
   4   0 -17   95.29    3.59
  -4   1 -17  127.97    2.86
  -1   1 -17  483.14    5.82
   2   1 -17  230.72    3.54
  -6   2 -17   43.86    3.06
  -3   2 -17  220.41    3.57
   0   2 -17  309.16    3.54
   3   2 -17   84.81    2.63
  -5   3 -17   76.22    3.06
  -2   3 -17  221.02    3.55
   1   3 -17  123.78    3.71
  -4   4 -17   99.06    3.28
  -1   4 -17  121.48    2.77
   2   4 -17   41.82    2.91
  -3   5 -17   77.76    3.04
   0   5 -17   54.88    2.81
  -2   6 -17   41.95    2.66
   0  -5 -16    0.51    0.78
   3  -5 -16    0.97    0.70
  -2  -4 -16    0.06    0.63
   1  -4 -16    0.50    0.36
   4  -4 -16    0.25    0.50
  -1  -3 -16    0.17    0.51
   2  -3 -16    0.89    0.26
   5  -3 -16    0.27    0.39
  -3  -2 -16    0.72    0.50
   0  -2 -16    0.86    0.24
   3  -2 -16    0.71    0.27
   6  -2 -16   -0.39    0.56
  -2  -1 -16    0.74    0.32
   1  -1 -16    0.14    0.12
   4  -1 -16    0.27    0.44
  -4   0 -16    0.97    0.44
  -1   0 -16    0.45    0.22
   2   0 -16    0.29    0.19
   5   0 -16    0.28    0.67
  -3   1 -16    0.64    0.31
   0   1 -16    0.44    0.12
   3   1 -16    0.07    0.33
  -5   2 -16    0.77    0.64
  -2   2 -16    0.61    0.22
   1   2 -16    0.77    0.23
   4   2 -16    0.07    1.18
  -4   3 -16    1.76    0.62
  -1   3 -16    0.33    0.25
   2   3 -16    0.29    0.56
  -6   4 -16    0.34    0.84
  -3   4 -16    0.24    0.44
   0   4 -16    0.57    0.55
  -5   5 -16    0.96    0.76
  -2   5 -16    0.31    0.40
  -4   6 -16    0.03    0.77
   3  -6 -15   -0.58    0.67
   1  -5 -15    0.45    0.60
   4  -5 -15    0.21    0.61
  -1  -4 -15    0.19    0.48
   2  -4 -15    0.23    0.29
   5  -4 -15   -0.18    0.54
  -3  -3 -15    0.12    0.59
   0  -3 -15    0.62    0.32
   3  -3 -15    0.32    0.29
   6  -3 -15   -0.14    0.68
  -2  -2 -15    0.91    0.42
   1  -2 -15    0.42    0.19
   4  -2 -15    0.00    0.27
  -4  -1 -15    0.45    0.48
  -1  -1 -15    0.78    0.26
   2  -1 -15    0.37    0.21
   5  -1 -15    0.10    0.57
  -3   0 -15    0.15    0.29
   0   0 -15    1.29    0.18
   3   0 -15    0.18    0.30
  -5   1 -15    0.20    0.64
  -2   1 -15    0.89    0.26
   1   1 -15    0.54    0.15
   4   1 -15    0.13    0.46
  -4   2 -15    0.68    0.47
  -1   2 -15    0.16    0.17
   2   2 -15    0.04    0.25
  -6   3 -15   -0.05    0.74
  -3   3 -15    0.45    0.28
   0   3 -15    0.39    0.28
   3   3 -15    0.04    1.06
  -5   4 -15    1.02    0.69
  -2   4 -15    0.30    0.31
   1   4 -15    0.27    0.59
  -4   5 -15    0.56    0.63
  -1   5 -15    0.48    0.64
  -3   6 -15    0.31    0.71
   4  -6 -14   29.81    3.02
   2  -5 -14   58.82    3.10
   5  -5 -14   39.15    2.84
   0  -4 -14   75.92    3.41
   3  -4 -14   96.52    3.81
  -2  -3 -14   60.86    2.38
   1  -3 -14  167.12    3.20
   4  -3 -14   96.23    2.52
  -4  -2 -14   35.07    2.40
  -1  -2 -14  168.66    4.74
   2  -2 -14  235.16    3.95
   5  -2 -14   57.65    2.93
  -3  -1 -14   90.47    2.67
   0  -1 -14  382.56    5.45
   3  -1 -14  165.89    3.19
  -5   0 -14   42.11    2.89
  -2   0 -14  233.27    4.13
   1   0 -14  374.87    3.50
   4   0 -14   71.29    3.03
  -4   1 -14   97.64    3.14
  -1   1 -14  369.43    4.60
   2   1 -14  171.94    2.86
  -6   2 -14   34.61    2.77
  -3   2 -14  167.88    2.88
   0   2 -14  236.43    2.81
   3   2 -14   60.11    2.18
  -5   3 -14   57.78    2.63
  -2   3 -14  165.60    2.84
   1   3 -14   93.06    3.14
  -4   4 -14   77.66    2.84
  -1   4 -14   95.10    2.36
   2   4 -14   32.55    2.61
  -3   5 -14   57.90    2.58
   0   5 -14   41.91    2.59
  -2   6 -14   35.07    2.64
   0  -5 -13    0.12    0.76
   3  -5 -13   -0.10    0.52
  -2  -4 -13   -0.78    0.49
   1  -4 -13    0.30    0.35
   4  -4 -13    0.05    0.51
  -1  -3 -13    0.67    0.56
   2  -3 -13    0.63    0.25
   5  -3 -13    0.05    0.37
  -3  -2 -13    0.27    0.44
   0  -2 -13    1.25    0.29
   3  -2 -13    0.81    0.31
   6  -2 -13   -0.25    0.69
  -2  -1 -13    0.32    0.30
   1  -1 -13    3.54    0.33
   4  -1 -13    0.15    0.44
  -4   0 -13   -0.07    0.34
  -1   0 -13    3.65    0.37
   2   0 -13    1.46    0.26
   5   0 -13    0.07    0.56
  -3   1 -13    1.00    0.33
   0   1 -13    3.86    0.21
   3   1 -13    0.76    0.39
  -5   2 -13    0.02    0.55
  -2   2 -13    1.70    0.29
   1   2 -13    1.07    0.27
   4   2 -13    0.54    1.34
  -4   3 -13    0.10    0.43
  -1   3 -13    0.19    0.26
   2   3 -13    0.30    0.54
  -6   4 -13    0.36    0.80
  -3   4 -13    0.19    0.43
   0   4 -13    0.05    0.49
  -5   5 -13   -0.20    0.60
  -2   5 -13   -0.32    0.45
  -4   6 -13   -1.00    1.11
   3  -6 -12   -0.04    0.69
   1  -5 -12    1.50    0.83
   4  -5 -12    0.27    0.68
  -1  -4 -12    0.37    0.48
   2  -4 -12    0.17    0.30
   5  -4 -12    0.28    0.63
  -3  -3 -12    1.26    0.69
   0  -3 -12    0.51    0.30
   3  -3 -12    0.98    0.32
   6  -3 -12    1.37    0.81
  -2  -2 -12    1.18    0.44
   1  -2 -12    1.37    0.25
   4  -2 -12    0.71    0.34
  -4  -1 -12    0.03    0.43
  -1  -1 -12    1.23    0.29
   2  -1 -12    0.85    0.24
   5  -1 -12    0.45    0.58
  -3   0 -12    0.59    0.31
   0   0 -12    1.91    0.17
   3   0 -12    0.14    0.29
  -5   1 -12    0.74    0.68
  -2   1 -12    1.70    0.30
   1   1 -12    0.69    0.17
   4   1 -12    0.07    0.41
  -4   2 -12    0.64    0.46
  -1   2 -12    1.37    0.26
   2   2 -12    0.75    0.31
  -6   3 -12    0.94    0.84
  -3   3 -12    0.72    0.27
   0   3 -12    0.64    0.31
   3   3 -12    0.35    1.17
  -5   4 -12    1.41    0.74
  -2   4 -12    0.20    0.30
   1   4 -12    0.35    0.58
  -4   5 -12    0.43    0.61
  -1   5 -12    0.63    0.69
  -3   6 -12    0.93    0.80
   4  -6 -11    0.85    0.91
   2  -5 -11    3.93    1.02
   5  -5 -11    0.60    0.78
   0  -4 -11    2.18    0.79
   3  -4 -11    5.28    1.05
  -2  -3 -11    2.00    0.63
   1  -3 -11    6.98    0.65
   4  -3 -11    4.75    0.64
  -4  -2 -11    2.33    0.81
  -1  -2 -11    5.07    0.86
   2  -2 -11   12.17    0.67
   5  -2 -11    2.82    0.87
  -3  -1 -11    4.77    0.75
   0  -1 -11   19.71    0.60
   3  -1 -11    9.55    0.71
  -5   0 -11    1.62    0.89
  -2   0 -11   10.46    0.67
   1   0 -11   20.46    0.42
   4   0 -11    2.71    0.79
  -4   1 -11    5.43    0.92
  -1   1 -11   20.97    0.58
   2   1 -11    9.04    0.66
  -6   2 -11    2.06    1.03
  -3   2 -11    9.67    0.68
   0   2 -11   10.64    0.42
   3   2 -11    3.57    0.65
  -5   3 -11    3.92    0.91
  -2   3 -11   10.10    0.68
   1   3 -11    5.08    0.88
  -4   4 -11    5.24    0.90
  -1   4 -11    6.16    0.69
   2   4 -11    1.84    0.89
  -3   5 -11    4.99    0.96
   0   5 -11    2.86    0.91
  -2   6 -11    2.73    0.97
   0  -5 -10    7.26    1.48
   3  -5 -10   11.08    1.59
  -2  -4 -10    5.14    1.03
   1  -4 -10   12.48    0.98
   4  -4 -10   11.43    1.53
  -1  -3 -10   13.63    1.59
   2  -3 -10   26.26    0.94
   5  -3 -10    9.77    1.00
  -3  -2 -10    8.03    1.05
   0  -2 -10   37.42    1.09
   3  -2 -10   26.26    1.03
   6  -2 -10    4.79    1.26
  -2  -1 -10   26.73    1.15
   1  -1 -10   62.39    1.25
   4  -1 -10   13.31    1.41
  -4   0 -10    9.95    0.95
  -1   0 -10   64.28    1.33
   2   0 -10   40.36    0.99
   5   0 -10    7.96    1.35
  -3   1 -10   23.74    0.97
   0   1 -10   61.65    0.87
   3   1 -10   13.82    1.14
  -5   2 -10    8.30    1.22
  -2   2 -10   36.64    0.98
   1   2 -10   27.90    0.90
   4   2 -10    5.73    1.93
  -4   3 -10   12.26    1.30
  -1   3 -10   24.63    0.99
   2   3 -10   10.02    1.34
  -6   4 -10    3.51    1.13
  -3   4 -10   15.03    1.40
   0   4 -10    8.20    1.13
  -5   5 -10    6.37    1.15
  -2   5 -10    8.41    1.18
  -4   6 -10    6.03    1.96
   3  -6  -9    0.03    0.74
   1  -5  -9    0.37    0.64
   4  -5  -9   -0.16    0.62
  -1  -4  -9    1.15    0.75
   2  -4  -9    0.48    0.31
   5  -4  -9   -0.49    0.64
  -3  -3  -9    0.72    0.63
   0  -3  -9    0.22    0.29
   3  -3  -9    0.32    0.29
   6  -3  -9   -0.03    0.66
  -2  -2  -9    0.80    0.41
   1  -2  -9    0.10    0.17
   4  -2  -9    0.06    0.28
  -4  -1  -9    0.56    0.46
  -1  -1  -9    0.16    0.20
   2  -1  -9    0.15    0.17
   5  -1  -9    0.13    0.50
  -3   0  -9   -0.01    0.28
   0   0  -9   -0.02    0.12
   3   0  -9    0.41    0.29
  -5   1  -9   -0.44    0.53
  -2   1  -9   -0.12    0.18
   1   1  -9    0.22    0.15
   4   1  -9    0.56    0.51
  -4   2  -9    0.31    0.43
  -1   2  -9   -0.05    0.15
   2   2  -9    0.17    0.23
  -6   3  -9   -0.18    0.77
  -3   3  -9    0.02    0.24
   0   3  -9   -0.28    0.32
   3   3  -9    0.13    1.09
  -5   4  -9   -0.11    0.59
  -2   4  -9    0.21    0.30
   1   4  -9    0.28    0.60
  -4   5  -9    0.34    0.57
  -1   5  -9    0.50    0.59
  -3   6  -9    0.40    0.77
   4  -6  -8    0.84    0.90
   2  -5  -8    0.77    0.68
   5  -5  -8    0.27    0.71
   0  -4  -8    1.22    0.69
   3  -4  -8    0.29    0.48
  -2  -3  -8    0.09    0.44
   1  -3  -8    0.93    0.30
   4  -3  -8    0.43    0.33
  -4  -2  -8    0.43    0.66
  -1  -2  -8    1.41    0.54
   2  -2  -8    0.68    0.24
   5  -2  -8   -0.19    0.47
  -3  -1  -8    0.51    0.38
   0  -1  -8    0.88    0.19
   3  -1  -8    0.47    0.25
  -5   0  -8   -0.07    0.66
  -2   0  -8    0.61    0.25
   1   0  -8    0.69    0.17
   4   0  -8    0.06    0.42
  -4   1  -8    0.86    0.56
  -1   1  -8    1.63    0.21
   2   1  -8    0.45    0.29
  -6   2  -8    2.00    1.02
  -3   2  -8    0.99    0.29
   0   2  -8    0.56    0.13
   3   2  -8    0.57    0.44
  -5   3  -8   -0.06    0.49
  -2   3  -8    1.17    0.29
   1   3  -8    0.33    0.49
  -4   4  -8    1.02    0.54
  -1   4  -8    0.65    0.50
   2   4  -8    1.29    1.36
  -3   5  -8    0.99    0.60
   0   5  -8    0.42    0.67
  -2   6  -8    1.14    0.83
   0  -5  -7    8.45    1.58
   3  -5  -7   12.96    1.72
  -2  -4  -7    7.05    1.15
   1  -4  -7   18.82    1.11
   4  -4  -7   14.34    1.72
  -1  -3  -7   20.65    1.95
   2  -3  -7   31.47    1.05
   5  -3  -7   11.04    1.06
  -3  -2  -7   12.84    1.27
   0  -2  -7   45.48    1.19
   3  -2  -7   30.22    1.11
   6  -2  -7    6.89    1.39
  -2  -1  -7   33.83    1.29
   1  -1  -7   67.53    1.31
   4  -1  -7   18.55    1.70
  -4   0  -7   17.54    1.23
  -1   0  -7   73.33    1.40
   2   0  -7   45.34    1.07
   5   0  -7    8.49    1.37
  -3   1  -7   33.32    1.11
   0   1  -7   68.76    0.93
   3   1  -7   18.83    1.18
  -5   2  -7   13.46    1.58
  -2   2  -7   46.52    1.08
   1   2  -7   32.16    1.02
   4   2  -7    6.82    2.13
  -4   3  -7   19.01    1.59
  -1   3  -7   29.56    1.07
   2   3  -7   10.67    1.41
  -6   4  -7    7.96    1.48
  -3   4  -7   17.53    1.46
   0   4  -7   16.22    1.50
  -5   5  -7    6.95    1.76
  -2   5  -7   13.55    1.48
  -4   6  -7    5.85    2.01
   3  -6  -6    3.04    1.11
   1  -5  -6    1.39    0.78
   4  -5  -6    4.13    1.11
  -1  -4  -6    0.50    0.66
   2  -4  -6    2.52    0.50
   5  -4  -6    2.94    1.02
  -3  -3  -6    0.97    0.69
   0  -3  -6    1.36    0.41
   3  -3  -6    1.54    0.42
   6  -3  -6    2.66    1.01
  -2  -2  -6    0.79    0.40
   1  -2  -6    1.92    0.52
   4  -2  -6    1.58    0.44
  -4  -1  -6    2.26    0.61
  -1  -1  -6    1.63    0.42
   2  -1  -6    2.06    0.30
   5  -1  -6    2.24    0.79
  -3   0  -6    1.67    0.40
   3   0  -6    3.19    0.56
  -5   1  -6    0.31    0.63
  -2   1  -6    1.94    0.31
   1   1  -6    2.93    0.31
   4   1  -6    1.52    0.61
  -4   2  -6    0.68    0.48
  -1   2  -6    1.69    0.27
   2   2  -6    1.38    0.37
  -6   3  -6    0.11    0.88
  -3   3  -6    2.10    0.56
   0   3  -6    1.28    0.52
   3   3  -6    0.41    1.23
  -5   4  -6    0.92    0.68
  -2   4  -6    1.08    0.37
   1   4  -6    0.76    0.61
  -4   5  -6    1.21    0.69
  -1   5  -6    0.88    0.71
  -3   6  -6    1.91    1.36
   4  -6  -5    0.54    0.81
   2  -5  -5    0.82    0.44
   5  -5  -5   -0.28    0.65
   0  -4  -5    1.82    0.77
   3  -4  -5    1.98    0.72
  -2  -3  -5    0.81    0.49
   1  -3  -5    3.06    0.44
   4  -3  -5    1.02    0.36
  -4  -2  -5    1.13    0.68
  -1  -2  -5    3.06    0.66
   2  -2  -5    5.61    0.47
   5  -2  -5    0.27    0.54
  -3  -1  -5    1.91    0.53
   0  -1  -5    7.80    0.38
   3  -1  -5    3.42    0.44
  -5   0  -5    1.95    0.86
  -2   0  -5    4.37    0.50
   1   0  -5    8.31    0.36
   4   0  -5    0.83    0.54
  -4   1  -5    2.38    0.69
  -1   1  -5    8.74    0.38
   2   1  -5    3.64    0.51
  -6   2  -5    1.33    0.93
  -3   2  -5    4.19    0.44
   0   2  -5    4.64    0.28
   3   2  -5    0.93    0.49
  -5   3  -5    0.87    0.62
  -2   3  -5    3.81    0.43
   1   3  -5    1.82    0.66
  -4   4  -5    0.80    0.50
  -1   4  -5    3.00    0.69
   2   4  -5   -0.12    1.19
  -3   5  -5    1.25    0.63
   0   5  -5   -0.26    0.62
  -2   6  -5    0.84    0.80
   0  -5  -4    0.90    0.84
   3  -5  -4   -0.21    0.53
  -2  -4  -4   -0.15    0.59
   1  -4  -4   -0.01    0.31
   4  -4  -4   -0.03    0.50
  -1  -3  -4    0.71    0.58
   2  -3  -4   -0.41    0.31
   5  -3  -4    0.01    0.36
  -3  -2  -4    0.34    0.45
   0  -2  -4    0.62    0.22
   3  -2  -4    0.22    0.22
   6  -2  -4   -0.06    0.67
  -2  -1  -4    0.44    0.31
   1  -1  -4    2.16    0.24
   4  -1  -4    0.37    0.40
  -4   0  -4    0.94    0.56
  -1   0  -4    2.21    0.27
   2   0  -4    0.92    0.22
   5   0  -4    0.84    0.61
  -3   1  -4    0.48    0.29
   0   1  -4    1.99    0.15
   3   1  -4    0.49    0.35
  -5   2  -4   -0.03    0.54
  -2   2  -4    1.69    0.26
   1   2  -4    0.42    0.21
   4   2  -4   -1.02    1.10
  -4   3  -4    0.67    0.52
  -1   3  -4    0.33    0.24
   2   3  -4   -0.07    0.54
  -6   4  -4    0.32    1.10
  -3   4  -4    0.37    0.44
   0   4  -4    0.28    0.44
  -5   5  -4   -0.57    0.84
  -2   5  -4    0.28    0.53
  -4   6  -4    0.89    1.28
   3  -6  -3    9.83    1.73
   1  -5  -3   10.52    1.61
   4  -5  -3   13.91    1.83
  -1  -4  -3   11.98    1.72
   2  -4  -3   16.22    1.64
   5  -4  -3   10.97    1.59
  -3  -3  -3    5.80    1.06
   0  -3  -3   11.59    1.15
   6  -3  -3   15.02    1.96
  -2  -2  -3    8.92    0.93
   4  -2  -3   17.71    1.34
  -4  -1  -3    6.43    0.86
  -1  -1  -3    8.45    0.84
   2  -1  -3   12.65    0.62
   5  -1  -3   10.78    1.46
  -3   0  -3    8.52    0.74
   3   0  -3   15.20    1.14
  -5   1  -3    6.64    1.21
  -2   1  -3    9.21    0.56
   1   1  -3   10.58    0.55
   4   1  -3    6.73    0.97
  -4   2  -3    7.66    1.02
  -1   2  -3   10.04    0.40
   2   2  -3   10.81    0.83
  -6   3  -3    3.09    1.10
  -3   3  -3    7.46    0.92
   0   3  -3   11.29    1.12
   3   3  -3    4.83    1.78
  -5   4  -3    4.45    1.02
  -2   4  -3    8.89    0.76
   1   4  -3    6.96    1.18
  -4   5  -3    3.87    0.94
  -1   5  -3    6.01    1.09
  -3   6  -3    3.35    1.56
   4  -6  -2   -0.05    0.76
   2  -5  -2    0.36    0.42
   5  -5  -2   -0.71    0.59
   0  -4  -2    0.06    0.52
   3  -4  -2    0.98    0.57
  -2  -3  -2    1.20    0.53
   1  -3  -2    2.58    0.41
   4  -3  -2    1.49    0.42
  -4  -2  -2    0.19    0.60
  -1  -2  -2    3.09    0.36
   2  -2  -2    4.22    0.41
   5  -2  -2   -0.13    0.46
  -3  -1  -2    1.26    0.47
   0  -1  -2    8.33    0.38
   3  -1  -2    2.29    0.37
  -5   0  -2    0.22    0.75
  -2   0  -2    4.24    0.46
   1   0  -2    8.34    0.34
   4   0  -2    0.49    0.48
  -4   1  -2    1.75    0.65
  -1   1  -2    9.16    0.35
   2   1  -2    2.15    0.42
  -6   2  -2    1.21    0.94
  -3   2  -2    2.73    0.35
   0   2  -2    4.05    0.31
   3   2  -2    0.98    0.48
  -5   3  -2    0.57    0.61
  -2   3  -2    2.20    0.27
   1   3  -2    0.88    0.50
  -4   4  -2    0.19    0.45
  -1   4  -2    1.63    0.59
   2   4  -2    0.30    1.20
  -3   5  -2    0.72    0.61
   0   5  -2    0.11    0.60
  -2   6  -2   -0.36    1.18
   0  -5  -1   -0.33    0.62
   3  -5  -1   -0.18    0.57
  -2  -4  -1   -0.16    0.54
   1  -4  -1    0.23    0.32
   4  -4  -1    0.89    0.63
  -1  -3  -1    0.11    0.43
   2  -3  -1    0.45    0.36
   5  -3  -1    0.28    0.49
  -3  -2  -1   -0.17    0.38
   0  -2  -1    1.43    0.27
   3  -2  -1    0.69    0.27
   6  -2  -1    0.23    0.73
  -2  -1  -1    0.89    0.35
   1  -1  -1    3.47    0.27
   4  -1  -1    0.41    0.45
  -4   0  -1    0.53    0.55
  -1   0  -1    4.13    0.33
   2   0  -1    1.55    0.23
   5   0  -1   -0.09    0.55
  -3   1  -1    0.89    0.31
   0   1  -1    3.63    0.21
   3   1  -1    0.01    0.33
  -5   2  -1   -0.15    0.54
  -2   2  -1    1.76    0.25
   1   2  -1    0.73    0.24
   4   2  -1    0.73    1.31
  -4   3  -1   -0.45    0.39
  -1   3  -1    0.25    0.24
   2   3  -1    0.93    0.66
  -6   4  -1    0.11    1.08
  -3   4  -1    0.06    0.39
   0   4  -1    0.11    0.48
  -5   5  -1    0.60    1.05
  -2   5  -1   -0.06    0.52
  -4   6  -1    1.49    1.41
   3  -6   0   93.42    4.63
   1  -5   0  147.20    5.35
   4  -5   0  148.50    5.60
  -1  -4   0  146.11    5.63
   2  -4   0  332.06    5.73
   5  -4   0  142.24    5.30
  -3  -3   0  103.66    3.61
   0  -3   0  454.77    7.01
   3  -3   0  449.23    6.94
   6  -3   0  103.56    4.46
  -2  -2   0  333.88    8.34
   1  -2   0  980.22   19.16
   4  -2   0  328.15    5.60
  -4  -1   0  152.48    3.57
  -1  -1   0 1000.00   18.73
   2  -1   0  950.52   13.14
   5  -1   0  144.19    5.05
  -3   0   0  426.62    6.19
   3   0   0  449.24    7.55
  -5   1   0  150.46    4.72
  -2   1   0  926.71   11.03
   1   1   0  974.18   13.18
   4   1   0  146.24    3.96
  -4   2   0  319.16    6.59
  -1   2   0  952.03    9.41
   2   2   0  335.69    6.05
  -6   3   0  102.37    4.14
  -3   3   0  432.09    7.79
   0   3   0  430.78    7.92
   3   3   0  104.38    6.15
  -5   4   0  151.07    4.48
  -2   4   0  316.65    6.42
   1   4   0  140.72    4.42
  -4   5   0  143.69    6.75
  -1   5   0  139.38    4.37
  -3   6   0   95.63    6.02
   4  -6   1    0.22    0.78
   2  -5   1   -0.44    0.34
   5  -5   1   -0.66    0.68
   0  -4   1    0.58    0.57
   3  -4   1    0.29    0.50
  -2  -3   1    0.33    0.44
   1  -3   1    1.17    0.30
   4  -3   1    0.29    0.30
  -4  -2   1    0.49    0.64
  -1  -2   1    0.42    0.23
   2  -2   1    1.56    0.28
   5  -2   1   -0.13    0.43
  -3  -1   1    0.32    0.34
   0  -1   1    3.72    0.39
   3  -1   1    0.43    0.23
  -5   0   1   -0.19    0.71
  -2   0   1    1.53    0.31
   1   0   1    3.58    0.22
   4   0   1    0.08    0.44
  -4   1   1    0.20    0.49
  -1   1   1    4.20    0.25
   2   1   1    0.82    0.31
  -6   2   1   -0.21    0.85
  -3   2   1    0.87    0.44
   0   2   1    1.45    0.22
   3   2   1   -0.21    0.39
  -5   3   1   -0.05    0.54
  -2   3   1    0.70    0.21
   1   3   1    0.30    0.46
  -4   4   1    0.57    0.50
  -1   4   1    0.33    0.42
   2   4   1   -0.09    1.19
  -3   5   1    0.45    0.58
   0   5   1    0.31    0.67
  -2   6   1    0.42    1.30
   0  -5   2   -0.38    0.65
   3  -5   2   -0.30    0.57
  -2  -4   2    1.22    0.71
   1  -4   2    0.27    0.34
   4  -4   2    1.64    0.73
  -1  -3   2    0.90    0.57
   2  -3   2    2.84    0.37
   5  -3   2    0.34    0.54
  -3  -2   2    0.76    0.49
   0  -2   2    4.42    0.42
   3  -2   2    3.36    0.42
   6  -2   2    0.39    0.74
  -2  -1   2    2.56    0.46
   1  -1   2    8.45    0.38
   4  -1   2    1.08    0.51
  -4   0   2    0.82    0.57
  -1   0   2    8.09    0.42
   2   0   2    4.06    0.50
   5   0   2    0.73    0.63
  -3   1   2    2.40    0.39
   0   1   2    8.23    0.34
   3   1   2    0.18    0.38
  -5   2   2    0.47    0.64
  -2   2   2    4.82    0.36
   1   2   2    2.75    0.38
   4   2   2   -1.10    1.07
  -4   3   2    0.57    0.49
  -1   3   2    3.52    0.59
   2   3   2   -0.11    0.91
  -6   4   2    0.85    1.20
  -3   4   2    1.46    0.55
   0   4   2    0.37    0.46
  -5   5   2    0.66    1.05
  -2   5   2    0.32    0.52
  -4   6   2    1.03    1.34
   3  -6   3    5.94    1.48
   1  -5   3    7.40    1.37
   4  -5   3    5.41    1.24
  -1  -4   3    5.98    1.30
   2  -4   3    9.60    0.86
   5  -4   3    4.45    1.07
  -3  -3   3    3.97    0.95
   0  -3   3   11.35    0.83
   3  -3   3    8.34    0.71
   6  -3   3    6.11    1.37
  -2  -2   3   11.28    1.05
   1  -2   3    7.64    0.80
   4  -2   3    8.33    0.77
  -4  -1   3    9.07    0.99
  -1  -1   3   11.50    0.47
   2  -1   3    7.67    0.54
   5  -1   3    7.51    1.30
  -3   0   3   16.87    1.01
   3   0   3    8.50    0.88
  -5   1   3   10.30    1.45
   1   1   3    9.77    0.56
   4   1   3    5.58    0.90
  -4   2   3   20.02    1.54
  -1   2   3   13.84    0.83
   2   2   3    8.57    0.91
  -6   3   3    7.90    1.46
  -3   3   3   20.05    2.17
   0   3   3   14.77    1.23
   3   3   3    3.86    1.70
  -5   4   3   11.78    1.42
  -2   4   3   14.63    1.25
   1   4   3    8.30    1.23
  -4   5   3    9.43    2.01
  -1   5   3   11.17    1.39
  -3   6   3    8.23    2.26
   4  -6   4    0.47    0.82
   2  -5   4    0.67    0.43
   5  -5   4   -0.08    0.72
   0  -4   4    0.11    0.55
   3  -4   4    0.70    0.57
  -2  -3   4    1.05    0.52
   1  -3   4    0.68    0.44
   4  -3   4    0.77    0.36
  -4  -2   4   -0.24    0.62
  -1  -2   4    0.79    0.25
   2  -2   4    0.73    0.23
   5  -2   4    0.49    0.56
  -3  -1   4    0.19    0.33
   0  -1   4    1.85    0.33
   3  -1   4    0.15    0.24
  -5   0   4   -0.11    0.75
  -2   0   4    0.74    0.27
   1   0   4    1.77    0.16
   4   0   4    0.45    0.46
  -4   1   4    0.66    0.53
  -1   1   4    2.31    0.18
   2   1   4    0.19    0.29
  -6   2   4   -0.12    0.85
  -3   2   4    0.41    0.37
   0   2   4    1.02    0.21
   3   2   4    0.72    0.47
  -5   3   4    0.47    0.60
  -2   3   4    0.62    0.20
   1   3   4   -0.08    0.38
  -4   4   4    0.15    0.46
  -1   4   4   -0.03    0.40
   2   4   4    0.50    1.26
  -3   5   4   -0.04    0.47
   0   5   4    0.19    0.63
  -2   6   4    1.76    1.45
   0  -5   5    0.30    0.81
   3  -5   5    0.18    0.59
  -2  -4   5    0.49    0.64
   1  -4   5    0.86    0.38
   4  -4   5    2.01    0.79
  -1  -3   5    2.27    0.72
   2  -3   5    4.76    0.82
   5  -3   5    1.72    0.70
  -3  -2   5    1.22    0.56
   0  -2   5    5.50    0.48
   3  -2   5    3.22    0.43
   6  -2   5    1.08    0.80
  -2  -1   5    3.77    0.54
   1  -1   5    8.56    0.37
   4  -1   5    1.75    0.59
  -4   0   5    0.56    0.54
  -1   0   5    7.52    0.39
   2   0   5    5.10    0.55
   5   0   5    0.32    0.62
  -3   1   5    2.53    0.38
   0   1   5    8.26    0.36
   3   1   5    2.42    0.52
  -5   2   5    1.48    0.71
  -2   2   5    5.38    0.36
   1   2   5    4.64    0.46
   4   2   5    0.46    1.24
  -4   3   5    2.01    0.62
  -1   3   5    4.23    0.39
   2   3   5    0.60    1.06
  -6   4   5    0.14    1.12
  -3   4   5    2.15    0.55
   0   4   5    2.02    0.69
  -5   5   5   -0.68    0.82
  -2   5   5    0.87    0.57
  -4   6   5    1.55    1.39
   3  -6   6    0.75    0.91
   1  -5   6    0.47    0.72
   4  -5   6    1.11    0.80
  -1  -4   6    1.71    0.87
   2  -4   6    1.92    0.65
   5  -4   6    0.56    0.68
  -3  -3   6    1.03    0.66
   0  -3   6    1.36    0.38
   3  -3   6    1.42    0.35
   6  -3   6    1.27    0.83
  -2  -2   6    2.23    0.56
   1  -2   6    2.33    0.48
   4  -2   6    1.00    0.37
  -4  -1   6    2.49    0.85
  -1  -1   6    2.82    0.28
   2  -1   6    1.03    0.24
   5  -1   6    1.77    0.73
  -3   0   6    2.65    0.45
   3   0   6    1.50    0.46
  -5   1   6    2.56    0.91
   1   1   6    2.26    0.30
   4   1   6    0.84    0.52
  -4   2   6    1.71    0.60
  -1   2   6    3.90    0.49
   2   2   6    1.20    0.42
  -6   3   6   -0.86    1.05
  -3   3   6    2.98    0.62
   0   3   6    3.43    0.82
   3   3   6    0.29    1.18
  -5   4   6    2.54    1.27
  -2   4   6    1.99    0.57
   1   4   6    1.82    0.71
  -4   5   6    4.21    1.56
  -1   5   6    1.80    0.74
  -3   6   6    1.31    1.38
   4  -6   7    5.87    1.47
   2  -5   7   11.59    1.08
   5  -5   7    8.91    1.66
   0  -4   7   12.22    1.62
   3  -4   7   18.10    1.79
  -2  -3   7   13.73    1.33
   1  -3   7   30.67    1.65
   4  -3   7   20.66    1.04
  -4  -2   7    8.16    1.29
  -1  -2   7   34.17    1.04
   2  -2   7   44.92    1.14
   5  -2   7   11.51    1.50
  -3  -1   7   20.52    1.24
   0  -1   7   71.27    1.86
   3  -1   7   33.40    1.07
  -5   0   7    6.68    1.34
  -2   0   7   43.35    1.24
   1   0   7   70.34    1.44
   4   0   7   14.46    1.60
  -4   1   7   17.94    1.57
  -1   1   7   68.68    1.04
   2   1   7   32.59    1.29
  -6   2   7    9.87    1.73
  -3   2   7   28.24    1.37
   0   2   7   46.20    1.05
   3   2   7   13.78    1.27
  -5   3   7   10.39    1.37
  -2   3   7   32.91    0.80
   1   3   7   17.05    1.48
  -4   4   7   15.78    1.44
  -1   4   7   17.89    1.48
   2   4   7    6.95    2.16
  -3   5   7   14.91    2.39
   0   5   7    9.28    1.34
  -2   6   7    2.42    1.65
   0  -5   8   -0.08    0.73
   3  -5   8    0.94    0.65
  -2  -4   8    0.25    0.64
   1  -4   8    0.37    0.34
   4  -4   8    0.03    0.55
  -1  -3   8    0.34    0.48
   2  -3   8    1.10    0.49
   5  -3   8    0.05    0.54
  -3  -2   8   -0.12    0.36
   0  -2   8    0.75    0.34
   3  -2   8    0.68    0.28
   6  -2   8    0.19    0.71
  -2  -1   8    0.56    0.31
   1  -1   8    0.99    0.18
   4  -1   8    0.02    0.40
  -4   0   8    0.11    0.54
  -1   0   8    1.11    0.19
   2   0   8    1.30    0.32
   5   0   8   -0.09    0.54
  -3   1   8    0.00    0.23
   0   1   8    0.84    0.18
   3   1   8    1.38    0.46
  -5   2   8    0.78    0.65
  -2   2   8    1.11    0.19
   1   2   8    0.74    0.26
   4   2   8    0.53    0.60
  -4   3   8    0.41    0.47
  -1   3   8    1.23    0.25
   2   3   8   -0.27    0.94
  -6   4   8    2.89    1.52
  -3   4   8    0.34    0.40
   0   4   8    0.95    0.55
  -5   5   8    0.31    0.96
  -2   5   8   -0.06    0.45
  -4   6   8    1.45    1.32
   3  -6   9    0.36    0.81
   1  -5   9   -0.73    0.48
   4  -5   9   -0.04    0.61
  -1  -4   9    0.02    0.61
   2  -4   9    0.49    0.44
   5  -4   9    0.77    0.69
  -3  -3   9    0.42    0.63
   0  -3   9    0.11    0.26
   3  -3   9    0.12    0.23
   6  -3   9   -0.19    0.68
  -2  -2   9   -0.12    0.31
   1  -2   9    0.01    0.25
   4  -2   9    0.03    0.26
  -4  -1   9    0.62    0.68
  -1  -1   9   -0.06    0.14
   2  -1   9    0.14    0.15
   5  -1   9   -0.14    0.47
  -3   0   9    0.23    0.28
   0   0   9    0.14    0.17
   3   0   9   -0.01    0.29
  -5   1   9    0.56    0.74
  -2   1   9    0.27    0.16
   1   1   9   -0.04    0.16
   4   1   9   -0.39    0.44
  -4   2   9    0.57    0.48
  -1   2   9    0.32    0.19
   2   2   9    0.20    0.35
  -6   3   9   -0.23    1.13
  -3   3   9    0.66    0.43
   0   3   9    0.20    0.22
   3   3   9    0.53    1.20
  -5   4   9   -0.01    0.89
  -2   4   9    0.71    0.43
   1   4   9    1.12    0.67
  -4   5   9    1.83    1.20
  -1   5   9    0.33    0.55
  -3   6   9    0.07    1.27
   4  -6  10    6.00    1.51
   2  -5  10    8.26    0.96
   5  -5  10    4.19    1.21
   0  -4  10    9.26    1.38
   3  -4  10   13.29    1.60
  -2  -3  10    9.10    1.14
   1  -3  10   25.15    1.51
   4  -3  10   13.40    0.98
  -4  -2  10    3.82    1.44
  -1  -2  10   26.18    0.92
   2  -2  10   36.63    1.02
   5  -2  10    6.77    1.17
  -3  -1  10   13.48    1.12
   0  -1  10   64.69    1.78
   3  -1  10   24.98    0.92
  -5   0  10    7.25    1.34
  -2   0  10   39.99    1.16
   1   0  10   60.82    0.96
   4   0  10   10.09    1.35
  -4   1  10   15.69    1.47
  -1   1  10   61.53    1.32
   2   1  10   24.67    1.18
  -6   2  10    5.51    1.34
  -3   2  10   27.05    1.33
   0   2  10   37.79    0.96
   3   2  10    9.81    1.08
  -5   3  10   12.86    1.52
  -2   3  10   26.94    0.91
   1   3  10   16.14    1.45
  -4   4  10   14.01    1.36
  -1   4  10   13.32    1.28
   2   4  10    6.62    2.04
  -3   5  10    9.29    2.01
   0   5  10    5.25    1.11
  -2   6  10    4.18    1.86
   2  -6  11    3.40    1.17
   0  -5  11    4.86    1.32
  -2  -4  11    2.35    0.85
   1  -4  11    6.92    0.76
   4  -4  11    4.79    1.07
  -1  -3  11    3.97    0.94
   2  -3  11    9.50    1.12
   5  -3  11    4.31    0.97
  -3  -2  11    3.33    0.74
   0  -2  11   11.23    0.84
   3  -2  11    8.29    0.67
   6  -2  11    2.66    1.02
  -2  -1  11    8.38    0.75
   1  -1  11   20.28    0.58
   4  -1  11    5.62    0.98
  -4   0  11    3.45    0.85
  -1   0  11   20.72    0.60
   2   0  11   10.91    0.79
   5   0  11    2.01    0.79
  -3   1  11    9.57    0.66
   0   1  11   19.83    0.56
   3   1  11    4.13    0.71
  -5   2  11    2.81    0.89
  -2   2  11   13.29    0.83
   1   2  11    8.58    0.63
   4   2  11    0.83    0.72
  -4   3  11    5.30    0.86
  -1   3  11    9.04    0.60
   2   3  11    0.56    1.06
  -6   4  11    1.23    1.30
  -3   4  11    3.97    0.71
   0   4  11    3.54    0.79
  -5   5  11    1.27    1.17
  -2   5  11    2.47    0.74
  -4   6  11    1.72    1.54
   3  -6  12    0.51    0.88
   1  -5  12    0.02    0.55
   4  -5  12    0.01    0.62
  -1  -4  12    1.47    0.76
   2  -4  12    0.89    0.54
   5  -4  12    0.15    0.58
  -3  -3  12   -0.06    0.57
   0  -3  12    0.17    0.26
   3  -3  12    0.95    0.30
   6  -3  12    1.21    0.79
  -2  -2  12    0.90    0.42
   1  -2  12    1.57    0.42
   4  -2  12    1.00    0.34
  -4  -1  12    0.14    0.64
  -1  -1  12    1.15    0.24
   2  -1  12    1.61    0.25
   5  -1  12    0.24    0.48
  -3   0  12    0.32    0.27
   0   0  12    2.68    0.39
   3   0  12    1.48    0.42
  -5   1  12    0.87    0.77
  -2   1  12    0.60    0.30
   1   1  12    1.39    0.33
   4   1  12    0.46    0.47
  -4   2  12    1.05    0.53
  -1   2  12    1.18    0.26
   2   2  12    1.04    0.41
  -6   3  12   -1.01    1.01
  -3   3  12    1.37    0.43
   0   3  12    1.60    0.31
   3   3  12    0.70    1.18
  -5   4  12    0.71    0.94
  -2   4  12    0.71    0.43
   1   4  12    1.32    0.66
  -4   5  12    0.15    0.92
  -1   5  12    1.17    0.63
  -3   6  12    1.43    1.49
   4  -6  13    0.04    0.85
   2  -5  13   -0.01    0.39
   5  -5  13    0.97    0.84
   0  -4  13    0.77    0.61
   3  -4  13   -0.14    0.48
  -2  -3  13    0.29    0.47
   1  -3  13    0.67    0.45
   4  -3  13    0.30    0.30
  -4  -2  13    0.28    1.01
  -1  -2  13    0.86    0.28
   2  -2  13    1.37    0.24
   5  -2  13   -0.04    0.48
  -3  -1  13    0.60    0.42
   0  -1  13    3.67    0.46
   3  -1  13    0.65    0.24
  -5   0  13    0.69    0.79
  -2   0  13    1.67    0.32
   1   0  13    3.86    0.24
   4   0  13   -0.30    0.42
  -4   1  13    0.55    0.50
  -1   1  13    4.11    0.37
   2   1  13    0.56    0.31
  -6   2  13    1.64    1.55
  -3   2  13    0.70    0.41
   0   2  13    1.50    0.27
   3   2  13    0.08    0.40
  -5   3  13    0.34    0.80
  -2   3  13    0.97    0.29
   1   3  13    0.13    0.46
  -4   4  13    0.13    0.67
  -1   4  13    0.10    0.40
   2   4  13    0.38    1.30
  -3   5  13   -0.17    0.82
   0   5  13    0.52    0.69
  -2   6  13   -0.41    1.25
   2  -6  14   34.90    2.73
   0  -5  14   44.34    3.06
   3  -5  14   59.52    3.22
  -2  -4  14   36.65    2.29
   1  -4  14   98.20    2.60
   4  -4  14   74.34    3.43
  -1  -3  14   97.82    3.81
   2  -3  14  169.37    4.82
   5  -3  14   60.61    2.85
  -3  -2  14   58.41    2.39
   0  -2  14  243.04    5.60
   3  -2  14  162.94    3.11
   6  -2  14   37.10    2.61
  -2  -1  14  167.46    4.50
   1  -1  14  380.45    5.36
   4  -1  14   93.36    3.53
  -4   0  14   72.31    2.96
   2   0  14  239.10    4.21
   5   0  14   42.33    2.63
  -3   1  14  161.11    3.73
   0   1  14  385.21    4.58
   3   1  14  101.88    2.86
  -5   2  14   62.45    2.82
  -2   2  14  233.36    4.24
   1   2  14  167.62    2.83
   4   2  14   32.33    1.99
  -4   3  14   99.79    3.06
  -1   3  14  165.34    2.72
   2   3  14   57.09    4.18
  -6   4  14   29.93    3.79
  -3   4  14   98.00    2.86
   0   4  14   77.20    2.79
  -5   5  14   37.97    4.00
  -2   5  14   60.10    4.28
  -4   6  14   39.02    4.50
   3  -6  15    0.09    0.76
   1  -5  15    0.25    0.60
   4  -5  15    0.19    0.65
  -1  -4  15   -0.02    0.57
   2  -4  15   -0.11    0.45
   5  -4  15    0.89    0.69
  -3  -3  15    0.58    0.67
   0  -3  15    0.37    0.30
   3  -3  15    0.41    0.27
   6  -3  15    0.48    0.76
  -2  -2  15    0.33    0.44
   1  -2  15    0.73    0.33
   4  -2  15    0.40    0.29
  -4  -1  15   -0.17    0.57
  -1  -1  15    0.45    0.30
   2  -1  15    0.50    0.19
   5  -1  15    0.22    0.56
  -3   0  15    0.22    0.26
   0   0  15    0.55    0.31
   3   0  15    0.28    0.35
  -5   1  15   -0.40    0.58
  -2   1  15    0.74    0.29
   1   1  15    1.00    0.29
   4   1  15    0.63    0.50
  -4   2  15    0.39    0.44
  -1   2  15    0.60    0.23
   2   2  15    0.78    0.40
  -6   3  15    0.62    1.16
  -3   3  15   -0.12    0.32
   0   3  15    0.50    0.26
   3   3  15    0.06    1.13
  -5   4  15    0.68    0.92
  -2   4  15    0.17    0.37
   1   4  15   -0.37    0.54
  -4   5  15    0.07    0.80
  -1   5  15    0.63    0.58
  -3   6  15   -0.09    1.22
   4  -6  16    1.14    1.01
   2  -5  16    0.56    0.43
   5  -5  16    0.69    0.85
   0  -4  16    0.71    0.60
   3  -4  16    1.45    0.65
  -2  -3  16    0.30    0.59
   1  -3  16    0.10    0.36
   4  -3  16    0.80    0.33
  -4  -2  16   -0.71    0.92
  -1  -2  16    0.66    0.27
   2  -2  16    0.55    0.20
   5  -2  16    1.19    0.67
  -3  -1  16    0.40    0.40
   0  -1  16    0.75    0.33
   3  -1  16    0.50    0.22
  -5   0  16   -0.02    0.72
  -2   0  16    0.36    0.22
   1   0  16    0.28    0.14
   4   0  16    0.78    0.55
  -4   1  16    0.27    0.48
  -1   1  16    0.55    0.20
   2   1  16    0.21    0.28
  -6   2  16    0.31    1.40
  -3   2  16    0.70    0.39
   0   2  16    0.30    0.21
   3   2  16    0.40    0.44
  -5   3  16    1.00    0.94
  -2   3  16    0.90    0.28
   1   3  16    1.13    0.53
  -4   4  16    0.43    0.76
  -1   4  16    1.04    0.50
   2   4  16    0.83    1.33
  -3   5  16    0.65    0.91
   0   5  16    0.42    0.62
  -2   6  16    1.66    1.59
   2  -6  17   40.54    2.05
   0  -5  17   53.19    3.33
   3  -5  17   73.72    3.73
  -2  -4  17   45.60    2.56
   1  -4  17  127.91    3.11
   4  -4  17   93.77    3.95
  -1  -3  17  128.22    4.48
   2  -3  17  227.27    6.03
   5  -3  17   84.80    3.44
  -3  -2  17   86.87    2.94
   0  -2  17  311.87    7.06
   3  -2  17  218.94    3.92
   6  -2  17   46.15    2.95
  -2  -1  17  233.78    3.84
   1  -1  17  491.75    6.82
   4  -1  17  129.49    4.31
  -4   0  17  103.22    3.53
   2   0  17  314.12    5.22
   5   0  17   53.82    3.05
  -3   1  17  216.04    4.57
   0   1  17  479.61    5.75
   3   1  17  127.81    3.32
  -5   2  17   89.34    3.37
  -2   2  17  314.40    5.25
   1   2  17  227.53    3.54
   4   2  17   41.53    2.29
  -4   3  17  134.14    3.57
  -1   3  17  229.06    3.45
   2   3  17   82.95    5.00
  -6   4  17   52.95    4.99
  -3   4  17  125.89    5.46
   0   4  17   95.98    3.15
  -5   5  17   56.34    4.19
  -2   5  17   88.63    5.14
  -4   6  17   46.08    4.82
   3  -6  18    0.15    0.75
   1  -5  18    0.59    0.48
   4  -5  18    0.93    0.78
  -1  -4  18   -0.12    0.59
   2  -4  18    1.16    0.62
   5  -4  18    1.18    0.82
  -3  -3  18    0.33    0.65
   0  -3  18    1.44    0.54
   3  -3  18    1.62    0.34
   6  -3  18    0.34    0.73
  -2  -2  18    0.63    0.51
   1  -2  18    1.78    0.49
   4  -2  18    0.30    0.28
  -4  -1  18    0.15    0.61
  -1  -1  18    2.87    0.49
   2  -1  18    1.98    0.29
   5  -1  18    0.08    0.51
  -3   0  18    1.31    0.34
   0   0  18    2.71    0.52
   3   0  18    0.70    0.36
  -5   1  18    1.64    0.81
  -2   1  18    2.52    0.41
   1   1  18    1.26    0.34
   4   1  18    0.20    0.50
  -4   2  18    1.34    0.58
  -1   2  18    1.37    0.26
   2   2  18    0.39    0.38
  -6   3  18    0.22    1.25
  -3   3  18    0.94    0.42
   0   3  18    1.04    0.32
   3   3  18   -0.41    1.05
  -5   4  18    0.30    0.95
  -2   4  18    1.15    0.48
   1   4  18   -0.04    0.55
  -4   5  18    0.75    1.17
  -1   5  18   -0.26    1.00
  -3   6  18   -0.30    1.13
   2  -5  19    0.11    0.41
   5  -5  19    0.11    0.79
   0  -4  19   -0.33    0.44
   3  -4  19    0.11    0.45
  -2  -3  19    0.23    0.58
   1  -3  19    0.45    0.40
   4  -3  19    0.85    0.36
  -4  -2  19   -0.15    1.01
  -1  -2  19    0.71    0.29
   2  -2  19    0.34    0.20
   5  -2  19    0.27    0.51
  -3  -1  19   -0.09    0.36
   0  -1  19    0.56    0.19
   3  -1  19    0.36    0.22
  -5   0  19    0.29    0.80
  -2   0  19    0.62    0.24
   1   0  19    1.24    0.19
   4   0  19    0.98    0.56
  -4   1  19   -0.12    0.44
  -1   1  19    0.93    0.19
   2   1  19    0.07    0.28
  -3   2  19    0.75    0.39
   0   2  19    0.72    0.24
   3   2  19    0.14    0.39
  -5   3  19   -0.06    0.80
  -2   3  19    0.33    0.25
   1   3  19    0.62    0.31
  -4   4  19    0.89    0.98
  -1   4  19    0.72    0.48
   2   4  19    0.55    1.35
  -3   5  19    1.24    1.04
   0   5  19   -0.16    1.09
  -2   6  19    0.67    1.31
   2  -6  20    3.25    0.83
   0  -5  20    5.78    1.42
   3  -5  20    5.08    1.16
  -2  -4  20    3.44    1.26
   1  -4  20   13.19    1.53
   4  -4  20    8.94    1.38
  -1  -3  20   13.17    1.56
   2  -3  20   21.29    1.50
   5  -3  20    6.52    1.18
  -3  -2  20   10.19    1.17
   0  -2  20   31.18    1.48
   3  -2  20   20.19    0.91
   6  -2  20    3.87    1.19
  -2  -1  20   25.06    0.82
   1  -1  20   49.67    1.11
   4  -1  20   11.50    1.36
  -4   0  20   12.80    1.48
   2   0  20   27.40    1.11
   5   0  20    3.78    1.06
  -3   1  20   24.21    1.34
   0   1  20   50.08    1.00
   3   1  20   12.51    1.18
  -5   2  20   11.58    1.46
  -2   2  20   35.03    1.14
   1   2  20   19.94    0.88
   4   2  20    2.23    0.82
  -4   3  20   16.90    2.15
  -1   3  20   24.03    0.90
   2   3  20    8.61    1.97
  -3   4  20   16.31    2.19
   0   4  20   10.14    1.16
  -5   5  20    5.81    1.72
  -2   5  20   10.51    2.08
   3  -6  21    3.29    1.23
   1  -5  21    1.98    0.60
   4  -5  21    4.20    1.19
  -1  -4  21    3.18    1.04
   2  -4  21    8.10    1.26
   5  -4  21    3.77    1.09
  -3  -3  21    3.01    0.90
   0  -3  21   10.62    1.20
   3  -3  21   10.21    0.67
   6  -3  21    2.07    0.94
  -2  -2  21    6.66    1.06
   1  -2  21   18.58    1.15
   4  -2  21    7.05    0.72
  -4  -1  21    4.00    1.05
   2  -1  21   16.90    0.68
   5  -1  21    4.73    1.06
  -3   0  21   11.29    0.79
   0   0  21   26.66    1.30
   3   0  21   10.99    0.97
  -5   1  21    4.95    1.08
  -2   1  21   17.31    0.81
   1   1  21   18.77    0.92
   4   1  21    2.58    0.74
  -4   2  21   10.02    1.13
  -1   2  21   18.57    0.65
   2   2  21    8.06    0.89
  -6   3  21    4.13    1.62
  -3   3  21    9.66    0.92
   0   3  21   10.62    0.73
   3   3  21    2.53    1.37
  -5   4  21    5.24    1.69
  -2   4  21    9.60    0.99
   1   4  21    4.34    0.95
  -4   5  21    5.69    1.74
  -1   5  21    4.25    1.61
  -3   6  21    2.86    1.71
   2  -5  22    0.67    0.45
   5  -5  22    0.04    0.75
   0  -4  22    0.58    0.60
   3  -4  22    0.11    0.50
  -2  -3  22    0.61    0.64
   1  -3  22    0.74    0.47
   4  -3  22    0.29    0.30
  -4  -2  22    1.48    1.25
  -1  -2  22    1.18    0.32
   2  -2  22    1.25    0.26
   5  -2  22    0.74    0.64
  -3  -1  22    0.72    0.43
   0  -1  22    1.70    0.26
   3  -1  22    1.17    0.27
  -5   0  22    0.22    0.75
  -2   0  22    1.67    0.31
   1   0  22    1.58    0.28
   4   0  22    0.38    0.49
  -4   1  22    0.30    0.49
  -1   1  22    2.30    0.49
   2   1  22    0.32    0.32
  -3   2  22    0.41    0.38
   0   2  22    1.12    0.27
   3   2  22   -0.30    0.38
  -5   3  22    0.08    0.78
  -2   3  22    0.89    0.28
   1   3  22    0.43    0.30
  -4   4  22    2.13    0.99
  -1   4  22    0.43    0.42
   2   4  22    0.47    1.29
  -3   5  22    0.93    0.98
   0   5  22    0.64    1.27
  -2   6  22    0.37    1.33
   2  -6  23    6.87    1.06
   0  -5  23    4.54    1.26
   3  -5  23   14.68    1.84
   1  -4  23   23.09    1.73
   4  -4  23   19.00    1.99
  -1  -3  23   23.20    1.76
   2  -3  23   42.46    2.13
   5  -3  23   13.69    1.61
  -3  -2  23   13.80    1.37
   0  -2  23   71.01    2.42
   3  -2  23   45.80    1.39
   6  -2  23    6.08    1.39
  -2  -1  23   46.87    2.00
   1  -1  23  113.19    2.01
   4  -1  23   26.83    1.78
  -4   0  23   18.16    1.74
   2   0  23   68.80    1.23
   5   0  23    8.40    1.49
  -3   1  23   48.51    1.79
   0   1  23  111.26    2.28
   3   1  23   23.86    1.40
  -5   2  23   15.05    2.48
  -2   2  23   68.81    1.71
   1   2  23   45.58    1.63
   4   2  23    7.13    1.14
  -4   3  23   25.31    2.67
  -1   3  23   46.40    1.27
   2   3  23   12.44    2.31
  -3   4  23   23.49    2.66
   0   4  23   15.92    1.43
  -5   5  23    7.88    1.94
  -2   5  23   18.48    2.75
   3  -6  24    3.45    1.25
   1  -5  24    3.59    0.69
   4  -5  24    5.13    1.23
  -1  -4  24    4.27    1.19
   2  -4  24    5.27    1.03
   5  -4  24    3.89    1.12
  -3  -3  24    3.65    0.95
   0  -3  24    5.41    0.86
   3  -3  24    5.65    0.97
   6  -3  24    3.31    1.10
  -2  -2  24    4.03    0.90
   1  -2  24    6.79    0.85
   4  -2  24    5.07    0.96
  -4  -1  24    4.91    1.11
   2  -1  24    9.14    0.55
   5  -1  24    3.94    0.98
  -3   0  24    4.70    0.53
   0   0  24   10.42    1.02
   3   0  24    4.90    0.85
  -5   1  24    2.19    0.87
  -2   1  24   10.39    0.74
   1   1  24    9.92    0.78
   4   1  24    3.45    0.80
  -4   2  24    4.37    0.80
  -1   2  24    9.45    0.51
   2   2  24    5.64    0.77
  -6   3  24    2.85    1.51
  -3   3  24    6.48    0.72
   0   3  24    5.34    0.55
   3   3  24    2.60    1.49
  -5   4  24    5.23    1.58
  -2   4  24    6.27    1.47
   1   4  24    4.49    1.59
  -4   5  24    4.22    1.55
  -1   5  24    6.00    1.84
  -3   6  24    3.14    1.73
   2  -5  25    3.98    1.08
   5  -5  25    2.16    1.07
   0  -4  25    3.58    0.98
   3  -4  25    4.89    1.03
  -2  -3  25    3.97    1.07
   1  -3  25    9.73    1.17
   4  -3  25    4.62    0.63
  -1  -2  25   11.16    1.10
   2  -2  25   13.53    0.63
   5  -2  25    3.45    0.89
  -3  -1  25    7.82    0.90
   0  -1  25   20.83    0.74
   3  -1  25    9.08    0.66
  -5   0  25    1.34    0.88
  -2   0  25   14.95    0.73
   1   0  25   21.30    0.76
   4   0  25    4.06    0.92
  -4   1  25    5.91    0.98
  -1   1  25   20.62    0.78
   2   1  25    8.51    0.83
  -3   2  25   12.01    1.00
   0   2  25   14.13    0.65
   3   2  25    2.77    0.70
  -5   3  25    6.20    1.64
  -2   3  25   11.05    0.66
   1   3  25    5.67    0.76
  -4   4  25    4.36    1.38
  -1   4  25    5.42    0.82
   2   4  25    0.40    1.26
  -3   5  25    3.10    1.29
   0   5  25    4.10    1.77
   2  -6  26    1.33    0.69
   0  -5  26    0.89    0.93
   3  -5  26    4.13    1.06
   1  -4  26   10.62    1.41
   4  -4  26    8.61    1.40
  -1  -3  26    9.36    1.36
   2  -3  26   24.48    1.62
   5  -3  26    5.99    1.12
  -3  -2  26    6.55    1.01
   0  -2  26   37.86    0.99
   3  -2  26   24.77    1.02
  -2  -1  26   26.29    1.45
   1  -1  26   62.07    1.38
   4  -1  26   12.25    1.46
  -4   0  26    7.17    1.18
   2   0  26   39.05    0.86
   5   0  26    3.80    1.08
  -3   1  26   22.96    1.30
   0   1  26   62.45    1.60
   3   1  26   12.80    1.16
  -5   2  26    7.63    1.84
  -2   2  26   37.25    1.15
   1   2  26   26.55    1.25
   4   2  26    2.66    0.84
  -4   3  26   11.75    1.90
  -1   3  26   24.09    0.94
   2   3  26    4.86    1.60
  -3   4  26   12.45    1.97
   0   4  26    7.33    1.00
  -5   5  26    3.52    1.44
  -2   5  26    5.33    1.67
   3  -6  27    7.83    1.68
   1  -5  27   11.03    1.15
   4  -5  27   12.32    1.86
  -1  -4  27   13.69    1.91
   2  -4  27   23.18    1.80
   5  -4  27   11.35    1.67
  -3  -3  27    5.53    1.15
   0  -3  27   34.90    1.81
   3  -3  27   35.85    2.02
   6  -3  27    4.40    1.21
  -2  -2  27   22.99    1.69
   1  -2  27   65.73    1.31
   4  -2  27   23.53    1.64
  -4  -1  27   11.23    1.55
   2  -1  27   64.45    1.53
   5  -1  27   12.39    1.65
  -3   0  27   34.43    1.19
   0   0  27  111.88    3.24
   3   0  27   30.48    1.79
  -5   1  27   12.76    1.65
  -2   1  27   66.92    1.67
   1   1  27   64.27    1.78
   4   1  27   10.83    1.25
  -4   2  27   27.09    1.59
  -1   2  27   67.54    1.33
   2   2  27   24.35    1.37
  -6   3  27    9.25    2.23
  -3   3  27   30.69    2.30
   0   3  27   34.21    1.16
   3   3  27    9.73    2.16
  -5   4  27   12.94    2.36
  -2   4  27   22.02    2.55
   1   4  27   11.34    2.27
  -4   5  27   12.38    2.36
  -1   5  27   13.01    2.48
  -3   6  27    8.73    2.25
   2  -5  28    2.99    0.96
   5  -5  28    2.79    1.09
   0  -4  28    4.27    1.04
   3  -4  28    4.58    1.09
  -2  -3  28    4.09    1.06
   1  -3  28    6.72    0.99
   4  -3  28    5.81    0.68
  -1  -2  28    9.61    1.07
   2  -2  28   13.77    0.65
   5  -2  28    3.89    1.00
  -3  -1  28    5.70    0.80
   0  -1  28   18.44    0.76
   3  -1  28    9.59    0.69
  -5   0  28    1.99    0.97
  -2   0  28   12.66    0.63
   1   0  28   19.17    0.72
   4   0  28    2.92    0.82
  -4   1  28    4.64    0.85
  -1   1  28   19.85    0.78
   2   1  28    9.92    0.90
  -3   2  28   10.72    0.94
   0   2  28   13.51    0.68
   3   2  28    2.79    0.70
  -5   3  28    3.01    1.23
  -2   3  28    9.60    0.67
   1   3  28    5.73    0.78
  -4   4  28    4.11    0.79
  -1   4  28    8.28    1.78
   2   4  28    3.17    1.72
  -3   5  28    1.61    1.20
   0   5  28    1.98    1.36
   2  -6  29   -0.11    0.55
   0  -5  29    0.10    0.75
   3  -5  29    0.11    0.58
   1  -4  29    1.04    0.61
   4  -4  29    1.13    0.68
  -1  -3  29    0.71    0.56
   2  -3  29    0.99    0.57
   5  -3  29    0.31    0.60
  -3  -2  29   -0.09    0.50
   0  -2  29    2.76    0.35
   3  -2  29    1.53    0.36
  -2  -1  29    1.62    0.51
   1  -1  29    5.89    0.49
   4  -1  29    1.17    0.60
  -4   0  29   -0.31    0.51
   2   0  29    3.83    0.32
   5   0  29    0.79    0.76
  -3   1  29    1.34    0.46
   0   1  29    6.06    0.58
   3   1  29    0.49    0.43
  -5   2  29   -0.02    0.89
  -2   2  29    3.16    0.39
   1   2  29    2.72    0.56
   4   2  29    0.18    0.60
  -4   3  29   -0.36    0.59
  -1   3  29    1.78    0.36
   2   3  29    1.31    1.03
  -3   4  29    0.26    0.68
   0   4  29    0.50    0.48
  -5   5  29   -0.44    0.89
  -2   5  29    0.50    0.98
   3  -6  30    0.27    0.88
   1  -5  30    1.78    0.61
   4  -5  30    1.07    0.80
  -1  -4  30    0.43    0.68
   2  -4  30    3.54    0.91
   5  -4  30    2.16    0.97
  -3  -3  30    0.75    0.76
   0  -3  30    7.00    1.05
   3  -3  30    4.84    0.94
   6  -3  30    0.80    0.84
  -2  -2  30    3.60    0.87
   1  -2  30   12.68    0.55
   4  -2  30    3.35    0.78
  -4  -1  30    1.22    0.80
   2  -1  30   13.09    0.65
   5  -1  30    1.14    0.69
  -3   0  30    5.23    0.86
   0   0  30   22.05    1.34
   3   0  30    6.10    0.97
  -5   1  30    2.13    1.26
  -2   1  30   13.60    0.74
   1   1  30   12.80    0.89
   4   1  30    2.20    0.70
  -4   2  30    4.09    1.22
  -1   2  30   13.18    0.57
   2   2  30    3.14    0.66
  -6   3  30    1.56    1.37
  -3   3  30    6.57    1.35
   0   3  30    6.85    0.62
   3   3  30    1.69    1.36
  -5   4  30    1.07    1.04
  -2   4  30    2.86    1.12
   1   4  30    0.42    1.03
  -4   5  30    0.11    0.92
  -1   5  30    3.00    1.49
  -3   6  30    0.53    1.27
   2  -5  31   60.05    3.32
   5  -5  31   44.35    3.14
   0  -4  31   63.24    3.31
   3  -4  31   90.62    3.86
  -2  -3  31   56.37    3.22
   1  -3  31  142.40    4.51
   4  -3  31   93.53    2.42
  -1  -2  31  145.58    4.23
   2  -2  31  199.03    3.44
   5  -2  31   68.95    3.31
  -3  -1  31   89.02    2.72
   0  -1  31  267.39    6.01
   3  -1  31  145.82    2.85
  -5   0  31   43.29    3.06
  -2   0  31  194.17    3.96
   1   0  31  259.97    4.25
   4   0  31   72.45    3.33
  -4   1  31   88.43    3.02
  -1   1  31  265.35    4.38
   2   1  31  147.10    3.29
  -3   2  31  143.61    3.21
   0   2  31  193.75    3.02
   3   2  31   60.53    2.37
  -5   3  31   67.26    4.12
  -2   3  31  146.54    3.44
   1   3  31   90.37    2.70
  -4   4  31   76.68    2.64
  -1   4  31   90.08    4.69
   2   4  31   39.25    4.26
  -3   5  31   57.81    3.97
   0   5  31   37.70    4.24
   2  -6  32    1.50    0.70
   0  -5  32   -0.06    0.70
   3  -5  32    0.92    0.78
   1  -4  32    4.06    0.95
   4  -4  32    3.77    0.97
  -1  -3  32    3.24    0.90
   2  -3  32    3.51    0.81
   5  -3  32    1.82    0.73
  -3  -2  32    1.64    0.65
   0  -2  32    4.77    0.47
   3  -2  32    2.77    0.44
  -2  -1  32    3.38    0.67
   1  -1  32    6.69    0.55
   4  -1  32    2.12    0.72
  -4   0  32    2.78    0.81
  -1   0  32    8.43    0.90
   2   0  32    5.04    0.39
   5   0  32    1.16    0.83
  -3   1  32    3.33    0.61
   0   1  32    7.94    0.67
   3   1  32    1.12    0.49
  -5   2  32    1.37    1.14
  -2   2  32    5.44    0.40
   1   2  32    2.79    0.54
   4   2  32    0.43    0.66
  -4   3  32    3.11    1.09
  -1   3  32    3.80    0.46
   2   3  32    1.41    1.11
  -3   4  32    2.68    0.68
   0   4  32    0.16    0.82
  -5   5  32    1.27    1.09
  -2   5  32    1.04    1.08
   3  -6  33    0.07    0.87
   1  -5  33    0.79    0.52
   4  -5  33    0.21    0.67
  -1  -4  33    0.55    0.68
   2  -4  33   -0.25    0.47
   5  -4  33    0.64    0.73
  -3  -3  33    0.83    0.98
   0  -3  33    1.89    0.68
   3  -3  33    0.67    0.50
   6  -3  33    0.23    0.76
  -2  -2  33    1.09    0.58
   1  -2  33    1.88    0.28
   4  -2  33    1.09    0.60
  -4  -1  33    0.50    0.70
   2  -1  33    2.02    0.34
   5  -1  33    0.74    0.65
  -3   0  33    1.29    0.51
   0   0  33    2.29    0.65
   3   0  33    0.26    0.39
  -5   1  33   -0.07    1.03
  -2   1  33    2.20    0.37
   1   1  33    2.04    0.39
   4   1  33    0.71    0.54
  -4   2  33    1.17    0.78
  -1   2  33    1.68    0.26
   2   2  33    0.68    0.43
  -3   3  33    1.37    0.45
   0   3  33    0.75    0.32
   3   3  33   -0.62    1.10
  -5   4  33    0.31    0.95
  -2   4  33    0.87    0.82
   1   4  33    0.46    1.06
  -4   5  33   -0.03    0.91
  -1   5  33   -0.03    1.09
  -3   6  33   -0.16    1.25
   2  -5  34   65.54    3.55
   5  -5  34   49.98    3.33
   0  -4  34   83.99    2.58
   3  -4  34  112.71    4.45
  -2  -3  34   64.69    3.48
   1  -3  34  194.64    5.75
   4  -3  34  117.61    2.84
  -1  -2  34  211.68    5.49
   2  -2  34  288.52    4.63
   5  -2  34   77.51    3.52
  -3  -1  34  114.67    3.16
   0  -1  34  394.22    8.59
   3  -1  34  198.31    3.65
  -5   0  34   45.43    3.14
  -2   0  34  276.99    5.15
   1   0  34  385.94    8.73
   4   0  34   86.50    3.72
  -4   1  34  124.08    3.59
  -1   1  34  397.51    6.15
   2   1  34  197.82    4.09
  -3   2  34  201.01    6.26
   0   2  34  281.56    5.12
   3   2  34   70.42    2.55
  -5   3  34   68.41    4.18
  -2   3  34  200.48    4.30
   1   3  34  115.78    3.17
  -4   4  34   93.88    2.96
  -1   4  34  114.36    5.36
   2   4  34   34.11    3.86
  -3   5  34   76.70    4.52
   0   5  34   54.19    4.99
   2  -6  35    1.96    1.10
   0  -5  35    0.44    0.82
   3  -5  35    1.12    0.82
   1  -4  35    2.76    0.79
   4  -4  35    3.78    1.01
  -1  -3  35    1.78    0.77
   2  -3  35    5.98    0.98
   5  -3  35    1.86    0.75
  -3  -2  35    2.32    0.74
   0  -2  35    9.44    0.69
   3  -2  35    6.03    0.62
  -2  -1  35    8.28    1.01
   1  -1  35   14.67    0.74
   4  -1  35    2.36    0.78
  -4   0  35    3.24    0.86
  -1   0  35   14.88    0.98
   2   0  35   10.75    0.53
   5   0  35    1.00    0.81
  -3   1  35    6.91    0.82
   0   1  35   15.45    0.84
   3   1  35    2.59    0.60
  -5   2  35    1.22    1.08
  -2   2  35    9.71    0.83
   1   2  35    6.20    0.76
   4   2  35    0.71    1.18
  -4   3  35    3.82    1.10
  -1   3  35    6.47    0.85
   2   3  35    1.78    0.65
  -3   4  35    4.35    0.81
   0   4  35    1.60    1.04
  -5   5  35    0.63    1.06
  -2   5  35    0.44    0.98
   1  -5  36    1.19    0.61
   4  -5  36    2.10    0.97
  -1  -4  36    2.99    1.03
   2  -4  36    5.42    1.12
   5  -4  36    2.18    1.03
  -3  -3  36    2.77    1.26
   0  -3  36    8.20    1.15
   3  -3  36    7.16    1.14
   6  -3  36   -0.01    0.73
  -2  -2  36    6.64    1.11
   1  -2  36   16.11    0.70
   4  -2  36    5.28    1.00
  -4  -1  36    3.36    1.04
   2  -1  36   15.64    0.77
   5  -1  36    1.16    0.75
  -3   0  36    9.43    1.04
   0   0  36   26.10    1.52
   3   0  36    8.11    1.15
  -5   1  36    5.33    1.69
  -2   1  36   18.19    0.80
   1   1  36   17.86    0.92
   4   1  36    1.35    0.78
  -4   2  36    4.75    1.29
  -1   2  36   17.32    0.59
   2   2  36    5.62    0.80
  -3   3  36    8.66    0.95
   0   3  36    7.57    0.68
   3   3  36    1.01    1.26
  -5   4  36    4.29    1.43
  -2   4  36    7.27    1.49
   1   4  36    2.87    1.46
  -4   5  36    0.69    1.09
  -1   5  36    3.47    1.47
   2  -5  37    1.76    0.94
   5  -5  37    1.15    1.00
   0  -4  37    2.70    0.60
   3  -4  37    3.98    0.99
  -2  -3  37    2.73    1.00
   1  -3  37    8.52    1.19
   4  -3  37    5.90    1.08
  -1  -2  37   12.69    1.33
   2  -2  37   17.12    0.80
   5  -2  37    2.19    0.90
  -3  -1  37    3.79    0.71
   0  -1  37   23.55    1.36
   3  -1  37   12.15    0.74
  -5   0  37   -0.64    1.01
  -2   0  37   15.09    1.09
   1   0  37   24.03    1.43
   4   0  37    3.66    0.97
  -4   1  37    4.99    0.91
  -1   1  37   23.17    0.90
   2   1  37   12.01    1.02
  -3   2  37   11.22    1.52
   0   2  37   15.63    1.09
   3   2  37    4.34    0.82
  -5   3  37    2.24    1.09
  -2   3  37   12.66    1.13
   1   3  37    6.68    0.90
  -4   4  37    3.82    0.78
  -1   4  37    6.38    1.56
  -3   5  37    5.25    1.51
   0   5  37    1.44    1.24
   0  -5  38   -0.39    0.69
   3  -5  38    1.02    0.78
   1  -4  38    0.21    0.58
   4  -4  38    0.23    0.59
  -1  -3  38   -0.01    0.48
   2  -3  38   -0.35    0.40
   5  -3  38    0.17    0.57
  -3  -2  38    0.52    0.55
   0  -2  38   -0.19    0.26
   3  -2  38   -0.24    0.24
  -2  -1  38    0.13    0.35
   1  -1  38    0.22    0.26
   4  -1  38    0.11    0.47
  -4   0  38    0.76    0.65
  -1   0  38    0.61    0.33
   2   0  38    0.32    0.22
   5   0  38    0.86    0.79
  -3   1  38   -0.22    0.32
   0   1  38    0.43    0.29
   3   1  38    0.12    0.35
  -5   2  38    1.31    1.00
  -2   2  38    0.05    0.28
   1   2  38    0.30    0.34
  -4   3  38    0.03    0.63
  -1   3  38    0.11    0.40
   2   3  38    0.70    0.56
  -3   4  38    0.02    0.44
   0   4  38    0.50    0.93
  -5   5  38   -0.37    0.91
  -2   5  38    0.49    0.96
   1  -5  39    1.46    0.62
   4  -5  39    0.74    0.86
  -1  -4  39    1.03    0.76
   2  -4  39    2.10    0.81
   5  -4  39    0.78    0.79
  -3  -3  39   -0.49    0.89
   0  -3  39    3.45    0.82
   3  -3  39    3.01    0.80
   6  -3  39    0.67    0.93
  -2  -2  39    2.62    0.79
   1  -2  39    9.79    0.62
   4  -2  39    2.43    0.72
  -4  -1  39    0.27    0.77
   2  -1  39    9.80    0.73
   5  -1  39    0.67    0.70
  -3   0  39    3.97    0.76
   0   0  39   14.71    1.37
   3   0  39    2.06    0.66
  -5   1  39    0.74    1.13
  -2   1  39   11.47    0.68
   1   1  39   10.25    0.83
   4   1  39    0.92    0.72
  -4   2  39    4.41    1.19
  -1   2  39   10.21    0.89
   2   2  39    2.37    0.62
  -3   3  39    3.11    0.63
   0   3  39    3.97    0.66
   3   3  39    0.16    1.15
  -5   4  39    1.95    1.22
  -2   4  39    5.45    1.38
   1   4  39    0.86    1.02
  -4   5  39    1.27    1.12
  -1   5  39    0.92    1.19
   2  -5  40    0.76    0.74
   5  -5  40   -0.11    0.83
   0  -4  40    0.79    0.70
   3  -4  40    0.65    0.65
  -2  -3  40    0.42    0.65
   1  -3  40    0.51    0.47
   4  -3  40    1.25    0.65
  -1  -2  40    0.94    0.57
   2  -2  40    0.50    0.27
   5  -2  40    1.67    0.85
  -3  -1  40    0.25    0.42
   0  -1  40    0.96    0.44
   3  -1  40    0.17    0.24
  -5   0  40    0.85    1.23
  -2   0  40    0.68    0.36
   1   0  40    0.39    0.39
   4   0  40   -0.11    0.51
  -4   1  40   -0.25    0.55
  -1   1  40    0.59    0.25
   2   1  40   -0.03    0.29
  -3   2  40    0.79    0.63
   0   2  40    0.20    0.34
   3   2  40    0.09    0.49
  -5   3  40    0.52    1.00
  -2   3  40    1.14    0.47
   1   3  40    0.26    0.41
  -4   4  40    0.56    0.51
  -1   4  40   -0.18    0.77
  -3   5  40    0.08    0.83
   0   5  40   -0.14    1.17
   0  -5  41   11.13    1.86
   3  -5  41   12.40    1.91
   1  -4  41   23.31    2.19
   4  -4  41   15.40    1.93
  -1  -3  41   22.38    2.12
   2  -3  41   40.76    2.24
  -3  -2  41   14.75    1.49
   0  -2  41   48.89    1.52
   3  -2  41   38.89    1.38
   1  -1  41   70.95    1.83
   4  -1  41   23.28    2.11
  -4   0  41   19.25    1.79
  -1   0  41   69.20    1.68
   2   0  41   50.29    1.43
   5   0  41    9.11    1.60
  -3   1  41   40.88    1.60
   0   1  41   73.12    1.82
   3   1  41   24.79    1.65
  -5   2  41   16.18    2.53
  -2   2  41   49.01    1.66
   1   2  41   39.22    1.61
  -4   3  41   29.16    2.84
  -1   3  41   35.37    1.64
   2   3  41   16.19    1.45
  -3   4  41   22.05    1.73
   0   4  41   18.43    2.51
  -5   5  41   13.12    2.36
  -2   5  41   11.24    2.18
   1  -5  42    0.58    0.55
   4  -5  42    1.67    0.91
  -1  -4  42    1.24    0.88
   2  -4  42    0.95    0.64
   5  -4  42    0.94    0.85
  -3  -3  42    1.18    1.07
   0  -3  42    0.60    0.57
   3  -3  42    1.44    0.64
  -2  -2  42    1.39    0.65
   1  -2  42    1.25    0.31
   4  -2  42    1.31    0.63
  -4  -1  42    0.54    0.72
   2  -1  42    2.11    0.40
   5  -1  42    0.99    0.75
  -3   0  42    1.38    0.53
   0   0  42    1.68    0.55
   3   0  42    1.87    0.66
  -5   1  42    0.14    1.03
  -2   1  42    2.22    0.37
   1   1  42    2.05    0.46
   4   1  42    1.39    0.79
  -4   2  42    0.94    0.79
  -1   2  42    1.66    0.44
   2   2  42    1.72    0.55
  -3   3  42    0.88    0.48
   0   3  42    1.55    0.55
  -5   4  42    0.20    0.93
  -2   4  42    0.52    0.83
   1   4  42    2.08    1.29
  -4   5  42    1.25    1.24
  -1   5  42    1.99    1.41
   2  -5  43    0.83    0.83
   5  -5  43    0.11    0.82
   0  -4  43    0.03    0.64
   3  -4  43    0.28    0.64
  -2  -3  43    0.61    0.74
   1  -3  43    0.94    0.60
   4  -3  43    0.33    0.54
  -1  -2  43    1.54    0.69
   2  -2  43    1.76    0.39
   5  -2  43   -0.34    0.52
  -3  -1  43    0.27    0.80
   0  -1  43    3.56    0.70
   3  -1  43    1.50    0.37
  -5   0  43   -0.76    1.04
  -2   0  43    2.31    0.50
   1   0  43    2.63    0.68
   4   0  43    0.65    0.60
  -4   1  43    1.21    0.89
  -1   1  43    2.81    0.42
   2   1  43    0.75    0.40
  -3   2  43    3.11    0.88
   0   2  43    1.79    0.48
   3   2  43    0.47    0.46
  -5   3  43    0.52    0.90
  -2   3  43    2.26    0.59
   1   3  43    0.69    0.48
  -4   4  43    0.97    0.58
  -1   4  43    0.95    0.89
  -3   5  43    1.40    0.99
   0   5  43   -0.68    1.10
   3  -5  44    1.82    0.95
   1  -4  44    2.13    0.85
   4  -4  44    1.38    0.86
   2  -3  44    5.06    1.04
  -3  -2  44    1.79    0.73
   0  -2  44    4.60    0.95
   3  -2  44    3.76    0.55
   1  -1  44    7.15    0.68
   4  -1  44    1.38    0.67
  -4   0  44    3.12    0.88
  -1   0  44    8.09    0.63
   2   0  44    5.10    0.56
  -3   1  44    6.05    1.16
   0   1  44    7.38    0.64
   3   1  44    2.51    0.63
  -5   2  44    1.72    1.15
  -2   2  44    8.05    0.80
   1   2  44    3.98    0.67
  -4   3  44    4.89    1.25
  -1   3  44    4.79    0.73
   2   3  44    2.06    0.66
  -3   4  44    2.59    0.73
   0   4  44    2.68    1.20
  -5   5  44    2.82    1.44
  -2   5  44    1.21    1.20
   1  -5  45    9.11    1.63
   4  -5  45   12.22    1.96
  -1  -4  45   11.54    1.76
   2  -4  45   16.23    1.96
   5  -4  45   13.06    1.97
   0  -3  45   17.43    1.79
   3  -3  45   22.24    2.06
  -2  -2  45   18.03    1.84
   1  -2  45   35.04    1.20
   4  -2  45   15.49    1.73
  -4  -1  45   11.25    1.60
   2  -1  45   32.94    1.25
   5  -1  45    9.33    1.62
  -3   0  45   19.59    1.52
   0   0  45   47.14    2.26
   3   0  45   21.04    1.99
  -5   1  45    9.82    2.12
  -2   1  45   31.54    1.78
   1   1  45   35.63    1.35
   4   1  45   11.31    1.73
  -4   2  45   15.24    2.02
  -1   2  45   32.46    1.36
   2   2  45   18.67    1.41
  -3   3  45   20.91    1.47
   0   3  45   22.64    1.56
  -5   4  45   10.30    1.32
  -2   4  45   17.53    1.48
   1   4  45   16.03    2.51
  -4   5  45    7.99    1.83
  -1   5  45    7.62    1.93
   2  -5  46    0.03    0.67
   5  -5  46    0.10    0.90
   0  -4  46   -0.73    0.53
   3  -4  46    0.37    0.63
  -2  -3  46   -0.65    0.49
   1  -3  46   -0.31    0.42
   4  -3  46    0.04    0.55
  -1  -2  46    0.10    0.56
   2  -2  46    0.15    0.28
   5  -2  46   -0.31    0.55
  -3  -1  46   -0.61    0.73
   0  -1  46   -0.09    0.38
   3  -1  46   -0.42    0.30
  -5   0  46    0.18    1.20
  -2   0  46    0.36    0.35
   1   0  46    0.74    0.51
   4   0  46   -0.04    0.51
  -4   1  46   -0.21    0.68
  -1   1  46    0.13    0.26
   2   1  46   -0.24    0.30
  -3   2  46   -0.26    0.48
   0   2  46    0.46    0.37
   3   2  46    0.60    0.65
  -5   3  46    1.22    0.92
  -2   3  46   -0.19    0.38
   1   3  46   -0.18    0.40
  -4   4  46   -0.26    0.45
  -1   4  46   -0.09    0.80
  -3   5  46    0.13    0.94
   0   5  46    0.43    1.32
   3  -5  47    0.17    0.78
   1  -4  47    0.83    0.64
   4  -4  47    0.88    0.75
   2  -3  47    3.90    0.94
  -3  -2  47    0.54    0.60
   0  -2  47    2.41    0.76
   3  -2  47    2.95    0.47
   1  -1  47    5.46    0.64
   4  -1  47    0.18    0.45
  -4   0  47    1.50    1.05
  -1   0  47    5.50    0.54
   2   0  47    3.69    0.53
  -3   1  47    1.44    0.69
   0   1  47    5.60    0.58
   3   1  47    1.07    0.49
  -5   2  47    2.89    1.35
  -2   2  47    3.20    0.55
   1   2  47    1.71    0.51
  -4   3  47    2.32    0.90
  -1   3  47    2.35    0.63
   2   3  47    0.45    0.68
  -3   4  47    1.15    0.62
   0   4  47    0.39    0.84
  -5   5  47    2.20    1.30
  -2   5  47   -0.35    0.97
   1  -5  48   66.99    3.72
   4  -5  48   63.17    3.83
  -1  -4  48   66.16    3.76
   2  -4  48  122.43    4.93
   5  -4  48   73.70    3.87
   0  -3  48  159.58    5.29
   3  -3  48  168.30    5.49
  -2  -2  48  130.86    4.62
   1  -2  48  271.97    4.80
   4  -2  48  121.78    4.48
  -4  -1  48   69.85    3.19
  -1  -1  48  264.72    6.53
   2  -1  48  273.48    4.89
   5  -1  48   72.72    3.81
  -3   0  48  165.66    4.10
   0   0  48  374.27    9.13
   3   0  48  155.40    5.21
  -5   1  48   74.94    4.61
  -2   1  48  272.74    6.90
   1   1  48  278.39    4.96
   4   1  48   67.93    3.67
  -4   2  48  121.38    5.05
  -1   2  48  280.81    5.10
   2   2  48  127.87    3.40
  -3   3  48  159.01    3.85
   0   3  48  164.40    3.95
  -5   4  48   69.63    2.83
  -2   4  48  130.91    3.62
  -1   5  48   72.16    4.62
   2  -5  49    0.37    0.75
   5  -5  49    0.35    1.00
   0  -4  49    0.68    0.71
   3  -4  49    2.48    0.94
  -2  -3  49    0.80    0.76
   1  -3  49    3.27    0.90
   4  -3  49    3.31    0.93
  -1  -2  49    4.93    1.09
   2  -2  49    7.04    0.70
   5  -2  49    1.15    0.74
  -3  -1  49    2.06    1.21
   0  -1  49    9.68    1.18
   3  -1  49    3.81    0.89
  -2   0  49    4.31    0.64
   1   0  49   10.07    1.28
   4   0  49    2.06    0.80
  -4   1  49    1.78    0.93
  -1   1  49    9.69    0.72
   2   1  49    5.50    0.74
  -3   2  49    4.52    1.01
   0   2  49    6.57    0.80
   3   2  49    0.60    0.72
  -5   3  49    1.36    1.09
  -2   3  49    5.10    0.80
   1   3  49    2.49    0.67
  -4   4  49    2.82    0.78
  -1   4  49    2.38    1.13
  -3   5  49    1.94    1.16
   3  -5  50   -0.10    0.72
   1  -4  50    0.09    0.55
   4  -4  50    0.54    0.73
   2  -3  50    0.91    0.61
  -3  -2  50   -0.18    1.05
   0  -2  50    0.82    0.64
   3  -2  50    0.48    0.32
   1  -1  50    0.16    0.32
   4  -1  50   -0.18    0.42
  -4   0  50    0.43    0.87
  -1   0  50    0.39    0.25
   2   0  50    0.37    0.30
  -3   1  50    0.92    0.60
   0   1  50    0.45    0.26
   3   1  50    0.44    0.48
  -5   2  50    0.57    1.01
  -2   2  50    0.43    0.33
   1   2  50    0.37    0.39
  -4   3  50    1.26    0.82
  -1   3  50    0.73    0.50
   2   3  50    0.58    0.74
  -3   4  50    0.94    0.58
   0   4  50    0.72    0.99
  -5   5  50    0.22    1.09
  -2   5  50    0.04    1.03
   1  -5  51   16.50    2.17
   4  -5  51   11.23    1.94
  -1  -4  51   13.96    2.01
   2  -4  51   23.15    2.36
   5  -4  51   13.51    1.98
   0  -3  51   27.97    2.06
   3  -3  51   24.50    1.96
  -2  -2  51   28.10    2.00
   1  -2  51   48.58    1.59
   4  -2  51   24.09    2.16
  -4  -1  51    8.10    1.96
  -1  -1  51   46.73    2.11
   2  -1  51   50.76    1.66
   5  -1  51   13.13    1.94
  -3   0  51   30.41    1.73
   0   0  51   75.78    3.06
   3   0  51   27.65    1.99
  -5   1  51   15.09    2.48
  -2   1  51   52.69    1.67
   1   1  51   52.77    1.63
   4   1  51   15.60    2.08
  -4   2  51   26.75    2.63
  -1   2  51   52.29    1.75
   2   2  51   22.13    2.19
  -3   3  51   29.72    1.53
   0   3  51   30.64    1.68
  -5   4  51   13.38    1.50
  -2   4  51   23.82    1.73
  -4   5  51   15.89    2.53
  -1   5  51   11.15    2.27
   2  -5  52    0.78    0.88
   0  -4  52    0.24    0.66
   3  -4  52    0.63    0.67
  -2  -3  52    0.11    0.65
   1  -3  52    2.05    0.80
   4  -3  52    2.34    0.87
  -1  -2  52    1.32    0.75
   2  -2  52    3.83    0.59
   5  -2  52    0.56    0.72
  -3  -1  52    1.01    0.64
   0  -1  52    4.99    0.90
   3  -1  52    3.12    0.82
  -2   0  52    3.50    0.59
   1   0  52    5.95    1.04
   4   0  52    1.57    0.76
  -4   1  52    0.55    0.77
  -1   1  52    5.79    0.57
   2   1  52    3.39    0.94
  -3   2  52    1.97    0.75
   0   2  52    2.86    0.60
   3   2  52    0.94    0.77
  -5   3  52    0.19    0.88
  -2   3  52    3.01    0.64
   1   3  52    2.36    0.90
  -4   4  52    0.39    0.54
  -1   4  52    2.51    1.09
  -3   5  52   -0.03    0.91
   3  -5  53    1.38    1.00
   1  -4  53    2.72    0.95
   4  -4  53    2.58    1.04
   2  -3  53    3.32    0.94
  -3  -2  53    1.05    1.25
   0  -2  53    6.55    1.21
   3  -2  53    4.93    0.65
   1  -1  53    8.32    0.84
   4  -1  53    2.93    0.91
  -4   0  53    1.51    1.06
  -1   0  53    8.35    0.66
   2   0  53    6.64    0.74
  -3   1  53    5.13    1.08
   0   1  53    9.46    0.62
   3   1  53    4.18    1.10
  -5   2  53    0.80    1.05
  -2   2  53    7.99    0.82
   1   2  53    4.71    0.74
  -4   3  53    2.94    0.71
  -1   3  53    5.65    0.85
   2   3  53    2.85    1.00
  -3   4  53    4.22    0.88
  -2   5  53    2.88    1.35
   1  -5  54    0.55    0.87
   4  -5  54    1.30    1.01
  -1  -4  54    1.02    0.85
   2  -4  54    1.32    0.76
   0  -3  54    1.64    0.78
   3  -3  54    0.90    0.64
  -2  -2  54    1.52    0.74
   1  -2  54    2.06    0.48
   4  -2  54    0.24    0.60
  -4  -1  54    0.46    1.08
  -1  -1  54    1.95    0.57
   2  -1  54    2.55    0.51
   5  -1  54    2.43    1.05
  -3   0  54    2.23    0.91
   0   0  54    3.19    0.80
   3   0  54    0.85    0.61
  -5   1  54    0.02    0.98
  -2   1  54    1.84    0.45
   1   1  54    2.62    0.81
   4   1  54    0.38    0.70
  -4   2  54    0.36    0.75
  -1   2  54    1.76    0.46
   2   2  54    0.26    0.60
  -3   3  54    1.43    0.56
   0   3  54    1.72    0.57
  -5   4  54    0.16    0.59
  -2   4  54    1.41    0.64
  -4   5  54    0.86    1.11
   2  -5  55    5.30    1.38
   0  -4  55    4.47    1.13
   3  -4  55    4.29    1.16
  -2  -3  55    2.19    0.91
   1  -3  55   10.63    1.56
   4  -3  55    5.73    1.23
  -1  -2  55    7.40    1.39
   2  -2  55    9.78    0.89
   5  -2  55    6.72    1.43
  -3  -1  55    6.17    1.02
   0  -1  55   13.89    1.47
   3  -1  55    9.10    1.32
  -2   0  55   12.07    0.97
   1   0  55   11.91    1.52
   4   0  55    4.00    1.10
  -4   1  55    5.92    1.40
  -1   1  55   14.80    0.81
   2   1  55    7.63    1.35
  -3   2  55   11.16    1.06
   0   2  55   11.92    1.05
   3   2  55    4.96    1.25
  -5   3  55    4.73    1.47
  -2   3  55    8.27    0.97
   1   3  55    8.26    1.47
  -4   4  55    4.15    0.85
  -1   4  55    5.88    1.49
  -3   5  55    3.94    1.53
   3  -5  56    0.57    0.82
   1  -4  56    1.14    0.82
   4  -4  56    1.14    0.88
   2  -3  56    2.48    0.84
  -3  -2  56    1.94    1.38
   0  -2  56    3.40    0.96
   3  -2  56    2.33    0.51
   1  -1  56    4.08    0.65
   4  -1  56    0.73    0.68
  -4   0  56    2.37    1.15
  -1   0  56    3.88    0.48
   2   0  56    3.59    0.57
  -3   1  56    1.75    0.74
   0   1  56    2.75    0.84
   3   1  56    0.60    0.67
  -5   2  56   -0.52    0.90
  -2   2  56    4.03    0.63
   1   2  56    3.35    1.02
  -4   3  56    1.83    0.62
  -1   3  56    2.73    0.66
   2   3  56    1.37    0.92
  -3   4  56    0.19    0.58
   1  -5  57    0.96    0.92
   4  -5  57    0.99    1.06
  -1  -4  57    1.29    0.92
   2  -4  57    2.97    1.02
   0  -3  57    4.25    1.11
   3  -3  57    1.46    0.71
  -2  -2  57    1.02    0.66
   1  -2  57    5.34    0.69
   4  -2  57    1.45    0.72
  -4  -1  57    1.34    1.19
  -1  -1  57    6.80    1.01
   2  -1  57    6.91    0.77
   5  -1  57   -0.73    0.55
  -3   0  57    3.59    1.01
   0   0  57    9.21    1.26
   3   0  57    1.00    0.67
  -5   1  57    1.52    1.15
  -2   1  57    6.04    0.68
   1   1  57    8.10    1.32
   4   1  57   -0.11    0.69
  -4   2  57    2.08    0.91
  -1   2  57    7.11    0.79
   2   2  57    1.13    0.69
  -3   3  57    3.79    0.73
   0   3  57    4.08    1.11
  -5   4  57    0.94    0.70
  -2   4  57    2.12    0.68
  -4   5  57    0.50    1.06
   2  -5  58    2.21    1.03
   0  -4  58    3.81    1.16
   3  -4  58    3.72    1.14
  -2  -3  58    3.11    1.09
   1  -3  58    4.29    1.08
   4  -3  58    6.37    1.32
  -1  -2  58    6.74    1.40
   2  -2  58    6.48    0.78
   5  -2  58    3.06    1.12
  -3  -1  58    3.77    0.97
   0  -1  58    6.14    1.06
   3  -1  58    4.01    0.96
  -2   0  58    6.89    1.04
   1   0  58    8.51    1.30
   4   0  58    3.94    1.05
  -4   1  58    2.31    1.04
  -1   1  58    7.76    1.29
   2   1  58    6.29    1.27
  -3   2  58    6.35    0.83
   0   2  58    7.10    1.30
   3   2  58    4.31    1.19
  -5   3  58    2.47    1.18
  -2   3  58    4.73    0.77
   1   3  58    4.63    1.15
  -4   4  58    3.66    0.86
  -1   4  58    5.21    1.24
   3  -5  59    2.03    1.12
   1  -4  59    3.23    1.10
   4  -4  59    2.31    1.08
   2  -3  59    5.30    1.20
  -3  -2  59    4.03    1.65
   0  -2  59    9.25    1.54
   3  -2  59    6.09    0.78
   1  -1  59   11.41    1.04
   4  -1  59    2.50    0.94
  -4   0  59    2.24    1.15
  -1   0  59    9.74    1.31
   2   0  59    8.62    0.89
  -3   1  59    6.47    1.18
   0   1  59   12.13    1.60
   3   1  59    3.21    0.99
  -5   2  59    3.11    1.30
  -2   2  59    9.89    0.94
   1   2  59    3.82    1.08
  -4   3  59    2.34    0.72
  -1   3  59    6.36    1.29
   2   3  59    1.39    0.91
  -3   4  59    2.70    0.81
   1  -5  60    2.09    1.11
   4  -5  60    2.75    1.24
  -1  -4  60    2.02    1.01
   2  -4  60    3.93    1.16
   0  -3  60    7.34    1.46
   3  -3  60    6.21    1.24
   1  -2  60   13.67    1.78
   4  -2  60    2.35    0.83
  -4  -1  60    2.99    1.44
  -1  -1  60   14.47    1.45
   2  -1  60   15.10    1.15
   5  -1  60    2.02    1.03
  -3   0  60    6.72    1.32
   0   0  60   25.93    1.79
   3   0  60    7.34    1.36
  -5   1  60    3.33    1.47
  -2   1  60   13.95    1.02
   1   1  60   14.19    1.78
   4   1  60    3.11    1.12
  -4   2  60    5.63    1.31
  -1   2  60   15.04    1.85
   2   2  60    6.26    1.32
  -3   3  60    6.41    0.91
   0   3  60    7.68    1.45
  -5   4  60    2.75    0.86
  -2   4  60    6.07    1.40
   2  -5  61    5.44    1.47
   0  -4  61    4.13    1.22
   3  -4  61    5.97    1.42
  -2  -3  61    2.65    1.10
   1  -3  61   12.21    1.77
   4  -3  61    8.40    1.51
  -1  -2  61   15.66    2.01
   2  -2  61   20.86    1.25
   5  -2  61    5.34    1.35
  -3  -1  61    6.32    1.56
   0  -1  61   30.11    1.93
   3  -1  61   14.25    1.68
  -2   0  61   20.51    1.10
   1   0  61   30.19    2.12
   4   0  61    5.60    1.31
  -4   1  61    8.30    1.62
  -1   1  61   29.93    2.08
   2   1  61   12.03    1.76
  -3   2  61   13.73    1.18
   0   2  61   20.71    2.13
   3   2  61    5.75    1.38
  -5   3  61    6.06    1.05
  -2   3  61   12.17    1.78
   1   3  61    9.76    1.67
  -4   4  61    4.98    0.98
  -1   4  61    8.93    1.62
   3  -5  62   45.57    3.42
   1  -4  62   64.46    3.73
   4  -4  62   55.57    3.46
  -1  -3  62   62.08    3.42
   2  -3  62  112.10    4.61
  -3  -2  62   48.77    4.58
   0  -2  62  138.21    5.38
   3  -2  62  112.54    2.95
  -2  -1  62  110.61    3.99
   1  -1  62  196.20    4.31
   4  -1  62   64.69    3.49
  -4   0  62   64.00    3.87
  -1   0  62  186.39    5.73
   2   0  62  136.46    3.35
  -3   1  62  107.32    4.16
   0   1  62  194.30    6.12
   3   1  62   68.91    3.64
  -5   2  62   49.53    3.53
  -2   2  62  149.90    5.27
   1   2  62  109.89    4.61
  -4   3  62   67.16    2.58
  -1   3  62  112.17    4.65
   2   3  62   43.48    2.97
  -3   4  62   71.81    3.90
   1  -5  63    0.56    0.98
   4  -5  63   -0.30    0.96
  -1  -4  63   -0.14    0.79
   2  -4  63    1.04    0.88
   0  -3  63    1.38    0.88
   3  -3  63    1.00    0.75
   1  -2  63    2.62    0.95
   4  -2  63    0.96    0.70
  -4  -1  63    0.55    1.10
  -1  -1  63    2.30    0.72
   2  -1  63    5.25    0.74
   5  -1  63    1.11    0.90
  -3   0  63    1.21    0.76
   0   0  63    7.56    1.21
   3   0  63    1.98    0.82
  -5   1  63   -0.27    1.04
  -2   1  63    6.09    1.11
   1   1  63    3.53    1.03
  -4   2  63    1.06    0.80
  -1   2  63    4.72    1.10
   2   2  63    1.51    0.82
  -3   3  63    2.45    0.67
   0   3  63    2.58    1.01
  -5   4  63    1.66    1.07
  -2   4  63    0.15    0.75
   2  -5  64    4.46    1.40
   0  -4  64    8.48    1.67
   3  -4  64   12.10    1.97
  -2  -3  64    5.24    1.36
   1  -3  64   16.15    2.04
   4  -3  64    9.69    1.61
  -1  -2  64   16.94    2.15
   2  -2  64   20.86    1.30
   5  -2  64    2.28    1.02
  -3  -1  64    9.65    1.79
   0  -1  64   29.44    1.98
   3  -1  64   19.29    2.02
  -2   0  64   20.38    1.90
   1   0  64   29.78    2.20
   4   0  64    8.59    1.65
  -4   1  64   10.51    1.79
  -1   1  64   34.99    2.28
   2   1  64   17.85    2.13
  -3   2  64   17.25    1.33
   0   2  64   26.81    2.48
   3   2  64    9.41    1.76
  -5   3  64    3.57    0.90
  -2   3  64   17.41    2.13
   1   3  64   11.74    1.83
  -4   4  64    7.94    1.68
  -1   4  64   11.03    1.82
   3  -5  65   34.41    3.49
   1  -4  65   45.42    3.15
   4  -4  65   34.64    3.35
  -1  -3  65   45.19    2.94
   2  -3  65   60.90    3.43
   0  -2  65   81.55    4.07
   3  -2  65   69.44    2.27
  -2  -1  65   66.66    3.02
   1  -1  65  105.55    2.99
   4  -1  65   46.71    3.00
  -4   0  65   47.38    3.31
  -1   0  65  100.00    3.91
   2   0  65   87.00    2.57
  -3   1  65   66.18    2.26
   0   1  65   96.85    4.09
   3   1  65   47.26    3.04
  -5   2  65   36.14    3.53
  -2   2  65   85.39    3.91
   1   2  65   66.17    3.54
  -4   3  65   51.75    3.18
  -1   3  65   59.40    3.39
   2   3  65   33.54    3.12
  -3   4  65   47.04    3.19
   1  -5  66   -0.40    0.85
   2  -4  66    0.31    0.70
   0  -3  66    1.16    0.73
   3  -3  66   -0.27    0.62
   1  -2  66    1.79    0.88
   4  -2  66    1.04    0.73
  -1  -1  66    0.78    0.55
   2  -1  66    0.81    0.41
   0   0  66   -0.10    0.48
   3   0  66   -0.22    0.51
  -2   1  66    1.30    0.71
   1   1  66    0.36    0.57
  -4   2  66   -0.08    0.59
  -1   2  66    0.23    0.54
   2   2  66   -0.65    0.57
  -3   3  66    0.32    0.73
   0   3  66   -0.21    0.63
  -5   4  66    0.87    1.00
  -2   4  66    0.11    0.71
   2  -5  67    1.65    1.09
   0  -4  67    1.07    0.96
   3  -4  67    2.33    1.07
  -2  -3  67    0.84    0.88
   1  -3  67    3.20    1.08
   4  -3  67    0.90    0.85
  -1  -2  67    3.48    1.12
   2  -2  67    5.02    0.78
   5  -2  67    0.83    0.87
   0  -1  67    5.89    1.06
   3  -1  67    2.54    0.88
  -2   0  67    5.60    1.10
   1   0  67    6.61    1.29
   4   0  67    1.11    0.84
  -1   1  67    6.78    1.26
   2   1  67    2.63    0.94
  -3   2  67    2.78    0.95
   0   2  67    5.39    1.22
   3   2  67    1.60    1.01
  -5   3  67    0.84    0.92
  -2   3  67    2.69    0.99
   1   3  67    1.62    0.96
  -4   4  67    0.95    0.99
  -1   4  67    1.97    1.02
   3  -5  68    7.03    1.78
   1  -4  68    6.84    1.59
   4  -4  68    8.71    1.74
  -1  -3  68    8.65    1.63
   2  -3  68   13.86    2.06
   0  -2  68   19.87    2.41
   3  -2  68   16.27    1.33
  -2  -1  68   13.29    1.61
   1  -1  68   27.28    1.64
   4  -1  68    9.85    1.64
  -1   0  68   27.94    2.07
   2   0  68   20.23    1.47
  -3   1  68   15.44    1.85
   0   1  68   31.72    2.24
   3   1  68    8.66    1.65
  -2   2  68   22.04    2.39
   1   2  68   20.53    2.36
  -4   3  68    9.73    1.72
  -1   3  68   21.71    2.42
   2   3  68    5.16    1.38
  -3   4  68   10.90    1.94
   2  -4  69    1.15    0.82
   0  -3  69    1.94    1.02
   3  -3  69    5.08    1.30
   1  -2  69    4.72    1.26
   4  -2  69    1.27    0.78
  -1  -1  69    3.76    0.95
   2  -1  69    2.64    0.63
   0   0  69    6.17    1.17
   3   0  69    0.84    0.67
  -2   1  69    3.63    0.92
   1   1  69    3.44    1.04
  -4   2  69    0.28    0.68
  -1   2  69    4.33    1.09
   2   2  69    1.97    0.94
  -3   3  69    2.76    1.14
   0   3  69    2.47    1.03
  -2   4  69    3.51    1.21
   2  -5  70    0.01    0.99
   0  -4  70    1.68    0.99
   3  -4  70    1.72    1.02
  -2  -3  70    0.70    0.94
   1  -3  70    2.98    1.07
   4  -3  70    1.09    0.88
  -1  -2  70    1.09    0.90
   2  -2  70    2.96    0.65
   5  -2  70    0.01    0.83
   0  -1  70    4.67    0.99
   3  -1  70    2.06    0.85
  -2   0  70    2.61    0.80
   1   0  70    3.03    0.97
   4   0  70    1.05    0.88
  -1   1  70    2.19    0.84
   2   1  70    2.12    0.96
  -3   2  70    0.52    0.69
   0   2  70    2.54    0.90
   3   2  70    0.67    0.90
  -5   3  70   -0.97    0.70
  -2   3  70    1.31    0.89
   1   3  70    0.74    0.89
  -4   4  70    0.12    0.90
  -1   4  70   -0.07    0.86
   1  -4  71    2.42    1.11
   4  -4  71    2.19    1.17
  -1  -3  71    5.54    1.44
   2  -3  71    6.03    1.37
   0  -2  71    8.06    1.62
   3  -2  71    7.70    0.95
  -2  -1  71    5.75    1.13
   1  -1  71   11.53    1.19
   4  -1  71    3.64    1.14
  -1   0  71   10.56    1.54
   2   0  71    6.75    1.34
  -3   1  71    5.90    1.20
   0   1  71   11.25    1.63
   3   1  71    4.56    1.23
  -2   2  71    9.26    1.62
   1   2  71    7.82    1.54
  -4   3  71    4.72    1.33
  -1   3  71    6.73    1.40
   2   3  71    1.50    1.05
  -3   4  71    4.62    1.42
   2  -4  72    1.80    1.13
   0  -3  72    4.62    1.38
   3  -3  72    3.04    1.15
   1  -2  72    8.85    1.71
   4  -2  72    6.54    1.37
  -1  -1  72    6.73    1.25
   2  -1  72    5.70    0.88
  -3   0  72    7.16    1.32
   0   0  72    4.75    1.05
   3   0  72    3.93    1.16
  -2   1  72    7.18    1.35
   1   1  72    8.93    1.58
  -4   2  72    4.59    1.21
  -1   2  72    6.78    1.40
   2   2  72    4.84    1.35
  -3   3  72    5.21    1.38
   0   3  72    7.51    1.59
  -2   4  72    3.97    1.23
   0  -4  73    5.42    1.51
   3  -4  73    8.61    1.78
  -2  -3  73    3.96    1.29
   1  -3  73   13.71    2.07
   4  -3  73    5.11    1.32
  -1  -2  73   10.19    1.86
   2  -2  73   13.55    1.96
   5  -2  73    4.32    1.34
   0  -1  73   21.41    2.03
   3  -1  73   11.21    1.67
  -2   0  73   18.54    1.96
   1   0  73   20.75    2.27
   4   0  73    2.47    1.04
  -4   1  73    6.05    1.41
  -1   1  73   22.22    2.28
   2   1  73   14.17    1.98
  -3   2  73   13.52    1.84
   0   2  73   16.16    2.04
  -2   3  73   10.92    1.81
   1   3  73    7.10    1.53
  -4   4  73    4.51    1.52
  -1   4  73    7.75    1.69
   1  -4  74    0.29    0.84
   4  -4  74    0.69    0.96
  -1  -3  74    0.10    0.88
   2  -3  74    0.35    0.77
   0  -2  74    0.38    0.79
   3  -2  74    0.36    0.43
  -2  -1  74    0.49    0.61
   1  -1  74   -0.12    0.35
   4  -1  74   -0.29    0.63
  -1   0  74   -0.58    0.42
   2   0  74    0.32    0.61
  -3   1  74   -0.14    0.57
   0   1  74    0.33    0.62
   3   1  74    0.09    0.71
  -2   2  74    0.06    0.65
   1   2  74    0.13    0.72
  -4   3  74   -0.20    0.66
  -1   3  74   -0.25    0.61
   2   3  74    0.01    0.90
  -3   4  74    0.28    0.91
   2  -4  75    8.22    1.80
   0  -3  75    8.68    1.79
   3  -3  75    8.46    1.68
   1  -2  75   14.22    2.12
   4  -2  75   12.10    1.84
  -1  -1  75   13.12    1.70
   2  -1  75   17.10    1.46
  -3   0  75    8.20    1.49
   0   0  75   17.43    1.92
   3   0  75   10.98    1.79
  -2   1  75   15.73    1.92
   1   1  75   16.72    2.17
  -4   2  75    6.73    1.50
  -1   2  75   15.71    1.96
   2   2  75    7.32    1.63
  -3   3  75    9.92    1.85
   0   3  75   10.15    1.89
  -2   4  75    9.14    1.70
   0  -4  76    2.62    1.21
   3  -4  76    1.45    1.11
  -2  -3  76    2.09    1.13
   1  -3  76    5.69    1.47
   4  -3  76    2.24    1.14
  -1  -2  76    4.59    1.44
   2  -2  76    7.84    1.60
   5  -2  76    1.16    1.03
   0  -1  76   10.43    1.44
   3  -1  76    3.98    1.10
  -2   0  76    6.58    1.24
   1   0  76    7.73    1.43
   4   0  76    2.98    1.17
  -4   1  76    2.97    1.11
  -1   1  76    6.65    1.31
   2   1  76    6.61    1.45
  -3   2  76    4.09    1.15
   0   2  76    9.38    1.61
  -2   3  76    6.21    1.42
   1   3  76    5.73    1.47
  -4   4  76    3.57    1.45
  -1   4  76    2.04    1.10
   1  -4  77    1.27    1.08
   4  -4  77    0.65    1.00
  -1  -3  77    0.96    0.99
   2  -3  77    1.57    0.99
   0  -2  77    0.54    0.90
   3  -2  77    0.21    0.49
  -2  -1  77    0.61    0.69
   1  -1  77    1.33    0.55
   4  -1  77    0.46    0.83
  -4   0  77    0.58    0.78
  -1   0  77    0.87    0.69
   2   0  77    1.22    0.73
  -3   1  77    2.52    0.92
   0   1  77    1.57    0.81
   3   1  77    0.23    0.70
  -2   2  77    1.39    0.79
   1   2  77    0.91    0.84
  -4   3  77    1.15    0.92
  -1   3  77    0.40    0.75
  -3   4  77    1.64    1.14
   2  -4  78   -0.27    0.88
   0  -3  78   -0.22    0.80
   3  -3  78    0.34    0.84
   1  -2  78    0.25    0.85
   4  -2  78   -0.11    0.73
  -1  -1  78    0.13    0.60
   2  -1  78    0.24    0.47
  -3   0  78   -0.36    0.54
   0   0  78   -0.21    0.47
   3   0  78    0.58    0.75
  -2   1  78    0.20    0.62
   1   1  78   -0.25    0.59
  -4   2  78   -0.07    0.69
  -1   2  78    0.04    0.59
   2   2  78   -0.01    0.79
  -3   3  78   -0.29    0.73
   0   3  78   -0.44    0.69
  -2   4  78    0.37    0.85
   0  -4  79   34.89    3.46
   3  -4  79   47.68    3.50
   1  -3  79   57.77    3.82
   4  -3  79   44.13    3.17
  -1  -2  79   59.36    3.79
   2  -2  79   83.78    4.24
   0  -1  79   97.28    3.97
   3  -1  79   64.73    3.62
  -2   0  79   81.18    3.78
   1   0  79  107.93    4.52
   4   0  79   37.75    3.55
  -4   1  79   47.72    3.17
  -1   1  79   97.78    4.30
   2   1  79   59.59    3.69
  -3   2  79   69.72    3.84
   0   2  79   85.31    4.08
  -2   3  79   67.11    3.78
   1   3  79   43.25    3.26
  -4   4  79   38.67    3.76
  -1   4  79   50.21    3.40
   1  -4  80    0.49    0.96
   4  -4  80   -0.34    0.95
  -1  -3  80    0.57    0.97
   2  -3  80    0.32    0.87
   0  -2  80    0.72    0.88
   3  -2  80    0.66    0.56
  -2  -1  80    0.89    0.71
   1  -1  80    1.68    0.62
   4  -1  80    0.20    0.77
  -4   0  80   -0.47    0.77
  -1   0  80    0.81    0.68
   2   0  80    1.33    0.88
  -3   1  80    1.50    0.77
   0   1  80    0.20    0.58
   3   1  80    0.47    0.79
  -2   2  80    1.81    0.91
   1   2  80    0.51    0.79
  -4   3  80    0.71    0.96
  -1   3  80    0.77    0.77
  -3   4  80    0.40    0.97
   2  -4  81   -1.11    0.80
   0  -3  81   -0.19    0.80
   3  -3  81    0.14    0.82
   1  -2  81    0.56    0.95
   4  -2  81    0.02    0.74
  -1  -1  81    0.84    0.70
   2  -1  81    1.30    0.60
  -3   0  81    0.62    0.70
   0   0  81    2.62    0.83
   3   0  81    0.32    0.78
  -2   1  81    1.60    0.80
   1   1  81    1.69    0.89
  -4   2  81    0.06    0.70
  -1   2  81    0.37    0.67
   2   2  81    1.81    1.13
  -3   3  81    0.56    0.86
   0   3  81    2.55    1.11
  -2   4  81    1.00    1.00
   0  -4  82   32.22    3.44
   3  -4  82   37.74    3.70
   1  -3  82   62.67    4.03
  -1  -2  82   55.08    3.69
   2  -2  82   72.12    4.09
   0  -1  82   94.40    3.98
   3  -1  82   62.53    3.62
  -2   0  82   72.62    3.69
   1   0  82   94.18    4.31
  -4   1  82   41.39    3.05
  -1   1  82   93.10    4.28
   2   1  82   59.40    3.74
  -3   2  82   66.00    3.80
   0   2  82   71.52    3.84
  -2   3  82   67.26    3.78
   1   3  82   43.73    3.29
  -4   4  82   37.37    3.72
  -1   4  82   44.09    3.24
   1  -4  83    0.05    0.89
   4  -4  83    0.44    1.07
  -1  -3  83   -0.80    0.96
   2  -3  83   -0.34    0.85
   0  -2  83    1.91    1.09
   3  -2  83    0.24    0.81
   1  -1  83    0.04    0.50
   4  -1  83    0.14    0.78
  -4   0  83   -0.61    0.77
  -1   0  83   -0.15    0.53
   2   0  83   -0.19    0.57
  -3   1  83   -0.02    0.68
   0   1  83   -0.03    0.53
   3   1  83    0.18    0.82
  -2   2  83    0.19    0.58
   1   2  83   -0.26    0.72
  -4   3  83   -0.42    0.77
  -1   3  83    1.94    0.95
  -3   4  83    0.83    1.04
   0   4  83    0.00    1.01
   2  -4  84    0.49    1.06
   0  -3  84    0.05    0.90
   3  -3  84    0.26    0.87
   1  -2  84    0.57    0.95
  -1  -1  84    0.56    0.65
   2  -1  84    0.32    0.56
  -3   0  84   -0.38    0.59
   0   0  84    0.36    0.62
   3   0  84   -0.30    0.64
  -2   1  84    0.23    0.69
   1   1  84    1.41    0.85
  -4   2  84   -0.31    0.69
  -1   2  84    0.49    0.69
   2   2  84    0.76    0.97
  -3   3  84   -0.16    0.79
   0   3  84    0.38    0.83
  -2   4  84    1.21    0.96
   0  -4  85   -0.07    1.07
   3  -4  85    0.42    1.13
   1  -3  85    1.92    1.16
  -1  -2  85    1.30    1.00
   2  -2  85    2.69    1.23
   0  -1  85    2.82    0.92
   3  -1  85    2.07    1.01
  -2   0  85    2.52    1.07
   1   0  85    2.43    0.96
  -4   1  85    0.81    0.87
  -1   1  85    1.50    0.85
   2   1  85    2.22    1.05
  -3   2  85    2.08    1.01
   0   2  85    1.65    0.86
  -2   3  85    1.39    0.89
   1   3  85    0.17    0.94
  -1   4  85    1.05    1.02
   1  -4  86    2.77    1.35
  -1  -3  86    0.37    1.09
   2  -3  86    2.79    1.36
   0  -2  86    4.97    1.44
   3  -2  86    3.45    1.23
   1  -1  86    3.60    0.76
   4  -1  86    4.02    1.39
  -4   0  86    2.00    1.09
  -1   0  86    3.11    1.01
   2   0  86    3.59    1.16
  -3   1  86    2.13    0.97
   0   1  86    4.13    1.16
   3   1  86    1.09    0.96
  -2   2  86    2.38    1.05
   1   2  86    0.89    0.85
  -4   3  86    2.37    1.21
  -1   3  86    0.73    0.84
  -3   4  86    1.80    1.15
   0   4  86    2.68    1.35
   2  -4  87    0.22    1.00
   0  -3  87   -0.77    0.79
   3  -3  87   -0.19    0.91
   1  -2  87    0.01    0.89
  -1  -1  87    0.93    0.75
   2  -1  87    1.03    0.63
  -3   0  87    1.67    0.95
   0   0  87    1.64    0.79
   3   0  87   -0.18    0.76
  -2   1  87    1.23    0.88
   1   1  87    1.30    0.83
  -4   2  87   -0.07    0.80
  -1   2  87    2.87    1.05
   2   2  87    1.49    1.11
  -3   3  87    2.81    1.18
   0   3  87    0.65    1.03
  -2   4  87    0.29    0.99
   3  -4  88   -0.17    1.02
   1  -3  88    0.25    1.00
  -1  -2  88    0.25    0.95
   2  -2  88    0.16    0.93
   0  -1  88    0.49    0.67
   3  -1  88    0.55    0.80
  -2   0  88    0.15    0.65
   1   0  88    0.03    0.63
  -4   1  88   -0.40    0.74
  -1   1  88    0.78    0.67
   2   1  88    0.11    0.77
  -3   2  88    0.29    0.70
   0   2  88    0.24    0.71
  -2   3  88   -0.02    0.67
   1   3  88    0.19    0.92
  -1   4  88    0.17    0.94
   1  -4  89    5.63    1.72
  -1  -3  89    6.11    1.72
   2  -3  89   11.27    2.20
   0  -2  89    9.57    1.99
   3  -2  89    9.80    1.88
   1  -1  89   13.14    1.40
   4  -1  89    8.76    1.92
  -1   0  89   17.61    2.06
   2   0  89   10.82    1.92
  -3   1  89    7.79    1.63
   0   1  89   15.85    2.05
   3   1  89    6.02    1.64
  -2   2  89   13.02    2.00
   1   2  89    9.65    1.87
  -4   3  89    6.53    1.79
  -1   3  89    6.98    1.52
  -3   4  89    5.53    1.51
   2  -4  90    7.51    2.01
   0  -3  90    7.79    2.04
   3  -3  90    5.85    1.66
   1  -2  90    6.35    1.77
  -1  -1  90   10.72    1.70
   2  -1  90    9.79    1.29
  -3   0  90    5.36    1.42
   0   0  90   10.29    1.60
   3   0  90    8.03    1.74
  -2   1  90   11.26    1.86
   1   1  90   11.70    1.92
  -4   2  90    3.83    1.39
  -1   2  90   10.82    1.77
   2   2  90    4.36    1.48
  -3   3  90    5.18    1.56
   0   3  90    4.86    1.43
  -2   4  90    4.99    1.55
   1  -3  91   -0.37    0.91
  -1  -2  91   -0.15    0.88
   2  -2  91    0.95    1.00
   0  -1  91    1.26    0.73
   3  -1  91    0.67    0.92
  -2   0  91    1.75    0.96
   1   0  91    1.28    0.82
  -4   1  91    0.96    1.02
  -1   1  91    1.54    0.80
   2   1  91    0.85    0.79
  -3   2  91    0.30    0.81
   0   2  91    1.63    0.88
  -2   3  91    0.66    0.84
   1   3  91    0.39    1.02
  -1   4  91    0.42    1.03
  -1  -3  92    0.03    1.13
   2  -3  92    0.50    1.12
   0  -2  92    5.18    1.51
   3  -2  92    2.81    1.32
   1  -1  92    2.68    0.75
   4  -1  92    1.37    1.18
  -1   0  92    1.67    0.85
   2   0  92    1.47    0.88
  -3   1  92    1.93    0.97
   0   1  92    4.12    1.17
  -2   2  92    1.22    0.91
   1   2  92    2.14    1.18
  -1   3  92    2.24    1.05
  -3   4  92    1.74    1.17
   0  -3  93    9.68    2.11
   3  -3  93    8.83    2.06
   1  -2  93    5.55    1.64
  -1  -1  93   13.69    1.88
   2  -1  93   11.37    1.35
  -3   0  93    7.66    1.69
   0   0  93   16.86    2.11
   3   0  93    7.15    1.77
  -2   1  93   11.60    1.89
   1   1  93   12.69    1.96
  -1   2  93   14.26    1.98
   2   2  93    7.51    1.92
  -3   3  93    6.73    1.65
   0   3  93   12.12    2.08
  -2   4  93    7.80    1.74
   1  -3  94    0.55    1.08
  -1  -2  94   -0.16    0.88
   2  -2  94   -0.63    0.87
   0  -1  94    0.60    0.72
   3  -1  94    3.31    1.27
  -2   0  94    2.60    1.07
   1   0  94    2.28    0.96
  -1   1  94    0.25    0.67
   2   1  94    0.90    0.89
  -3   2  94   -0.09    0.75
   0   2  94    1.81    0.98
  -2   3  94    0.45    0.79
  -1   4  94    2.38    1.33
   2  -3  95   -1.48    0.92
   0  -2  95    0.01    0.91
   3  -2  95   -0.63    0.89
   1  -1  95    0.64    0.57
  -1   0  95    0.64    0.77
   2   0  95   -0.06    0.80
  -3   1  95    0.14    0.74
   0   1  95   -0.39    0.51
  -2   2  95   -0.34    0.69
   1   2  95    0.50    0.83
  -1   3  95   -0.79    0.63
   0  -3  96   65.21    4.56
   3  -3  96   73.60    4.74
   1  -2  96  102.79    5.47
   2  -1  96  108.92    3.63
   0   0  96  133.33    5.35
  -2   1  96  106.05    5.01
   1   1  96  105.33    5.04
  -1   2  96  116.92    5.14
  -3   3  96   73.05    4.45
   0   3  96   83.18    4.58
  -2   4  96   57.41    3.86
   1  -3  97    0.71    1.11
  -1  -2  97   -0.20    0.91
   2  -2  97    0.38    0.95
   0  -1  97   -0.63    0.60
   3  -1  97   -0.71    0.71
  -2   0  97    1.54    0.93
   1   0  97    0.47    0.73
  -1   1  97    1.04    0.76
   2   1  97    1.37    1.00
  -3   2  97    1.26    0.97
   0   2  97    0.85    0.83
  -2   3  97    0.27    0.77
   2  -3  98    0.93    1.25
   0  -2  98    0.08    0.89
   3  -2  98    0.47    1.10
   1  -1  98    2.47    0.77
  -1   0  98    0.63    0.77
   2   0  98    1.34    0.97
  -3   1  98    0.45    0.81
   0   1  98    1.47    0.83
  -2   2  98    0.36    0.81
   1   2  98    0.77    1.00
  -1   3  98    0.57    0.89
   0  -3  99    3.30    1.59
   3  -3  99    2.02    1.49
   1  -2  99    8.47    1.91
   2  -1  99    3.83    0.90
  -3   0  99    3.94    1.40
   0   0  99    6.39    1.35
   3   0  99    5.14    1.67
  -2   1  99    5.60    1.42
   1   1  99    2.61    1.02
  -1   2  99    6.48    1.50
  -3   3  99    3.56    1.41
   0   3  99    1.23    1.07
   1  -3 100    0.60    1.19
  -1  -2 100    0.12    1.01
   2  -2 100   -0.91    0.87
   0  -1 100    0.98    0.81
   3  -1 100    0.07    0.99
  -2   0 100   -0.17    0.81
   1   0 100   -0.14    0.72
  -1   1 100    1.83    0.90
   2   1 100   -0.26    0.81
  -3   2 100    2.03    1.11
   0   2 100    1.28    0.97
  -2   3 100    0.48    0.96
   2  -3 101   -0.05    1.25
   0  -2 101    0.98    1.08
   1  -1 101    3.12    0.85
  -1   0 101    4.43    1.20
   2   0 101    1.21    1.01
  -3   1 101    2.35    1.21
   0   1 101    2.25    1.03
  -2   2 101    3.59    1.25
   1   2 101    0.88    1.02
  -1   3 101    1.03    0.93
   3  -3 102   -0.79    1.23
   1  -2 102    1.57    1.22
   2  -1 102    0.58    0.68
  -3   0 102    1.16    1.09
   0   0 102    0.37    0.68
   3   0 102    0.06    1.02
  -2   1 102    0.31    0.80
   1   1 102    0.35    0.77
  -1   2 102    1.22    0.91
   1  -3 103    7.44    2.12
  -1  -2 103    4.65    1.62
   2  -2 103    8.68    2.06
   0  -1 103    9.25    1.22
   3  -1 103    8.44    1.96
  -2   0 103    8.50    1.73
   1   0 103    9.22    1.76
  -1   1 103    6.56    1.47
   2   1 103    3.28    1.36
  -3   2 103    7.36    1.75
   0   2 103    7.30    1.63
  -2   3 103    5.93    1.60
   2  -3 104   -0.17    1.15
   0  -2 104   -0.45    0.91
   1  -1 104    0.46    0.61
  -1   0 104    0.63    0.77
   2   0 104   -0.49    0.83
  -3   1 104    1.22    1.05
   0   1 104    1.06    0.77
  -2   2 104    0.57    0.82
   1   2 104   -0.56    0.87
  -1   3 104    0.87    0.88
   1  -2 105    1.14    1.23
   2  -1 105    1.78    0.79
   0   0 105    0.74    0.80
  -2   1 105    2.15    1.08
   1   1 105    1.37    0.94
  -1   2 105    0.42    0.87
  -1  -2 106    4.80    1.67
   2  -2 106    5.46    1.77
   0  -1 106    7.56    1.78
   3  -1 106    4.58    1.57
  -2   0 106    7.83    1.68
   1   0 106    8.62    1.68
  -1   1 106    7.44    1.60
   0   2 106    4.26    1.32
  -2   3 106    6.24    1.62
   0  -2 107    1.94    1.25
   1  -1 107    2.63    0.82
  -1   0 107    0.87    0.86
   2   0 107    2.77    1.28
  -3   1 107    1.10    1.09
   0   1 107    1.69    0.92
  -2   2 107    1.15    0.92
   1  -2 108    0.72    1.16
   2  -1 108    0.78    0.74
   0   0 108    0.49    0.76
  -2   1 108    0.35    0.89
   1   1 108    2.03    1.08
  -1   2 108    1.41    0.97
   2  -2 109    0.89    1.21
   0  -1 109   -0.26    0.83
   3  -1 109    1.07    1.18
  -2   0 109    1.47    1.02
   1   0 109    0.90    0.92
  -1   1 109    0.90    0.85
   0   2 109    1.82    1.02
   0  -2 110   30.08    3.55
   1  -1 110   34.71    2.37
  -1   0 110   27.32    2.81
   2   0 110   23.53    2.91
   0   1 110   33.75    3.22
  -2   2 110   28.78    3.09
   1  -2 111    0.51    1.14
   2  -1 111    0.29    0.68
   0   0 111    0.13    0.70
  -2   1 111   -0.59    0.74
   1   1 111    0.38    0.83
  -1   2 111   -0.05    0.81
   2  -2 112    1.20    1.27
   0  -1 112   -0.74    0.83
  -2   0 112    0.66    0.98
   1   0 112    0.42    0.63
  -1   1 112    0.92    0.91
   0   2 112    1.49    1.00
   1  -1 113   53.30    3.79
  -1   0 113   50.40    3.32
   2   0 113   47.14    3.54
   0   1 113   46.66    3.34
   1  -2 114   -0.57    1.08
  -1  -1 114    0.12    0.94
   2  -1 114    0.48    0.68
   0   0 114   -0.33    0.64
  -2   1 114    0.37    0.90
   1   1 114    0.49    0.94
  -1   2 114    0.22    0.84
   2  -2 115   -1.05    1.03
   0  -1 115   -0.74    0.83
  -2   0 115   -0.40    0.90
   1   0 115    0.37    0.62
  -1   1 115    0.08    0.79
   1  -1 116    2.61    1.40
  -1   0 116    3.03    1.15
   0   1 116    6.73    1.63
   0   0 117   -0.82    0.64
   0  -1 118   -0.16    0.97
   1   0 118    0.15    0.66
  -1   1 118    1.78    1.08
   1  -1 119    0.25    1.12
  -1   0 119    3.81    1.30
   0   1 119    4.01    1.32
   0   0 120    4.84    1.35
   1   0 121    1.11    0.72
  -1   0 122    0.52    0.99
   0   0 123   11.72    2.00
   0   0   0    0.00    0.00
;
_shelx_hkl_checksum              1839
loop_
_space_group_symop_operation_xyz
'x, y, z'
'-y, x-y, z'
'-x+y, -x, z'
'y, x, -z'
'x-y, -y, -z'
'-x, -x+y, -z'
'x+2/3, y+1/3, z+1/3'
'-y+2/3, x-y+1/3, z+1/3'
'-x+y+2/3, -x+1/3, z+1/3'
'y+2/3, x+1/3, -z+1/3'
'x-y+2/3, -y+1/3, -z+1/3'
'-x+2/3, -x+y+1/3, -z+1/3'
'x+1/3, y+2/3, z+2/3'
'-y+1/3, x-y+2/3, z+2/3'
'-x+y+1/3, -x+2/3, z+2/3'
'y+1/3, x+2/3, -z+2/3'
'x-y+1/3, -y+2/3, -z+2/3'
'-x+1/3, -x+y+2/3, -z+2/3'
'-x, -y, -z'
'y, -x+y, -z'
'x-y, x, -z'
'-y, -x, z'
'-x+y, y, z'
'x, x-y, z'
'-x+2/3, -y+1/3, -z+1/3'
'y+2/3, -x+y+1/3, -z+1/3'
'x-y+2/3, x+1/3, -z+1/3'
'-y+2/3, -x+1/3, z+1/3'
'-x+y+2/3, y+1/3, z+1/3'
'x+2/3, x-y+1/3, z+1/3'
'-x+1/3, -y+2/3, -z+2/3'
'y+1/3, -x+y+2/3, -z+2/3'
'x-y+1/3, x+2/3, -z+2/3'
'-y+1/3, -x+2/3, z+2/3'
'-x+y+1/3, y+2/3, z+2/3'
'x+1/3, x-y+2/3, z+2/3'
loop_
_atom_site_label
_atom_site_type_symbol
_atom_site_fract_x
_atom_site_fract_y
_atom_site_fract_z
_atom_site_U_iso_or_equiv
_atom_site_adp_type
_atom_site_occupancy
_atom_site_site_symmetry_order
_atom_site_calc_flag
_atom_site_refinement_flags_posn
_atom_site_refinement_flags_adp
_atom_site_refinement_flags_occupancy
Gd1 Gd 0.0000 0.0000 0.29192(2) 0.01118(16) Uani 1 6 d S T P
Gd2 Gd 0.0000 0.0000 0.41624(2) 0.01335(17) Uani 1 6 d S T P
Gd3 Gd 0.0000 0.0000 0.5000 0.0292(13) Uani 0.271(5) 12 d S T .
Gd4 Gd 0.0000 0.0000 0.0000 0.01093(19) Uani 1 12 d S T P
Zn1 Zn 0.0000 0.0000 0.11600(2) 0.0252(4) Uani 1 6 d S T P
Zn2 Zn 0.0000 0.0000 0.19511(4) 0.0276(6) Uani 0.692(5) 6 d S T P
Mn2 Mn 0.0000 0.0000 0.18112(11) 0.0276(6) Uani 0.308(5) 6 d S T P
As1 As 0.0000 0.0000 0.06269(2) 0.0108(3) Uani 1 6 d S T P
As2 As 0.0000 0.0000 0.14706(2) 0.0189(3) Uani 1 6 d S T P
As3 As 0.0000 0.0000 0.22855(2) 0.0128(3) Uani 1 6 d S T P
As4 As 0.0000 0.0000 0.35423(2) 0.0107(3) Uani 1 6 d S T P
loop_
_atom_site_aniso_label
_atom_site_aniso_U_11
_atom_site_aniso_U_22
_atom_site_aniso_U_33
_atom_site_aniso_U_23
_atom_site_aniso_U_13
_atom_site_aniso_U_12
Gd1 0.0102(2) 0.0102(2) 0.0131(3) 0.000 0.000 0.00512(10)
Gd2 0.0119(2) 0.0119(2) 0.0162(3) 0.000 0.000 0.00596(10)
Gd3 0.0303(17) 0.0303(17) 0.027(2) 0.000 0.000 0.0152(8)
Gd4 0.0101(3) 0.0101(3) 0.0125(4) 0.000 0.000 0.00506(13)
Zn1 0.0242(6) 0.0242(6) 0.0271(10) 0.000 0.000 0.0121(3)
Zn2 0.0238(8) 0.0238(8) 0.0351(14) 0.000 0.000 0.0119(4)
Mn2 0.0238(8) 0.0238(8) 0.0351(14) 0.000 0.000 0.0119(4)
As1 0.0092(4) 0.0092(4) 0.0139(6) 0.000 0.000 0.00461(18)
As2 0.0191(5) 0.0191(5) 0.0184(7) 0.000 0.000 0.0096(2)
As3 0.0116(4) 0.0116(4) 0.0152(6) 0.000 0.000 0.00580(19)
As4 0.0097(4) 0.0097(4) 0.0128(6) 0.000 0.000 0.00486(19)
loop_
_atom_type_symbol
_atom_type_description
_atom_type_scat_dispersion_real
_atom_type_scat_dispersion_imag
_atom_type_scat_source
Mn Mn 0.3368 0.7283 'International Tables Vol C Tables 4.2.6.8 and 6.1.1.4'
Zn Zn 0.2839 1.4301 'International Tables Vol C Tables 4.2.6.8 and 6.1.1.4'
As As 0.0499 2.0058 'International Tables Vol C Tables 4.2.6.8 and 6.1.1.4'
Gd Gd -0.1653 3.9035 'International Tables Vol C Tables 4.2.6.8 and 6.1.1.4'
loop_
_geom_angle_atom_site_label_1
_geom_angle_atom_site_label_2
_geom_angle_atom_site_label_3
_geom_angle
_geom_angle_site_symmetry_1
_geom_angle_site_symmetry_3
As4 Gd1 As4 90.57(3) 31 31_445
As4 Gd1 As4 90.57(3) 31 31_545
As4 Gd1 As4 90.57(3) 31_445 31_545
As4 Gd1 As1 179.00(3) 31 25_445
As4 Gd1 As1 90.13(2) 31_445 25_445
As4 Gd1 As1 90.13(2) 31_545 25_445
As4 Gd1 As1 90.13(2) 31 25
As4 Gd1 As1 179.00(3) 31_445 25
As4 Gd1 As1 90.13(2) 31_545 25
As1 Gd1 As1 89.15(3) 25_445 25
As4 Gd1 As1 90.13(2) 31 25_455
As4 Gd1 As1 90.13(2) 31_445 25_455
As4 Gd1 As1 179.00(3) 31_545 25_455
As1 Gd1 As1 89.15(3) 25_445 25_455
As1 Gd1 As1 89.15(3) 25 25_455
As1 Gd2 As1 91.13(3) 7_445 7
As1 Gd2 As1 91.13(3) 7_445 7_455
As1 Gd2 As1 91.13(3) 7 7_455
As1 Gd2 As3 177.84(3) 7_445 31
As1 Gd2 As3 90.37(3) 7 31
As1 Gd2 As3 90.37(2) 7_455 31
As1 Gd2 As3 90.37(2) 7_445 31_445
As1 Gd2 As3 177.84(3) 7 31_445
As1 Gd2 As3 90.37(2) 7_455 31_445
As3 Gd2 As3 88.08(3) 31 31_445
As1 Gd2 As3 90.37(2) 7_445 31_545
As1 Gd2 As3 90.37(2) 7 31_545
As1 Gd2 As3 177.84(3) 7_455 31_545
As3 Gd2 As3 88.08(3) 31 31_545
As3 Gd2 As3 88.08(4) 31_445 31_545
As1 Gd2 Zn1 134.168(15) 7_445 7
As1 Gd2 Zn1 82.80(4) 7 7
As1 Gd2 Zn1 134.167(16) 7_455 7
As3 Gd2 Zn1 44.572(15) 31 7
As3 Gd2 Zn1 95.05(4) 31_445 7
As3 Gd2 Zn1 44.573(15) 31_545 7
As1 Gd2 Zn1 82.80(4) 7_445 7_445
As1 Gd2 Zn1 134.168(15) 7 7_445
As1 Gd2 Zn1 134.167(15) 7_455 7_445
As3 Gd2 Zn1 95.05(4) 31 7_445
As3 Gd2 Zn1 44.572(15) 31_445 7_445
As3 Gd2 Zn1 44.573(15) 31_545 7_445
Zn1 Gd2 Zn1 70.29(4) 7 7_445
As1 Gd2 Zn1 134.167(15) 7_445 7_455
As1 Gd2 Zn1 134.167(15) 7 7_455
As1 Gd2 Zn1 82.80(4) 7_455 7_455
As3 Gd2 Zn1 44.573(15) 31 7_455
As3 Gd2 Zn1 44.573(15) 31_445 7_455
As3 Gd2 Zn1 95.05(4) 31_545 7_455
Zn1 Gd2 Zn1 70.29(4) 7 7_455
Zn1 Gd2 Zn1 70.29(4) 7_445 7_455
Mn2 Gd3 Mn2 180.0(3) 31_445 7
Mn2 Gd3 Mn2 102.1(2) 31_445 31
Mn2 Gd3 Mn2 77.9(2) 7 31
Mn2 Gd3 Mn2 77.9(2) 31_445 7_445
Mn2 Gd3 Mn2 102.1(2) 7 7_445
Mn2 Gd3 Mn2 180.0(3) 31 7_445
Mn2 Gd3 Mn2 102.1(2) 31_445 31_545
Mn2 Gd3 Mn2 77.9(2) 7 31_545
Mn2 Gd3 Mn2 102.1(2) 31 31_545
Mn2 Gd3 Mn2 77.9(2) 7_445 31_545
Mn2 Gd3 Mn2 77.9(2) 31_445 7_455
Mn2 Gd3 Mn2 102.1(2) 7 7_455
Mn2 Gd3 Mn2 77.9(2) 31 7_455
Mn2 Gd3 Mn2 102.1(2) 7_445 7_455
Mn2 Gd3 Mn2 180.0(3) 31_545 7_455
Mn2 Gd3 As2 128.16(7) 31_445 31
Mn2 Gd3 As2 51.84(7) 7 31
Mn2 Gd3 As2 59.79(18) 31 31
Mn2 Gd3 As2 120.21(18) 7_445 31
Mn2 Gd3 As2 128.15(7) 31_545 31
Mn2 Gd3 As2 51.85(7) 7_455 31
Mn2 Gd3 As2 51.84(7) 31_445 7_445
Mn2 Gd3 As2 128.16(7) 7 7_445
Mn2 Gd3 As2 120.21(18) 31 7_445
Mn2 Gd3 As2 59.79(18) 7_445 7_445
Mn2 Gd3 As2 51.85(7) 31_545 7_445
Mn2 Gd3 As2 128.15(7) 7_455 7_445
As2 Gd3 As2 180.0 31 7_445
Mn2 Gd3 As2 59.79(18) 31_445 31_445
Mn2 Gd3 As2 120.21(18) 7 31_445
Mn2 Gd3 As2 128.16(7) 31 31_445
Mn2 Gd3 As2 51.84(7) 7_445 31_445
Mn2 Gd3 As2 128.15(7) 31_545 31_445
Mn2 Gd3 As2 51.85(7) 7_455 31_445
As2 Gd3 As2 92.26(3) 31 31_445
As2 Gd3 As2 87.74(3) 7_445 31_445
Mn2 Gd3 As2 120.21(18) 31_445 7
Mn2 Gd3 As2 59.79(18) 7 7
Mn2 Gd3 As2 51.84(7) 31 7
Mn2 Gd3 As2 128.16(7) 7_445 7
Mn2 Gd3 As2 51.85(7) 31_545 7
Mn2 Gd3 As2 128.15(7) 7_455 7
As2 Gd3 As2 87.74(3) 31 7
As2 Gd3 As2 92.26(3) 7_445 7
As2 Gd3 As2 180.00(5) 31_445 7
Mn2 Gd3 As2 128.15(7) 31_445 31_545
Mn2 Gd3 As2 51.85(7) 7 31_545
Mn2 Gd3 As2 128.15(7) 31 31_545
Mn2 Gd3 As2 51.85(7) 7_445 31_545
Mn2 Gd3 As2 59.79(18) 31_545 31_545
Mn2 Gd3 As2 120.21(18) 7_455 31_545
As2 Gd3 As2 92.26(3) 31 31_545
As2 Gd3 As2 87.74(3) 7_445 31_545
As2 Gd3 As2 92.26(3) 31_445 31_545
As2 Gd3 As2 87.74(3) 7 31_545
Mn2 Gd3 As2 51.85(7) 31_445 7_455
Mn2 Gd3 As2 128.15(7) 7 7_455
Mn2 Gd3 As2 51.85(7) 31 7_455
Mn2 Gd3 As2 128.15(7) 7_445 7_455
Mn2 Gd3 As2 120.21(18) 31_545 7_455
Mn2 Gd3 As2 59.79(18) 7_455 7_455
As2 Gd3 As2 87.74(3) 31 7_455
As2 Gd3 As2 92.26(3) 7_445 7_455
As2 Gd3 As2 87.74(3) 31_445 7_455
As2 Gd3 As2 92.26(3) 7 7_455
As2 Gd3 As2 180.00(5) 31_545 7_455
As4 Gd4 As4 180.00(4) 25_445 13_554
As4 Gd4 As4 89.86(3) 25_445 25
As4 Gd4 As4 90.14(3) 13_554 25
As4 Gd4 As4 90.14(3) 25_445 13_444
As4 Gd4 As4 89.86(3) 13_554 13_444
As4 Gd4 As4 180.00(4) 25 13_444
As4 Gd4 As4 90.14(3) 25_445 13_544
As4 Gd4 As4 89.86(3) 13_554 13_544
As4 Gd4 As4 90.14(3) 25 13_544
As4 Gd4 As4 89.86(3) 13_444 13_544
As4 Gd4 As4 89.86(3) 25_445 25_455
As4 Gd4 As4 90.14(3) 13_554 25_455
As4 Gd4 As4 89.86(3) 25 25_455
As4 Gd4 As4 90.14(3) 13_444 25_455
As4 Gd4 As4 180.00(4) 13_544 25_455
As2 Zn1 As3 110.84(5) . 25_445
As2 Zn1 As3 110.84(5) . 25
As3 Zn1 As3 108.06(5) 25_445 25
As2 Zn1 As3 110.84(5) . 25_455
As3 Zn1 As3 108.06(5) 25_445 25_455
As3 Zn1 As3 108.06(5) 25 25_455
As2 Zn1 Zn2 52.95(6) . 25
As3 Zn1 Zn2 125.97(3) 25_445 25
As3 Zn1 Zn2 57.90(5) 25 25
As3 Zn1 Zn2 125.97(3) 25_455 25
As2 Zn1 Zn2 52.95(6) . 25_445
As3 Zn1 Zn2 57.90(5) 25_445 25_445
As3 Zn1 Zn2 125.97(3) 25 25_445
As3 Zn1 Zn2 125.97(3) 25_455 25_445
Zn2 Zn1 Zn2 87.45(8) 25 25_445
As2 Zn1 Zn2 52.95(6) . 25_455
As3 Zn1 Zn2 125.97(3) 25_445 25_455
As3 Zn1 Zn2 125.97(3) 25 25_455
As3 Zn1 Zn2 57.90(5) 25_455 25_455
Zn2 Zn1 Zn2 87.45(8) 25 25_455
Zn2 Zn1 Zn2 87.45(8) 25_445 25_455
As2 Zn1 Gd2 138.34(2) . 13_444
As3 Zn1 Gd2 54.80(3) 25_445 13_444
As3 Zn1 Gd2 110.81(7) 25 13_444
As3 Zn1 Gd2 54.80(3) 25_455 13_444
Zn2 Zn1 Gd2 168.71(7) 25 13_444
Zn2 Zn1 Gd2 100.66(4) 25_445 13_444
Zn2 Zn1 Gd2 100.66(4) 25_455 13_444
As2 Zn1 Gd2 138.34(2) . 13_554
As3 Zn1 Gd2 110.81(7) 25_445 13_554
As3 Zn1 Gd2 54.80(3) 25 13_554
As3 Zn1 Gd2 54.80(3) 25_455 13_554
Zn2 Zn1 Gd2 100.66(4) 25 13_554
Zn2 Zn1 Gd2 168.71(7) 25_445 13_554
Zn2 Zn1 Gd2 100.66(4) 25_455 13_554
Gd2 Zn1 Gd2 70.28(4) 13_444 13_554
As2 Zn1 Gd2 138.34(2) . 13_544
As3 Zn1 Gd2 54.80(3) 25_445 13_544
As3 Zn1 Gd2 54.80(3) 25 13_544
As3 Zn1 Gd2 110.81(7) 25_455 13_544
Zn2 Zn1 Gd2 100.66(4) 25 13_544
Zn2 Zn1 Gd2 100.66(4) 25_445 13_544
Zn2 Zn1 Gd2 168.71(7) 25_455 13_544
Gd2 Zn1 Gd2 70.28(4) 13_444 13_544
Gd2 Zn1 Gd2 70.28(4) 13_554 13_544
Mn2 Zn2 As2 73.30(7) . 25_445
Mn2 Zn2 As2 73.30(7) . 25
As2 Zn2 As2 112.09(6) 25_445 25
Mn2 Zn2 As2 73.30(7) . 25_455
As2 Zn2 As2 112.09(6) 25_445 25_455
As2 Zn2 As2 112.09(6) 25 25_455
Mn2 Zn2 As3 180.0 . .
As2 Zn2 As3 106.70(7) 25_445 .
As2 Zn2 As3 106.70(7) 25 .
As2 Zn2 As3 106.70(7) 25_455 .
Mn2 Zn2 Zn1 127.05(6) . 25
As2 Zn2 Zn1 123.74(4) 25_445 25
As2 Zn2 Zn1 53.76(5) 25 25
As2 Zn2 Zn1 123.74(4) 25_455 25
As3 Zn2 Zn1 52.95(6) . 25
Mn2 Zn2 Zn1 127.05(5) . 25_445
As2 Zn2 Zn1 53.76(5) 25_445 25_445
As2 Zn2 Zn1 123.74(4) 25 25_445
As2 Zn2 Zn1 123.74(4) 25_455 25_445
As3 Zn2 Zn1 52.95(6) . 25_445
Zn1 Zn2 Zn1 87.44(8) 25 25_445
Mn2 Zn2 Zn1 127.05(6) . 25_455
As2 Zn2 Zn1 123.74(4) 25_445 25_455
As2 Zn2 Zn1 123.74(4) 25 25_455
As2 Zn2 Zn1 53.76(5) 25_455 25_455
As3 Zn2 Zn1 52.95(6) . 25_455
Zn1 Zn2 Zn1 87.44(8) 25 25_455
Zn1 Zn2 Zn1 87.44(8) 25_445 25_455
Mn2 Zn2 Gd3 45.99(4) . 13_444
As2 Zn2 Gd3 57.03(4) 25_445 13_444
As2 Zn2 Gd3 119.29(11) 25 13_444
As2 Zn2 Gd3 57.04(4) 25_455 13_444
As3 Zn2 Gd3 134.01(4) . 13_444
Zn1 Zn2 Gd3 173.04(9) 25 13_444
Zn1 Zn2 Gd3 97.56(3) 25_445 13_444
Zn1 Zn2 Gd3 97.56(3) 25_455 13_444
Mn2 Zn2 Gd3 45.99(4) . 13_554
As2 Zn2 Gd3 119.29(11) 25_445 13_554
As2 Zn2 Gd3 57.03(4) 25 13_554
As2 Zn2 Gd3 57.04(4) 25_455 13_554
As3 Zn2 Gd3 134.01(4) . 13_554
Zn1 Zn2 Gd3 97.56(3) 25 13_554
Zn1 Zn2 Gd3 173.04(9) 25_445 13_554
Zn1 Zn2 Gd3 97.56(3) 25_455 13_554
Gd3 Zn2 Gd3 77.05(6) 13_444 13_554
Mn2 Zn2 Gd3 45.99(4) . 13_544
As2 Zn2 Gd3 57.03(4) 25_445 13_544
As2 Zn2 Gd3 57.03(4) 25 13_544
As2 Zn2 Gd3 119.29(11) 25_455 13_544
As3 Zn2 Gd3 134.01(4) . 13_544
Zn1 Zn2 Gd3 97.56(3) 25 13_544
Zn1 Zn2 Gd3 97.56(3) 25_445 13_544
Zn1 Zn2 Gd3 173.04(9) 25_455 13_544
Gd3 Zn2 Gd3 77.05(6) 13_444 13_544
Gd3 Zn2 Gd3 77.05(6) 13_554 13_544
Zn2 Mn2 As2 80.1(2) . 25
Zn2 Mn2 As2 80.1(2) . 25_445
As2 Mn2 As2 117.09(12) 25 25_445
Zn2 Mn2 As2 80.1(2) . 25_455
As2 Mn2 As2 117.09(12) 25 25_455
As2 Mn2 As2 117.09(12) 25_445 25_455
Zn2 Mn2 Gd3 116.15(17) . 13_444
As2 Mn2 Gd3 163.8(4) 25 13_444
As2 Mn2 Gd3 68.52(5) 25_445 13_444
As2 Mn2 Gd3 68.52(5) 25_455 13_444
Zn2 Mn2 Gd3 116.15(17) . 13_554
As2 Mn2 Gd3 68.52(5) 25 13_554
As2 Mn2 Gd3 163.8(4) 25_445 13_554
As2 Mn2 Gd3 68.52(5) 25_455 13_554
Gd3 Mn2 Gd3 102.0(2) 13_444 13_554
Zn2 Mn2 Gd3 116.15(17) . 13_544
As2 Mn2 Gd3 68.52(5) 25 13_544
As2 Mn2 Gd3 68.52(5) 25_445 13_544
As2 Mn2 Gd3 163.8(4) 25_455 13_544
Gd3 Mn2 Gd3 102.0(2) 13_444 13_544
Gd3 Mn2 Gd3 102.0(2) 13_554 13_544
Zn2 Mn2 As2 180.0 . .
As2 Mn2 As2 99.9(2) 25 .
As2 Mn2 As2 99.9(2) 25_445 .
As2 Mn2 As2 99.9(2) 25_455 .
Gd3 Mn2 As2 63.85(17) 13_444 .
Gd3 Mn2 As2 63.85(17) 13_554 .
Gd3 Mn2 As2 63.85(17) 13_544 .
Gd2 As1 Gd2 91.13(3) 13_554 13_444
Gd2 As1 Gd2 91.13(3) 13_554 13_544
Gd2 As1 Gd2 91.13(3) 13_444 13_544
Gd2 As1 Gd1 178.60(4) 13_554 25_445
Gd2 As1 Gd1 89.848(18) 13_444 25_445
Gd2 As1 Gd1 89.848(18) 13_544 25_445
Gd2 As1 Gd1 89.848(18) 13_554 25
Gd2 As1 Gd1 178.60(4) 13_444 25
Gd2 As1 Gd1 89.848(18) 13_544 25
Gd1 As1 Gd1 89.16(3) 25_445 25
Gd2 As1 Gd1 89.848(18) 13_554 25_455
Gd2 As1 Gd1 89.848(18) 13_444 25_455
Gd2 As1 Gd1 178.60(4) 13_544 25_455
Gd1 As1 Gd1 89.16(3) 25_445 25_455
Gd1 As1 Gd1 89.16(3) 25 25_455
Mn2 As2 Mn2 117.09(12) 25 25_445
Mn2 As2 Mn2 117.09(12) 25 25_455
Mn2 As2 Mn2 117.09(12) 25_445 25_455
Mn2 As2 Zn2 121.42(5) 25 25_445
Mn2 As2 Zn2 26.6(2) 25_445 25_445
Mn2 As2 Zn2 121.42(5) 25_455 25_445
Mn2 As2 Zn2 26.6(2) 25 25
Mn2 As2 Zn2 121.42(5) 25_445 25
Mn2 As2 Zn2 121.42(5) 25_455 25
Zn2 As2 Zn2 112.09(6) 25_445 25
Mn2 As2 Zn2 121.42(5) 25 25_455
Mn2 As2 Zn2 121.42(5) 25_445 25_455
Mn2 As2 Zn2 26.6(2) 25_455 25_455
Zn2 As2 Zn2 112.09(6) 25_445 25_455
Zn2 As2 Zn2 112.09(6) 25 25_455
Mn2 As2 Zn1 99.9(2) 25 .
Mn2 As2 Zn1 99.9(2) 25_445 .
Mn2 As2 Zn1 99.9(2) 25_455 .
Zn2 As2 Zn1 73.30(7) 25_445 .
Zn2 As2 Zn1 73.30(7) 25 .
Zn2 As2 Zn1 73.30(7) 25_455 .
Mn2 As2 Mn2 80.1(2) 25 .
Mn2 As2 Mn2 80.1(2) 25_445 .
Mn2 As2 Mn2 80.1(2) 25_455 .
Zn2 As2 Mn2 106.70(7) 25_445 .
Zn2 As2 Mn2 106.70(7) 25 .
Zn2 As2 Mn2 106.70(7) 25_455 .
Zn1 As2 Mn2 180.0 . .
Mn2 As2 Gd3 59.63(12) 25 13_554
Mn2 As2 Gd3 136.4(2) 25_445 13_554
Mn2 As2 Gd3 59.63(12) 25_455 13_554
Zn2 As2 Gd3 163.05(8) 25_445 13_554
Zn2 As2 Gd3 76.15(4) 25 13_554
Zn2 As2 Gd3 76.15(4) 25_455 13_554
Zn1 As2 Gd3 123.65(3) . 13_554
Mn2 As2 Gd3 56.35(2) . 13_554
Mn2 As2 Gd3 136.4(2) 25 13_444
Mn2 As2 Gd3 59.63(12) 25_445 13_444
Mn2 As2 Gd3 59.63(12) 25_455 13_444
Zn2 As2 Gd3 76.15(4) 25_445 13_444
Zn2 As2 Gd3 163.05(8) 25 13_444
Zn2 As2 Gd3 76.15(4) 25_455 13_444
Zn1 As2 Gd3 123.65(2) . 13_444
Mn2 As2 Gd3 56.35(2) . 13_444
Gd3 As2 Gd3 92.26(3) 13_554 13_444
Mn2 As2 Gd3 59.63(12) 25 13_544
Mn2 As2 Gd3 59.63(12) 25_445 13_544
Mn2 As2 Gd3 136.4(2) 25_455 13_544
Zn2 As2 Gd3 76.15(4) 25_445 13_544
Zn2 As2 Gd3 76.15(4) 25 13_544
Zn2 As2 Gd3 163.05(8) 25_455 13_544
Zn1 As2 Gd3 123.65(2) . 13_544
Mn2 As2 Gd3 56.35(3) . 13_544
Gd3 As2 Gd3 92.26(3) 13_554 13_544
Gd3 As2 Gd3 92.26(3) 13_444 13_544
Zn1 As3 Zn1 108.07(5) 25_445 25
Zn1 As3 Zn1 108.07(5) 25_445 25_455
Zn1 As3 Zn1 108.07(5) 25 25_455
Zn1 As3 Zn2 69.16(5) 25_445 .
Zn1 As3 Zn2 69.16(5) 25 .
Zn1 As3 Zn2 69.16(5) 25_455 .
Zn1 As3 Gd2 164.23(6) 25_445 31
Zn1 As3 Gd2 80.63(3) 25 31
Zn1 As3 Gd2 80.63(3) 25_455 31
Zn2 As3 Gd2 126.61(2) . 31
Zn1 As3 Gd2 80.63(3) 25_445 31_445
Zn1 As3 Gd2 164.23(6) 25 31_445
Zn1 As3 Gd2 80.63(3) 25_455 31_445
Zn2 As3 Gd2 126.61(2) . 31_445
Gd2 As3 Gd2 88.08(3) 31 31_445
Zn1 As3 Gd2 80.63(3) 25_445 31_545
Zn1 As3 Gd2 80.63(3) 25 31_545
Zn1 As3 Gd2 164.23(6) 25_455 31_545
Zn2 As3 Gd2 126.61(2) . 31_545
Gd2 As3 Gd2 88.08(3) 31 31_545
Gd2 As3 Gd2 88.08(4) 31_445 31_545
Gd1 As4 Gd1 90.57(3) 31 31_445
Gd1 As4 Gd1 90.57(3) 31 31_545
Gd1 As4 Gd1 90.57(3) 31_445 31_545
Gd1 As4 Gd4 179.50(4) 31 7_445
Gd1 As4 Gd4 89.781(17) 31_445 7_445
Gd1 As4 Gd4 89.782(17) 31_545 7_445
Gd1 As4 Gd4 89.781(17) 31 7
Gd1 As4 Gd4 179.50(4) 31_445 7
Gd1 As4 Gd4 89.782(17) 31_545 7
Gd4 As4 Gd4 89.86(3) 7_445 7
Gd1 As4 Gd4 89.782(17) 31 7_455
Gd1 As4 Gd4 89.782(17) 31_445 7_455
Gd1 As4 Gd4 179.50(4) 31_545 7_455
Gd4 As4 Gd4 89.86(3) 7_445 7_455
Gd4 As4 Gd4 89.86(3) 7 7_455
loop_
_geom_bond_atom_site_label_1
_geom_bond_atom_site_label_2
_geom_bond_distance
_geom_bond_site_symmetry_2
Gd1 As4 2.9128(10) 31
Gd1 As4 2.9128(10) 31_445
Gd1 As4 2.9129(10) 31_545
Gd1 As1 2.9491(10) 25_445
Gd1 As1 2.9491(10) 25
Gd1 As1 2.9491(10) 25_455
Gd2 As1 2.8987(10) 7_445
Gd2 As1 2.8987(10) 7
Gd2 As1 2.8988(10) 7_455
Gd2 As3 2.9777(11) 31
Gd2 As3 2.9777(10) 31_445
Gd2 As3 2.9777(10) 31_545
Gd2 Zn1 3.5957(17) 7
Gd2 Zn1 3.5957(17) 7_445
Gd2 Zn1 3.5957(17) 7_455
Gd3 Mn2 2.662(4) 31_445
Gd3 Mn2 2.662(4) 7
Gd3 Mn2 2.662(4) 31
Gd3 Mn2 2.662(4) 7_445
Gd3 Mn2 2.662(4) 31_545
Gd3 Mn2 2.662(4) 7_455
Gd3 As2 2.8712(10) 31
Gd3 As2 2.8712(10) 7_445
Gd3 As2 2.8712(10) 31_445
Gd3 As2 2.8712(10) 7
Gd3 As2 2.8712(10) 31_545
Gd3 As2 2.8712(10) 7_455
Gd4 As4 2.9308(9) 25_445
Gd4 As4 2.9308(9) 13_554
Gd4 As4 2.9308(9) 25
Gd4 As4 2.9308(9) 13_444
Gd4 As4 2.9309(9) 13_544
Gd4 As4 2.9309(9) 25_455
Zn1 As2 2.522(2) .
Zn1 As3 2.5575(11) 25_445
Zn1 As3 2.5575(11) 25
Zn1 As3 2.5575(11) 25_455
Zn1 Zn2 2.995(2) 25
Zn1 Zn2 2.995(2) 25_445
Zn1 Zn2 2.995(2) 25_455
Zn1 Gd2 3.5960(17) 13_444
Zn1 Gd2 3.5960(17) 13_554
Zn1 Gd2 3.5960(17) 13_544
Zn2 Mn2 1.136(9) .
Zn2 As2 2.4954(11) 25_445
Zn2 As2 2.4954(11) 25
Zn2 As2 2.4954(11) 25_455
Zn2 As3 2.715(3) .
Zn2 Zn1 2.995(2) 25
Zn2 Zn1 2.995(2) 25_445
Zn2 Zn1 2.995(2) 25_455
Zn2 Gd3 3.323(2) 13_444
Zn2 Gd3 3.323(2) 13_554
Zn2 Gd3 3.323(2) 13_544
Mn2 As2 2.4264(18) 25
Mn2 As2 2.4264(18) 25_445
Mn2 As2 2.4265(18) 25_455
Mn2 Gd3 2.663(4) 13_444
Mn2 Gd3 2.663(4) 13_554
Mn2 Gd3 2.663(4) 13_544
Mn2 As2 2.764(9) .
As1 Gd2 2.8988(10) 13_554
As1 Gd2 2.8988(10) 13_444
As1 Gd2 2.8988(10) 13_544
As1 Gd1 2.9491(10) 25_445
As1 Gd1 2.9491(10) 25
As1 Gd1 2.9491(10) 25_455
As2 Mn2 2.4265(18) 25
As2 Mn2 2.4265(18) 25_445
As2 Mn2 2.4265(18) 25_455
As2 Zn2 2.4954(11) 25_445
As2 Zn2 2.4954(11) 25
As2 Zn2 2.4954(11) 25_455
As2 Gd3 2.8712(10) 13_554
As2 Gd3 2.8712(10) 13_444
As2 Gd3 2.8712(10) 13_544
As3 Zn1 2.5575(11) 25_445
As3 Zn1 2.5575(11) 25
As3 Zn1 2.5575(11) 25_455
As3 Gd2 2.9777(10) 31
As3 Gd2 2.9777(10) 31_445
As3 Gd2 2.9777(10) 31_545
As4 Gd1 2.9128(10) 31
As4 Gd1 2.9128(10) 31_445
As4 Gd1 2.9128(10) 31_545
As4 Gd4 2.9308(9) 7_445
As4 Gd4 2.9308(9) 7
As4 Gd4 2.9308(9) 7_455
