#------------------------------------------------------------------------------
#$Date: 2015-12-09 15:33:01 +0200 (Wed, 09 Dec 2015) $
#$Revision: 171117 $
#$URL: svn://www.crystallography.net/cod/cif/7/03/70/7037018.cif $
#------------------------------------------------------------------------------
#
# This file is available in the Crystallography Open Database (COD),
# http://www.crystallography.net/
#
# All data on this site have been placed in the public domain by the
# contributors.
#
data_7037018
loop_
_publ_author_name
'Lin, Xinsong'
'Tabassum, Danisa'
'Mar, Arthur'
_publ_section_title
;
 Narrowing the gap: from semiconductor to semimetal in the homologous
 series of rare-earth zinc arsenides RE2-yZn4As4&#x00B7;n(REAs) and
 Mn-substituted derivatives RE2-yMnxZn4-xAs4&#x00B7;n(REAs) (RE = La-Nd,
 Sm, Gd).
;
_journal_issue                   46
_journal_name_full
'Dalton transactions (Cambridge, England : 2003)'
_journal_page_first              20254
_journal_page_last               20264
_journal_paper_doi               10.1039/c5dt03596a
_journal_volume                  44
_journal_year                    2015
_chemical_formula_structural     'Nd5.43 Zn4 As8'
_chemical_formula_sum            'As8 Nd5.43 Zn4'
_chemical_formula_weight         1644.54
_chemical_name_common            'neodymium zinc arsenide (5.4/4/8)'
_chemical_name_systematic        'neodymium zinc arsenide (5.4/4/8)'
_space_group_crystal_system      trigonal
_space_group_IT_number           166
_space_group_name_Hall           '-R 3 2"'
_space_group_name_H-M_alt        'R -3 m :H'
_symmetry_space_group_name_Hall  '-R 3 2"'
_symmetry_space_group_name_H-M   'R -3 m :H'
_atom_sites_solution_primary     direct
_atom_sites_solution_secondary   difmap
_audit_creation_method           SHELXL-2013
_cell_angle_alpha                90
_cell_angle_beta                 90
_cell_angle_gamma                120
_cell_formula_units_Z            3
_cell_length_a                   4.2038(11)
_cell_length_b                   4.2038(11)
_cell_length_c                   82.97(2)
_cell_measurement_reflns_used    1282
_cell_measurement_temperature    296(2)
_cell_measurement_theta_max      32.16
_cell_measurement_theta_min      5.16
_cell_volume                     1269.8(6)
_computing_cell_refinement       'Bruker SAINT 7.68A (Bruker, 2009)'
_computing_data_collection       'Bruker APEX 2 (Bruker, 2008)'
_computing_data_reduction        'Bruker SAINT 7.68A'
_computing_molecular_graphics    'ATOMS 5.1 (Dowty, 1999)'
_computing_publication_material  'Bruker SHELXTL'
_computing_structure_refinement  'Bruker SHELXTL'
_computing_structure_solution    'Bruker SHELXTL'
_diffrn_ambient_temperature      296(2)
_diffrn_measured_fraction_theta_full 0.997
_diffrn_measured_fraction_theta_max 0.993
_diffrn_measurement_device_type  'Bruker PLATFORM/SMART APEX II CCD'
_diffrn_measurement_method       '\w and \f scans'
_diffrn_radiation_type           MoK\a
_diffrn_radiation_wavelength     0.71073
_diffrn_reflns_av_R_equivalents  0.0658
_diffrn_reflns_av_unetI/netI     0.0338
_diffrn_reflns_laue_measured_fraction_full 0.997
_diffrn_reflns_laue_measured_fraction_max 0.993
_diffrn_reflns_limit_h_max       6
_diffrn_reflns_limit_h_min       -6
_diffrn_reflns_limit_k_max       6
_diffrn_reflns_limit_k_min       -6
_diffrn_reflns_limit_l_max       124
_diffrn_reflns_limit_l_min       -123
_diffrn_reflns_number            5860
_diffrn_reflns_point_group_measured_fraction_full 0.997
_diffrn_reflns_point_group_measured_fraction_max 0.993
_diffrn_reflns_theta_full        25.242
_diffrn_reflns_theta_max         33.115
_diffrn_reflns_theta_min         1.473
_diffrn_source                   'fine-focus sealed tube'
_exptl_absorpt_coefficient_mu    37.376
_exptl_absorpt_correction_T_max  0.4106
_exptl_absorpt_correction_T_min  0.2840
_exptl_absorpt_correction_type   numerical
_exptl_absorpt_process_details   'Bruker SHELXTL (Sheldrick, 2013)'
_exptl_crystal_colour            black
_exptl_crystal_density_diffrn    6.452
_exptl_crystal_density_method    'not measured'
_exptl_crystal_description       irregular
_exptl_crystal_F_000             2130
_exptl_crystal_size_max          0.049
_exptl_crystal_size_mid          0.035
_exptl_crystal_size_min          0.029
_refine_diff_density_max         4.369
_refine_diff_density_min         -3.724
_refine_diff_density_rms         0.501
_refine_ls_extinction_coef       0.00022(4)
_refine_ls_extinction_expression Fc^*^=kFc[1+0.001xFc^2^\l^3^/sin(2\q)]^-1/4^
_refine_ls_extinction_method     SHELXL
_refine_ls_goodness_of_fit_ref   1.077
_refine_ls_hydrogen_treatment    undef
_refine_ls_matrix_type           full
_refine_ls_number_parameters     33
_refine_ls_number_reflns         741
_refine_ls_number_restraints     0
_refine_ls_restrained_S_all      1.077
_refine_ls_R_factor_all          0.0659
_refine_ls_R_factor_gt           0.0395
_refine_ls_shift/su_max          0.002
_refine_ls_shift/su_mean         0.000
_refine_ls_structure_factor_coef Fsqd
_refine_ls_weighting_details
'w=1/[\s^2^(Fo^2^)+(0.0438P)^2^+14.2857P] where P=(Fo^2^+2Fc^2^)/3'
_refine_ls_weighting_scheme      calc
_refine_ls_wR_factor_gt          0.0848
_refine_ls_wR_factor_ref         0.0935
_reflns_Friedel_coverage         0.000
_reflns_number_gt                530
_reflns_number_total             741
_reflns_threshold_expression     'I > 2\s(I)'
_cod_data_source_file            c5dt03596a5.cif
_cod_data_source_block           Nd6-xZn4As8
_cod_depositor_comments
'Adding full bibliography for 7037017--7037025.cif.'
_cod_original_cell_volume        1269.8(7)
_cod_database_code               7037018
_shelx_space_group_comment
;
The symmetry employed for this shelxl refinement is uniquely defined
by the following loop, which should always be used as a source of
symmetry information in preference to the above space-group names.
They are only intended as comments.
;
_shelx_estimated_absorpt_t_min   0.262
_shelx_estimated_absorpt_t_max   0.410
_shelxl_version_number           2013-4
_shelx_res_file
;
TITL Nd5.4Zn4As8 R-3m lsf final refinement
CELL 0.71073   4.20380   4.20380  82.97180  90.0000  90.0000 120.0000
ZERR    3.00   0.00110   0.00110   0.02100   0.0000   0.0000   0.0000
LATT  3
SYMM -Y, X-Y, Z
SYMM -X+Y, -X, Z
SYMM Y, X, -Z
SYMM X-Y, -Y, -Z
SYMM -X, -X+Y, -Z
SFAC ZN AS ND
UNIT 12 24 16.3
TEMP 23
SIZE 0.029 0.035 0.049

L.S. 4
ACTA

EADP ZN2A ZN2B
WGHT    0.043800   14.285700
EXTI    0.000221
FVAR       0.02085   0.84807
ND1   3    0.000000    0.000000    0.291667    10.16667    0.00517    0.00517 =
         0.01113    0.00000    0.00000    0.00259
ND2   3    0.000000    0.000000    0.416844    10.16667    0.00596    0.00596 =
         0.01339    0.00000    0.00000    0.00298
ND3   3    0.000000    0.000000    0.500000     0.03576    0.00626    0.00626 =
         0.01377    0.00000    0.00000    0.00313
ND4   3    0.000000    0.000000    0.000000    10.08333    0.00524    0.00524 =
         0.01020    0.00000    0.00000    0.00262
ZN1   1    0.000000    0.000000    0.115730    10.16667    0.01726    0.01726 =
         0.01993    0.00000    0.00000    0.00863
ZN2A  1    0.000000    0.000000    0.194400    20.16667    0.01754    0.01754 =
         0.04537    0.00000    0.00000    0.00877
ZN2B  1    0.000000    0.000000    0.179939   -20.16667    0.01754    0.01754 =
         0.04537    0.00000    0.00000    0.00877
AS1   2    0.000000    0.000000    0.063092    10.16667    0.00527    0.00527 =
         0.01060    0.00000    0.00000    0.00264
AS2   2    0.000000    0.000000    0.145976    10.16667    0.00928    0.00928 =
         0.01771    0.00000    0.00000    0.00464
AS3   2    0.000000    0.000000    0.228068    10.16667    0.00712    0.00712 =
         0.01331    0.00000    0.00000    0.00356
AS4   2    0.000000    0.000000    0.354366    10.16667    0.00595    0.00595 =
         0.00973    0.00000    0.00000    0.00298
HKLF 4

REM  Nd5.4Zn4As8 R-3m lsf final refinement
REM R1 =  0.0395 for     530 Fo > 4sig(Fo)  and  0.0659 for all     741 data
REM     33 parameters refined using      0 restraints

END

WGHT      0.0438     14.3179

REM Highest difference peak  4.369,  deepest hole -3.724,  1-sigma level  0.501
Q1    1   0.0000  0.0000  0.0417  10.16667  0.05    4.37
Q2    1   0.0000  0.0000  0.3129  10.16667  0.05    3.48
Q3    1   0.0000  0.0000  0.3865  10.16667  0.05    3.19
Q4    1   0.0000  0.0000  0.2814  10.16667  0.05    2.62
Q5    1   0.0000  0.0000  0.0524  10.16667  0.05    2.58
Q6    1   0.0000  0.0000  0.4063  10.16667  0.05    2.45
Q7    1   0.0625  0.1249  0.1854  10.50000  0.05    2.38
Q8    1   0.0000  0.0000  0.3979  10.16667  0.05    2.36
Q9    1   0.0000  0.0000  0.0103  10.16667  0.05    2.31
Q10   1   0.0766  0.1531  0.2299  10.50000  0.05    2.24
Q11   1   0.0681  0.1363  0.4833  10.50000  0.05    2.23
Q12   1   0.0000  0.0000  0.2096  10.16667  0.05    2.11
Q13   1   0.0592  0.1184  0.1731  10.50000  0.05    2.09
Q14   1   0.0000  0.0000  0.3344  10.16667  0.05    1.99
Q15   1   0.0683  0.1367  0.2139  10.50000  0.05    1.95
Q16   1   0.0000  0.0000  0.2213  10.16667  0.05    1.90
Q17   1   0.0000  0.0000  0.3006  10.16667  0.05    1.90
Q18   1  -0.0949 -0.1898  0.2915  10.50000  0.05    1.87
Q19   1  -0.0561 -0.1121  0.4356  10.50000  0.05    1.80
Q20   1  -0.0756  0.0756  0.3563  10.50000  0.05    1.79
;
_shelx_res_checksum              17775
_shelx_hkl_file
;
   0   0-123    2.19    2.35
   1   0-122   -0.57    2.04
  -1   1-122    2.12    2.05
   1  -1-121    4.50    2.34
  -1   0-121    7.72    2.39
   0   1-121    3.73    2.21
  -1  -1-120    3.66    2.95
   0   0-120    4.66    2.38
  -1   2-120    4.51    2.29
   0  -1-119    5.90    2.45
   1   0-119    2.67    2.31
  -1   1-119    5.12    2.01
   0  -2-118   -0.23    2.49
   1  -1-118    4.02    2.31
  -1   0-118    0.02    1.93
   2   0-118    3.36    2.35
   0   1-118    2.36    1.73
   1  -2-117    1.33    2.05
  -1  -1-117    1.30    1.54
   2  -1-117   -2.16    2.07
   0   0-117   -0.75    1.86
  -2   1-117    1.27    1.99
   1   1-117    2.36    2.52
  -1   2-117    1.00    1.65
   0  -1-116    3.01    2.17
   1   0-116    1.23    1.91
  -1   1-116    2.10    1.79
   0  -2-115    1.31    1.64
   1  -1-115    0.31    1.85
  -1   0-115    0.10    1.87
   2   0-115    3.36    2.40
   0   1-115   -0.38    1.44
  -2   2-115    1.36    2.16
   1  -2-114    1.45    1.53
  -1  -1-114    2.02    1.54
   2  -1-114    2.50    2.23
   0   0-114   -0.36    1.82
  -2   1-114    0.75    1.84
   1   1-114    1.24    1.58
  -1   2-114    2.14    1.31
   2  -2-113   34.76    4.07
   0  -1-113   48.53    4.31
  -2   0-113   35.96    2.76
   1   0-113   36.86    3.82
  -1   1-113   34.72    3.55
   0   2-113   28.98    3.81
   2  -3-112    1.94    2.76
   0  -2-112   -0.62    1.48
   1  -1-112    0.46    1.74
  -1   0-112    1.58    1.76
   2   0-112   -1.81    2.43
   0   1-112    1.71    1.33
  -2   2-112   -1.81    1.48
   1  -2-111    0.19    1.54
  -1  -1-111    0.80    1.44
   2  -1-111    0.08    2.14
   0   0-111   -3.30    1.49
  -2   1-111   -1.82    1.74
   1   1-111    2.04    1.57
  -1   2-111    0.62    1.47
   1  -3-110   50.13    3.37
   2  -2-110   66.63    4.82
   0  -1-110   76.52    4.63
   3  -1-110   59.02    5.15
  -2   0-110   55.64    3.23
   1   0-110   75.05    4.59
  -1   1-110   78.07    4.56
   0   2-110   60.67    3.45
  -2   3-110   44.27    4.78
   2  -3-109   -0.75    1.75
   0  -2-109    0.78    1.45
  -2  -1-109   -1.93    1.58
   1  -1-109   -1.43    1.68
  -1   0-109    0.66    1.68
   0   1-109   -1.36    1.54
  -2   2-109   -0.62    1.91
  -1   3-109   -1.87    2.24
   1  -2-108    0.39    1.40
  -1  -1-108   -0.13    1.29
   2  -1-108    2.67    2.36
   0   0-108    0.04    1.73
  -2   1-108    1.07    1.72
   1   1-108    0.58    2.19
  -1   2-108    0.41    1.13
   1  -3-107    2.11    1.66
  -1  -2-107   -1.84    2.22
   2  -2-107    3.15    2.24
   0  -1-107    1.91    1.33
   3  -1-107    1.94    1.82
  -2   0-107    1.77    1.40
   1   0-107    2.83    1.83
  -1   1-107    4.52    1.98
   2   1-107    1.77    2.65
  -3   2-107    3.95    2.20
   0   2-107    1.88    1.59
  -2   3-107    0.05    1.43
   2  -3-106    3.90    1.80
   0  -2-106    5.81    1.70
   3  -2-106    3.02    2.75
  -2  -1-106    4.48    1.77
   1  -1-106    8.32    2.25
  -1   0-106    5.44    1.93
   2   0-106    3.99    1.66
  -3   1-106    3.90    2.30
   0   1-106    8.27    2.22
  -2   2-106    4.58    1.65
   1   2-106    6.25    1.89
  -1   3-106    4.58    1.74
   3  -3-105   -0.35    2.73
   1  -2-105    0.87    1.33
  -1  -1-105    0.03    1.25
   2  -1-105   -1.83    1.73
  -3   0-105   -1.38    1.54
   0   0-105    0.55    1.66
  -2   1-105   -0.35    1.63
   1   1-105    1.60    2.10
  -1   2-105    1.68    1.14
   0   3-105    0.67    2.51
   1  -3-104   -0.79    1.54
  -1  -2-104   -1.45    2.10
   2  -2-104   -1.20    2.14
   0  -1-104    0.37    1.22
   3  -1-104   -0.53    1.71
  -2   0-104    0.02    1.37
   1   0-104   -0.41    1.49
  -1   1-104    1.20    1.25
   2   1-104    1.21    2.54
  -3   2-104   -1.58    2.00
   0   2-104    0.18    1.89
  -2   3-104   -1.26    1.24
   2  -3-103    5.08    1.85
   0  -2-103   11.27    1.89
   3  -2-103    7.69    2.76
  -2  -1-103    7.27    1.73
   1  -1-103   18.24    2.79
  -1   0-103   12.23    1.76
   2   0-103   12.07    2.60
  -3   1-103   11.33    2.02
   0   1-103    9.09    2.26
  -2   2-103    8.84    1.80
   1   2-103   10.34    2.06
  -1   3-103    7.63    1.92
   0  -3-102    1.43    2.35
   3  -3-102    0.92    1.74
   1  -2-102    1.22    1.43
  -1  -1-102    0.02    1.20
   2  -1-102    1.66    1.91
  -3   0-102    0.37    1.59
   0   0-102    1.90    1.66
   3   0-102   -2.03    2.41
  -2   1-102   -0.64    1.54
   1   1-102    1.46    2.14
  -1   2-102    1.64    1.13
  -3   3-102   -1.42    1.47
   0   3-102    0.89    1.62
   1  -3-101   -1.09    1.45
  -1  -2-101   -1.14    1.39
   2  -2-101    0.97    1.38
   0  -1-101    0.91    1.14
   3  -1-101   -0.23    2.25
  -2   0-101    0.41    1.32
   1   0-101    1.26    1.69
  -1   1-101    1.37    1.02
   2   1-101    1.40    2.52
  -3   2-101   -1.13    1.66
   0   2-101    0.42    1.40
  -2   3-101   -0.52    1.22
   2  -3-100    0.94    1.57
   0  -2-100   -0.23    1.27
   3  -2-100   -0.74    1.91
  -2  -1-100    1.87    1.42
   1  -1-100    1.80    1.68
  -1   0-100    0.64    1.14
   2   0-100    0.51    1.41
  -3   1-100    0.16    1.48
   0   1-100    2.10    1.25
  -2   2-100    1.13    1.80
   1   2-100    0.18    1.55
  -1   3-100    2.19    1.54
   2  -4 -99    2.14    2.68
   0  -3 -99   -0.78    2.23
   3  -3 -99    2.50    1.69
   1  -2 -99    2.36    1.33
  -1  -1 -99    1.29    1.18
   2  -1 -99   -1.58    1.80
  -3   0 -99    0.01    1.49
   0   0 -99    1.08    1.49
   3   0 -99    2.60    2.54
  -2   1 -99    3.09    1.67
   1   1 -99    0.96    1.87
  -1   2 -99   -0.07    1.00
   2   2 -99    1.49    2.57
  -3   3 -99    2.00    1.55
   0   3 -99    2.77    1.73
   1  -3 -98    1.96    1.44
  -1  -2 -98   -0.10    1.30
   2  -2 -98    0.03    1.38
   0  -1 -98   -0.65    1.08
   3  -1 -98   -1.33    2.07
  -2   0 -98    1.03    1.26
   1   0 -98   -1.72    1.53
  -1   1 -98    0.48    0.93
   2   1 -98   -2.42    2.27
  -3   2 -98   -2.85    1.59
   0   2 -98   -1.69    1.26
  -2   3 -98   -0.30    1.15
   2  -3 -97    0.09    1.55
   0  -2 -97   -0.16    1.25
   3  -2 -97    1.79    1.99
  -2  -1 -97   -0.88    1.99
   1  -1 -97    1.38    1.55
  -1   0 -97    1.58    1.07
  -3   1 -97   -1.60    1.27
   0   1 -97    0.82    0.87
  -2   2 -97    0.26    1.22
   1   2 -97    0.58    1.32
  -1   3 -97   -0.37    1.39
   2  -4 -96  102.25    6.49
   0  -3 -96  107.65    5.90
   3  -3 -96  103.04    4.02
   1  -2 -96  142.55    4.53
   4  -2 -96   85.62    5.76
  -1  -1 -96  153.34    4.47
   2  -1 -96  144.35    6.44
  -3   0 -96  104.87    4.11
   0   0 -96  182.25    6.72
   3   0 -96  110.26    6.34
  -2   1 -96  154.13    6.33
   1   1 -96  146.06    6.64
  -1   2 -96  145.46    3.71
   2   2 -96   84.05    5.78
  -3   3 -96  102.25    4.11
   0   3 -96   97.69    4.26
   1  -3 -95   -0.52    1.32
  -1  -2 -95    1.65    2.03
   2  -2 -95    0.19    1.37
   0  -1 -95   -0.12    0.99
   3  -1 -95    0.37    1.66
  -2   0 -95   -0.35    1.22
   1   0 -95    0.21    1.46
  -4   1 -95    0.64    1.80
  -1   1 -95    1.22    1.04
   2   1 -95    2.66    2.44
  -3   2 -95   -0.41    1.27
   0   2 -95   -1.52    1.18
  -2   3 -95   -0.20    1.16
   1   3 -95    1.77    2.50
   2  -3 -94   -1.59    1.41
   0  -2 -94    1.90    1.10
   3  -2 -94    1.29    1.96
  -2  -1 -94    0.35    1.37
   1  -1 -94    2.34    1.13
  -1   0 -94   -1.23    0.97
   2   0 -94   -0.07    1.26
  -3   1 -94   -0.16    1.24
   0   1 -94    0.06    0.87
  -2   2 -94    0.71    1.26
   1   2 -94    0.71    1.39
  -1   3 -94   -0.69    1.40
   2  -4 -93   15.30    2.33
   0  -3 -93   14.69    2.88
   3  -3 -93   17.34    2.17
  -2  -2 -93   22.24    3.85
   1  -2 -93   27.89    2.30
   4  -2 -93   12.90    3.09
  -1  -1 -93   23.45    2.12
   2  -1 -93   25.15    3.21
  -3   0 -93   14.85    2.04
   0   0 -93   35.38    3.24
   3   0 -93   15.44    3.30
  -2   1 -93   23.10    1.99
   1   1 -93   23.36    2.15
  -4   2 -93   19.09    2.41
  -1   2 -93   23.53    1.73
   2   2 -93   16.88    2.36
  -3   3 -93   18.32    2.11
   0   3 -93   18.44    2.19
  -2   4 -93   16.75    2.45
   3  -4 -92    2.12    1.67
   1  -3 -92   -0.49    1.38
   4  -3 -92   -0.51    2.15
  -1  -2 -92    1.33    1.91
   2  -2 -92    0.42    1.29
  -3  -1 -92   -0.33    2.32
   0  -1 -92    0.96    1.07
   3  -1 -92    0.15    1.89
  -2   0 -92    0.97    1.18
   1   0 -92    3.20    1.16
  -4   1 -92    0.26    1.62
  -1   1 -92   -0.02    0.98
   2   1 -92   -1.45    2.08
  -3   2 -92    0.31    1.30
   0   2 -92    0.30    1.24
  -2   3 -92    1.24    1.43
   1   3 -92    1.68    1.73
  -1   4 -92    0.86    1.73
   1  -4 -91   -1.74    2.23
  -1  -3 -91   -2.40    2.12
   2  -3 -91    0.28    1.43
   0  -2 -91    0.18    1.14
   3  -2 -91   -1.25    1.71
  -2  -1 -91   -0.37    1.30
   1  -1 -91   -0.49    1.05
   4  -1 -91    3.66    3.03
  -1   0 -91    0.18    0.97
   2   0 -91   -0.61    1.17
  -3   1 -91   -0.35    1.28
   0   1 -91    0.72    0.87
   3   1 -91    0.48    2.55
  -2   2 -91    0.16    0.94
   1   2 -91   -1.55    1.24
  -4   3 -91    1.10    1.61
  -1   3 -91    0.17    1.36
  -3   4 -91   -0.88    1.60
   2  -4 -90    0.53    1.73
   0  -3 -90    8.97    2.15
   3  -3 -90    0.82    1.42
  -2  -2 -90    3.87    2.60
   1  -2 -90    3.79    1.32
   4  -2 -90    1.16    2.19
  -1  -1 -90    3.52    1.22
   2  -1 -90    5.06    1.92
  -3   0 -90    2.58    1.49
   0   0 -90    8.47    1.88
   3   0 -90    1.83    2.43
  -2   1 -90    0.87    1.06
   1   1 -90    4.27    1.27
  -4   2 -90    3.54    1.67
  -1   2 -90    2.56    0.97
   2   2 -90    0.16    1.60
  -3   3 -90    2.17    1.43
   0   3 -90    2.83    1.53
  -2   4 -90   -0.91    1.54
   3  -4 -89    8.45    1.89
   1  -3 -89   10.96    1.85
   4  -3 -89    9.10    1.95
  -1  -2 -89   12.92    2.86
   2  -2 -89   17.09    1.88
  -3  -1 -89   11.52    2.93
   0  -1 -89   15.58    1.62
   3  -1 -89   18.20    2.08
  -2   0 -89   12.63    1.66
   1   0 -89   16.00    1.71
  -4   1 -89    8.45    1.79
  -1   1 -89   14.71    1.35
   2   1 -89    8.79    1.68
  -3   2 -89    7.34    1.59
   0   2 -89   10.51    1.62
  -2   3 -89    9.31    1.40
   1   3 -89    3.70    2.65
  -1   4 -89    9.57    2.08
   1  -4 -88    0.10    2.11
  -1  -3 -88    3.37    2.48
   2  -3 -88    2.45    1.35
   0  -2 -88    3.93    1.27
   3  -2 -88   -0.42    1.91
  -2  -1 -88    0.26    1.26
   1  -1 -88    0.88    1.03
   4  -1 -88    1.17    2.66
  -1   0 -88    1.17    0.96
   2   0 -88    1.48    1.26
  -3   1 -88    0.31    1.16
   0   1 -88    2.62    0.88
   3   1 -88    2.65    2.61
  -2   2 -88    1.04    0.95
   1   2 -88    1.43    1.35
  -4   3 -88    3.19    1.49
  -1   3 -88    0.82    1.37
  -3   4 -88    1.18    1.66
   2  -4 -87   -0.33    2.11
   0  -3 -87    1.37    1.86
   3  -3 -87    2.17    1.42
  -2  -2 -87    0.15    2.18
   1  -2 -87    0.37    1.10
   4  -2 -87   -0.31    1.59
  -1  -1 -87   -0.91    1.02
   2  -1 -87    1.80    1.58
  -3   0 -87    0.51    1.22
   0   0 -87    0.06    1.14
   3   0 -87   -0.49    2.33
  -2   1 -87    0.98    1.06
   1   1 -87   -0.43    1.08
  -4   2 -87   -1.16    1.45
  -1   2 -87   -0.51    0.81
   2   2 -87   -0.18    1.58
  -3   3 -87    0.46    1.24
   0   3 -87   -1.94    1.31
  -2   4 -87   -1.62    1.54
   3  -4 -86    4.28    1.73
   1  -3 -86    4.60    1.45
   4  -3 -86    2.76    1.57
  -1  -2 -86    3.86    1.40
   2  -2 -86    4.28    1.26
  -3  -1 -86    4.71    2.42
   0  -1 -86    4.89    1.06
   3  -1 -86    3.16    1.49
  -2   0 -86    4.40    1.23
   1   0 -86    5.16    1.78
  -4   1 -86    2.37    1.55
  -1   1 -86    5.21    1.12
   2   1 -86    2.52    1.40
  -3   2 -86    2.93    1.52
   0   2 -86    3.96    1.22
  -2   3 -86    2.77    1.14
   1   3 -86    2.93    1.75
  -4   4 -86    3.15    2.42
  -1   4 -86    4.90    1.88
   1  -4 -85    3.80    2.34
   4  -4 -85    3.34    2.54
  -1  -3 -85    0.87    2.33
   2  -3 -85    6.04    1.58
   0  -2 -85    8.56    1.40
   3  -2 -85    8.76    1.58
  -2  -1 -85    5.17    1.41
   1  -1 -85   10.00    1.35
   4  -1 -85    4.84    3.08
  -1   0 -85   10.03    1.39
   2   0 -85    9.64    2.20
  -3   1 -85    4.96    1.44
   0   1 -85    9.04    1.14
   3   1 -85    0.84    2.49
  -2   2 -85    9.49    1.23
   1   2 -85    5.98    1.55
  -4   3 -85    5.15    1.61
  -1   3 -85    4.62    1.46
  -3   4 -85    4.91    1.39
   2  -4 -84    0.56    1.57
   0  -3 -84    2.83    2.06
   3  -3 -84    2.65    1.40
  -2  -2 -84    2.90    2.20
   1  -2 -84    1.73    1.13
   4  -2 -84    5.03    2.20
  -1  -1 -84    2.77    1.13
   2  -1 -84    1.94    1.58
  -3   0 -84    3.51    1.44
   0   0 -84    0.10    1.19
   3   0 -84    1.78    2.40
  -2   1 -84    4.85    1.15
   1   1 -84    1.89    1.22
  -4   2 -84    1.86    1.53
  -1   2 -84    1.97    0.90
   2   2 -84    2.08    1.58
  -3   3 -84    2.05    1.37
   0   3 -84    2.96    1.50
  -2   4 -84    3.96    1.74
   0  -4 -83   -1.98    2.19
   3  -4 -83   -1.11    1.46
   1  -3 -83    1.22    1.22
   4  -3 -83   -0.20    1.28
  -1  -2 -83    1.01    1.80
   2  -2 -83    0.35    1.06
  -3  -1 -83    1.25    2.13
   0  -1 -83    0.40    0.90
   3  -1 -83   -1.70    1.29
  -2   0 -83   -0.84    1.00
   1   0 -83   -0.32    0.94
   4   0 -83    4.32    3.14
  -4   1 -83   -0.88    1.41
  -1   1 -83    0.46    0.72
   2   1 -83   -1.57    1.14
  -3   2 -83   -1.06    0.94
   0   2 -83    0.18    1.01
  -2   3 -83   -1.27    1.01
   1   3 -83    1.61    1.36
  -4   4 -83    0.99    1.55
  -1   4 -83    1.68    1.57
   1  -4 -82   41.54    4.52
   4  -4 -82   37.11    2.85
  -1  -3 -82   41.24    4.57
   2  -3 -82   62.28    2.95
   0  -2 -82   63.70    2.81
   3  -2 -82   62.89    2.79
  -2  -1 -82   64.23    2.95
   1  -1 -82   87.05    2.97
   4  -1 -82   62.81    5.54
  -4   0 -82   33.30    4.49
  -1   0 -82   83.85    2.93
   2   0 -82   64.31    2.93
  -3   1 -82   61.54    2.89
   0   1 -82   85.34    2.45
   3   1 -82   37.61    3.00
  -2   2 -82   67.01    2.38
   1   2 -82   56.00    2.98
  -4   3 -82   39.52    2.84
  -1   3 -82   59.12    3.10
  -3   4 -82   40.26    3.16
   0   4 -82   32.31    2.99
   2  -4 -81   -0.98    2.07
   0  -3 -81    4.80    2.14
   3  -3 -81    2.15    1.27
  -2  -2 -81    1.24    2.13
   1  -2 -81    3.40    1.18
   4  -2 -81    1.14    1.82
  -1  -1 -81    3.10    1.16
   2  -1 -81    3.29    1.71
  -3   0 -81    2.22    1.35
   0   0 -81    5.60    1.03
   3   0 -81    3.51    2.35
  -2   1 -81    2.02    1.03
   1   1 -81    3.14    1.25
  -4   2 -81    1.12    1.45
  -1   2 -81    2.42    0.91
   2   2 -81    3.73    1.57
  -3   3 -81    1.52    1.27
   0   3 -81    2.28    1.36
  -2   4 -81    1.77    1.52
   0  -4 -80    2.78    2.19
   3  -4 -80    1.62    1.52
   1  -3 -80    1.27    1.80
   4  -3 -80    0.05    1.27
  -1  -2 -80    1.08    1.88
   2  -2 -80    3.97    1.21
  -3  -1 -80    2.31    2.07
   0  -1 -80    2.78    1.03
   3  -1 -80    4.74    1.90
  -2   0 -80    2.91    1.10
   1   0 -80    3.28    1.02
   4   0 -80   -0.24    2.88
  -4   1 -80    0.07    1.41
  -1   1 -80    2.81    0.97
   2   1 -80    2.82    1.26
  -3   2 -80    1.01    1.00
   0   2 -80    2.72    1.10
  -5   3 -80    7.90    3.01
  -2   3 -80    1.17    0.96
   1   3 -80    0.46    1.29
  -4   4 -80    2.22    1.66
  -1   4 -80    4.80    2.32
   1  -4 -79   64.60    5.54
   4  -4 -79   57.44    3.29
  -1  -3 -79   54.16    4.94
   2  -3 -79   83.84    3.29
   5  -3 -79   46.52    5.06
   0  -2 -79  104.71    3.48
   3  -2 -79   87.15    3.17
  -2  -1 -79   86.47    3.30
   1  -1 -79  124.98    3.61
   4  -1 -79   55.62    5.08
  -4   0 -79   53.01    5.37
  -1   0 -79  125.08    3.62
   2   0 -79  104.52    3.55
  -3   1 -79   78.70    3.22
   0   1 -79  122.21    2.97
   3   1 -79   68.22    3.45
  -2   2 -79  101.70    2.88
   1   2 -79   83.70    3.48
  -4   3 -79   63.83    3.12
  -1   3 -79   87.40    3.58
  -3   4 -79   59.38    3.51
   0   4 -79   54.88    3.49
   2  -4 -78   -0.66    1.74
   0  -3 -78    1.34    1.78
   3  -3 -78    0.40    1.07
  -2  -2 -78   -1.54    1.99
   1  -2 -78    0.61    0.99
   4  -2 -78    3.02    1.81
  -1  -1 -78    0.63    0.92
   2  -1 -78   -0.74    1.30
  -3   0 -78    0.12    1.16
   0   0 -78    0.81    0.77
   3   0 -78   -1.29    2.02
  -2   1 -78    1.30    0.92
   1   1 -78    0.96    0.99
  -4   2 -78   -1.49    1.29
  -1   2 -78   -0.43    0.71
   2   2 -78   -0.07    1.37
  -3   3 -78   -0.28    1.13
   0   3 -78   -0.19    1.25
  -2   4 -78   -1.39    1.29
   0  -4 -77    2.57    1.98
   3  -4 -77    0.69    1.35
   1  -3 -77    3.18    1.72
   4  -3 -77    1.02    1.18
  -1  -2 -77    1.67    1.67
   2  -2 -77    0.78    1.00
  -3  -1 -77    1.33    1.99
   0  -1 -77    1.27    0.93
   3  -1 -77   -0.39    1.17
  -2   0 -77    1.51    1.04
   1   0 -77    2.01    0.77
   4   0 -77    2.79    2.81
  -4   1 -77   -0.10    1.33
  -1   1 -77    2.70    0.88
   2   1 -77    0.09    1.03
  -3   2 -77    0.91    1.12
   0   2 -77    0.31    0.96
   3   2 -77    0.65    2.16
  -5   3 -77    3.08    2.69
  -2   3 -77    2.04    1.26
   1   3 -77    1.61    1.36
  -4   4 -77    0.60    1.42
  -1   4 -77    3.02    1.53
   1  -4 -76   15.23    3.20
   4  -4 -76   10.04    1.87
  -1  -3 -76   16.66    3.02
   2  -3 -76   22.66    1.97
   0  -2 -76   29.09    2.11
   3  -2 -76   28.93    2.06
  -2  -1 -76   28.27    3.40
   1  -1 -76   39.57    2.09
   4  -1 -76   19.88    2.19
  -4   0 -76   12.29    2.96
  -1   0 -76   36.45    2.08
   2   0 -76   28.18    2.11
  -3   1 -76   25.84    2.13
   0   1 -76   39.76    1.67
   3   1 -76   14.23    1.97
  -5   2 -76   12.67    2.25
  -2   2 -76   30.71    1.81
   1   2 -76   21.31    1.58
  -4   3 -76   14.15    1.84
  -1   3 -76   23.66    2.23
  -3   4 -76   12.43    1.99
   0   4 -76   15.62    2.15
   2  -4 -75    5.56    1.53
   0  -3 -75    6.93    2.18
   3  -3 -75    5.69    1.33
  -2  -2 -75    4.96    2.23
   1  -2 -75    7.58    1.33
   4  -2 -75    6.52    2.06
  -1  -1 -75    8.98    1.35
   2  -1 -75   11.09    1.36
  -3   0 -75    7.58    1.49
   0   0 -75    9.55    1.15
   3   0 -75    6.59    2.41
  -2   1 -75   11.78    1.37
   1   1 -75    7.32    1.25
  -4   2 -75    2.56    1.14
  -1   2 -75    8.87    1.35
   2   2 -75    2.10    1.74
  -3   3 -75    9.44    1.49
   0   3 -75    5.14    1.12
  -2   4 -75    4.55    1.61
   2  -5 -74    2.24    2.72
   0  -4 -74    2.96    2.15
   3  -4 -74    0.41    1.23
  -2  -3 -74   -0.31    2.28
   1  -3 -74   -0.25    1.08
   4  -3 -74    0.77    1.31
  -1  -2 -74    0.80    1.50
   2  -2 -74    0.65    0.92
   5  -2 -74    1.05    1.77
  -3  -1 -74    1.61    1.81
   0  -1 -74    0.96    0.81
   3  -1 -74    0.90    1.13
  -2   0 -74    1.21    0.96
   1   0 -74    1.16    0.66
   4   0 -74   -0.78    2.59
  -4   1 -74    2.19    1.32
  -1   1 -74    0.42    0.69
   2   1 -74    0.04    1.01
  -3   2 -74    0.41    0.87
   0   2 -74    0.38    0.92
   3   2 -74    3.03    2.52
  -5   3 -74    1.70    1.33
  -2   3 -74   -0.02    1.08
   1   3 -74    0.20    1.05
  -4   4 -74    0.90    1.32
  -1   4 -74    1.93    2.02
  -3   5 -74    1.27    2.30
   3  -5 -73   16.23    3.33
   1  -4 -73   22.52    3.47
   4  -4 -73   10.80    1.92
  -1  -3 -73   14.92    2.86
   2  -3 -73   24.31    2.03
   5  -3 -73    7.40    1.84
  -3  -2 -73    6.69    2.93
   0  -2 -73   29.42    2.12
   3  -2 -73   27.92    1.99
  -2  -1 -73   24.22    2.04
   1  -1 -73   39.13    2.00
   4  -1 -73   17.20    2.02
  -4   0 -73   11.30    3.06
  -1   0 -73   41.64    2.13
   2   0 -73   32.34    1.97
  -3   1 -73   23.68    1.98
   0   1 -73   40.81    1.67
   3   1 -73   15.03    2.07
  -5   2 -73    8.13    1.87
  -2   2 -73   31.45    1.79
   1   2 -73   22.53    1.59
  -4   3 -73   14.11    1.47
  -1   3 -73   22.24    2.06
   2   3 -73    9.38    3.06
  -3   4 -73   15.47    1.60
   0   4 -73   10.71    1.94
  -2   5 -73    3.46    2.78
   2  -4 -72    6.15    1.61
   0  -3 -72    3.46    1.85
   3  -3 -72    8.06    1.37
  -2  -2 -72   10.86    2.58
   1  -2 -72    5.86    1.24
   4  -2 -72    7.20    1.48
  -1  -1 -72    8.47    1.21
   2  -1 -72    8.11    1.72
  -3   0 -72    6.50    1.35
   0   0 -72    7.78    1.06
   3   0 -72   10.27    2.58
  -2   1 -72    6.74    1.17
   1   1 -72    4.89    1.14
   4   1 -72    5.34    2.59
  -4   2 -72    2.89    1.33
  -1   2 -72    7.65    0.98
   2   2 -72    5.51    1.55
  -3   3 -72    5.92    1.34
   0   3 -72    5.61    1.12
  -2   4 -72    9.27    2.60
   2  -5 -71    2.89    2.51
   0  -4 -71    5.18    2.39
   3  -4 -71    6.49    1.47
  -2  -3 -71    6.67    2.78
   1  -3 -71    8.48    1.46
   4  -3 -71    5.93    1.54
  -1  -2 -71   10.49    2.26
   2  -2 -71   10.77    1.33
   5  -2 -71    5.68    2.55
  -3  -1 -71    4.75    2.14
   0  -1 -71   16.52    1.50
   3  -1 -71    7.41    1.33
  -2   0 -71    9.12    1.31
   1   0 -71   12.37    1.06
   4   0 -71    3.24    2.72
  -4   1 -71    6.57    1.55
  -1   1 -71   11.71    1.30
   2   1 -71    6.13    1.31
  -3   2 -71    7.96    1.09
   0   2 -71    9.29    1.41
   3   2 -71    3.80    2.45
  -5   3 -71    4.31    1.30
  -2   3 -71    7.09    1.37
   1   3 -71    6.19    1.28
  -4   4 -71    3.34    1.47
  -1   4 -71    5.11    1.51
  -3   5 -71    5.25    1.82
   3  -5 -70    0.12    2.14
   1  -4 -70    1.90    2.02
   4  -4 -70    1.48    1.38
  -1  -3 -70    2.32    2.01
   2  -3 -70    3.58    1.15
   5  -3 -70   -0.69    1.51
  -3  -2 -70    4.65    2.66
   0  -2 -70    6.49    1.21
   3  -2 -70    5.25    1.11
  -2  -1 -70    6.28    1.97
   1  -1 -70    7.59    1.12
   4  -1 -70    3.19    1.39
  -4   0 -70   -0.05    2.21
  -1   0 -70    8.98    1.19
   2   0 -70    4.16    1.03
  -3   1 -70    5.22    1.17
   0   1 -70    6.28    0.89
   3   1 -70    5.20    1.46
  -5   2 -70    0.83    1.46
  -2   2 -70    5.29    0.92
   1   2 -70    4.57    0.96
  -4   3 -70    2.16    1.03
  -1   3 -70    4.89    1.29
   2   3 -70    0.77    2.05
  -3   4 -70    2.15    1.38
   0   4 -70    0.80    1.30
  -2   5 -70   -0.97    2.36
   4  -5 -69   -0.46    2.12
  -1  -4 -69    2.14    2.65
   2  -4 -69    2.46    1.88
   5  -4 -69    3.44    2.66
   0  -3 -69    5.64    2.03
   3  -3 -69    5.44    1.15
  -2  -2 -69    3.86    2.02
   1  -2 -69    9.01    1.28
   4  -2 -69    2.21    1.07
  -1  -1 -69    7.81    1.21
   2  -1 -69    8.40    1.66
  -3   0 -69    2.92    1.15
   0   0 -69   10.02    0.87
   3   0 -69    5.62    1.32
  -2   1 -69    9.37    1.26
   1   1 -69    6.30    1.11
   4   1 -69    1.27    2.29
  -4   2 -69    1.81    1.25
  -1   2 -69    6.32    0.92
   2   2 -69    4.39    1.39
  -3   3 -69    5.98    1.23
   0   3 -69    6.15    1.10
  -2   4 -69    3.71    1.51
   1   4 -69    1.69    1.94
   2  -5 -68    9.55    3.02
   0  -4 -68    5.49    2.33
   3  -4 -68   10.65    1.68
  -2  -3 -68    5.16    2.72
   1  -3 -68   13.47    2.46
   4  -3 -68   11.12    1.72
  -1  -2 -68   14.74    2.54
   2  -2 -68   17.17    1.54
   5  -2 -68    7.22    1.95
  -3  -1 -68    7.21    2.43
   0  -1 -68   20.73    1.62
   3  -1 -68   12.51    1.46
  -2   0 -68   15.33    1.55
   1   0 -68   20.88    1.26
   4   0 -68    8.25    2.82
  -4   1 -68    9.04    1.58
  -1   1 -68   23.09    1.37
   2   1 -68    9.79    1.50
  -3   2 -68   15.12    1.32
   0   2 -68   17.18    1.72
   3   2 -68   11.73    2.94
  -5   3 -68    6.42    1.57
  -2   3 -68   12.31    1.59
   1   3 -68   11.64    1.66
  -4   4 -68    7.40    1.64
  -1   4 -68    9.27    1.53
  -3   5 -68    3.43    2.61
   3  -5 -67    0.64    2.20
   1  -4 -67    2.89    1.96
   4  -4 -67    2.85    1.41
  -1  -3 -67    3.15    2.05
   2  -3 -67    2.66    1.05
   5  -3 -67    1.22    1.46
  -3  -2 -67   -1.94    2.12
   0  -2 -67    4.43    1.07
   3  -2 -67    2.51    0.99
  -2  -1 -67    0.24    1.52
   1  -1 -67    4.41    0.96
   4  -1 -67    3.71    2.32
  -4   0 -67   -0.60    2.06
  -1   0 -67    4.62    0.98
   2   0 -67    3.49    0.98
  -3   1 -67    3.28    1.01
   0   1 -67    3.72    0.72
   3   1 -67    3.03    1.35
  -5   2 -67    2.14    1.48
  -2   2 -67    1.59    0.70
   1   2 -67    2.91    0.82
  -4   3 -67    2.06    0.99
  -1   3 -67    3.88    1.17
   2   3 -67    2.19    2.13
  -3   4 -67    1.53    0.96
   0   4 -67    0.11    1.28
  -2   5 -67    0.71    2.33
   1  -5 -66   -2.66    2.19
   4  -5 -66   -1.00    1.58
  -1  -4 -66   -1.52    2.23
   2  -4 -66    1.99    1.71
   5  -4 -66   -1.82    1.63
   0  -3 -66    0.82    1.50
   3  -3 -66    1.24    1.03
  -2  -2 -66    0.98    1.86
   1  -2 -66    0.63    0.80
   4  -2 -66    2.59    1.05
  -4  -1 -66    0.85    2.15
  -1  -1 -66    1.36    0.81
   2  -1 -66    0.73    0.64
  -3   0 -66    3.09    1.65
   0   0 -66    2.98    0.79
   3   0 -66    0.43    0.99
  -5   1 -66    7.99    3.06
  -2   1 -66    1.46    0.80
   1   1 -66    1.99    0.88
   4   1 -66    1.58    2.39
  -4   2 -66    0.67    1.08
  -1   2 -66    2.16    0.74
   2   2 -66    0.27    1.02
  -3   3 -66    1.32    0.99
   0   3 -66    2.42    1.01
  -5   4 -66    1.90    2.02
  -2   4 -66    1.05    1.26
   1   4 -66    1.70    1.56
  -4   5 -66   -1.84    2.21
  -1   5 -66    0.70    1.59
   2  -5 -65   26.11    3.86
   0  -4 -65   25.77    3.60
   3  -4 -65   38.53    2.57
  -2  -3 -65   32.62    4.34
   1  -3 -65   50.06    3.73
   4  -3 -65   41.92    2.54
  -1  -2 -65   49.90    3.56
   2  -2 -65   64.16    2.35
   5  -2 -65   35.55    2.86
  -3  -1 -65   40.07    4.10
   0  -1 -65   75.45    2.53
   3  -1 -65   53.06    2.45
  -2   0 -65   60.66    2.43
   1   0 -65   72.21    2.02
   4   0 -65   35.72    4.22
  -4   1 -65   35.87    2.57
  -1   1 -65   71.03    2.05
   2   1 -65   54.04    2.54
  -3   2 -65   52.62    1.98
   0   2 -65   59.63    2.11
   3   2 -65   29.12    3.94
  -5   3 -65   33.17    2.58
  -2   3 -65   53.25    2.60
   1   3 -65   39.84    2.79
  -4   4 -65   36.64    2.64
  -1   4 -65   36.94    2.82
  -3   5 -65   30.74    4.51
   3  -5 -64    2.78    2.19
   1  -4 -64    8.21    2.51
   4  -4 -64    5.03    1.54
  -1  -3 -64   10.89    2.52
   2  -3 -64   10.59    1.32
   5  -3 -64    6.73    1.66
  -3  -2 -64    1.85    2.43
   0  -2 -64   20.50    2.46
   3  -2 -64   15.11    1.53
  -2  -1 -64   15.06    2.52
   1  -1 -64   28.58    1.74
   4  -1 -64    6.74    2.32
  -4   0 -64    6.00    2.51
  -1   0 -64   22.77    1.63
   2   0 -64   21.82    1.36
  -3   1 -64   14.26    1.51
   0   1 -64   25.63    1.40
   3   1 -64    7.70    1.61
  -5   2 -64    7.68    1.76
  -2   2 -64   19.33    1.36
   1   2 -64   12.92    1.21
  -4   3 -64    7.81    1.16
  -1   3 -64   11.91    1.62
   2   3 -64    5.76    1.54
  -3   4 -64    6.93    1.18
   0   4 -64    8.37    1.74
  -2   5 -64    3.48    2.54
   1  -5 -63   -1.80    2.03
   4  -5 -63    0.49    1.58
  -1  -4 -63    0.20    2.12
   2  -4 -63    0.91    1.55
   5  -4 -63    1.11    1.52
   0  -3 -63    1.43    1.56
   3  -3 -63    2.86    1.08
  -2  -2 -63    3.34    1.97
   1  -2 -63    4.04    0.97
   4  -2 -63    2.30    1.02
  -4  -1 -63    2.81    2.32
  -1  -1 -63    3.52    0.94
   2  -1 -63    3.04    0.78
   5  -1 -63    3.31    2.94
  -3   0 -63    2.02    1.02
   0   0 -63    6.10    0.62
   3   0 -63    3.57    1.12
  -5   1 -63    1.22    1.50
  -2   1 -63    2.90    0.75
   1   1 -63    3.35    0.93
   4   1 -63    2.56    2.25
  -4   2 -63    1.95    1.03
  -1   2 -63    5.33    1.03
   2   2 -63    0.95    0.99
  -3   3 -63    1.29    0.99
   0   3 -63    1.66    0.93
  -5   4 -63    0.51    1.27
  -2   4 -63    1.59    1.34
   1   4 -63   -1.87    1.33
  -4   5 -63   -0.99    1.82
  -1   5 -63    2.55    1.41
   2  -5 -62   88.28    5.89
   0  -4 -62  108.11    5.93
   3  -4 -62  123.63    4.04
  -2  -3 -62   90.04    5.86
   1  -3 -62  206.69    7.49
   4  -3 -62  132.73    4.03
  -1  -2 -62  192.88    7.33
   2  -2 -62  245.05    5.33
   5  -2 -62   87.60    6.08
  -3  -1 -62  122.64    6.10
   0  -1 -62  310.62    6.33
   3  -1 -62  206.02    4.92
  -2   0 -62  251.06    5.51
   1   0 -62  305.60    6.37
   4   0 -62  100.94    3.97
  -4   1 -62  128.25    4.12
  -1   1 -62  311.30    5.28
   2   1 -62  199.01    5.15
  -3   2 -62  199.12    4.03
   0   2 -62  244.07    4.75
   3   2 -62   98.37    5.91
  -5   3 -62   88.50    3.68
  -2   3 -62  193.06    4.07
   1   3 -62  132.01    4.33
  -4   4 -62  106.70    3.85
  -1   4 -62  127.01    4.45
  -3   5 -62   96.32    6.36
   3  -5 -61   -0.75    2.02
   1  -4 -61    5.78    1.87
   4  -4 -61    4.92    1.52
  -1  -3 -61    4.19    1.97
   2  -3 -61    8.91    1.24
   5  -3 -61    5.42    1.40
  -3  -2 -61    3.30    2.11
   0  -2 -61   11.35    1.97
   3  -2 -61    9.39    1.27
  -2  -1 -61    6.02    1.88
   1  -1 -61   19.18    1.37
   4  -1 -61    7.76    1.56
  -4   0 -61   -0.29    2.11
  -1   0 -61   21.27    1.53
   2   0 -61   14.95    1.15
  -3   1 -61    7.55    1.20
   0   1 -61   17.09    1.16
   3   1 -61    3.51    1.38
  -5   2 -61    3.53    1.44
  -2   2 -61   13.86    1.16
   1   2 -61    7.06    0.97
  -4   3 -61    6.08    1.10
  -1   3 -61    9.34    1.06
   2   3 -61    3.41    1.48
  -3   4 -61    4.53    1.43
   0   4 -61    3.83    1.31
  -2   5 -61    1.99    1.39
   1  -5 -60    4.96    2.72
   4  -5 -60    2.06    1.65
  -1  -4 -60    1.44    2.23
   2  -4 -60    2.35    1.62
   5  -4 -60    1.33    1.52
   0  -3 -60    4.20    1.69
   3  -3 -60    7.47    1.26
  -2  -2 -60    4.27    2.05
   1  -2 -60    9.59    1.20
   4  -2 -60    5.98    1.45
  -4  -1 -60    4.92    2.30
  -1  -1 -60   10.18    1.23
   2  -1 -60   11.37    1.10
   5  -1 -60    1.33    2.73
  -3   0 -60    6.87    1.88
   0   0 -60   14.34    0.98
   3   0 -60    3.92    1.19
  -5   1 -60    4.52    1.61
  -2   1 -60    9.79    0.97
   1   1 -60   10.54    0.95
   4   1 -60    3.35    2.18
  -4   2 -60    4.65    0.98
  -1   2 -60    8.64    1.22
   2   2 -60    4.18    0.98
  -3   3 -60    5.09    1.14
   0   3 -60    4.17    1.07
  -5   4 -60    1.69    1.36
  -2   4 -60    3.93    1.40
   1   4 -60    1.64    1.50
  -4   5 -60    0.57    2.15
  -1   5 -60    2.16    1.56
   2  -5 -59    0.05    2.14
   0  -4 -59    2.41    1.82
   3  -4 -59    4.58    1.29
  -2  -3 -59    5.25    2.47
   1  -3 -59    6.22    1.71
   4  -3 -59    6.10    1.83
  -1  -2 -59    7.12    1.81
   2  -2 -59   10.10    1.15
   5  -2 -59    6.10    2.68
  -3  -1 -59    3.42    1.74
   0  -1 -59   15.80    1.34
   3  -1 -59   11.07    1.33
  -2   0 -59   12.58    1.32
   1   0 -59   15.59    1.07
   4   0 -59    5.19    1.47
  -4   1 -59    6.64    1.38
  -1   1 -59   17.31    1.12
   2   1 -59    8.49    0.97
  -3   2 -59    6.21    1.10
   0   2 -59   13.49    1.09
   3   2 -59    4.75    2.12
  -5   3 -59    4.98    1.43
  -2   3 -59   11.95    1.50
   1   3 -59    4.21    1.24
  -4   4 -59    6.73    1.41
  -1   4 -59    4.51    1.25
  -3   5 -59    2.69    2.53
   3  -5 -58    2.43    2.27
   1  -4 -58    3.33    1.74
   4  -4 -58    4.57    1.40
  -1  -3 -58    8.71    2.21
   2  -3 -58    4.71    1.04
   5  -3 -58    3.91    1.62
  -3  -2 -58    5.30    2.30
   0  -2 -58    2.91    1.33
   3  -2 -58    4.78    0.99
  -2  -1 -58    4.71    1.79
   1  -1 -58    6.58    0.94
   4  -1 -58    4.41    2.07
  -4   0 -58    0.17    2.03
  -1   0 -58    7.19    0.99
   2   0 -58    4.98    0.94
  -3   1 -58    6.03    1.11
   0   1 -58    5.44    0.76
   3   1 -58    3.23    1.34
  -5   2 -58    4.30    1.50
  -2   2 -58    5.33    0.82
   1   2 -58    4.64    0.96
  -4   3 -58    4.31    1.00
  -1   3 -58    3.93    0.85
   2   3 -58    1.19    1.34
  -3   4 -58    3.17    1.29
   0   4 -58    3.26    1.32
  -2   5 -58    4.05    1.56
   1  -5 -57    0.05    2.22
   4  -5 -57    2.71    1.53
  -1  -4 -57   -2.21    1.93
   2  -4 -57    2.39    1.65
   5  -4 -57    0.16    1.40
   0  -3 -57    3.63    1.64
   3  -3 -57    0.79    0.91
  -2  -2 -57   -0.59    1.41
   1  -2 -57    3.50    0.87
   4  -2 -57    0.17    1.08
  -4  -1 -57    3.42    2.10
  -1  -1 -57    3.37    0.89
   2  -1 -57    3.07    0.64
   5  -1 -57   -0.03    2.73
  -3   0 -57    2.58    1.59
   0   0 -57    3.14    0.57
   3   0 -57    3.05    1.01
  -5   1 -57    2.13    1.49
  -2   1 -57    2.50    0.62
   1   1 -57    1.77    0.59
   4   1 -57   -1.49    1.90
  -4   2 -57    1.26    1.01
  -1   2 -57    2.56    0.90
   2   2 -57    0.34    0.86
  -3   3 -57    0.58    0.87
   0   3 -57    0.12    0.80
  -5   4 -57   -0.72    1.16
  -2   4 -57    3.55    1.86
   1   4 -57   -0.95    1.25
  -1   5 -57   -0.54    1.39
   2  -5 -56    3.89    2.24
   0  -4 -56    0.48    1.59
   3  -4 -56    1.28    1.04
  -2  -3 -56    3.33    2.24
   1  -3 -56    2.34    1.42
   4  -3 -56    1.12    1.06
  -1  -2 -56    1.55    1.43
   2  -2 -56    2.45    0.79
   5  -2 -56    1.00    1.48
  -3  -1 -56    4.19    1.80
   0  -1 -56    2.96    0.80
   3  -1 -56    2.71    0.98
  -2   0 -56    2.14    0.78
   1   0 -56    3.21    0.64
   4   0 -56   -0.14    1.19
  -4   1 -56    0.64    1.00
  -1   1 -56    4.06    0.67
   2   1 -56    2.75    0.73
  -3   2 -56    2.00    0.78
   0   2 -56    1.68    0.62
   3   2 -56   -0.47    1.86
  -5   3 -56    1.56    1.22
  -2   3 -56    2.24    0.72
   1   3 -56    1.85    1.01
  -4   4 -56    2.33    1.19
  -1   4 -56    1.23    1.03
  -3   5 -56    0.33    2.02
   0  -5 -55    3.07    2.77
   3  -5 -55    6.64    2.36
   1  -4 -55    2.83    1.81
   4  -4 -55    5.10    1.49
  -1  -3 -55    7.61    2.09
   2  -3 -55    6.89    1.09
   5  -3 -55    5.57    2.04
  -3  -2 -55    4.99    2.19
   0  -2 -55   10.08    1.75
   3  -2 -55    6.96    1.07
  -2  -1 -55    5.11    1.66
   1  -1 -55   10.34    1.01
   4  -1 -55    9.09    2.41
  -4   0 -55    7.44    2.35
  -1   0 -55    8.50    1.04
   2   0 -55    7.04    1.05
  -3   1 -55    6.24    1.08
   0   1 -55    9.62    0.86
   3   1 -55    4.65    1.48
  -5   2 -55    4.31    1.45
  -2   2 -55    7.71    0.89
   1   2 -55    7.01    0.88
  -4   3 -55    5.23    0.90
  -1   3 -55    4.62    0.85
   2   3 -55    4.15    1.45
  -3   4 -55    5.87    1.37
   0   4 -55    2.94    1.31
  -2   5 -55    4.58    1.45
   1  -5 -54    1.18    2.14
   4  -5 -54    1.06    1.46
  -1  -4 -54   -1.39    1.88
   2  -4 -54    0.43    1.40
   5  -4 -54    1.38    1.43
   0  -3 -54    1.78    1.42
   3  -3 -54    2.79    0.97
  -2  -2 -54    1.71    1.57
   1  -2 -54    2.20    0.80
   4  -2 -54    1.40    1.43
  -4  -1 -54    2.09    1.97
  -1  -1 -54    4.65    0.93
   2  -1 -54    5.50    0.72
   5  -1 -54    1.68    2.67
  -3   0 -54    4.16    0.99
   0   0 -54    6.91    0.69
   3   0 -54    2.46    1.05
  -5   1 -54    1.16    2.06
  -2   1 -54    3.38    0.65
   1   1 -54    3.52    0.66
   4   1 -54    0.69    1.61
  -4   2 -54    2.70    0.82
  -1   2 -54    2.92    0.88
   2   2 -54    1.61    0.96
  -3   3 -54    0.18    0.69
   0   3 -54    1.34    0.81
  -5   4 -54    2.10    1.25
  -2   4 -54    1.08    0.85
   1   4 -54    0.08    1.31
  -4   5 -54    4.07    2.20
  -1   5 -54    0.16    1.28
   2  -5 -53    0.16    2.07
   0  -4 -53    1.98    1.81
   3  -4 -53    0.17    0.96
  -2  -3 -53   -0.29    1.83
   1  -3 -53    3.13    1.30
   4  -3 -53    1.41    1.62
  -1  -2 -53    1.48    1.32
   2  -2 -53    3.83    0.87
   5  -2 -53   -0.31    1.44
  -3  -1 -53    0.68    1.45
   0  -1 -53    5.12    0.86
   3  -1 -53    3.20    0.72
  -2   0 -53    2.02    0.79
   1   0 -53    4.87    0.66
   4   0 -53    2.50    1.30
  -4   1 -53    1.30    1.01
  -1   1 -53    5.38    0.71
   2   1 -53    4.11    0.74
  -3   2 -53    2.92    0.74
   0   2 -53    3.44    0.72
   3   2 -53    2.20    2.04
  -5   3 -53    1.48    1.22
  -2   3 -53    3.24    0.79
   1   3 -53    0.57    0.90
  -4   4 -53    2.23    1.01
  -1   4 -53    2.71    1.05
  -3   5 -53    3.21    2.25
   0  -5 -52    1.06    1.70
   3  -5 -52    2.74    2.00
   1  -4 -52    0.64    1.46
   4  -4 -52    2.69    1.24
  -1  -3 -52    3.26    1.71
   2  -3 -52    4.82    1.04
  -3  -2 -52    5.71    2.18
   0  -2 -52    7.79    1.66
   3  -2 -52    5.18    0.99
  -2  -1 -52    3.83    1.49
   1  -1 -52   14.26    1.14
   4  -1 -52    5.95    2.14
  -4   0 -52    4.04    2.00
  -1   0 -52   14.18    1.19
   2   0 -52    7.48    1.01
   5   0 -52    1.01    2.18
  -3   1 -52    5.85    1.03
   0   1 -52   11.73    0.90
   3   1 -52    0.08    1.43
  -5   2 -52    2.48    1.37
  -2   2 -52    8.56    0.90
   1   2 -52    3.60    0.77
  -4   3 -52    4.12    0.96
  -1   3 -52    5.62    0.82
   2   3 -52    4.52    1.36
  -3   4 -52    3.85    1.21
   0   4 -52    0.67    1.14
  -5   5 -52    1.53    2.09
  -2   5 -52    0.69    1.23
   1  -5 -51    4.73    2.39
   4  -5 -51    8.56    1.71
  -1  -4 -51    9.41    2.72
   2  -4 -51   12.18    2.23
   5  -4 -51   19.72    3.17
   0  -3 -51   18.47    2.62
   3  -3 -51   18.04    1.62
  -2  -2 -51    9.88    2.20
   1  -2 -51   29.60    1.56
   4  -2 -51   13.51    2.43
  -4  -1 -51   10.71    2.67
  -1  -1 -51   35.28    2.51
   2  -1 -51   30.08    1.22
   5  -1 -51    8.73    3.07
  -3   0 -51   25.75    2.84
   0   0 -51   46.21    1.32
   3   0 -51   20.14    1.67
  -5   1 -51   14.12    1.91
  -2   1 -51   30.10    1.25
   1   1 -51   31.63    1.32
   4   1 -51   11.77    1.95
  -4   2 -51   15.08    1.22
  -1   2 -51   31.60    1.89
   2   2 -51   15.45    1.55
  -3   3 -51   19.46    1.32
   0   3 -51   18.26    1.68
  -5   4 -51    8.28    1.64
  -2   4 -51   12.40    1.56
   1   4 -51    8.68    1.75
  -1   5 -51   10.69    1.87
   2  -5 -50   -0.69    1.71
   5  -5 -50   -1.64    1.91
   0  -4 -50    0.97    1.62
   3  -4 -50    0.19    0.91
  -2  -3 -50   -0.19    1.85
   1  -3 -50    0.18    1.10
  -1  -2 -50   -0.86    1.12
   2  -2 -50   -0.78    0.60
   5  -2 -50    2.49    2.23
  -3  -1 -50    1.38    1.39
   0  -1 -50   -0.90    0.54
   3  -1 -50   -0.09    0.54
  -5   0 -50    1.04    2.49
  -2   0 -50    0.03    0.59
   1   0 -50   -0.61    0.39
   4   0 -50    0.74    1.15
  -4   1 -50   -0.26    0.83
  -1   1 -50    0.28    0.42
   2   1 -50    0.52    0.55
  -3   2 -50    0.36    0.59
   0   2 -50    0.51    0.53
   3   2 -50    1.93    1.94
  -5   3 -50    1.38    1.19
  -2   3 -50    0.30    0.80
   1   3 -50    1.99    0.90
  -4   4 -50   -0.96    0.82
  -1   4 -50    0.17    0.83
  -3   5 -50   -2.21    1.67
   0   5 -50    2.26    2.44
   0  -5 -49    1.88    1.65
   3  -5 -49    0.99    1.98
   1  -4 -49    4.40    1.91
   4  -4 -49    2.21    1.79
  -1  -3 -49    3.72    1.71
   2  -3 -49    5.62    1.01
  -3  -2 -49    2.31    1.77
   0  -2 -49    5.64    1.45
   3  -2 -49    7.31    1.44
  -2  -1 -49    4.67    1.56
   1  -1 -49   13.79    1.11
   4  -1 -49    4.49    1.98
  -4   0 -49    3.77    2.00
  -1   0 -49   12.25    1.11
   2   0 -49    9.51    1.10
   5   0 -49    2.89    1.79
  -3   1 -49    6.38    1.06
   0   1 -49   10.69    0.88
   3   1 -49    2.90    1.20
  -5   2 -49    2.14    1.33
  -2   2 -49    8.81    0.89
   1   2 -49    4.12    0.77
  -4   3 -49    5.57    0.94
  -1   3 -49    6.43    0.90
   2   3 -49    1.64    1.21
  -3   4 -49    5.39    1.35
   0   4 -49    3.03    1.17
  -5   5 -49    0.02    1.99
  -2   5 -49    2.57    1.35
   1  -5 -48  102.64    6.01
   4  -5 -48   96.58    3.87
  -1  -4 -48   97.93    4.03
   2  -4 -48  164.24    6.67
   5  -4 -48  105.57    5.87
   0  -3 -48  201.15    7.36
   3  -3 -48  196.55    4.76
  -2  -2 -48  155.57    6.66
   1  -2 -48  307.07    6.15
   4  -2 -48  165.94    6.51
  -4  -1 -48   93.60    5.65
  -1  -1 -48  307.64    6.20
   2  -1 -48  308.20    4.92
   5  -1 -48  114.75    6.53
  -3   0 -48  203.89    4.80
   0   0 -48  402.21    6.00
   3   0 -48  200.63    5.01
  -5   1 -48  100.88    5.87
  -2   1 -48  309.36    5.03
   1   1 -48  304.73    5.21
   4   1 -48  105.12    5.84
  -4   2 -48  161.90    3.60
  -1   2 -48  309.85    6.63
   2   2 -48  166.57    4.59
  -3   3 -48  198.65    3.84
   0   3 -48  199.74    5.23
  -5   4 -48   94.69    3.77
  -2   4 -48  167.38    4.92
   1   4 -48  109.59    4.25
  -4   5 -48  100.12    5.90
  -1   5 -48  103.66    4.26
   2  -5 -47    1.44    1.63
   5  -5 -47    1.87    2.32
   0  -4 -47    2.54    1.78
   3  -4 -47    3.19    1.06
  -2  -3 -47    6.01    2.18
   1  -3 -47    3.36    1.23
  -1  -2 -47    7.28    1.74
   2  -2 -47    6.64    0.93
   5  -2 -47    6.91    2.54
  -3  -1 -47    3.81    1.45
   0  -1 -47    8.09    0.91
   3  -1 -47    4.50    0.73
  -5   0 -47   -0.08    2.22
  -2   0 -47    3.46    0.77
   1   0 -47    8.14    0.70
   4   0 -47    2.02    1.23
  -4   1 -47   -0.75    0.84
  -1   1 -47    9.00    0.77
   2   1 -47    3.26    0.67
  -3   2 -47    4.32    0.74
   0   2 -47    5.77    0.76
   3   2 -47    2.35    1.90
  -5   3 -47    1.90    1.32
  -2   3 -47    5.14    1.07
   1   3 -47    2.21    0.99
  -4   4 -47    1.52    0.94
  -1   4 -47    2.91    1.05
  -3   5 -47   -2.04    1.82
   0   5 -47    1.17    1.52
   0  -5 -46   -1.81    1.50
   3  -5 -46    0.32    1.79
   1  -4 -46    0.74    1.47
   4  -4 -46   -1.29    1.55
  -1  -3 -46    0.17    1.37
   2  -3 -46    0.61    0.69
   5  -3 -46    1.56    2.08
  -3  -2 -46    2.48    1.79
   0  -2 -46   -1.45    0.76
  -2  -1 -46   -0.40    1.02
   1  -1 -46    0.33    0.49
   4  -1 -46    0.13    0.87
  -4   0 -46   -2.65    1.46
  -1   0 -46   -0.50    0.50
   2   0 -46    0.25    0.59
   5   0 -46    0.64    1.69
  -3   1 -46   -0.49    0.62
   0   1 -46   -0.20    0.42
   3   1 -46   -1.06    1.11
  -5   2 -46    0.61    1.15
  -2   2 -46    0.15    0.50
   1   2 -46   -0.02    0.56
  -4   3 -46    0.58    0.72
  -1   3 -46   -0.44    0.59
   2   3 -46    0.53    1.10
  -3   4 -46   -0.29    0.93
   0   4 -46   -1.00    0.90
  -5   5 -46    2.15    1.85
  -2   5 -46    1.99    1.27
   1  -5 -45    7.80    2.50
   4  -5 -45   17.58    2.11
  -1  -4 -45   13.12    2.05
   2  -4 -45   26.17    3.00
  -3  -3 -45    9.52    2.78
   0  -3 -45   30.36    3.10
   3  -3 -45   31.43    2.90
  -2  -2 -45   22.52    2.92
   1  -2 -45   42.18    1.68
   4  -2 -45   24.87    2.83
  -4  -1 -45   10.49    2.57
  -1  -1 -45   42.63    2.68
   2  -1 -45   40.38    1.34
  -3   0 -45   23.30    2.66
   0   0 -45   57.12    1.41
   3   0 -45   29.66    1.88
  -5   1 -45   11.47    2.55
  -2   1 -45   43.36    1.35
   1   1 -45   41.63    1.39
   4   1 -45   13.87    2.75
  -4   2 -45   26.40    1.62
  -1   2 -45   43.76    1.54
   2   2 -45   21.05    1.77
  -3   3 -45   30.52    1.42
   0   3 -45   28.90    1.99
  -5   4 -45   16.06    1.94
  -2   4 -45   19.63    1.86
   1   4 -45   19.73    2.26
  -4   5 -45   20.96    3.34
  -1   5 -45   12.74    1.82
  -3   6 -45    6.75    3.13
   2  -5 -44    3.89    1.95
   5  -5 -44    2.06    2.21
   0  -4 -44    4.86    1.94
   3  -4 -44    3.04    1.05
  -2  -3 -44    2.57    1.82
   1  -3 -44    3.93    1.26
  -1  -2 -44    5.25    1.47
   2  -2 -44    4.23    0.77
   5  -2 -44    4.61    2.32
  -3  -1 -44    0.80    1.37
   0  -1 -44    7.05    0.85
   3  -1 -44    3.79    0.82
  -5   0 -44   -0.36    2.17
  -2   0 -44    4.57    0.82
   1   0 -44    4.79    0.59
   4   0 -44    3.20    1.21
  -4   1 -44    3.05    1.02
  -1   1 -44    6.00    0.61
   2   1 -44    3.95    0.65
  -3   2 -44    3.55    0.67
   0   2 -44    2.90    0.61
   3   2 -44    3.71    2.13
  -5   3 -44    2.44    1.27
  -2   3 -44    3.16    0.93
   1   3 -44    2.32    1.00
  -4   4 -44    0.91    0.97
  -1   4 -44    2.12    0.95
  -3   5 -44    1.53    1.94
   0   5 -44    0.48    1.33
   0  -5 -43    1.78    2.15
   3  -5 -43   -0.49    1.80
   1  -4 -43   -0.56    1.41
   4  -4 -43   -1.27    1.40
  -1  -3 -43    0.91    0.97
   2  -3 -43    2.60    0.71
   5  -3 -43    1.19    2.06
  -3  -2 -43    2.46    1.68
   0  -2 -43    3.75    1.12
   3  -2 -43    5.26    1.48
  -2  -1 -43    3.23    1.29
   1  -1 -43    5.38    0.68
   4  -1 -43    2.68    0.98
  -4   0 -43   -0.35    1.48
  -1   0 -43    3.95    0.69
   2   0 -43    3.95    0.80
   5   0 -43   -0.86    1.63
  -3   1 -43    1.61    0.71
   0   1 -43    5.04    0.53
   3   1 -43    1.40    1.10
  -5   2 -43    0.43    1.18
  -2   2 -43    4.54    0.57
   1   2 -43    2.30    0.73
  -4   3 -43    0.66    0.75
  -1   3 -43    0.79    0.64
   2   3 -43    0.44    1.08
  -3   4 -43    0.69    0.76
   0   4 -43    0.82    1.01
  -5   5 -43   -2.63    1.65
  -2   5 -43    0.32    1.18
   3  -6 -42    0.12    2.12
   1  -5 -42    3.91    2.05
   4  -5 -42   -0.64    1.91
  -1  -4 -42   -1.24    1.23
   2  -4 -42    0.47    1.20
   0  -3 -42    0.76    1.20
   3  -3 -42   -1.02    1.02
  -2  -2 -42    1.85    1.25
   1  -2 -42    0.31    0.51
   4  -2 -42    1.02    1.57
  -4  -1 -42    0.49    1.85
  -1  -1 -42    1.44    0.98
   2  -1 -42   -0.12    0.53
   5  -1 -42   -1.64    2.10
  -3   0 -42    0.45    0.98
   0   0 -42    1.47    0.34
   3   0 -42   -0.09    0.75
  -5   1 -42    0.97    1.90
  -2   1 -42    0.46    0.41
   1   1 -42    0.30    0.44
   4   1 -42   -0.14    1.83
  -4   2 -42   -0.24    0.65
  -1   2 -42    1.17    0.46
   2   2 -42    0.26    0.77
  -3   3 -42    0.73    0.58
   0   3 -42    0.70    0.64
  -5   4 -42    1.63    1.18
  -2   4 -42    1.17    0.83
   1   4 -42   -0.07    1.17
  -1   5 -42    0.31    1.14
  -3   6 -42   -1.31    1.54
   2  -5 -41   14.97    2.70
   5  -5 -41   13.14    3.12
   0  -4 -41   15.69    2.73
   3  -4 -41   22.27    2.83
  -2  -3 -41   11.62    2.50
   1  -3 -41   32.04    2.47
  -4  -2 -41    9.93    3.02
  -1  -2 -41   34.83    2.69
   2  -2 -41   44.50    1.70
   5  -2 -41   18.04    3.08
  -3  -1 -41   28.13    3.09
   0  -1 -41   59.63    1.92
   3  -1 -41   35.74    1.67
  -5   0 -41   10.22    2.75
  -2   0 -41   44.63    1.73
   1   0 -41   61.42    1.50
   4   0 -41   23.11    2.23
  -4   1 -41   26.61    2.05
  -1   1 -41   60.69    1.53
   2   1 -41   34.28    1.39
  -6   2 -41    8.78    2.61
  -3   2 -41   33.99    1.39
   0   2 -41   46.39    1.56
   3   2 -41   15.94    2.99
  -5   3 -41   16.19    1.91
  -2   3 -41   34.18    1.89
   1   3 -41   24.04    1.95
  -4   4 -41   22.43    1.63
  -1   4 -41   21.78    2.01
  -3   5 -41   19.55    3.43
   0   5 -41    9.25    1.90
  -2   6 -41   13.33    3.82
   2  -6 -40   -1.40    2.17
   0  -5 -40   -0.11    1.85
   3  -5 -40   -0.08    1.67
   1  -4 -40    1.67    1.45
   4  -4 -40    0.43    1.60
  -1  -3 -40    0.08    0.93
   2  -3 -40    0.29    0.60
   5  -3 -40    1.42    2.05
  -3  -2 -40    1.60    1.67
   0  -2 -40    0.76    0.85
  -2  -1 -40    0.33    1.09
   1  -1 -40    0.33    0.43
   4  -1 -40    0.46    0.87
  -4   0 -40   -0.14    1.46
  -1   0 -40    0.47    0.48
   2   0 -40    0.05    0.55
   5   0 -40    3.44    2.04
  -3   1 -40    0.78    0.50
   0   1 -40    0.26    0.36
   3   1 -40   -0.47    1.20
  -5   2 -40    0.76    1.12
  -2   2 -40   -0.04    0.36
   1   2 -40   -0.16    0.54
  -4   3 -40    0.44    0.69
  -1   3 -40   -0.55    0.56
   2   3 -40   -0.34    1.07
  -3   4 -40    1.02    1.27
   0   4 -40   -0.28    0.84
  -5   5 -40   -0.89    1.32
  -2   5 -40   -0.64    1.02
   3  -6 -39    4.84    2.43
   1  -5 -39    4.36    2.06
   4  -5 -39    7.43    2.40
  -1  -4 -39    6.96    1.70
   2  -4 -39    9.65    1.98
   0  -3 -39   16.30    2.25
   3  -3 -39   16.57    2.19
  -2  -2 -39   14.40    2.29
   1  -2 -39   27.93    1.33
   4  -2 -39   16.37    2.43
  -4  -1 -39    2.04    1.94
  -1  -1 -39   30.80    2.23
   2  -1 -39   28.22    1.01
   5  -1 -39    5.87    1.54
  -3   0 -39   16.86    2.25
   0   0 -39   44.63    1.02
   3   0 -39   15.73    1.48
  -5   1 -39    6.50    2.13
  -2   1 -39   31.00    1.11
   1   1 -39   29.64    1.15
   4   1 -39    4.64    2.15
  -4   2 -39   16.08    1.58
  -1   2 -39   31.95    1.24
   2   2 -39   10.33    1.36
  -6   3 -39    5.67    2.31
  -3   3 -39   16.93    1.16
   0   3 -39   13.04    1.38
  -5   4 -39    5.73    1.48
  -2   4 -39   12.68    1.52
   1   4 -39    6.69    1.53
  -4   5 -39    6.60    1.96
  -1   5 -39    7.41    1.65
  -3   6 -39    8.15    2.71
   2  -5 -38    0.16    1.47
   5  -5 -38   -0.85    1.89
   0  -4 -38   -1.31    1.35
   3  -4 -38    0.26    1.24
  -2  -3 -38    0.65    1.71
   1  -3 -38    1.05    0.86
  -4  -2 -38   -0.77    1.97
  -1  -2 -38   -0.28    1.00
   2  -2 -38    2.33    0.88
   5  -2 -38    0.94    2.00
  -3  -1 -38    2.40    1.28
   0  -1 -38    1.30    0.55
   3  -1 -38    0.58    0.61
  -5   0 -38   -1.18    1.91
  -2   0 -38    0.78    0.52
   1   0 -38    1.71    0.40
   4   0 -38    1.66    1.08
  -4   1 -38    0.94    0.86
  -1   1 -38    1.75    0.34
   2   1 -38    0.52    0.51
  -6   2 -38   -1.20    2.13
  -3   2 -38    0.59    0.51
   0   2 -38    1.95    0.55
   3   2 -38    0.00    1.42
  -5   3 -38   -0.16    1.01
  -2   3 -38    0.29    0.54
   1   3 -38   -0.47    0.73
  -4   4 -38   -0.24    0.79
  -1   4 -38    0.36    0.84
  -3   5 -38   -0.90    1.08
   0   5 -38   -1.31    1.23
  -2   6 -38   -1.66    2.61
   0  -5 -37    5.54    2.43
   3  -5 -37   11.85    2.47
   1  -4 -37   10.80    2.09
   4  -4 -37    6.79    2.08
  -1  -3 -37   10.99    1.49
   2  -3 -37   20.75    1.48
   5  -3 -37    8.31    2.24
  -3  -2 -37    9.38    2.12
   0  -2 -37   25.43    2.32
  -2  -1 -37   18.17    2.24
   1  -1 -37   33.00    1.25
   4  -1 -37   14.88    1.60
  -4   0 -37    6.75    1.88
  -1   0 -37   32.62    1.28
   2   0 -37   23.68    1.34
   5   0 -37    8.26    2.59
  -3   1 -37   22.09    1.17
   0   1 -37   32.63    1.13
   3   1 -37   11.44    2.09
  -5   2 -37   12.67    1.59
  -2   2 -37   23.27    0.93
   1   2 -37   16.93    1.40
  -4   3 -37   15.93    1.27
  -1   3 -37   18.01    1.50
   2   3 -37    8.33    1.56
  -3   4 -37    9.36    2.09
   0   4 -37   11.87    1.62
  -5   5 -37   10.24    1.70
  -2   5 -37    5.63    1.40
   3  -6 -36    2.66    2.35
   1  -5 -36    4.58    2.20
   4  -5 -36   10.82    2.55
  -1  -4 -36    7.48    1.64
   2  -4 -36   12.59    2.09
   0  -3 -36   20.27    2.49
   6  -3 -36    3.54    2.77
  -2  -2 -36   14.47    2.24
   1  -2 -36   33.52    1.42
   4  -2 -36   16.33    2.44
  -4  -1 -36   10.10    2.53
  -1  -1 -36   35.49    2.30
   2  -1 -36   37.04    1.34
   5  -1 -36   12.41    1.90
  -3   0 -36   18.64    2.24
   0   0 -36   53.74    1.11
   3   0 -36   18.97    1.65
  -5   1 -36   12.78    2.68
  -2   1 -36   35.36    1.16
   1   1 -36   34.98    1.21
   4   1 -36    9.07    2.51
  -4   2 -36   19.61    1.70
  -1   2 -36   34.67    1.27
   2   2 -36   18.64    1.63
  -6   3 -36    7.64    1.79
  -3   3 -36   22.62    1.31
   0   3 -36   19.42    1.65
   3   3 -36    0.69    2.81
  -5   4 -36    7.56    1.54
  -2   4 -36   12.42    1.50
   1   4 -36   10.08    1.69
  -1   5 -36    7.63    1.61
  -3   6 -36    7.14    2.63
   4  -6 -35    4.41    2.51
   2  -5 -35    2.09    1.73
   5  -5 -35    4.71    2.37
   0  -4 -35    2.02    1.56
   3  -4 -35    6.15    1.75
  -2  -3 -35    3.42    1.69
   1  -3 -35    9.34    1.61
  -1  -2 -35   10.44    1.82
   2  -2 -35   16.69    1.81
   5  -2 -35    5.95    2.21
  -3  -1 -35    2.40    1.18
   0  -1 -35   21.13    1.18
   3  -1 -35    9.41    1.04
  -5   0 -35    1.70    1.99
  -2   0 -35   17.72    1.22
   1   0 -35   20.34    0.68
   4   0 -35    3.83    1.29
  -4   1 -35    5.82    1.75
  -1   1 -35   22.00    0.85
   2   1 -35   11.09    0.94
  -6   2 -35    0.45    2.06
  -3   2 -35   11.94    0.93
   0   2 -35   15.15    1.19
   3   2 -35    4.04    1.99
  -5   3 -35    3.67    1.23
  -2   3 -35   11.80    1.00
   1   3 -35    2.63    0.90
  -4   4 -35    2.82    0.89
  -1   4 -35    5.85    1.22
   2   4 -35   -0.49    2.06
  -3   5 -35    3.34    1.35
   0   5 -35    1.49    1.48
  -2   6 -35    1.13    2.10
   0  -5 -34   60.62    4.69
   3  -5 -34   83.44    4.93
   1  -4 -34  132.15    5.83
  -1  -3 -34  127.58    5.57
   2  -3 -34  193.76    6.55
   5  -3 -34   95.22    5.22
  -3  -2 -34   85.58    4.85
   0  -2 -34  249.01    7.75
   3  -2 -34  203.36    6.41
  -2  -1 -34  196.39    6.74
   1  -1 -34  354.21    6.37
   4  -1 -34  130.78    3.82
  -4   0 -34  108.43    5.31
  -1   0 -34  357.51    6.42
   2   0 -34  252.53    5.36
   5   0 -34   69.09    5.02
  -3   1 -34  197.04    4.45
   0   1 -34  362.22    5.59
   3   1 -34  121.98    3.91
  -5   2 -34   94.70    3.45
  -2   2 -34  259.73    3.70
   1   2 -34  200.27    4.71
  -4   3 -34  129.23    3.03
  -1   3 -34  209.17    4.95
   2   3 -34   89.95    3.61
  -3   4 -34  126.01    5.83
   0   4 -34  109.71    3.90
  -5   5 -34   72.60    3.28
  -2   5 -34   91.89    3.74
   3  -6 -33   -0.05    2.08
   1  -5 -33    0.64    1.79
   4  -5 -33    1.15    1.84
  -1  -4 -33    0.60    1.22
   2  -4 -33    1.12    1.24
   0  -3 -33    2.85    1.34
   6  -3 -33    1.30    2.64
  -2  -2 -33    2.85    1.22
   1  -2 -33    4.64    0.69
   4  -2 -33    2.61    1.47
  -4  -1 -33    2.08    1.89
  -1  -1 -33    5.26    1.23
   2  -1 -33    5.09    0.64
   5  -1 -33    4.24    1.42
  -3   0 -33    3.62    1.11
   0   0 -33    7.88    0.57
   3   0 -33    4.36    0.95
  -5   1 -33    1.36    1.73
  -2   1 -33    5.40    0.56
   1   1 -33    4.41    0.56
   4   1 -33    0.92    1.61
  -4   2 -33    1.95    0.86
  -1   2 -33    5.44    0.55
   2   2 -33    2.86    0.89
  -6   3 -33    0.68    1.37
  -3   3 -33    4.45    0.73
   0   3 -33    3.23    0.80
   3   3 -33   -0.64    2.33
  -5   4 -33    2.36    1.19
  -2   4 -33    3.42    0.92
   1   4 -33    1.73    1.25
  -4   5 -33    1.59    1.43
  -1   5 -33    1.84    1.32
  -3   6 -33    0.44    2.14
   4  -6 -32   -0.95    2.17
   2  -5 -32   -0.01    1.40
   5  -5 -32   -3.33    1.93
   0  -4 -32    1.79    1.44
   3  -4 -32    3.61    1.46
   6  -4 -32    1.50    2.57
  -2  -3 -32    2.49    1.69
   1  -3 -32    5.92    1.34
   4  -3 -32    3.73    1.61
  -1  -2 -32    2.99    1.23
   5  -2 -32    0.31    2.03
  -3  -1 -32    2.77    1.36
   0  -1 -32    9.38    0.86
   3  -1 -32    4.58    0.80
  -5   0 -32    1.54    1.98
  -2   0 -32    7.09    0.80
   1   0 -32    8.08    0.48
   4   0 -32    0.82    1.00
  -4   1 -32    1.44    0.85
  -1   1 -32    8.31    0.51
   2   1 -32    3.18    0.68
  -6   2 -32    3.77    2.13
  -3   2 -32    4.37    0.66
   0   2 -32    6.28    0.81
   3   2 -32    1.73    1.04
  -5   3 -32    1.29    1.05
  -2   3 -32    3.53    0.81
   1   3 -32    3.76    0.97
  -4   4 -32    2.18    0.84
  -1   4 -32    2.39    0.74
   2   4 -32    0.47    2.05
  -3   5 -32    0.35    1.06
   0   5 -32    1.85    1.37
  -2   6 -32    0.98    2.08
   0  -5 -31   58.06    5.31
   3  -5 -31   75.04    4.63
   1  -4 -31   99.46    5.02
  -1  -3 -31  109.99    3.41
   2  -3 -31  155.90    5.46
   5  -3 -31   76.49    4.80
  -3  -2 -31   72.83    4.38
   0  -2 -31  195.38    6.31
   3  -2 -31  150.90    3.51
  -2  -1 -31  147.93    5.56
   1  -1 -31  272.34    4.96
   4  -1 -31  109.04    3.41
  -4   0 -31   89.12    4.76
  -1   0 -31  272.88    5.02
   2   0 -31  198.62    4.32
   5   0 -31   59.96    3.59
  -3   1 -31  153.82    3.67
   0   1 -31  267.09    4.35
   3   1 -31  113.70    5.10
  -5   2 -31   84.83    3.22
  -2   2 -31  195.29    2.96
   1   2 -31  153.66    3.89
  -4   3 -31  105.75    2.71
  -1   3 -31  155.86    3.36
   2   3 -31   77.31    3.34
  -6   4 -31   44.16    5.03
  -3   4 -31  107.59    3.41
   0   4 -31   87.87    2.81
  -5   5 -31   57.39    3.16
  -2   5 -31   75.10    3.34
   3  -6 -30    3.20    2.20
   1  -5 -30   -0.55    1.55
   4  -5 -30    0.95    1.82
  -1  -4 -30    2.97    1.99
   2  -4 -30    1.17    1.15
   0  -3 -30    1.66    1.16
   6  -3 -30    0.93    2.68
  -2  -2 -30    4.90    1.47
   1  -2 -30   11.58    0.94
   4  -2 -30    3.46    0.90
  -4  -1 -30    0.58    1.74
  -1  -1 -30   10.69    1.45
   2  -1 -30   10.06    0.81
   5  -1 -30    0.70    1.22
  -3   0 -30    4.81    1.19
   0   0 -30   16.97    0.68
   3   0 -30    4.17    0.96
  -5   1 -30    2.20    1.72
  -2   1 -30   10.84    0.74
   1   1 -30   10.31    0.76
   4   1 -30    1.98    1.75
  -4   2 -30    1.80    0.89
  -1   2 -30   12.31    0.85
   2   2 -30    1.85    0.80
  -6   3 -30    1.98    1.38
  -3   3 -30    5.44    0.74
   0   3 -30    5.97    0.79
   3   3 -30    3.76    1.57
  -5   4 -30    3.33    1.20
  -2   4 -30    3.62    0.77
   1   4 -30   -0.15    1.17
  -1   5 -30    3.12    0.99
  -3   6 -30    0.23    1.93
   4  -6 -29    4.19    2.26
   2  -5 -29    0.15    1.42
   5  -5 -29    1.18    2.27
   0  -4 -29    1.74    1.39
   3  -4 -29    3.24    1.51
  -2  -3 -29   -1.30    1.36
   1  -3 -29    4.17    1.28
  -1  -2 -29    3.80    1.26
   5  -2 -29    1.37    1.86
  -3  -1 -29    0.71    1.04
   0  -1 -29   10.53    0.84
   3  -1 -29    4.56    0.83
  -5   0 -29    3.10    2.05
  -2   0 -29    7.34    1.23
   1   0 -29    9.92    0.50
   4   0 -29    1.35    1.01
  -4   1 -29    2.41    0.82
  -1   1 -29   10.65    0.54
   2   1 -29    3.98    0.61
  -6   2 -29    1.33    1.53
  -3   2 -29    4.58    0.68
   0   2 -29    6.19    0.79
   3   2 -29   -0.23    0.96
  -5   3 -29    1.18    1.03
  -2   3 -29    3.34    0.65
   1   3 -29    1.90    0.79
  -4   4 -29    2.87    0.87
  -1   4 -29    0.86    0.64
   2   4 -29    0.53    1.48
  -3   5 -29    1.47    1.10
   0   5 -29    1.49    1.42
  -2   6 -29   -0.90    1.83
   0  -5 -28    8.59    2.65
   3  -5 -28   12.21    2.38
  -2  -4 -28    7.22    3.20
   1  -4 -28   12.20    2.15
  -1  -3 -28   15.64    1.58
   2  -3 -28   17.83    2.00
   5  -3 -28   13.33    2.62
  -3  -2 -28    9.45    2.01
   0  -2 -28   27.22    2.04
   3  -2 -28   19.23    1.39
  -2  -1 -28   23.28    2.33
   1  -1 -28   37.49    1.18
   4  -1 -28   16.76    1.60
  -4   0 -28   12.69    2.14
  -1   0 -28   34.30    1.21
   2   0 -28   31.47    1.35
   5   0 -28   10.00    2.68
  -3   1 -28   23.75    1.34
   0   1 -28   35.99    1.07
   3   1 -28   12.17    1.31
  -5   2 -28   12.36    2.42
  -2   2 -28   26.61    0.88
   1   2 -28   17.99    1.38
   4   2 -28    6.67    2.76
  -4   3 -28   19.02    1.34
  -1   3 -28   22.17    1.32
   2   3 -28   12.61    1.66
  -6   4 -28    1.81    2.34
  -3   4 -28   13.28    1.50
   0   4 -28   12.24    1.30
  -5   5 -28    8.08    1.70
  -2   5 -28    9.78    1.29
   3  -6 -27    3.35    2.37
   1  -5 -27   11.71    2.57
   4  -5 -27   10.39    2.58
  -1  -4 -27   14.87    2.78
   2  -4 -27   28.35    2.81
   0  -3 -27   29.48    2.75
   6  -3 -27   11.78    3.14
  -2  -2 -27   23.50    2.62
   1  -2 -27   55.20    2.46
   4  -2 -27   25.86    1.79
  -4  -1 -27    8.83    2.29
  -1  -1 -27   55.00    2.58
   2  -1 -27   54.19    1.57
   5  -1 -27   15.04    1.96
  -3   0 -27   32.24    2.36
   0   0 -27   82.74    1.35
   3   0 -27   31.98    1.81
  -5   1 -27   11.38    2.37
  -2   1 -27   53.80    1.34
   1   1 -27   51.39    1.38
   4   1 -27    9.50    2.65
  -4   2 -27   23.90    1.81
  -1   2 -27   53.94    1.47
   2   2 -27   24.19    1.78
  -6   3 -27    8.22    1.78
  -3   3 -27   29.61    1.26
   0   3 -27   29.90    1.37
   3   3 -27   11.56    2.08
  -5   4 -27   13.60    1.72
  -2   4 -27   25.78    1.58
   1   4 -27   12.40    1.81
  -4   5 -27    8.73    2.28
  -1   5 -27   12.00    1.49
  -3   6 -27   10.85    2.63
   4  -6 -26    5.72    2.48
   2  -5 -26   14.27    2.59
   0  -4 -26   19.09    1.91
   3  -4 -26   21.15    2.55
  -2  -3 -26   11.27    2.26
   1  -3 -26   37.05    2.43
   4  -3 -26   30.62    2.88
  -1  -2 -26   38.27    1.65
   5  -2 -26   13.66    1.74
  -3  -1 -26   19.29    2.49
   0  -1 -26   77.90    2.95
   3  -1 -26   35.79    1.59
  -5   0 -26   13.75    2.78
  -2   0 -26   54.04    1.68
   1   0 -26   81.19    1.33
   4   0 -26   17.18    1.89
  -4   1 -26   24.35    1.77
  -1   1 -26   80.34    1.37
   2   1 -26   36.25    1.56
  -6   2 -26    7.48    2.59
  -3   2 -26   37.10    1.32
   0   2 -26   51.82    1.53
   3   2 -26   13.99    1.75
  -5   3 -26    9.92    1.53
  -2   3 -26   37.54    1.77
   1   3 -26   24.05    1.59
  -4   4 -26   18.27    1.66
  -1   4 -26   23.35    1.60
   2   4 -26    4.74    1.74
  -3   5 -26   12.84    1.70
   0   5 -26    9.96    1.51
  -2   6 -26    5.04    1.61
   0  -5 -25    8.35    2.54
   3  -5 -25    5.78    1.84
  -2  -4 -25    5.43    3.22
   1  -4 -25   10.88    1.93
  -1  -3 -25   12.03    1.35
   2  -3 -25   21.07    2.14
   5  -3 -25    5.23    2.12
  -3  -2 -25    8.93    1.99
   0  -2 -25   26.52    2.25
   3  -2 -25   16.19    1.05
   6  -2 -25    1.92    2.62
  -2  -1 -25   17.64    1.96
   1  -1 -25   26.91    1.00
   4  -1 -25    9.48    1.29
  -4   0 -25    6.17    1.78
  -1   0 -25   25.97    1.00
   2   0 -25   20.16    1.19
   5   0 -25    6.17    2.38
  -3   1 -25   16.34    1.24
   0   1 -25   27.09    0.90
   3   1 -25   11.52    1.30
  -5   2 -25   10.48    1.43
  -2   2 -25   20.86    0.83
   1   2 -25   16.60    1.09
   4   2 -25    6.25    2.82
  -4   3 -25   12.99    1.36
  -1   3 -25   18.66    1.21
   2   3 -25    8.56    1.37
  -6   4 -25    5.18    1.71
  -3   4 -25   13.34    1.42
   0   4 -25    9.82    1.23
  -5   5 -25   10.25    1.74
  -2   5 -25   10.35    1.26
   3  -6 -24    3.96    2.56
   1  -5 -24    0.93    1.67
   4  -5 -24   -0.26    1.65
  -1  -4 -24    5.44    2.02
   2  -4 -24    3.16    1.24
   0  -3 -24    4.56    1.40
   6  -3 -24    6.72    3.04
  -2  -2 -24    4.32    1.46
   1  -2 -24    4.57    0.60
   4  -2 -24    4.42    0.90
  -4  -1 -24    6.15    1.97
  -1  -1 -24    3.61    0.94
   2  -1 -24    5.93    0.65
   5  -1 -24    3.77    1.37
  -3   0 -24    5.76    1.34
   0   0 -24    5.78    0.41
   3   0 -24    3.21    0.80
  -5   1 -24    4.74    1.90
  -2   1 -24    5.92    0.56
   1   1 -24    5.11    0.61
   4   1 -24    6.12    2.44
  -4   2 -24    2.93    0.91
  -1   2 -24    5.53    0.51
   2   2 -24    2.58    0.75
  -6   3 -24    3.34    1.55
  -3   3 -24    3.40    0.66
   0   3 -24    3.75    0.68
   3   3 -24    2.73    1.48
  -5   4 -24    4.51    1.20
  -2   4 -24    3.65    0.78
   1   4 -24    6.75    1.14
  -4   5 -24    2.06    1.78
  -1   5 -24    2.69    0.98
  -3   6 -24    5.54    2.10
   4  -6 -23    9.64    2.78
   2  -5 -23   27.34    3.14
   0  -4 -23   24.99    2.14
   3  -4 -23   41.12    3.45
   6  -4 -23   16.26    3.64
  -2  -3 -23   21.50    2.79
   1  -3 -23   57.68    2.99
  -1  -2 -23   58.34    2.06
   5  -2 -23   25.44    2.18
  -3  -1 -23   33.17    2.62
   0  -1 -23  120.02    3.86
   3  -1 -23   60.35    2.04
  -5   0 -23   10.25    2.47
  -2   0 -23   81.38    3.27
   1   0 -23  118.63    2.05
   4   0 -23   33.93    3.49
  -4   1 -23   37.62    2.85
  -1   1 -23  120.97    1.80
   2   1 -23   57.39    1.99
  -6   2 -23   14.22    2.03
  -3   2 -23   58.23    1.63
   0   2 -23   82.51    1.95
   3   2 -23   19.82    2.00
  -5   3 -23   23.58    2.02
  -2   3 -23   60.22    1.47
   1   3 -23   36.78    1.65
  -4   4 -23   30.66    2.08
  -1   4 -23   37.11    1.89
   2   4 -23   12.52    2.16
  -3   5 -23   22.57    1.68
   0   5 -23   19.19    1.94
  -2   6 -23   15.35    2.16
   0  -5 -22    1.54    2.14
   3  -5 -22    3.54    1.72
   1  -4 -22    2.14    1.16
  -1  -3 -22    1.12    0.77
   2  -3 -22    2.28    1.00
   5  -3 -22    1.88    1.77
  -3  -2 -22    0.54    1.25
   0  -2 -22    2.22    0.85
   3  -2 -22    1.19    0.54
   6  -2 -22   -1.95    2.59
  -2  -1 -22    1.38    0.92
   4  -1 -22    1.96    0.86
  -4   0 -22    0.67    1.43
  -1   0 -22    3.85    0.48
   2   0 -22    1.62    0.53
   5   0 -22    0.73    1.91
  -3   1 -22    2.78    0.65
   0   1 -22    2.96    0.41
   3   1 -22    0.66    0.69
  -5   2 -22    2.17    1.00
  -2   2 -22    2.76    0.37
   1   2 -22    2.10    0.52
   4   2 -22    1.25    2.32
  -4   3 -22    1.27    0.80
  -1   3 -22    0.96    0.47
   2   3 -22    1.44    0.99
  -6   4 -22    0.49    1.39
  -3   4 -22    1.09    0.51
   0   4 -22    0.36    0.66
  -5   5 -22    2.09    1.27
  -2   5 -22    1.77    0.84
   3  -6 -21    6.18    2.52
   4  -5 -21    5.07    1.93
  -1  -4 -21    5.93    2.13
   2  -4 -21    7.91    1.64
   0  -3 -21    9.72    1.74
   6  -3 -21    3.15    2.78
  -2  -2 -21    8.82    1.70
   1  -2 -21   21.00    1.75
   4  -2 -21    8.75    1.13
  -4  -1 -21    4.19    1.73
  -1  -1 -21   19.69    1.74
   2  -1 -21   17.39    0.85
   5  -1 -21    6.37    1.57
  -3   0 -21    9.14    1.63
   0   0 -21   26.48    0.63
   3   0 -21   11.16    1.23
  -5   1 -21    5.31    2.06
  -2   1 -21   17.21    0.80
   1   1 -21   19.03    1.01
   4   1 -21    3.74    2.04
  -4   2 -21    5.90    1.05
  -1   2 -21   17.97    0.73
   2   2 -21    8.07    1.15
  -6   3 -21    2.68    1.50
  -3   3 -21   10.60    0.90
   0   3 -21   12.33    1.06
   3   3 -21    0.45    1.39
  -5   4 -21    6.74    1.25
  -2   4 -21    8.01    0.97
   1   4 -21    3.73    1.04
  -4   5 -21    5.19    1.92
  -1   5 -21    5.46    1.15
  -3   6 -21    5.27    1.61
   4  -6 -20    5.68    2.43
   2  -5 -20    8.95    2.07
   0  -4 -20   14.59    1.71
   3  -4 -20   14.66    2.16
   6  -4 -20    7.14    2.97
   1  -3 -20   25.99    2.32
   4  -3 -20   18.04    2.30
  -1  -2 -20   25.26    1.34
   5  -2 -20   15.21    1.73
  -3  -1 -20   13.97    1.88
   0  -1 -20   45.45    2.03
   3  -1 -20   24.83    1.32
  -5   0 -20   11.52    2.50
  -2   0 -20   32.04    1.91
   1   0 -20   44.90    1.00
   4   0 -20   18.46    2.54
  -4   1 -20   18.43    2.35
  -1   1 -20   45.69    0.90
   2   1 -20   23.76    1.36
  -6   2 -20   13.99    3.00
  -3   2 -20   26.54    1.10
   0   2 -20   29.90    1.09
   3   2 -20   16.70    2.58
  -5   3 -20   18.68    1.73
  -2   3 -20   26.70    1.16
   1   3 -20   14.86    1.26
  -4   4 -20    9.73    2.07
  -1   4 -20   17.21    1.33
   2   4 -20    9.20    1.77
  -3   5 -20    7.58    1.05
   0   5 -20    8.45    1.44
  -2   6 -20    5.95    1.60
   2  -6 -19    0.26    2.00
   0  -5 -19   -2.51    1.93
   3  -5 -19    0.13    1.54
  -2  -4 -19    1.93    2.63
   1  -4 -19    0.65    0.97
  -1  -3 -19   -0.05    0.67
   2  -3 -19    0.93    0.86
   5  -3 -19    1.37    1.79
  -3  -2 -19    0.21    1.18
   0  -2 -19    0.73    0.72
   3  -2 -19   -0.01    0.44
   6  -2 -19    0.96    2.70
  -2  -1 -19   -0.20    0.68
   4  -1 -19    0.41    0.76
  -4   0 -19   -1.32    1.19
  -1   0 -19   -0.28    0.29
   2   0 -19    0.04    0.40
   5   0 -19    2.06    2.08
  -3   1 -19   -0.48    0.46
   0   1 -19    0.00    0.28
   3   1 -19    0.08    0.63
  -5   2 -19    1.20    0.93
  -2   2 -19    0.02    0.28
   1   2 -19   -0.18    0.36
   4   2 -19   -0.27    2.20
  -4   3 -19   -0.24    0.68
  -1   3 -19   -0.13    0.37
   2   3 -19    0.03    0.72
  -6   4 -19    0.31    1.28
  -3   4 -19    0.30    0.46
   0   4 -19   -0.14    0.57
  -5   5 -19    1.63    1.29
  -2   5 -19    0.62    0.76
   1  -5 -18    1.67    1.60
   4  -5 -18   -0.75    1.34
  -1  -4 -18    1.35    1.82
   2  -4 -18    0.43    0.89
   0  -3 -18   -0.61    0.77
   6  -3 -18    3.38    2.69
  -2  -2 -18    0.98    0.88
   1  -2 -18    0.89    0.64
   4  -2 -18   -0.49    0.59
  -4  -1 -18    0.74    1.53
  -1  -1 -18    1.50    0.71
   2  -1 -18    1.81    0.42
   5  -1 -18    0.41    1.20
  -3   0 -18    0.93    0.90
   0   0 -18    2.80    0.31
   3   0 -18    0.81    0.47
  -5   1 -18    0.73    1.49
  -2   1 -18    1.63    0.38
   1   1 -18    1.80    0.36
   4   1 -18    1.36    1.85
  -4   2 -18    0.44    0.67
  -1   2 -18    1.58    0.36
   2   2 -18    1.22    0.59
  -6   3 -18    1.16    1.40
  -3   3 -18    1.01    0.50
   0   3 -18    0.92    0.46
   3   3 -18    0.52    1.32
  -5   4 -18    0.22    0.99
  -2   4 -18    0.19    0.54
   1   4 -18   -0.20    0.78
  -4   5 -18   -0.97    1.52
  -1   5 -18   -0.25    0.80
  -3   6 -18    1.84    1.83
   4  -6 -17   58.52    5.44
   2  -5 -17   89.00    4.90
   0  -4 -17  109.72    3.60
   3  -4 -17  132.31    5.40
   6  -4 -17   70.94    5.85
  -2  -3 -17   94.68    5.01
   1  -3 -17  204.59    6.43
  -1  -2 -17  202.93    4.47
   5  -2 -17   93.25    3.42
  -3  -1 -17  131.95    5.12
   0  -1 -17  405.13   10.04
   3  -1 -17  201.24    4.49
  -5   0 -17   65.57    4.49
  -2   0 -17  268.61    7.49
   1   0 -17  393.16    7.13
   4   0 -17  112.47    5.28
  -4   1 -17  130.81    3.51
  -1   1 -17  407.94    4.93
   2   1 -17  200.84    4.47
  -6   2 -17   60.22    5.35
  -3   2 -17  203.14    3.57
   0   2 -17  272.04    4.56
   3   2 -17   94.63    3.48
  -5   3 -17   95.97    3.29
  -2   3 -17  208.32    3.24
   1   3 -17  129.74    3.20
  -4   4 -17  112.51    3.34
  -1   4 -17  131.92    3.25
   2   4 -17   64.46    3.65
  -3   5 -17   90.34    2.82
   0   5 -17   70.31    2.88
  -2   6 -17   65.82    3.73
   2  -6 -16    1.34    2.15
   0  -5 -16   -2.58    2.00
   3  -5 -16    1.33    1.43
  -2  -4 -16   -0.53    2.47
   1  -4 -16   -0.55    0.88
  -1  -3 -16    0.66    0.68
   2  -3 -16    0.52    0.79
   5  -3 -16    3.84    1.91
  -3  -2 -16    0.72    1.09
   0  -2 -16    1.20    0.74
   3  -2 -16    0.66    0.48
   6  -2 -16    1.75    1.60
  -2  -1 -16   -0.50    0.62
   4  -1 -16   -0.51    0.69
  -4   0 -16   -0.06    1.11
  -1   0 -16    0.71    0.33
   2   0 -16    0.25    0.40
   5   0 -16    0.42    1.99
  -3   1 -16   -0.18    0.45
   0   1 -16    0.35    0.23
   3   1 -16   -0.54    0.58
  -5   2 -16    2.41    1.03
  -2   2 -16    0.29    0.28
   1   2 -16   -0.36    0.34
   4   2 -16   -0.22    2.15
  -4   3 -16    0.24    0.66
  -1   3 -16    0.12    0.37
   2   3 -16    0.48    0.75
  -6   4 -16    0.97    1.23
  -3   4 -16   -0.13    0.45
   0   4 -16    0.14    0.60
  -5   5 -16    1.49    1.21
  -2   5 -16    0.02    0.72
   1  -5 -15    0.83    1.54
   4  -5 -15    0.07    1.58
  -1  -4 -15   -1.15    1.65
   2  -4 -15   -0.36    0.82
   0  -3 -15    0.56    0.93
   3  -3 -15    0.89    0.68
   6  -3 -15   -0.08    2.46
  -2  -2 -15    0.35    0.84
   1  -2 -15    1.00    0.65
   4  -2 -15    0.60    0.66
  -4  -1 -15    1.52    1.65
  -1  -1 -15    1.29    0.63
   2  -1 -15    1.11    0.37
   5  -1 -15    1.17    1.14
  -3   0 -15    0.50    0.83
   0   0 -15    1.02    0.20
   3   0 -15    0.32    0.46
  -5   1 -15    0.13    1.48
  -2   1 -15    0.68    0.30
   1   1 -15    0.52    0.29
   4   1 -15   -2.36    1.39
  -4   2 -15    0.57    0.68
  -1   2 -15    0.62    0.25
   2   2 -15    0.38    0.53
  -6   3 -15    1.22    1.42
  -3   3 -15   -0.26    0.45
   0   3 -15    0.60    0.45
   3   3 -15    2.12    1.39
  -5   4 -15    0.84    1.06
  -2   4 -15    0.80    0.54
   1   4 -15    0.04    0.80
  -4   5 -15    1.88    1.65
  -1   5 -15    0.20    0.84
  -3   6 -15    0.40    1.64
   4  -6 -14   62.91    5.55
   2  -5 -14   89.24    4.83
   0  -4 -14  103.72    3.44
   6  -4 -14   67.03    5.72
  -2  -3 -14   94.29    5.02
   1  -3 -14  196.46    6.16
   4  -3 -14  132.10    3.53
  -1  -2 -14  193.83    4.28
   5  -2 -14   96.96    3.47
  -3  -1 -14  124.98    4.99
   0  -1 -14  376.45    9.40
   3  -1 -14  189.59    4.30
  -5   0 -14   69.16    4.58
  -2   0 -14  257.51    7.20
   1   0 -14  367.10    6.71
   4   0 -14  108.40    3.61
  -4   1 -14  132.86    5.30
  -1   1 -14  382.79    4.64
   2   1 -14  193.04    4.34
  -6   2 -14   61.28    4.79
  -3   2 -14  189.65    4.16
   0   2 -14  258.63    4.38
   3   2 -14   94.29    3.44
  -5   3 -14   97.78    3.31
  -2   3 -14  197.01    3.10
   1   3 -14  128.22    3.16
  -4   4 -14  110.64    3.31
  -1   4 -14  132.43    3.21
   2   4 -14   61.43    2.99
  -3   5 -14   90.32    3.42
   0   5 -14   70.14    2.89
  -2   6 -14   64.79    3.55
   2  -6 -13   -0.10    2.12
   0  -5 -13    2.50    2.13
   3  -5 -13    0.24    1.43
  -2  -4 -13   -0.58    2.53
   1  -4 -13    0.84    0.93
  -1  -3 -13    1.19    0.74
   5  -3 -13    1.46    1.79
  -3  -2 -13    1.30    1.10
   0  -2 -13    6.63    1.19
   3  -2 -13    3.17    0.63
   6  -2 -13    0.53    1.54
  -2  -1 -13    4.47    0.99
   4  -1 -13    2.08    0.75
  -4   0 -13    2.12    1.23
  -1   0 -13   11.40    0.67
   2   0 -13    5.51    0.48
   5   0 -13   -0.10    1.73
  -3   1 -13    2.28    0.61
   0   1 -13   10.70    0.59
   3   1 -13    0.83    0.68
  -5   2 -13    1.71    0.95
  -2   2 -13    5.94    0.46
   1   2 -13    3.06    0.55
   4   2 -13   -0.48    2.17
  -4   3 -13    0.24    0.66
  -1   3 -13    4.14    0.50
   2   3 -13    0.72    0.74
  -6   4 -13    1.09    1.33
  -3   4 -13    1.36    0.51
   0   4 -13    0.46    0.61
  -5   5 -13   -1.07    1.23
  -2   5 -13    0.07    0.71
   1   5 -13    1.71    2.66
   1  -5 -12    0.20    1.50
   4  -5 -12    1.16    1.73
  -1  -4 -12    1.36    1.55
   2  -4 -12    1.38    1.01
   0  -3 -12   -0.08    0.88
   3  -3 -12    0.77    0.65
   6  -3 -12    2.24    2.40
  -2  -2 -12    0.80    0.78
   1  -2 -12    0.49    0.59
   4  -2 -12    0.54    0.72
  -4  -1 -12   -0.17    1.44
  -1  -1 -12    1.34    0.58
   2  -1 -12    0.63    0.34
   5  -1 -12    3.24    1.23
  -3   0 -12    1.90    0.99
   0   0 -12    1.08    0.16
   3   0 -12    1.53    0.53
  -5   1 -12    1.94    1.60
  -2   1 -12    0.90    0.30
   1   1 -12    0.78    0.29
   4   1 -12   -1.15    1.44
  -4   2 -12    1.29    0.68
  -1   2 -12    1.00    0.26
   2   2 -12    0.52    0.54
  -6   3 -12    1.53    1.39
  -3   3 -12    0.66    0.49
   0   3 -12    0.81    0.44
   3   3 -12    1.41    1.42
  -5   4 -12    2.29    1.16
  -2   4 -12    0.39    0.45
   1   4 -12    1.26    0.81
  -4   5 -12    3.76    1.24
  -1   5 -12    0.42    0.83
  -3   6 -12   -2.09    1.62
   4  -6 -11    3.08    2.26
   2  -5 -11    5.40    1.68
   0  -4 -11    5.63    1.67
   6  -4 -11   10.69    3.20
   1  -3 -11   13.37    1.68
   4  -3 -11   11.10    1.18
  -1  -2 -11   14.34    1.16
   2  -2 -11   14.88    1.04
   5  -2 -11    9.24    1.49
  -3  -1 -11    9.68    1.65
   0  -1 -11   22.85    1.30
   3  -1 -11   13.10    1.11
  -5   0 -11    4.33    1.77
  -2   0 -11   14.54    1.38
   1   0 -11   21.16    0.60
   4   0 -11    6.27    1.72
  -4   1 -11    8.03    1.61
  -1   1 -11   21.79    0.56
   2   1 -11   11.92    0.84
  -6   2 -11    5.28    2.24
  -3   2 -11   12.89    1.10
   0   2 -11   15.87    0.90
   3   2 -11    5.67    1.14
  -5   3 -11    9.52    2.02
  -2   3 -11   13.69    0.78
   1   3 -11    8.55    1.00
  -4   4 -11    8.53    1.25
  -1   4 -11    8.50    0.97
   2   4 -11    3.23    1.14
  -3   5 -11    7.24    1.23
   0   5 -11    4.28    1.17
  -5   6 -11    4.47    2.59
  -2   6 -11    3.77    1.55
   2  -6 -10    7.24    2.67
   0  -5 -10    9.42    2.65
   3  -5 -10   16.17    2.59
  -2  -4 -10    4.04    2.70
   1  -4 -10   15.22    2.14
  -1  -3 -10   17.19    1.52
   5  -3 -10    9.79    2.32
   0  -2 -10   40.22    2.09
   3  -2 -10   26.49    1.25
   6  -2 -10    7.42    1.81
  -2  -1 -10   25.90    1.77
   4  -1 -10   19.47    1.70
  -4   0 -10   14.04    2.18
  -1   0 -10   58.57    2.04
   2   0 -10   36.74    1.02
   5   0 -10    9.87    2.77
  -3   1 -10   26.60    1.26
   0   1 -10   59.79    1.23
   3   1 -10   20.28    1.62
  -5   2 -10   12.99    1.55
  -2   2 -10   38.02    0.92
   1   2 -10   26.00    1.09
   4   2 -10    4.91    2.56
  -4   3 -10   17.55    1.48
  -1   3 -10   25.76    0.94
   2   3 -10   13.82    1.43
  -6   4 -10   10.06    1.79
  -3   4 -10   19.21    1.07
   0   4 -10   15.10    1.34
  -5   5 -10   10.80    1.84
  -2   5 -10   13.97    1.68
   1   5 -10    6.24    2.90
   1  -5  -9   -0.39    1.61
  -1  -4  -9    1.61    1.71
   2  -4  -9    0.68    1.01
   0  -3  -9   -0.60    0.76
   3  -3  -9    0.92    0.71
   6  -3  -9    1.54    2.49
  -2  -2  -9   -0.04    0.75
   1  -2  -9    0.24    0.52
   4  -2  -9    0.38    0.60
  -4  -1  -9   -0.79    1.30
  -1  -1  -9   -0.21    0.31
   2  -1  -9    0.05    0.31
   5  -1  -9    2.63    1.59
  -3   0  -9   -0.16    0.72
   0   0  -9    0.06    0.10
   3   0  -9   -0.02    0.43
  -5   1  -9    2.54    1.49
  -2   1  -9    0.20    0.33
   1   1  -9   -0.18    0.23
   4   1  -9   -0.55    1.47
  -4   2  -9    0.43    0.65
  -1   2  -9   -0.11    0.21
   2   2  -9   -0.04    0.51
  -6   3  -9    0.63    1.35
  -3   3  -9   -0.01    0.45
   0   3  -9    0.22    0.39
   3   3  -9    0.95    1.42
  -5   4  -9    0.84    1.07
  -2   4  -9   -0.54    0.40
   1   4  -9    0.85    0.80
  -4   5  -9   -0.13    1.68
  -1   5  -9   -0.34    0.74
  -3   6  -9   -2.15    1.56
   4  -6  -8    0.57    1.94
   2  -5  -8   -0.10    1.17
   0  -4  -8    0.58    1.20
  -2  -3  -8    0.82    1.66
   1  -3  -8   -0.65    0.65
   4  -3  -8    1.23    0.70
  -1  -2  -8   -0.11    0.44
   2  -2  -8    0.20    0.45
   5  -2  -8    0.61    1.01
  -3  -1  -8    0.25    0.93
   0  -1  -8    0.12    0.50
   3  -1  -8    0.63    0.50
  -5   0  -8    1.42    1.60
  -2   0  -8    0.35    0.50
   1   0  -8    0.05    0.18
   4   0  -8    0.73    1.25
  -4   1  -8    0.36    1.03
  -1   1  -8    0.12    0.15
   2   1  -8   -0.29    0.33
  -6   2  -8   -0.67    1.88
  -3   2  -8    0.15    0.46
   0   2  -8    0.03    0.28
   3   2  -8   -0.48    0.89
  -5   3  -8    0.07    0.96
  -2   3  -8    0.53    0.33
   1   3  -8   -0.15    0.50
  -4   4  -8    0.62    0.84
  -1   4  -8    1.07    0.57
   2   4  -8    0.20    1.05
  -3   5  -8   -1.00    0.76
   0   5  -8    0.85    0.97
  -5   6  -8    3.12    2.73
  -2   6  -8    0.79    1.30
   2  -6  -7   12.78    2.91
   0  -5  -7    9.85    2.70
   3  -5  -7   17.02    2.51
  -2  -4  -7   11.63    3.29
   1  -4  -7   23.25    2.49
  -1  -3  -7   16.42    2.24
   5  -3  -7   11.19    1.54
   0  -2  -7   28.90    1.77
   3  -2  -7   23.08    1.27
   6  -2  -7    7.26    2.05
  -2  -1  -7   21.39    1.64
   1  -1  -7   43.03    1.41
   4  -1  -7   17.72    1.60
  -4   0  -7   17.19    2.19
  -1   0  -7   44.07    1.66
   2   0  -7   28.70    0.89
   5   0  -7    9.37    2.79
  -6   1  -7    5.93    2.51
  -3   1  -7   21.86    1.23
   0   1  -7   43.62    1.00
   3   1  -7   20.90    1.66
  -5   2  -7   15.63    1.73
  -2   2  -7   28.55    0.91
   1   2  -7   24.52    1.11
   4   2  -7   10.41    3.09
  -4   3  -7   16.43    1.40
  -1   3  -7   24.40    1.00
   2   3  -7   13.33    1.37
  -6   4  -7   11.47    1.99
  -3   4  -7   18.20    1.06
   0   4  -7   17.03    1.38
  -5   5  -7    9.99    2.52
  -2   5  -7   11.42    1.57
   1  -5  -6    1.91    1.52
  -1  -4  -6    3.09    1.81
   2  -4  -6    1.96    1.01
   0  -3  -6    0.02    0.78
   3  -3  -6    1.24    0.78
   6  -3  -6    2.29    2.53
  -2  -2  -6    0.68    1.21
   1  -2  -6    0.42    0.55
   4  -2  -6    1.73    0.75
  -4  -1  -6   -0.43    1.40
  -1  -1  -6    1.32    0.40
   2  -1  -6    1.01    0.39
   5  -1  -6    0.70    1.17
  -3   0  -6    0.30    0.75
   0   0  -6    1.43    0.21
   3   0  -6    1.73    0.55
  -5   1  -6    3.49    1.51
  -2   1  -6    1.49    0.40
   1   1  -6    0.98    0.29
   4   1  -6   -0.50    1.66
  -4   2  -6    0.94    0.68
  -1   2  -6    1.11    0.24
   2   2  -6    0.25    0.52
  -6   3  -6   -0.56    1.25
  -3   3  -6    0.20    0.54
   0   3  -6    1.24    0.47
   3   3  -6    0.10    1.37
  -5   4  -6    1.48    1.08
  -2   4  -6    0.13    0.43
   1   4  -6    0.83    0.80
  -4   5  -6    0.26    1.69
  -1   5  -6   -1.45    0.79
  -3   6  -6    0.16    1.75
   4  -6  -5   -0.93    2.17
   0  -4  -5    1.17    1.31
   6  -4  -5    2.35    2.65
  -2  -3  -5   -0.32    1.49
   1  -3  -5    4.29    1.03
   4  -3  -5    1.02    0.73
  -1  -2  -5    2.66    0.63
   2  -2  -5    4.79    0.75
   5  -2  -5    1.31    1.11
  -3  -1  -5    1.02    0.95
   0  -1  -5    8.02    0.87
   3  -1  -5    3.00    0.63
  -5   0  -5    1.66    1.72
  -2   0  -5    2.33    0.69
   1   0  -5    4.88    0.33
   4   0  -5    0.73    1.30
  -4   1  -5    0.46    1.06
  -1   1  -5    6.11    0.31
   2   1  -5    2.20    0.43
  -6   2  -5    1.09    1.92
  -3   2  -5    2.36    0.59
   0   2  -5    3.82    0.50
   3   2  -5    1.28    0.97
  -5   3  -5    1.15    0.97
  -2   3  -5    2.16    0.37
   1   3  -5    1.09    0.56
  -4   4  -5    2.29    0.91
  -1   4  -5    1.78    0.58
   2   4  -5    0.56    1.11
  -3   5  -5    0.66    0.75
   0   5  -5    0.80    1.18
  -5   6  -5   -1.22    2.42
  -2   6  -5    0.94    1.27
   2  -6  -4   -0.50    2.03
   5  -6  -4   -1.32    2.15
   0  -5  -4   -0.87    1.76
   3  -5  -4    0.11    1.21
  -2  -4  -4   -3.50    2.07
   1  -4  -4    0.84    0.94
  -1  -3  -4    1.20    1.12
   5  -3  -4    1.23    1.00
   0  -2  -4    0.86    0.64
   3  -2  -4   -0.18    0.43
   6  -2  -4    0.82    1.63
  -2  -1  -4    0.56    0.48
   1  -1  -4    2.44    0.33
   4  -1  -4    1.11    0.85
  -4   0  -4    0.17    1.10
  -1   0  -4    1.43    0.49
   2   0  -4    0.51    0.29
   5   0  -4   -1.33    1.96
  -6   1  -4    1.52    2.20
  -3   1  -4   -0.25    0.40
   0   1  -4    1.81    0.24
   3   1  -4    0.08    0.62
  -5   2  -4   -0.50    0.90
  -2   2  -4    0.18    0.24
   1   2  -4    0.69    0.37
   4   2  -4   -1.49    2.05
  -4   3  -4   -0.53    0.60
  -1   3  -4    0.25    0.33
   2   3  -4    0.44    0.71
  -6   4  -4   -1.17    1.89
  -3   4  -4    0.11    0.50
   0   4  -4    0.32    0.59
  -5   5  -4    0.32    1.75
  -2   5  -4    0.62    0.66
   1  -5  -3    5.79    1.98
  -1  -4  -3    4.46    2.01
   2  -4  -3    2.51    1.07
   0  -3  -3    3.33    1.10
   3  -3  -3    5.22    1.07
   6  -3  -3    9.79    2.93
   4  -2  -3    4.03    1.20
  -1  -1  -3    2.62    0.49
   2  -1  -3    3.52    0.54
  -3   0  -3    3.92    0.97
   3   0  -3    3.17    0.64
  -2   1  -3    3.48    0.51
   1   1  -3    3.34    0.40
  -1   2  -3    3.72    0.32
   2   2  -3    3.97    0.80
  -3   3  -3    6.95    1.20
   0   3  -3    4.19    0.60
   3   3  -3   11.05    2.57
  -2   4  -3    2.74    0.54
   1   4  -3    3.65    1.67
  -4   5  -3    9.45    2.19
  -1   5  -3    6.63    1.14
  -3   6  -3    5.69    2.10
   0  -4  -2   -0.09    1.06
   6  -4  -2    0.91    2.39
  -2  -3  -2   -0.63    1.67
   1  -3  -2    2.20    0.83
   4  -3  -2    0.86    0.74
  -1  -2  -2    3.56    0.97
   2  -2  -2    4.25    0.57
   5  -2  -2    0.59    0.97
  -3  -1  -2   -0.50    0.78
   0  -1  -2    9.95    0.91
   3  -1  -2    1.95    0.58
  -5   0  -2   -0.08    1.40
  -2   0  -2    2.85    0.72
   1   0  -2    6.55    0.38
   4   0  -2    0.54    1.26
  -4   1  -2   -0.08    0.95
  -1   1  -2    7.66    0.32
   2   1  -2    2.44    0.46
  -6   2  -2    0.24    1.78
  -3   2  -2    2.62    0.57
   0   2  -2    3.91    0.42
   3   2  -2    1.54    1.01
  -5   3  -2   -0.26    0.92
  -2   3  -2    3.17    0.39
   1   3  -2    0.49    0.57
  -4   4  -2   -0.54    0.77
  -1   4  -2    1.52    0.51
   2   4  -2   -1.41    1.01
  -3   5  -2    0.17    1.09
   0   5  -2   -0.26    1.02
  -5   6  -2    1.31    2.53
  -2   6  -2   -0.47    1.15
   2  -6  -1    0.15    2.11
   5  -6  -1   -2.15    2.29
   0  -5  -1    0.40    2.05
   3  -5  -1    0.25    1.29
  -2  -4  -1   -1.01    2.33
  -1  -3  -1    1.72    1.11
   5  -3  -1    2.13    1.03
   0  -2  -1    1.46    0.72
   3  -2  -1    1.76    0.57
   6  -2  -1   -0.23    1.50
  -2  -1  -1    1.82    0.55
   1  -1  -1    6.05    0.67
   4  -1  -1   -0.02    0.75
  -4   0  -1    0.02    1.09
  -1   0  -1    3.63    0.56
   2   0  -1    1.51    0.34
   5   0  -1   -1.42    1.79
  -6   1  -1   -2.04    2.11
  -3   1  -1    0.65    0.46
   0   1  -1    4.98    0.32
   3   1  -1    0.73    0.67
  -5   2  -1    1.30    0.95
  -2   2  -1    1.92    0.37
   1   2  -1    1.02    0.42
   4   2  -1    0.11    2.34
  -4   3  -1    0.23    0.72
  -1   3  -1    0.74    0.35
   2   3  -1   -0.33    0.69
  -6   4  -1   -0.38    2.13
  -3   4  -1    0.26    0.49
   0   4  -1    0.52    0.59
  -5   5  -1   -0.26    1.67
  -2   5  -1    0.08    0.66
   3  -6   0  157.41    7.34
   1  -5   0  229.45    8.32
  -1  -4   0  216.19    8.46
   2  -4   0  402.01   11.31
  -3  -3   0  152.27    8.00
   0  -3   0  526.00   13.75
   3  -3   0  508.38    9.44
   6  -3   0  152.57    5.34
  -2  -2   0  397.39   11.63
   4  -2   0  403.06    8.26
  -1  -1   0  973.08   16.01
   2  -1   0  945.64   16.42
   5  -1   0  225.79    8.53
   3   0   0  494.20    9.52
  -5   1   0  209.39    7.84
  -2   1   0  945.30   15.56
   1   1   0  960.40   13.75
   4   1   0  205.82    8.58
  -4   2   0  405.15    7.88
  -1   2   0  970.07   10.45
   2   2   0  407.16    6.94
  -6   3   0  150.49    7.17
  -3   3   0  506.99    9.18
   0   3   0  512.51    8.19
   3   3   0  159.59    5.35
  -5   4   0  208.72    5.54
  -2   4   0  414.84    5.92
   1   4   0  217.07    4.95
  -4   5   0  214.60    8.08
  -1   5   0  219.54    6.05
  -3   6   0  159.01    5.12
   0  -4   1    0.05    1.17
   3  -4   1   -0.95    0.89
   6  -4   1    3.53    2.44
  -2  -3   1   -0.11    1.62
   1  -3   1    0.95    0.68
   4  -3   1   -0.37    0.65
  -1  -2   1    0.66    0.71
   2  -2   1    1.24    0.43
   5  -2   1    1.12    1.08
  -3  -1   1    0.00    0.86
   3  -1   1    1.11    0.55
  -5   0   1    1.74    1.43
  -2   0   1    1.73    0.60
   1   0   1    3.98    0.32
   4   0   1    0.34    1.17
  -4   1   1   -0.34    0.85
  -1   1   1    4.34    0.25
   2   1   1    0.67    0.37
  -6   2   1    1.50    1.89
  -3   2   1    1.11    0.49
   0   2   1    1.84    0.33
   3   2   1   -0.07    0.94
  -5   3   1   -0.16    0.92
  -2   3   1    0.56    0.26
   1   3   1    0.45    0.53
  -4   4   1    0.91    0.82
  -1   4   1   -0.17    0.42
   2   4   1   -0.62    1.04
  -3   5   1    0.65    0.94
   0   5   1    0.75    1.06
  -5   6   1    0.06    2.38
  -2   6   1    0.95    1.25
   2  -6   2    0.47    2.14
   5  -6   2   -0.97    2.28
   0  -5   2    2.20    2.15
   3  -5   2    0.07    1.23
  -2  -4   2    0.61    2.42
   1  -4   2    1.19    1.15
  -1  -3   2    0.76    1.13
   5  -3   2    0.98    0.95
  -3  -2   2    1.58    2.10
   0  -2   2    4.78    0.98
   3  -2   2    2.02    0.61
   6  -2   2    0.60    1.53
  -2  -1   2    2.18    0.66
   4  -1   2    1.68    0.81
  -4   0   2    0.99    1.13
  -1   0   2    7.66    0.71
   2   0   2    3.40    0.50
   5   0   2    0.26    1.76
  -6   1   2   -1.97    1.90
  -3   1   2    2.96    0.61
   0   1   2    8.18    0.39
   3   1   2    0.87    0.71
  -5   2   2    1.75    0.95
  -2   2   2    4.58    0.56
   1   2   2    1.88    0.44
   4   2   2   -0.02    2.40
  -4   3   2    1.27    0.74
  -1   3   2    2.30    0.43
   2   3   2    0.40    0.77
  -6   4   2    1.53    2.10
  -3   4   2    1.17    0.49
   0   4   2    1.23    0.65
  -5   5   2   -1.40    1.61
  -2   5   2    1.55    0.76
   3  -6   3    4.53    2.45
   1  -5   3    5.10    1.91
   2  -4   3    1.83    1.01
   5  -4   3   22.13    2.88
   0  -3   3    5.82    1.26
   3  -3   3    3.92    1.01
   6  -3   3   22.25    2.43
  -2  -2   3    3.17    1.34
  -1  -1   3    4.98    0.86
   2  -1   3    4.15    0.54
   5  -1   3   18.37    2.71
  -3   0   3    2.71    0.96
   3   0   3    4.10    0.90
  -2   1   3    3.03    0.48
   1   1   3    2.92    0.40
  -4   2   3    4.27    1.26
  -1   2   3    3.34    0.31
   2   2   3    4.08    0.82
  -3   3   3    3.55    0.74
   0   3   3    3.65    0.56
  -2   4   3    4.48    0.59
   1   4   3    5.15    1.07
  -4   5   3    6.36    1.98
  -1   5   3    4.10    1.20
  -3   6   3    5.06    1.41
   2  -5   4   -0.01    1.41
   0  -4   4    1.13    1.24
   3  -4   4   -1.53    0.83
   6  -4   4   -1.10    2.24
  -2  -3   4   -0.66    1.63
   4  -3   4    0.32    0.73
  -1  -2   4    1.25    0.83
   2  -2   4    1.16    0.40
   5  -2   4   -0.83    0.93
  -3  -1   4   -0.29    0.76
   0  -1   4    1.58    0.54
   3  -1   4    0.27    0.33
  -2   0   4    0.24    0.46
   1   0   4    1.71    0.31
   4   0   4    0.13    1.14
  -4   1   4    0.83    0.84
  -1   1   4    2.22    0.23
   2   1   4    0.28    0.35
  -6   2   4    0.77    1.74
  -3   2   4   -0.65    0.42
   0   2   4    0.31    0.25
   3   2   4    0.82    0.93
  -5   3   4   -0.78    0.81
  -2   3   4   -0.14    0.23
   1   3   4   -0.15    0.49
  -4   4   4    0.87    1.11
  -1   4   4   -0.07    0.42
   2   4   4   -0.92    1.06
  -3   5   4    0.39    0.85
   0   5   4   -0.30    0.97
  -2   6   4   -0.88    1.10
   2  -6   5   -0.64    2.25
   5  -6   5   -2.25    2.23
   0  -5   5    2.58    2.10
   3  -5   5   -0.64    1.12
  -2  -4   5    1.08    2.47
   1  -4   5    1.59    1.22
   4  -4   5    1.16    1.04
  -1  -3   5    0.85    1.13
   5  -3   5    1.32    0.95
  -3  -2   5    0.99    2.18
   0  -2   5    3.44    0.86
   3  -2   5    2.03    0.61
   6  -2   5    0.22    1.53
  -2  -1   5    1.34    0.50
   4  -1   5    3.08    0.91
  -4   0   5    0.23    0.94
  -1   0   5    6.72    0.54
   2   0   5    3.54    0.43
   5   0   5    1.16    2.10
  -6   1   5    1.53    2.21
  -3   1   5    2.08    0.57
   0   1   5    6.22    0.35
   3   1   5    1.29    0.73
  -5   2   5   -0.03    1.21
  -2   2   5    4.13    0.44
   1   2   5    1.96    0.49
   4   2   5    0.43    2.16
  -4   3   5    1.88    0.79
  -1   3   5    2.83    0.45
   2   3   5    0.83    0.76
  -6   4   5   -0.22    1.89
  -3   4   5    2.19    0.70
   0   4   5    0.58    0.63
  -5   5   5   -1.34    1.67
  -2   5   5    0.14    0.76
   3  -6   6   -1.52    2.26
   1  -5   6    1.93    1.79
  -1  -4   6   -1.53    1.77
   2  -4   6    1.95    0.97
   5  -4   6    0.45    1.82
   0  -3   6    1.00    0.80
   3  -3   6    1.59    0.60
   6  -3   6    0.41    1.56
  -2  -2   6    0.62    1.08
   4  -2   6    0.55    0.77
  -1  -1   6    1.57    0.68
   2  -1   6    0.98    0.30
   5  -1   6    2.94    1.74
  -3   0   6    1.62    0.82
   0   0   6    1.67    0.28
   3   0   6    0.50    0.50
  -5   1   6    1.54    1.55
  -2   1   6    1.18    0.40
   1   1   6    0.67    0.28
   4   1   6   -0.48    0.95
  -4   2   6    1.02    0.69
  -1   2   6    1.45    0.25
   2   2   6    0.64    0.52
  -6   3   6    4.73    2.02
  -3   3   6    0.68    0.59
   0   3   6    1.38    0.40
   3   3   6    0.60    1.42
  -5   4   6    1.26    1.51
  -2   4   6    1.06    0.43
   1   4   6   -0.74    0.80
  -4   5   6    2.66    1.83
  -1   5   6    2.11    1.10
  -3   6   6   -0.77    1.20
   2  -5   7   20.67    2.98
   0  -4   7   21.04    2.73
   3  -4   7   19.19    2.17
   6  -4   7    7.57    2.94
  -2  -3   7   13.20    2.78
   4  -3   7   17.48    1.61
  -1  -2   7   26.81    2.38
   2  -2   7   29.80    1.14
   5  -2   7   15.30    1.85
   0  -1   7   43.26    1.64
   3  -1   7   23.40    0.99
  -2   0   7   26.60    1.16
   1   0   7   43.12    1.16
   4   0   7   15.42    2.50
  -4   1   7   13.42    1.84
  -1   1   7   43.40    0.80
   2   1   7   23.63    1.02
  -6   2   7    8.36    2.72
  -3   2   7   23.88    1.33
   0   2   7   29.33    0.84
   3   2   7   10.08    1.52
  -5   3   7   13.00    2.29
  -2   3   7   22.99    0.74
   1   3   7   19.07    1.37
  -4   4   7   11.14    2.18
  -1   4   7   18.75    1.16
   2   4   7   11.41    1.66
  -3   5   7   13.01    1.59
   0   5   7    8.86    1.58
  -2   6   7    9.24    1.77
   2  -6   8   -1.91    2.14
   0  -5   8   -2.17    1.94
   3  -5   8    0.02    1.09
  -2  -4   8    1.60    2.49
   1  -4   8    0.24    1.06
   4  -4   8   -0.79    0.99
  -1  -3   8    1.39    1.15
   5  -3   8    0.16    0.94
   0  -2   8    0.39    0.54
   3  -2   8   -0.44    0.47
   6  -2   8    0.20    1.54
  -2  -1   8    0.04    0.85
   1  -1   8    0.44    0.37
   4  -1   8   -0.13    0.74
  -4   0   8    0.39    1.02
  -1   0   8    0.63    0.27
   2   0   8   -0.02    0.34
   5   0   8    0.76    1.86
  -3   1   8    0.19    0.46
   0   1   8    0.37    0.18
   3   1   8    0.49    0.63
  -5   2   8    0.52    1.31
  -2   2   8    0.47    0.23
   1   2   8    0.12    0.35
   4   2   8   -1.01    1.36
  -4   3   8   -0.16    0.70
  -1   3   8    0.04    0.32
   2   3   8   -0.48    0.71
  -6   4   8    1.95    1.92
  -3   4   8    0.19    0.55
   0   4   8    0.01    0.56
  -5   5   8    1.51    1.63
  -2   5   8   -0.51    0.71
   3  -6   9   -0.72    2.17
   1  -5   9   -0.29    1.69
  -1  -4   9   -1.42    1.64
   2  -4   9   -0.41    0.77
   5  -4   9    1.57    1.87
  -3  -3   9   -3.16    2.66
   0  -3   9    0.87    0.81
   3  -3   9   -0.03    0.54
   6  -3   9   -0.31    1.45
  -2  -2   9    0.72    1.15
   4  -2   9    0.43    0.75
  -1  -1   9   -0.05    0.55
   2  -1   9   -0.17    0.23
   5  -1   9    0.96    1.26
  -3   0   9    0.00    0.63
   0   0   9    0.01    0.16
   3   0   9    0.15    0.49
  -5   1   9    0.56    1.34
  -2   1   9   -0.16    0.29
   1   1   9   -0.09    0.23
   4   1   9   -0.07    0.99
  -4   2   9    0.86    0.68
  -1   2   9    0.16    0.20
   2   2   9    0.82    0.50
  -6   3   9    2.00    1.97
  -3   3   9   -0.33    0.45
   0   3   9    0.14    0.35
   3   3   9   -0.23    1.37
  -5   4   9    1.07    1.51
  -2   4   9   -0.10    0.48
   1   4   9   -0.69    0.79
  -4   5   9    0.06    1.58
  -1   5   9   -0.15    0.94
  -3   6   9   -0.56    1.22
   2  -5  10    8.32    2.16
   0  -4  10   18.51    2.70
   3  -4  10   23.09    2.38
   6  -4  10    8.98    2.91
  -2  -3  10   13.09    2.82
   4  -3  10   20.88    1.68
  -1  -2  10   30.14    2.53
   2  -2  10   35.07    1.31
   5  -2  10   12.88    1.66
   0  -1  10   57.70    2.00
   3  -1  10   24.33    1.02
  -2   0  10   38.88    1.36
   1   0  10   56.41    1.44
   4   0  10   15.05    1.51
  -4   1  10   17.25    2.14
  -1   1  10   59.18    1.18
   2   1  10   26.30    1.05
  -6   2  10    4.46    2.17
  -3   2  10   25.57    1.37
   0   2  10   37.19    0.95
   3   2  10   14.32    1.73
  -5   3  10   13.74    2.41
  -2   3  10   27.42    0.78
   1   3  10   19.14    1.38
  -4   4  10   16.18    2.32
  -1   4  10   19.65    1.18
   2   4  10    4.99    1.41
  -3   5  10   11.34    1.47
   0   5  10   10.75    1.85
  -2   6  10    8.93    1.76
   2  -6  11    2.46    2.39
   0  -5  11    8.89    2.84
  -2  -4  11    4.61    1.70
   1  -4  11    6.64    1.69
   4  -4  11    8.72    1.64
  -1  -3  11    3.45    1.49
   5  -3  11    9.19    1.49
  -3  -2  11    9.72    2.58
   0  -2  11   16.85    1.60
   3  -2  11   14.71    0.93
   6  -2  11    5.48    1.82
  -2  -1  11   13.47    1.91
   1  -1  11   20.72    0.77
   4  -1  11    8.55    1.14
  -4   0  11    8.65    1.53
  -1   0  11   23.49    0.88
   2   0  11   15.03    0.98
   5   0  11    7.28    2.48
  -3   1  11   13.50    1.04
   0   1  11   22.50    0.55
   3   1  11    6.64    1.37
  -5   2  11   11.50    1.97
  -2   2  11   16.87    0.68
   1   2  11   13.25    0.93
   4   2  11    3.85    1.59
  -4   3  11   10.91    1.74
  -1   3  11   14.02    0.82
   2   3  11    6.22    0.97
  -6   4  11   11.74    2.60
  -3   4  11   11.04    1.21
   0   4  11    7.38    1.00
  -5   5  11    9.97    2.57
  -2   5  11    8.16    1.14
  -4   6  11    3.85    2.21
   3  -6  12    0.04    2.25
   1  -5  12    0.69    1.71
  -1  -4  12    0.58    1.90
   5  -4  12    2.77    1.21
  -3  -3  12    2.97    3.05
   0  -3  12    2.26    1.01
   3  -3  12   -0.27    0.52
   6  -3  12    2.24    1.52
  -2  -2  12    2.43    1.47
   4  -2  12    0.44    0.75
  -1  -1  12    1.37    0.66
   2  -1  12    0.26    0.34
   5  -1  12    0.14    1.66
  -3   0  12    1.10    0.71
   0   0  12    1.39    0.28
   3   0  12    0.52    0.51
  -5   1  12    1.77    1.37
  -2   1  12    0.26    0.31
   1   1  12    0.98    0.29
   4   1  12   -0.87    0.96
  -4   2  12    1.87    1.06
  -1   2  12    0.94    0.30
   2   2  12    0.08    0.51
  -6   3  12   -0.43    2.02
  -3   3  12    1.51    0.95
   0   3  12    0.53    0.38
   3   3  12    0.77    1.49
  -5   4  12   -0.32    1.46
  -2   4  12   -0.17    0.49
   1   4  12    0.73    0.83
  -4   5  12    2.16    1.21
  -1   5  12   -0.21    0.89
  -3   6  12   -1.85    1.16
   2  -5  13    0.93    1.67
   0  -4  13    1.56    1.38
   6  -4  13    0.98    2.35
  -2  -3  13    2.76    1.80
   1  -3  13    2.76    1.01
   4  -3  13    0.77    0.73
  -1  -2  13    2.22    1.01
   2  -2  13    5.59    0.69
   5  -2  13    2.01    1.11
  -3  -1  13    0.20    1.63
   0  -1  13    9.96    0.95
   3  -1  13    3.56    0.54
  -2   0  13    5.35    0.67
   1   0  13   11.08    0.69
   4   0  13    0.35    0.71
  -4   1  13    1.39    1.09
  -1   1  13   10.91    0.55
   2   1  13    3.67    0.55
  -6   2  13   -2.34    2.02
  -3   2  13    2.79    0.67
   0   2  13    6.02    0.49
   3   2  13    3.17    1.10
  -5   3  13   -0.03    1.27
  -2   3  13    3.98    0.47
   1   3  13    0.50    0.60
  -4   4  13    2.32    1.30
  -1   4  13    1.65    0.60
   2   4  13    0.68    1.17
  -3   5  13    0.01    0.86
   0   5  13   -0.28    0.99
  -2   6  13    0.02    1.66
   2  -6  14   76.55    5.97
   0  -5  14   70.83    5.25
  -2  -4  14   63.34    3.90
   1  -4  14  127.54    5.19
   4  -4  14  107.80    4.81
  -1  -3  14  129.04    5.46
   5  -3  14   87.30    3.45
  -3  -2  14  101.27    5.77
   0  -2  14  260.99    7.25
   3  -2  14  191.21    3.50
   6  -2  14   72.93    5.30
  -2  -1  14  198.52    4.54
   1  -1  14  382.58    6.94
   4  -1  14  129.61    5.40
  -4   0  14  114.45    4.52
  -1   0  14  382.08    7.05
   2   0  14  256.84    5.18
   5   0  14   73.62    5.10
  -3   1  14  194.22    5.92
   0   1  14  384.09    4.79
   3   1  14  133.47    3.73
  -5   2  14   99.97    4.76
  -2   2  14  262.64    4.22
   1   2  14  198.38    3.67
   4   2  14   72.56    3.66
  -4   3  14  138.25    5.28
  -1   3  14  197.37    3.63
   2   3  14   94.12    2.87
  -6   4  14   68.26    5.79
  -3   4  14  133.49    3.06
   0   4  14  108.86    2.94
  -5   5  14   75.11    4.95
  -2   5  14   91.50    2.83
  -4   6  14   66.47    4.99
   1  -5  15    1.13    1.64
  -1  -4  15   -1.38    1.68
   5  -4  15    1.43    1.14
  -3  -3  15    0.63    2.95
   0  -3  15    0.48    0.84
   3  -3  15    0.11    0.58
   6  -3  15    0.75    1.47
  -2  -2  15   -0.42    1.13
   4  -2  15   -0.39    0.70
  -1  -1  15    0.83    0.60
   2  -1  15    0.57    0.38
   5  -1  15    0.29    1.67
  -3   0  15    0.45    0.64
   0   0  15    0.83    0.30
   3   0  15    0.74    0.56
  -5   1  15   -1.21    1.22
  -2   1  15   -0.19    0.36
   1   1  15    0.93    0.32
   4   1  15   -0.02    1.02
  -4   2  15   -0.20    0.86
  -1   2  15    0.55    0.29
   2   2  15   -0.31    0.49
  -6   3  15   -0.43    1.99
  -3   3  15    0.47    0.42
   0   3  15    0.76    0.41
   3   3  15    0.59    1.41
  -5   4  15    2.72    1.63
  -2   4  15    0.51    0.53
   1   4  15   -0.26    0.85
  -4   5  15   -0.11    1.63
  -1   5  15    0.66    0.79
  -3   6  15   -0.32    1.16
   2  -5  16   -1.30    1.45
   0  -4  16    2.43    1.40
   6  -4  16    2.78    2.47
  -2  -3  16    2.58    1.16
   1  -3  16   -1.30    0.65
   4  -3  16   -0.48    0.63
  -4  -2  16   -2.42    3.14
  -1  -2  16   -0.16    0.89
   2  -2  16    0.39    0.41
   5  -2  16    0.97    1.03
  -3  -1  16   -0.26    1.40
   0  -1  16    0.49    0.31
   3  -1  16   -0.03    0.39
  -2   0  16    0.51    0.38
   1   0  16    0.53    0.26
   4   0  16    0.68    0.75
  -4   1  16    0.40    0.93
  -1   1  16    0.11    0.26
   2   1  16    0.01    0.33
  -6   2  16    1.26    1.98
  -3   2  16   -0.48    0.61
   0   2  16   -0.03    0.24
   3   2  16   -0.10    0.94
  -5   3  16    0.43    1.33
  -2   3  16    0.36    0.30
   1   3  16    0.32    0.54
  -4   4  16   -0.78    1.11
  -1   4  16   -0.10    0.51
   2   4  16   -0.70    1.14
  -3   5  16    0.30    0.93
   0   5  16    0.48    1.03
  -2   6  16    1.31    1.25
   2  -6  17   65.67    5.11
   0  -5  17   66.31    5.14
  -2  -4  17   57.95    4.03
   1  -4  17  132.88    5.27
   4  -4  17  110.28    3.47
  -1  -3  17  134.00    5.57
   5  -3  17   97.51    3.58
  -3  -2  17   93.04    5.69
   0  -2  17  264.86    7.48
   3  -2  17  200.20    3.68
   6  -2  17   67.99    3.87
  -2  -1  17  205.63    4.74
   1  -1  17  401.66    7.41
   4  -1  17  134.34    2.99
  -4   0  17  118.46    4.70
  -1   0  17  407.62    7.55
   2   0  17  262.97    5.36
   5   0  17   72.34    5.05
  -3   1  17  201.03    6.12
   0   1  17  402.78    5.92
   3   1  17  134.85    3.82
  -5   2  17  102.30    4.79
  -2   2  17  272.42    4.38
   1   2  17  206.03    3.81
   4   2  17   73.43    3.92
  -4   3  17  135.05    5.33
  -1   3  17  208.55    3.78
   2   3  17   95.32    2.91
  -6   4  17   64.64    4.81
  -3   4  17  134.38    3.09
   0   4  17  111.74    3.73
  -5   5  17   66.78    4.76
  -2   5  17   89.26    2.82
  -4   6  17   64.75    5.43
   3  -6  18    1.43    1.90
   1  -5  18    2.06    1.87
  -1  -4  18    0.06    1.68
   5  -4  18    0.78    1.06
  -3  -3  18   -0.65    2.86
   0  -3  18   -0.36    0.81
   3  -3  18    1.62    0.66
   6  -3  18   -0.77    1.42
  -2  -2  18    1.13    0.78
   4  -2  18    0.62    0.80
  -1  -1  18    1.09    0.43
   2  -1  18    1.37    0.45
   5  -1  18    1.13    1.73
  -3   0  18    0.33    0.58
   0   0  18    2.47    0.41
   3   0  18    0.25    0.55
  -5   1  18    1.39    1.48
  -2   1  18    2.36    0.53
   1   1  18    1.30    0.33
   4   1  18    0.68    0.98
  -4   2  18    1.12    1.04
  -1   2  18    1.39    0.33
   2   2  18    0.29    0.51
  -6   3  18    0.06    1.77
  -3   3  18    1.27    0.45
   0   3  18    0.19    0.38
   3   3  18    0.69    1.45
  -5   4  18   -0.43    1.52
  -2   4  18    0.49    0.52
   1   4  18    0.67    0.99
  -1   5  18    1.23    0.80
  -3   6  18    1.12    1.29
   2  -5  19    0.23    1.54
   0  -4  19   -0.19    1.37
   3  -4  19    1.51    1.14
   6  -4  19    3.71    2.43
  -2  -3  19   -1.81    0.99
   1  -3  19    1.13    0.82
   4  -3  19    0.47    0.65
  -1  -2  19    2.75    1.06
   2  -2  19   -0.11    0.33
   5  -2  19   -0.01    1.01
  -3  -1  19    0.68    1.56
   0  -1  19    0.15    0.29
   3  -1  19    0.63    0.40
  -2   0  19   -0.14    0.35
   1   0  19    0.13    0.23
   4   0  19   -0.02    0.78
  -4   1  19    0.19    0.94
  -1   1  19    0.46    0.29
   2   1  19    0.03    0.36
  -6   2  19   -0.38    1.86
  -3   2  19   -0.47    0.53
   0   2  19    0.31    0.25
   3   2  19    0.00    0.93
  -5   3  19    0.28    1.35
  -2   3  19   -0.22    0.29
   1   3  19    0.42    0.56
  -4   4  19   -0.45    1.24
  -1   4  19   -0.62    0.50
   2   4  19   -1.43    1.12
  -3   5  19   -0.54    0.82
   0   5  19   -0.79    0.97
  -2   6  19    1.30    1.28
   2  -6  20    9.71    3.01
   0  -5  20    7.69    2.80
  -2  -4  20   10.09    2.18
   1  -4  20   17.71    2.34
   4  -4  20   13.87    1.44
  -1  -3  20   18.09    2.47
   5  -3  20   19.91    1.98
  -3  -2  20   14.31    3.27
   0  -2  20   30.22    1.78
   3  -2  20   24.47    1.39
   6  -2  20   13.26    2.99
  -2  -1  20   26.01    1.52
   1  -1  20   44.16    1.36
   4  -1  20   17.43    1.44
  -4   0  20   14.78    1.93
  -1   0  20   45.66    1.51
   2   0  20   30.80    1.30
   5   0  20   16.55    3.27
  -3   1  20   25.48    1.50
   0   1  20   45.47    1.08
   3   1  20   14.89    2.25
  -5   2  20   12.73    2.25
  -2   2  20   30.98    1.02
   1   2  20   24.34    1.10
   4   2  20    6.62    1.77
  -4   3  20   18.64    2.32
  -1   3  20   25.73    1.17
   2   3  20   14.02    1.38
  -6   4  20    8.97    2.42
  -3   4  20   17.64    1.30
   0   4  20   12.63    1.47
  -5   5  20   11.99    2.67
  -2   5  20   11.24    1.30
  -4   6  20    7.16    2.59
   3  -6  21    4.17    2.15
   1  -5  21    9.62    2.41
  -1  -4  21    3.58    1.29
   5  -4  21    6.18    1.51
  -3  -3  21    3.65    3.17
   0  -3  21   12.50    1.78
   3  -3  21   13.64    1.33
   6  -3  21    4.78    1.67
  -2  -2  21    8.83    1.33
   4  -2  21    9.33    1.30
  -4  -1  21    6.41    3.22
  -1  -1  21   16.85    1.05
   2  -1  21   17.82    1.00
   5  -1  21    7.37    2.28
  -3   0  21    8.19    1.03
   0   0  21   25.77    1.02
   3   0  21   10.18    1.11
  -5   1  21    5.24    1.65
  -2   1  21   16.24    1.01
   1   1  21   17.78    0.76
   4   1  21    5.42    1.27
  -4   2  21   10.30    1.77
  -1   2  21   16.59    0.74
   2   2  21    9.45    0.98
  -6   3  21    3.40    2.13
  -3   3  21   10.71    0.87
   0   3  21   11.29    0.82
   3   3  21   11.92    2.09
  -5   4  21    3.16    1.76
  -2   4  21    8.00    0.88
   1   4  21    6.48    1.42
  -1   5  21    4.33    0.97
  -3   6  21    2.22    1.47
   2  -5  22    0.86    1.58
   0  -4  22    3.20    1.76
   3  -4  22    1.13    0.77
   6  -4  22    2.24    1.55
  -2  -3  22    1.75    1.23
   1  -3  22    3.19    1.00
   4  -3  22    0.95    0.82
  -4  -2  22   -0.92    3.60
  -1  -2  22    0.80    0.88
   2  -2  22    2.17    0.49
   5  -2  22    1.83    1.15
  -3  -1  22    0.96    1.74
   0  -1  22    2.77    0.44
   3  -1  22    1.91    0.51
  -2   0  22    2.01    0.61
   1   0  22    3.41    0.38
   4   0  22    1.63    0.88
  -4   1  22    0.83    0.93
  -1   1  22    2.59    0.39
   2   1  22    1.86    0.49
  -6   2  22    0.08    2.02
  -3   2  22    2.30    0.68
   0   2  22    2.48    0.36
   3   2  22    1.77    1.15
  -5   3  22    2.35    1.43
  -2   3  22    1.75    0.44
   1   3  22    1.96    0.64
  -4   4  22    2.70    1.38
  -1   4  22    0.24    0.51
   2   4  22   -0.41    1.21
  -3   5  22   -0.16    0.85
   0   5  22    0.06    1.19
  -2   6  22    0.86    1.27
   2  -6  23   16.57    2.36
   0  -5  23   16.49    2.30
   3  -5  23   27.75    3.27
  -2  -4  23   20.60    2.58
   1  -4  23   35.01    2.69
   4  -4  23   29.39    2.14
  -1  -3  23   38.91    2.97
   5  -3  23   27.95    2.38
  -3  -2  23   29.76    4.03
   0  -2  23   77.02    3.15
   3  -2  23   61.25    2.14
   6  -2  23   15.05    2.34
  -2  -1  23   59.44    2.20
   1  -1  23  119.73    2.76
   4  -1  23   33.34    1.82
  -1   0  23  124.47    4.22
   2   0  23   81.30    2.29
   5   0  23   20.45    3.50
  -3   1  23   57.17    2.14
   0   1  23  123.52    2.18
   3   1  23   37.96    2.04
  -5   2  23   30.98    3.14
  -2   2  23   82.49    1.84
   1   2  23   61.34    1.73
   4   2  23   15.56    2.34
  -4   3  23   36.33    2.77
  -1   3  23   59.70    1.69
   2   3  23   26.71    1.87
  -6   4  23   12.57    3.11
  -3   4  23   35.28    1.84
   0   4  23   33.58    1.89
  -5   5  23   16.48    2.80
  -2   5  23   25.29    1.79
  -4   6  23   13.74    3.23
   3  -6  24    5.55    2.32
   1  -5  24    3.40    2.01
  -1  -4  24    5.00    1.45
   5  -4  24    4.34    1.37
  -3  -3  24    1.22    3.14
   0  -3  24    5.11    1.35
   3  -3  24    3.95    0.88
   6  -3  24    6.92    1.76
  -2  -2  24    5.41    1.13
   1  -2  24    3.99    0.86
   4  -2  24    5.61    0.80
  -1  -1  24    6.14    0.78
   2  -1  24    4.22    0.63
   5  -1  24    3.83    2.03
  -3   0  24    1.11    1.67
   0   0  24    5.54    0.64
   3   0  24    4.67    0.85
  -5   1  24    0.58    1.44
  -2   1  24    4.04    0.63
   1   1  24    6.75    0.59
   4   1  24    4.88    1.30
  -4   2  24    5.55    1.43
  -1   2  24    6.01    0.54
   2   2  24    3.12    0.69
  -6   3  24    6.37    2.28
  -3   3  24    4.15    0.63
   0   3  24    4.14    0.57
   3   3  24    5.21    1.69
  -5   4  24   10.09    2.24
  -2   4  24    4.12    0.69
   1   4  24    3.63    1.25
  -4   5  24    2.53    2.15
  -1   5  24    4.80    1.04
  -3   6  24    4.46    1.54
   2  -5  25    8.99    2.32
   0  -4  25    6.66    1.97
   3  -4  25   10.19    1.31
   6  -4  25    4.30    1.86
  -2  -3  25    6.87    1.43
   1  -3  25   15.90    1.84
   4  -3  25   13.52    1.52
  -1  -2  25   17.34    1.40
   2  -2  25   20.70    1.14
   5  -2  25   10.49    1.73
  -3  -1  25   17.92    2.84
   0  -1  25   25.74    1.04
   3  -1  25   16.90    1.05
  -2   0  25   20.12    1.32
   1   0  25   26.16    0.85
   4   0  25   10.78    1.37
  -4   1  25   15.30    2.00
  -1   1  25   25.55    0.89
   2   1  25   18.52    1.03
  -6   2  25    1.61    2.06
  -3   2  25   13.82    1.30
   0   2  25   19.58    0.73
   3   2  25    6.62    1.44
  -5   3  25    9.93    2.11
  -2   3  25   15.94    1.31
   1   3  25   14.60    1.24
  -4   4  25    9.11    1.38
  -1   4  25   12.20    1.10
   2   4  25    4.91    1.51
  -3   5  25    7.95    1.44
   0   5  25    5.39    1.54
  -2   6  25    6.25    1.79
   2  -6  26    9.51    2.10
   0  -5  26   10.65    1.82
   3  -5  26   15.90    2.59
  -2  -4  26    9.69    2.16
   1  -4  26   24.92    2.74
   4  -4  26   15.76    1.65
  -1  -3  26   23.55    1.97
   2  -3  26   39.28    2.36
   5  -3  26   17.10    1.98
  -3  -2  26   18.76    3.58
   0  -2  26   54.25    1.85
   3  -2  26   38.46    1.75
   6  -2  26   11.72    3.16
  -2  -1  26   37.88    1.79
   1  -1  26   79.00    2.13
   4  -1  26   22.98    1.73
  -1   0  26   79.60    2.26
   2   0  26   52.96    1.79
   5   0  26    7.41    2.66
  -3   1  26   38.36    1.74
   0   1  26   82.34    1.63
   3   1  26   23.61    1.88
  -5   2  26   12.37    2.24
  -2   2  26   54.48    1.46
   1   2  26   36.65    1.12
   4   2  26    4.61    1.76
  -4   3  26   25.63    2.69
  -1   3  26   37.47    1.35
   2   3  26   13.12    1.42
  -6   4  26    8.29    2.52
  -3   4  26   21.97    1.76
   0   4  26   18.86    1.47
  -5   5  26    8.84    2.57
  -2   5  26   12.01    1.30
  -4   6  26    8.53    2.91
   3  -6  27    6.80    2.41
   1  -5  27   15.05    1.77
   4  -5  27   17.64    2.76
  -1  -4  27   10.32    1.74
   2  -4  27   26.72    2.83
   5  -4  27   14.68    1.78
  -3  -3  27    8.47    3.50
   0  -3  27   31.44    2.42
   3  -3  27   30.45    1.74
   6  -3  27   12.54    2.22
  -2  -2  27   28.82    2.16
   1  -2  27   54.36    2.55
   4  -2  27   24.65    1.47
  -4  -1  27   11.97    3.42
  -1  -1  27   52.74    1.83
   2  -1  27   51.31    1.79
   5  -1  27   14.94    2.92
  -3   0  27   33.27    3.58
   0   0  27   83.24    2.16
   3   0  27   30.10    1.75
  -5   1  27    8.34    2.05
  -2   1  27   52.36    1.43
   1   1  27   52.65    1.38
   4   1  27   15.25    1.77
  -4   2  27   27.27    2.11
  -1   2  27   53.70    1.33
   2   2  27   24.73    1.53
  -6   3  27    8.01    2.45
  -3   3  27   31.11    1.41
   0   3  27   28.00    1.08
   3   3  27   13.18    2.21
  -5   4  27    7.67    2.10
  -2   4  27   28.96    1.49
   1   4  27   13.95    1.87
  -4   5  27   11.71    2.62
  -1   5  27   11.96    1.43
  -3   6  27   10.01    2.02
   2  -5  28   14.22    2.69
   0  -4  28   11.03    1.58
   3  -4  28   13.88    1.47
   6  -4  28   11.68    3.00
  -2  -3  28   11.07    1.75
   1  -3  28   22.83    2.32
   4  -3  28   16.19    1.34
  -4  -2  28   14.38    4.55
  -1  -2  28   21.97    1.59
   2  -2  28   26.74    1.29
   5  -2  28   11.76    1.77
  -3  -1  28   18.12    3.09
   0  -1  28   34.36    1.27
   3  -1  28   21.97    1.23
  -2   0  28   27.76    1.57
   1   0  28   35.91    1.04
   4   0  28   13.50    1.56
  -4   1  28   12.24    1.81
  -1   1  28   36.15    1.38
   2   1  28   23.27    1.08
  -6   2  28   11.81    2.73
  -3   2  28   20.28    1.57
   0   2  28   27.59    1.04
   3   2  28   14.88    2.65
  -5   3  28   18.61    2.76
  -2   3  28   20.38    1.36
   1   3  28   15.93    1.24
  -4   4  28   11.78    2.16
  -1   4  28   12.33    1.14
   2   4  28    9.35    2.76
  -3   5  28    8.78    1.37
   0   5  28    5.89    1.48
  -2   6  28    4.87    2.03
   2  -6  29   -0.49    1.53
   0  -5  29    0.89    1.33
   3  -5  29    0.78    1.34
  -2  -4  29   -2.73    1.98
   1  -4  29    2.07    1.29
   4  -4  29    3.67    1.48
  -1  -3  29    3.91    1.01
   2  -3  29    4.69    1.16
   5  -3  29    0.35    1.15
  -3  -2  29    1.72    2.27
   0  -2  29    6.30    0.82
   3  -2  29    4.89    0.86
   6  -2  29   -1.55    2.10
  -2  -1  29    3.69    0.87
   1  -1  29   11.80    0.92
   4  -1  29    2.17    0.84
  -1   0  29   11.83    1.04
   2   0  29    6.85    0.83
   5   0  29    1.64    2.22
  -3   1  29    5.39    0.88
   0   1  29   10.97    0.67
   3   1  29    2.13    0.90
  -5   2  29    3.00    1.60
  -2   2  29    6.56    0.66
   1   2  29    3.99    0.53
   4   2  29    2.42    1.65
  -4   3  29    1.50    0.90
  -1   3  29    4.01    0.61
   2   3  29    1.64    0.85
  -6   4  29    0.67    2.00
  -3   4  29    1.35    0.82
   0   4  29    1.33    0.74
  -5   5  29   -0.79    1.85
  -2   5  29    1.20    0.95
  -4   6  29    1.44    2.62
   3  -6  30   -0.42    1.99
   1  -5  30    1.15    1.25
   4  -5  30    3.18    1.62
  -1  -4  30    2.97    1.37
   2  -4  30    4.66    1.40
   5  -4  30    2.67    1.31
  -3  -3  30   11.07    3.82
   0  -3  30    6.15    1.03
   3  -3  30    5.58    1.05
   6  -3  30    1.89    1.70
  -2  -2  30    3.34    1.08
   1  -2  30   13.35    1.48
   4  -2  30    4.36    0.81
  -1  -1  30   11.26    1.05
   2  -1  30   12.25    1.06
   5  -1  30    1.64    1.91
  -3   0  30    7.88    2.21
   0   0  30   17.85    0.98
   3   0  30    3.86    0.86
  -2   1  30    9.45    0.75
   1   1  30   10.46    0.74
   4   1  30    3.31    1.31
  -4   2  30    3.09    1.00
  -1   2  30   12.28    0.75
   2   2  30    4.55    0.76
  -6   3  30   -0.21    2.06
  -3   3  30    4.98    0.72
   0   3  30    5.12    0.60
   3   3  30   -0.10    1.60
  -5   4  30    2.56    1.84
  -2   4  30    4.98    0.78
   1   4  30    0.09    1.04
  -4   5  30    1.32    2.06
  -1   5  30    1.82    0.94
  -3   6  30    0.93    1.40
   2  -5  31   76.61    4.86
   5  -5  31   71.73    5.46
   0  -4  31   86.69    3.45
   3  -4  31  107.08    3.47
   6  -4  31   63.92    5.78
  -2  -3  31   80.92    3.61
   1  -3  31  158.38    3.92
   4  -3  31  109.79    2.83
  -4  -2  31   57.20    6.71
  -1  -2  31  154.08    4.08
   2  -2  31  192.05    4.46
   5  -2  31   76.72    3.35
  -3  -1  31  109.21    5.77
   0  -1  31  267.10    5.43
   3  -1  31  156.49    3.14
  -2   0  31  198.94    4.73
   1   0  31  274.30    4.43
   4   0  31   88.32    3.24
  -4   1  31  103.53    3.47
  -1   1  31  270.76    5.58
   2   1  31  159.85    3.18
  -3   2  31  150.28    3.92
   0   2  31  194.64    3.54
   3   2  31   85.12    3.42
  -5   3  31   82.97    4.53
  -2   3  31  153.60    3.97
   1   3  31  106.40    2.81
  -4   4  31   96.52    3.43
  -1   4  31  101.56    2.78
  -3   5  31   76.99    3.33
   0   5  31   60.73    3.49
  -2   6  31   40.69    4.70
   2  -6  32   -0.75    2.03
   0  -5  32    1.90    1.54
   3  -5  32    2.07    1.17
  -2  -4  32    1.88    2.39
   1  -4  32    3.28    1.04
   4  -4  32    3.18    1.69
  -1  -3  32    1.71    0.93
   2  -3  32    3.73    1.01
   5  -3  32    2.57    1.32
  -3  -2  32   -1.25    2.04
   0  -2  32    6.44    0.83
   3  -2  32    4.60    0.92
  -2  -1  32    4.31    0.92
   1  -1  32    7.81    0.81
   4  -1  32    3.46    0.92
  -4   0  32    0.04    2.51
  -1   0  32    9.09    0.96
   2   0  32    6.57    0.86
   5   0  32    4.55    2.19
  -3   1  32    4.46    0.90
   0   1  32    7.77    0.59
   3   1  32    2.82    0.97
  -5   2  32    3.19    1.65
  -2   2  32    5.73    0.67
   1   2  32    4.56    0.67
   4   2  32    0.53    1.61
  -4   3  32    2.34    0.98
  -1   3  32    4.75    0.63
   2   3  32    0.90    0.83
  -3   4  32    2.61    0.93
   0   4  32    3.27    0.86
  -5   5  32   -0.29    1.51
  -2   5  32    2.74    1.07
  -4   6  32   -0.05    2.52
   3  -6  33    1.93    2.27
   1  -5  33    1.22    1.16
   4  -5  33    0.89    1.63
  -1  -4  33   -0.89    1.21
   2  -4  33    0.25    1.10
   5  -4  33    3.30    1.41
  -3  -3  33   -1.70    2.93
   0  -3  33    3.77    0.89
   3  -3  33    2.69    0.90
   6  -3  33    1.12    1.63
  -2  -2  33    2.51    1.07
   1  -2  33    3.17    0.87
   4  -2  33    1.03    0.62
  -4  -1  33    4.07    3.00
  -1  -1  33    6.64    0.89
   2  -1  33    5.33    0.76
   5  -1  33    1.84    1.88
  -3   0  33    3.76    1.79
   0   0  33    7.17    0.77
   3   0  33    2.88    0.79
  -2   1  33    3.78    0.55
   1   1  33    5.59    0.58
   4   1  33    0.21    1.12
  -4   2  33    2.79    1.01
  -1   2  33    5.35    0.55
   2   2  33    1.83    0.68
  -6   3  33    3.52    2.26
  -3   3  33    3.30    0.66
   0   3  33    2.51    0.61
   3   3  33    0.13    1.69
  -5   4  33    5.57    1.88
  -2   4  33    1.83    0.66
   1   4  33    1.78    1.08
  -4   5  33   -1.52    1.75
  -1   5  33    0.79    0.89
  -3   6  33    1.63    1.49
   2  -5  34   93.63    5.34
   5  -5  34   67.84    3.46
   0  -4  34  111.27    3.91
   3  -4  34  128.52    3.94
   6  -4  34   62.42    5.97
  -2  -3  34   90.84    3.92
   1  -3  34  208.15    7.21
   4  -3  34  127.80    3.93
  -4  -2  34   63.81    7.07
  -1  -2  34  195.96    4.94
   2  -2  34  259.31    5.61
   5  -2  34   99.51    3.77
  -3  -1  34  131.40    6.34
   0  -1  34  354.14    6.99
   3  -1  34  193.22    4.70
  -2   0  34  257.69    5.88
   1   0  34  361.27    5.70
   4   0  34  110.41    3.67
  -4   1  34  131.91    4.97
  -1   1  34  355.87    7.15
   2   1  34  199.68    3.82
  -3   2  34  199.88    4.75
   0   2  34  258.41    4.44
   3   2  34   93.37    3.67
  -5   3  34   92.15    4.95
  -2   3  34  200.50    4.83
   1   3  34  131.14    3.21
  -4   4  34  109.97    3.82
  -1   4  34  128.05    3.19
  -3   5  34   91.39    3.71
   0   5  34   62.28    3.44
   2  -6  35    0.52    1.70
   0  -5  35   -0.21    1.51
   3  -5  35    1.61    1.14
  -2  -4  35    4.03    2.51
   1  -4  35    8.75    1.34
   4  -4  35    2.50    1.66
  -1  -3  35    5.62    1.29
   2  -3  35   11.10    1.18
   5  -3  35    4.54    1.34
  -3  -2  35    7.76    2.61
   0  -2  35   15.48    1.22
   3  -2  35   10.53    1.24
  -2  -1  35   11.69    1.31
   1  -1  35   22.17    1.18
   4  -1  35    4.84    0.97
  -4   0  35    5.80    2.79
  -1   0  35   20.26    0.89
   2   0  35   16.19    0.94
   5   0  35    1.32    2.22
  -3   1  35   10.72    1.16
   0   1  35   22.04    0.87
   3   1  35    5.57    1.14
  -5   2  35    3.78    1.77
  -2   2  35   15.78    1.02
   1   2  35   11.52    0.95
   4   2  35    2.82    1.75
  -4   3  35    4.65    1.18
  -1   3  35   10.72    0.91
   2   3  35    4.45    1.05
  -3   4  35    8.11    1.22
   0   4  35    3.24    0.81
  -5   5  35   -2.66    2.05
  -2   5  35    3.26    1.22
   3  -6  36    7.33    2.58
   1  -5  36    7.87    1.80
   4  -5  36   10.65    2.49
  -1  -4  36    6.99    1.71
   2  -4  36   20.24    2.61
   5  -4  36    8.94    1.65
  -3  -3  36    7.52    3.51
   0  -3  36   22.41    1.76
   3  -3  36   21.35    1.77
   6  -3  36    6.99    2.64
  -2  -2  36   16.71    1.77
   1  -2  36   32.98    2.13
   4  -2  36   16.80    1.30
  -4  -1  36    7.01    3.53
  -1  -1  36   36.02    1.62
   2  -1  36   35.39    1.56
   5  -1  36    8.49    2.50
  -3   0  36   20.41    3.03
   0   0  36   53.86    1.78
   3   0  36   21.56    1.68
  -2   1  36   36.01    1.27
   1   1  36   33.80    1.16
   4   1  36    8.40    1.68
  -4   2  36   17.54    1.79
  -1   2  36   34.23    1.13
   2   2  36   17.22    1.31
  -6   3  36    3.29    2.42
  -3   3  36   22.63    1.27
   0   3  36   21.07    1.33
   3   3  36    7.82    2.05
  -5   4  36    5.04    2.07
  -2   4  36   13.91    1.55
   1   4  36    6.20    1.46
  -4   5  36    4.77    2.16
  -1   5  36    7.25    1.24
  -3   6  36    7.51    2.00
   2  -5  37    6.39    2.20
   5  -5  37    9.30    1.84
   0  -4  37    9.51    1.51
   3  -4  37    9.97    1.40
   6  -4  37    4.85    2.67
  -2  -3  37   10.98    1.83
   1  -3  37   16.94    2.17
   4  -3  37   15.28    1.62
  -1  -2  37   22.04    1.73
   2  -2  37   21.87    1.41
   5  -2  37   13.98    2.52
  -3  -1  37   15.36    3.09
   0  -1  37   32.61    1.36
   3  -1  37   20.85    1.57
  -2   0  37   26.03    1.73
   1   0  37   32.34    1.11
   4   0  37    9.58    1.39
  -4   1  37   14.10    1.58
  -1   1  37   33.58    1.51
   2   1  37   20.04    1.15
  -3   2  37   21.23    1.61
   0   2  37   23.09    1.05
   3   2  37    9.85    1.66
  -5   3  37   13.11    2.25
  -2   3  37   16.04    1.39
   1   3  37   11.65    1.41
  -4   4  37    9.32    1.57
  -1   4  37   10.98    1.12
  -3   5  37    6.40    1.49
   0   5  37    3.99    1.41
   0  -5  38    1.45    1.48
   3  -5  38    1.27    1.17
  -2  -4  38    2.60    2.40
   1  -4  38   -0.76    1.10
   4  -4  38    0.95    1.05
  -1  -3  38    0.54    0.91
   2  -3  38    0.83    0.63
   5  -3  38    0.27    1.08
  -3  -2  38    2.22    2.46
   0  -2  38    1.15    0.62
   3  -2  38    0.67    0.67
  -2  -1  38   -0.38    0.71
   1  -1  38    1.62    0.56
   4  -1  38   -0.44    0.76
  -4   0  38   -0.30    2.50
  -1   0  38    2.20    0.46
   2   0  38    1.45    0.46
   5   0  38    3.23    2.32
  -3   1  38   -0.14    0.64
   0   1  38    2.17    0.54
   3   1  38    0.30    0.86
  -5   2  38    1.11    1.58
  -2   2  38    0.00    0.56
   1   2  38    0.18    0.48
   4   2  38    1.61    1.71
  -4   3  38    0.38    0.87
  -1   3  38    0.34    0.45
   2   3  38    0.08    0.84
  -3   4  38    0.42    0.80
   0   4  38   -0.72    0.67
  -5   5  38   -0.66    2.57
  -2   5  38    0.07    1.11
   3  -6  39    4.49    1.80
   1  -5  39    7.11    1.73
   4  -5  39    3.81    2.13
  -1  -4  39    4.17    1.60
   2  -4  39   12.19    2.07
   5  -4  39    5.98    1.55
   0  -3  39   16.18    1.54
   3  -3  39   18.84    1.74
   6  -3  39    4.92    2.65
  -2  -2  39   12.41    1.64
   1  -2  39   31.68    2.14
   4  -2  39   13.89    1.21
  -4  -1  39    0.99    3.12
  -1  -1  39   30.44    1.66
   2  -1  39   31.36    1.22
   5  -1  39    9.03    2.43
  -3   0  39   13.88    1.69
   0   0  39   45.63    1.65
   3   0  39   21.03    1.68
  -2   1  39   28.03    1.18
   1   1  39   30.76    1.13
   4   1  39    7.73    1.63
  -4   2  39   14.03    1.61
  -1   2  39   30.17    1.10
   2   2  39   10.44    1.12
  -6   3  39    2.79    2.38
  -3   3  39   17.71    1.24
   0   3  39   16.26    1.21
  -5   4  39    6.75    1.74
  -2   4  39   10.41    1.34
   1   4  39    5.33    1.35
  -4   5  39    4.31    2.07
  -1   5  39    8.14    1.34
  -3   6  39    4.24    2.13
   2  -5  40    1.05    1.55
   5  -5  40    0.60    2.23
   0  -4  40   -0.07    0.98
   3  -4  40    0.96    0.96
  -2  -3  40   -0.20    1.21
   1  -3  40   -0.43    0.79
   4  -3  40    0.04    0.95
  -1  -2  40    0.82    0.76
   2  -2  40    0.42    0.59
   5  -2  40    1.33    1.22
  -3  -1  40   -1.01    1.86
   0  -1  40    2.07    0.58
   3  -1  40    0.16    0.62
  -5   0  40   -1.47    3.32
  -2   0  40   -0.65    0.64
   1   0  40    0.42    0.36
   4   0  40   -0.19    0.87
  -4   1  40   -0.69    0.82
  -1   1  40   -0.10    0.34
   2   1  40    0.18    0.49
  -3   2  40    0.32    0.52
   0   2  40   -0.50    0.38
   3   2  40    0.27    1.07
  -5   3  40    1.51    1.26
  -2   3  40    0.50    0.65
   1   3  40    0.18    0.72
  -4   4  40   -0.41    1.10
  -1   4  40    1.02    0.70
  -3   5  40   -0.27    1.09
   0   5  40   -0.35    1.11
   0  -5  41   18.44    2.37
   3  -5  41   19.05    2.19
  -2  -4  41    7.21    2.95
   1  -4  41   28.41    2.21
   4  -4  41   20.34    2.09
  -1  -3  41   29.57    2.41
   2  -3  41   32.74    1.80
   5  -3  41   19.57    2.15
  -3  -2  41   16.68    3.51
   0  -2  41   44.94    1.88
   3  -2  41   32.82    1.83
  -2  -1  41   36.35    1.99
   1  -1  41   57.59    2.08
   4  -1  41   23.78    1.96
  -4   0  41   19.98    3.67
  -1   0  41   61.88    1.64
   2   0  41   45.01    1.46
   5   0  41   13.30    3.21
  -3   1  41   35.90    1.83
   0   1  41   64.53    2.05
   3   1  41   29.04    2.21
  -5   2  41   15.85    2.57
  -2   2  41   46.29    1.94
   1   2  41   33.70    1.38
  -4   3  41   24.27    2.10
  -1   3  41   32.66    1.32
   2   3  41   16.46    1.90
  -3   4  41   27.90    2.12
   0   4  41   19.57    1.57
  -5   5  41   14.48    3.64
  -2   5  41   16.94    2.08
   3  -6  42   -1.52    1.61
   1  -5  42    0.42    1.20
   4  -5  42    0.78    1.79
  -1  -4  42    0.70    1.37
   2  -4  42   -0.15    1.24
   5  -4  42   -0.01    1.20
   0  -3  42   -0.70    0.69
   3  -3  42    0.24    0.82
  -2  -2  42    0.83    1.01
   1  -2  42    0.12    0.52
   4  -2  42    0.50    0.65
  -4  -1  42   -2.09    2.91
  -1  -1  42    0.67    0.63
   2  -1  42    0.20    0.47
   5  -1  42    2.70    1.87
  -3   0  42    0.29    0.93
   0   0  42    0.50    0.51
   3   0  42   -0.20    0.66
  -2   1  42    0.14    0.44
   1   1  42    0.46    0.41
   4   1  42    0.48    1.16
  -4   2  42   -0.16    0.94
  -1   2  42   -0.15    0.37
   2   2  42   -0.13    0.62
  -6   3  42    3.37    2.16
  -3   3  42   -0.10    0.56
   0   3  42   -0.35    0.48
  -5   4  42    0.25    1.44
  -2   4  42   -0.62    0.65
   1   4  42   -0.39    1.12
  -4   5  42    4.70    2.05
  -1   5  42    0.29    0.89
  -3   6  42    0.55    1.76
   2  -5  43    1.20    1.61
   5  -5  43    2.46    2.50
   0  -4  43    1.65    1.14
   3  -4  43    0.86    1.02
  -2  -3  43    0.86    1.37
   1  -3  43    3.27    1.20
   4  -3  43    2.90    1.17
  -1  -2  43    3.32    0.98
   2  -2  43    3.59    0.78
   5  -2  43    1.32    1.36
  -3  -1  43    1.28    2.09
   0  -1  43    6.32    0.79
   3  -1  43    1.85    0.75
  -2   0  43    1.85    0.91
   1   0  43    4.94    0.61
   4   0  43    0.17    0.97
  -4   1  43    1.05    0.99
  -1   1  43    5.63    0.61
   2   1  43    1.59    0.59
  -3   2  43    2.93    0.70
   0   2  43    4.11    0.62
   3   2  43   -0.14    1.14
  -5   3  43    1.36    1.30
  -2   3  43    2.72    0.83
   1   3  43    1.66    0.69
  -4   4  43    0.26    1.82
  -1   4  43    1.44    0.72
  -3   5  43   -0.60    1.07
   0   5  43   -0.34    1.17
   0  -5  44    0.79    1.61
   3  -5  44    4.00    1.46
   1  -4  44    1.48    0.98
   4  -4  44    1.72    1.18
  -1  -3  44    3.69    1.18
   2  -3  44    2.37    0.82
   5  -3  44    1.94    1.24
  -3  -2  44    4.23    2.74
   0  -2  44    4.58    0.81
   3  -2  44    5.04    0.96
  -2  -1  44    3.83    1.09
   1  -1  44    7.45    0.94
   4  -1  44    2.14    1.00
  -4   0  44    3.76    2.84
  -1   0  44    5.20    0.63
   2   0  44    6.37    0.74
   5   0  44    2.16    2.42
  -3   1  44    3.37    0.76
   0   1  44    5.53    0.77
   3   1  44    2.18    1.04
  -5   2  44    4.38    1.56
  -2   2  44    3.90    0.86
   1   2  44    3.28    0.61
  -4   3  44    0.11    1.00
  -1   3  44    4.41    0.68
   2   3  44    1.37    1.07
  -3   4  44    2.99    0.96
   0   4  44    2.30    0.89
  -5   5  44    2.47    2.77
  -2   5  44    1.23    1.15
   3  -6  45   17.09    3.77
   1  -5  45   14.38    2.17
   4  -5  45   16.78    3.23
  -1  -4  45   16.29    2.30
   2  -4  45   27.68    3.19
   5  -4  45   16.63    2.05
   0  -3  45   31.74    2.21
   3  -3  45   32.46    2.26
  -2  -2  45   22.19    2.09
   1  -2  45   39.43    1.81
   4  -2  45   22.89    1.57
  -4  -1  45   11.89    3.83
  -1  -1  45   42.54    1.95
   2  -1  45   43.59    1.51
   5  -1  45   20.60    3.17
  -3   0  45   30.37    2.45
   0   0  45   57.14    2.00
   3   0  45   28.56    2.05
  -2   1  45   43.67    1.51
   1   1  45   42.33    1.42
   4   1  45   17.93    2.16
  -4   2  45   22.45    2.00
  -1   2  45   41.90    1.40
   2   2  45   25.59    1.64
  -6   3  45   16.10    3.06
  -3   3  45   28.76    1.86
   0   3  45   28.03    1.49
  -5   4  45   18.00    2.22
  -2   4  45   21.66    1.85
   1   4  45   15.39    1.94
  -4   5  45   21.65    3.35
  -1   5  45   16.81    1.62
  -3   6  45    7.32    2.41
   2  -5  46    0.39    1.62
   5  -5  46    0.19    2.26
   0  -4  46    0.56    1.17
   3  -4  46    0.25    0.99
  -2  -3  46   -1.17    1.37
   1  -3  46    0.16    0.86
   4  -3  46   -0.47    0.94
  -1  -2  46   -1.15    0.74
   2  -2  46    0.73    0.63
   5  -2  46    0.75    1.81
  -3  -1  46   -0.29    1.22
   0  -1  46   -0.12    0.50
   3  -1  46    0.42    0.72
  -2   0  46    0.43    0.85
   1   0  46    0.36    0.39
   4   0  46    0.22    1.03
  -4   1  46   -0.80    1.01
  -1   1  46    0.49    0.41
   2   1  46   -0.11    0.51
  -3   2  46   -0.12    0.54
   0   2  46   -0.10    0.42
   3   2  46    0.61    1.24
  -5   3  46   -1.08    1.25
  -2   3  46   -0.19    0.65
   1   3  46   -0.25    0.81
  -4   4  46    0.58    2.01
  -1   4  46    0.31    0.65
  -3   5  46   -0.73    1.14
   0   5  46   -0.30    1.27
   0  -5  47    1.79    1.69
   3  -5  47    0.14    1.38
   1  -4  47    3.57    1.19
   4  -4  47    3.24    1.36
  -1  -3  47    1.53    1.08
   2  -3  47    4.50    0.92
   5  -3  47    2.45    1.39
  -3  -2  47    0.55    2.81
   0  -2  47    6.41    0.98
   3  -2  47    5.97    1.06
  -2  -1  47    4.39    1.21
   1  -1  47    8.83    1.01
   4  -1  47    3.22    1.07
  -4   0  47    4.62    2.83
  -1   0  47    7.65    0.77
   2   0  47    6.86    0.82
   5   0  47    1.55    2.34
  -3   1  47    3.77    0.76
   0   1  47    8.76    1.00
   3   1  47    3.57    1.10
  -5   2  47    2.52    1.55
  -2   2  47    4.70    0.98
   1   2  47    5.17    0.73
  -4   3  47    1.84    1.17
  -1   3  47    5.40    0.73
   2   3  47    2.38    1.13
  -3   4  47    2.84    1.03
   0   4  47    1.33    0.89
  -5   5  47    5.80    3.07
  -2   5  47    1.53    1.34
   1  -5  48  103.09    4.24
   4  -5  48   88.57    5.71
  -1  -4  48  104.63    4.49
   2  -4  48  165.96    7.11
   5  -4  48  102.07    4.10
   0  -3  48  206.15    5.37
   3  -3  48  193.31    5.20
  -2  -2  48  167.76    5.05
   1  -2  48  313.72    6.77
   4  -2  48  171.54    4.75
  -1  -1  48  310.69    6.89
   2  -1  48  308.06    5.45
   5  -1  48  104.06    5.91
  -3   0  48  206.26    5.70
   0   0  48  398.54    8.11
   3   0  48  205.04    5.16
  -2   1  48  314.57    7.04
   1   1  48  315.54    5.35
   4   1  48   95.92    4.08
  -4   2  48  166.46    4.73
  -1   2  48  311.88    5.29
   2   2  48  167.73    3.85
  -3   3  48  204.54    5.26
   0   3  48  200.01    4.12
  -5   4  48  102.84    4.39
  -2   4  48  160.50    4.76
   1   4  48   95.24    4.08
  -4   5  48  113.34    6.25
  -1   5  48  100.70    3.35
   2  -5  49    6.90    2.32
   5  -5  49    2.54    1.73
   0  -4  49    3.06    1.40
   3  -4  49    3.66    1.18
  -2  -3  49    2.95    1.54
   1  -3  49    3.51    1.32
   4  -3  49    3.82    1.29
  -1  -2  49    6.91    1.24
   2  -2  49    8.39    1.14
   5  -2  49   -0.60    2.00
  -3  -1  49    2.87    1.44
   0  -1  49   12.03    1.10
   3  -1  49    4.15    0.99
  -5   0  49   -0.37    3.19
  -2   0  49   10.31    1.37
   1   0  49   12.24    0.92
   4   0  49    2.57    1.22
  -4   1  49    2.86    2.30
  -1   1  49   10.85    0.85
   2   1  49    6.72    0.83
  -3   2  49    4.01    0.81
   0   2  49    9.80    1.10
   3   2  49    0.93    1.36
  -5   3  49    2.33    1.51
  -2   3  49    4.47    1.00
   1   3  49    4.57    1.08
  -4   4  49    6.59    2.58
  -1   4  49    3.62    0.92
  -3   5  49   -0.34    1.16
   0   5  49    1.31    1.35
   0  -5  50   -4.10    2.69
   3  -5  50   -0.15    1.36
   1  -4  50   -1.16    1.12
   4  -4  50   -0.59    1.13
  -1  -3  50    1.67    1.11
   2  -3  50    0.29    0.74
   5  -3  50   -0.55    1.19
  -3  -2  50    0.54    2.76
   0  -2  50   -0.31    0.64
   3  -2  50   -0.10    0.76
  -2  -1  50    0.40    0.91
   1  -1  50    0.56    0.59
   4  -1  50    0.33    0.95
  -4   0  50   -1.99    2.61
  -1   0  50    0.57    0.50
   2   0  50    0.14    0.48
   5   0  50    2.22    2.55
  -3   1  50    0.82    0.62
   0   1  50   -0.73    0.45
   3   1  50   -0.19    0.95
  -5   2  50   -0.99    1.31
  -2   2  50    0.32    0.73
   1   2  50    0.82    0.56
  -4   3  50   -0.20    1.01
  -1   3  50    0.24    0.52
   2   3  50    0.11    1.05
  -3   4  50    0.22    0.86
   0   4  50    0.90    0.91
  -5   5  50    1.26    2.86
  -2   5  50    0.78    1.33
   1  -5  51   10.90    1.92
   4  -5  51   10.12    1.98
  -1  -4  51   12.56    2.15
   2  -4  51   16.17    1.84
   5  -4  51    9.79    1.82
   0  -3  51   19.92    1.93
   3  -3  51   21.15    1.92
  -2  -2  51   13.80    1.79
   1  -2  51   28.11    1.76
   4  -2  51   12.71    1.57
  -4  -1  51    6.16    3.45
  -1  -1  51   31.16    1.96
   2  -1  51   29.61    1.36
   5  -1  51   14.77    2.95
  -3   0  51   16.06    1.93
   0   0  51   45.85    1.89
   3   0  51   21.39    1.83
  -5   1  51    6.90    3.15
  -2   1  51   31.09    1.98
   1   1  51   28.92    1.26
   4   1  51    9.32    1.72
  -4   2  51   18.02    3.09
  -1   2  51   28.22    1.22
   2   2  51   15.91    1.39
  -3   3  51   18.85    1.74
   0   3  51   17.12    1.32
  -5   4  51    8.47    1.98
  -2   4  51   15.46    1.65
   1   4  51    8.54    1.71
  -4   5  51   13.28    3.11
  -1   5  51    7.87    1.29
   2  -5  52    2.63    1.95
   5  -5  52    2.57    2.62
   0  -4  52    2.92    1.44
   3  -4  52    3.42    1.25
  -2  -3  52    3.00    1.75
   1  -3  52    3.13    1.38
   4  -3  52    3.37    1.24
  -1  -2  52    6.47    1.23
   2  -2  52    5.96    1.06
   5  -2  52    2.47    1.52
  -3  -1  52    3.87    1.44
   0  -1  52   14.03    1.24
   3  -1  52    4.48    1.05
  -5   0  52   -1.65    3.27
  -2   0  52    7.71    1.34
   1   0  52   12.44    0.93
   4   0  52    1.50    1.22
  -4   1  52    4.85    2.50
  -1   1  52   11.97    0.93
   2   1  52    5.82    0.80
  -3   2  52    5.17    0.90
   0   2  52    7.36    1.05
   3   2  52    0.78    1.31
  -5   3  52    1.73    1.49
  -2   3  52    4.76    1.05
   1   3  52    1.53    0.93
  -4   4  52    2.51    2.33
  -1   4  52    4.80    1.01
  -3   5  52   -0.21    1.25
   0   5  52    0.14    2.47
   3  -5  53    0.53    1.55
   1  -4  53    2.13    1.58
   4  -4  53   -1.31    1.15
  -1  -3  53    3.23    1.36
   2  -3  53    3.18    1.06
   5  -3  53   -0.38    1.25
  -3  -2  53    2.28    2.92
   0  -2  53    1.88    0.90
   3  -2  53    2.15    0.94
  -2  -1  53    2.52    1.15
   1  -1  53    5.25    0.96
   4  -1  53    2.21    1.10
  -4   0  53   -1.00    2.52
  -1   0  53    5.64    0.74
   2   0  53    4.72    0.75
  -3   1  53    2.04    0.71
   0   1  53    3.58    0.82
   3   1  53    0.72    1.06
  -5   2  53    4.26    2.83
  -2   2  53    2.28    0.90
   1   2  53    3.47    0.71
  -4   3  53    2.05    1.22
  -1   3  53    2.31    0.61
   2   3  53    0.36    1.13
  -3   4  53    1.24    1.09
   0   4  53    1.96    0.95
  -5   5  53    0.57    3.13
  -2   5  53    0.11    1.32
   1  -5  54    3.73    1.66
   4  -5  54   -0.57    1.63
  -1  -4  54    0.22    1.61
   2  -4  54    1.22    1.09
   5  -4  54   -0.32    1.40
   0  -3  54    4.89    1.22
   3  -3  54    1.99    1.03
  -2  -2  54    2.30    1.28
   1  -2  54    4.88    0.93
   4  -2  54    2.96    1.03
  -4  -1  54    0.60    3.17
  -1  -1  54    4.32    1.08
   2  -1  54    4.89    0.74
   5  -1  54    0.87    2.10
  -3   0  54    2.42    1.18
   0   0  54    7.08    0.95
   3   0  54    3.28    1.06
  -5   1  54    1.78    2.74
  -2   1  54    4.62    1.09
   1   1  54    4.19    0.69
   4   1  54    0.90    1.37
  -4   2  54    1.50    1.24
  -1   2  54    4.22    0.65
   2   2  54    1.24    0.79
  -3   3  54    2.41    0.97
   0   3  54    1.48    0.71
  -5   4  54    5.23    3.02
  -2   4  54    3.16    1.05
   1   4  54    0.29    1.22
  -4   5  54   -0.12    2.54
  -1   5  54    1.11    1.32
   2  -5  55    3.48    2.17
   5  -5  55    8.28    3.44
   0  -4  55    6.80    1.62
   3  -4  55    7.58    2.06
  -2  -3  55    3.23    1.65
   1  -3  55    6.85    1.69
   4  -3  55    4.02    1.28
  -1  -2  55    5.99    1.27
   2  -2  55    7.72    1.21
   5  -2  55    2.19    2.30
  -3  -1  55    4.73    1.64
   0  -1  55    8.61    1.08
   3  -1  55    7.70    1.21
  -2   0  55    7.73    1.36
   1   0  55    8.89    0.88
   4   0  55    5.96    1.49
  -4   1  55    7.86    2.79
  -1   1  55    7.07    0.78
   2   1  55    7.42    0.95
  -3   2  55    7.51    1.26
   0   2  55    8.51    0.90
   3   2  55    4.44    1.61
  -5   3  55    9.71    1.90
  -2   3  55    4.40    1.07
   1   3  55    6.47    1.26
  -4   4  55    3.60    2.49
  -1   4  55    4.44    0.98
  -3   5  55    4.31    1.48
   0   5  55    3.66    2.70
   3  -5  56    1.77    2.46
   1  -4  56    2.47    1.55
   4  -4  56    1.23    1.27
  -1  -3  56    1.18    1.12
   2  -3  56    1.51    0.93
   5  -3  56   -0.39    1.30
  -3  -2  56   -0.41    2.68
   0  -2  56    1.69    0.87
   3  -2  56    2.55    0.99
  -2  -1  56    1.38    1.17
   1  -1  56    2.08    0.78
   4  -1  56    1.52    1.10
  -4   0  56    3.50    2.91
  -1   0  56    4.33    0.71
   2   0  56    3.15    0.74
   5   0  56   -0.24    2.03
  -3   1  56    1.56    0.76
   0   1  56    3.45    0.81
   3   1  56    3.03    1.09
  -5   2  56    6.74    3.19
  -2   2  56    2.16    0.96
   1   2  56    1.04    0.81
  -4   3  56    0.56    1.23
  -1   3  56    3.05    0.75
   2   3  56    0.88    1.17
  -3   4  56    0.47    1.03
   0   4  56    1.18    0.97
  -2   5  56    2.06    1.40
   1  -5  57   -1.68    1.49
   4  -5  57   -0.82    1.62
  -1  -4  57    0.87    1.60
   2  -4  57    0.28    1.08
   5  -4  57    0.63    1.53
   0  -3  57    1.94    1.10
   3  -3  57    2.26    1.07
  -2  -2  57    2.39    1.23
   1  -2  57    1.57    0.80
   4  -2  57    0.97    1.01
  -4  -1  57   -4.63    3.07
  -1  -1  57    0.73    0.87
   2  -1  57    1.56    0.64
   5  -1  57    2.30    2.19
  -3   0  57    2.82    1.24
   0   0  57    2.33    0.75
   3   0  57    0.75    0.89
  -5   1  57    1.70    2.93
  -2   1  57    2.94    0.97
   1   1  57    2.06    0.59
   4   1  57    0.74    1.45
  -4   2  57   -0.74    1.05
  -1   2  57    3.02    0.64
   2   2  57    1.91    0.82
  -3   3  57    0.71    0.89
   0   3  57    0.76    0.83
  -5   4  57    1.86    3.04
  -2   4  57    1.43    1.02
   1   4  57   -1.01    1.14
  -4   5  57   -0.18    2.54
  -1   5  57   -0.11    1.29
   2  -5  58    2.55    1.55
   0  -4  58    4.29    1.74
   3  -4  58    7.74    2.30
  -2  -3  58    5.55    1.92
   1  -3  58    5.19    1.17
   4  -3  58    4.25    1.32
  -1  -2  58    6.11    1.26
   2  -2  58    5.80    1.12
   5  -2  58   -0.95    2.10
  -3  -1  58    3.67    1.68
   0  -1  58    5.72    0.98
   3  -1  58    6.89    1.21
  -2   0  58    6.44    1.35
   1   0  58    6.26    0.79
   4   0  58    5.48    1.47
  -4   1  58    3.10    2.30
  -1   1  58    6.78    0.79
   2   1  58    5.48    0.90
  -3   2  58    5.57    1.27
   0   2  58    7.20    1.12
   3   2  58    3.05    1.97
  -5   3  58    3.33    1.61
  -2   3  58    3.96    1.08
   1   3  58    6.11    1.32
  -4   4  58    4.59    2.46
  -1   4  58    6.24    1.02
  -3   5  58    2.26    1.44
   3  -5  59    2.43    2.50
   1  -4  59    4.07    2.01
   4  -4  59    3.99    1.47
  -1  -3  59    5.42    1.52
   2  -3  59    8.08    1.32
   5  -3  59    5.02    1.67
  -3  -2  59    1.46    3.04
   0  -2  59    6.76    1.80
   3  -2  59   11.10    1.45
  -2  -1  59    9.38    1.53
   1  -1  59   16.27    1.47
   4  -1  59    7.69    1.47
  -4   0  59    7.03    3.06
  -1   0  59   16.19    1.13
   2   0  59   13.65    1.17
  -3   1  59   10.80    1.63
   0   1  59   17.24    1.49
   3   1  59    5.49    1.35
  -5   2  59    7.45    3.11
  -2   2  59   11.12    1.46
   1   2  59    6.12    1.08
  -4   3  59    6.13    2.18
  -1   3  59    6.42    0.91
   2   3  59    4.35    1.41
  -3   4  59    4.34    1.32
   0   4  59    6.09    1.20
  -2   5  59    4.51    1.51
   1  -5  60    4.12    2.51
   4  -5  60    0.89    1.73
  -1  -4  60    3.02    1.88
   2  -4  60    6.17    1.41
   5  -4  60    2.75    1.74
   0  -3  60    6.81    1.33
   3  -3  60    6.42    1.36
  -2  -2  60    6.78    1.65
   1  -2  60   12.30    1.40
   4  -2  60    8.16    1.49
  -4  -1  60    0.05    3.34
  -1  -1  60   10.41    1.02
   2  -1  60   11.46    1.08
   5  -1  60    4.56    1.59
  -3   0  60    5.37    1.47
   0   0  60   15.00    1.34
   3   0  60    6.82    1.34
  -5   1  60    3.87    3.02
  -2   1  60   10.08    1.38
   1   1  60   10.51    0.99
   4   1  60    1.65    1.52
  -4   2  60    5.01    1.42
  -1   2  60   10.67    0.97
   2   2  60    6.40    1.27
  -3   3  60    5.61    1.28
   0   3  60    6.18    1.17
  -5   4  60    3.15    3.20
  -2   4  60    4.88    1.28
   1   4  60    2.29    1.45
  -4   5  60    1.01    2.82
  -1   5  60    0.92    1.42
   2  -5  61    4.40    1.70
   0  -4  61    3.85    1.64
   3  -4  61    6.44    2.25
  -2  -3  61    3.23    1.66
   1  -3  61    8.64    1.34
   4  -3  61    6.10    1.46
  -1  -2  61   10.01    1.58
   2  -2  61   14.63    1.55
   5  -2  61    3.45    2.39
  -3  -1  61    5.36    1.79
   0  -1  61   22.54    1.71
   3  -1  61   10.64    1.43
  -2   0  61   12.72    1.61
   1   0  61   20.86    1.28
   4   0  61    5.97    1.55
  -4   1  61    1.12    2.17
  -1   1  61   19.89    1.26
   2   1  61    8.71    1.05
  -3   2  61    8.26    1.41
   0   2  61   16.30    1.49
   3   2  61    0.88    1.99
  -5   3  61    1.40    1.65
  -2   3  61    9.00    1.38
   1   3  61    5.62    1.31
  -4   4  61    3.74    2.72
  -1   4  61    4.90    1.02
  -3   5  61    2.02    1.55
   3  -5  62  101.79    6.47
   1  -4  62  122.25    6.70
   4  -4  62  102.43    4.15
  -1  -3  62  121.85    4.63
   2  -3  62  193.63    5.47
   5  -3  62   93.98    4.08
   0  -2  62  244.08    5.94
   3  -2  62  194.26    5.24
  -2  -1  62  190.59    5.67
   1  -1  62  304.46    6.99
   4  -1  62  121.81    4.29
  -1   0  62  314.21    5.54
   2   0  62  243.36    4.82
  -3   1  62  192.80    5.59
   0   1  62  311.45    7.01
   3   1  62  137.63    4.38
  -5   2  62   96.27    6.70
  -2   2  62  239.79    6.17
   1   2  62  196.88    5.32
  -4   3  62  133.53    6.76
  -1   3  62  196.33    4.16
   2   3  62   99.26    4.11
  -3   4  62  129.58    4.55
   0   4  62  107.75    4.21
  -2   5  62   90.54    4.22
   1  -5  63    0.50    2.06
   4  -5  63    1.41    1.77
  -1  -4  63    3.91    1.86
   2  -4  63    1.89    1.27
   5  -4  63    0.63    2.40
   0  -3  63    3.06    1.25
   3  -3  63    1.81    1.08
  -2  -2  63    3.23    1.46
   1  -2  63    2.46    0.90
   4  -2  63    3.04    1.26
  -4  -1  63    4.54    3.54
  -1  -1  63    3.62    0.82
   2  -1  63    3.49    0.76
   5  -1  63    1.88    1.48
  -3   0  63    1.70    1.30
   0   0  63    4.90    0.96
   3   0  63    4.66    1.28
  -5   1  63    2.31    3.17
  -2   1  63    2.69    1.00
   1   1  63    2.97    0.72
   4   1  63    0.11    1.49
  -4   2  63    0.31    1.24
  -1   2  63    2.89    0.71
   2   2  63    0.24    0.96
  -3   3  63    2.71    1.10
   0   3  63    2.21    0.89
  -5   4  63    3.62    3.38
  -2   4  63    2.49    1.12
   1   4  63    1.58    1.34
  -4   5  63    1.72    3.26
  -1   5  63    0.79    1.39
   2  -5  64    5.81    1.82
   0  -4  64    5.84    1.82
   3  -4  64    7.04    2.32
  -2  -3  64    2.61    1.90
   1  -3  64   12.61    1.59
   4  -3  64    8.37    1.64
  -1  -2  64   14.72    1.83
   2  -2  64   19.51    1.80
   5  -2  64    8.28    1.87
  -3  -1  64    9.22    2.01
   0  -1  64   27.04    1.91
   3  -1  64   14.66    1.70
  -2   0  64   16.03    1.78
   1   0  64   26.76    1.47
   4   0  64    6.59    1.56
  -4   1  64    9.41    2.80
  -1   1  64   26.05    1.41
   2   1  64   13.49    1.26
  -3   2  64    9.99    1.49
   0   2  64   18.72    1.74
   3   2  64    5.80    2.47
  -5   3  64    7.34    3.05
  -2   3  64   12.28    1.56
   1   3  64    8.84    1.57
  -4   4  64    9.25    3.07
  -1   4  64    5.04    1.03
  -3   5  64    4.17    1.70
   3  -5  65   31.61    4.06
   1  -4  65   46.40    4.82
   4  -4  65   32.33    2.71
  -1  -3  65   43.92    3.24
   2  -3  65   48.47    2.67
   5  -3  65   33.65    3.03
  -3  -2  65   13.69    3.72
   0  -2  65   59.62    2.65
   3  -2  65   47.96    2.49
  -2  -1  65   50.60    2.90
   1  -1  65   72.22    2.75
   4  -1  65   42.03    2.98
  -4   0  65   16.06    3.54
  -1   0  65   74.99    2.16
   2   0  65   61.22    2.13
  -3   1  65   48.73    2.74
   0   1  65   76.74    2.83
   3   1  65   43.97    2.91
  -5   2  65   32.91    5.06
  -2   2  65   62.54    2.77
   1   2  65   51.82    2.56
  -4   3  65   37.26    4.42
  -1   3  65   48.02    1.97
   2   3  65   25.11    2.44
  -3   4  65   31.77    2.68
   0   4  65   34.65    2.24
  -2   5  65   30.42    2.77
   1  -5  66    0.67    2.17
   4  -5  66   -0.10    1.76
  -1  -4  66    1.60    1.70
   2  -4  66   -0.48    1.16
   5  -4  66    1.51    2.59
   0  -3  66    0.96    1.16
   3  -3  66    0.82    1.06
  -2  -2  66    1.52    1.56
   1  -2  66    1.69    0.90
   4  -2  66   -0.71    1.07
  -1  -1  66    1.05    0.67
   2  -1  66    2.05    0.73
   5  -1  66    1.72    1.51
  -3   0  66    1.52    1.31
   0   0  66    2.26    0.84
   3   0  66    1.17    1.05
  -5   1  66    0.42    3.02
  -2   1  66    0.74    0.98
   1   1  66    1.75    0.66
   4   1  66    2.23    1.64
  -4   2  66   -0.48    2.06
  -1   2  66    2.45    0.70
   2   2  66    0.70    1.07
  -3   3  66    2.34    1.21
   0   3  66    0.72    0.91
  -5   4  66   -1.32    3.01
  -2   4  66   -0.13    0.95
   1   4  66   -1.80    1.38
  -4   5  66    0.38    3.36
  -1   5  66   -1.03    1.30
   2  -5  67    1.72    1.70
   0  -4  67    1.63    1.49
   3  -4  67    1.32    1.82
  -2  -3  67    0.95    1.73
   1  -3  67    1.89    1.12
   4  -3  67    2.30    1.35
  -1  -2  67    2.01    1.25
   2  -2  67    3.31    1.05
   5  -2  67    0.34    1.52
  -3  -1  67   -0.85    1.53
   0  -1  67    5.19    1.08
   3  -1  67    1.96    1.04
  -2   0  67    2.71    1.19
   1   0  67    6.41    0.87
   4   0  67    2.17    1.40
  -4   1  67    4.39    2.26
  -1   1  67    3.32    0.70
   2   1  67    1.69    0.80
  -3   2  67    1.30    1.08
   0   2  67    4.24    1.08
   3   2  67    0.14    1.98
  -5   3  67    3.96    2.75
  -2   3  67    2.82    1.11
   1   3  67    1.80    1.15
  -4   4  67    1.69    2.53
  -1   4  67    2.35    1.27
  -3   5  67    1.27    1.58
   3  -5  68    7.29    2.79
   1  -4  68    7.12    1.68
   4  -4  68    3.46    1.60
  -1  -3  68    5.99    1.75
   2  -3  68   10.87    1.59
   5  -3  68    6.68    1.91
  -3  -2  68    7.51    3.51
   0  -2  68   15.44    1.65
   3  -2  68   14.32    1.69
  -2  -1  68   11.18    1.82
   1  -1  68   22.54    1.77
   4  -1  68    9.37    1.74
  -4   0  68    3.41    2.68
  -1   0  68   20.22    1.31
   2   0  68   16.31    1.36
  -3   1  68   14.16    1.86
   0   1  68   20.04    1.74
   3   1  68    8.94    1.63
  -5   2  68    6.18    3.15
  -2   2  68   14.98    1.69
   1   2  68   14.39    1.67
  -4   3  68    8.33    2.77
  -1   3  68   11.85    1.24
   2   3  68    5.49    2.40
  -3   4  68    7.91    1.64
   0   4  68    4.35    1.26
  -2   5  68    3.29    1.54
   4  -5  69    2.46    2.77
   2  -4  69    5.28    1.65
   0  -3  69    5.28    1.47
   3  -3  69    5.46    1.37
  -2  -2  69    4.83    1.80
   1  -2  69    7.54    1.35
   4  -2  69    5.83    1.51
  -1  -1  69    7.69    1.08
   2  -1  69    8.49    1.04
   5  -1  69    4.25    2.34
  -3   0  69    3.17    1.50
   0   0  69   10.21    1.28
   3   0  69    4.62    1.40
  -2   1  69    8.39    1.39
   1   1  69    7.88    1.01
   4   1  69    6.59    1.97
  -4   2  69   11.60    3.15
  -1   2  69    6.43    0.92
   2   2  69    3.44    1.29
  -3   3  69    3.45    1.32
   0   3  69    6.75    1.36
  -2   4  69    3.05    1.32
   1   4  69    1.33    1.53
  -1   5  69    2.64    2.62
   2  -5  70   -0.55    1.74
   0  -4  70    1.50    1.62
   3  -4  70    2.25    2.08
  -2  -3  70    1.67    1.97
   1  -3  70    4.06    1.19
   4  -3  70    1.70    1.34
  -1  -2  70    4.82    1.48
   2  -2  70    5.63    1.25
   5  -2  70    0.75    1.62
  -3  -1  70    1.09    1.66
   0  -1  70    9.02    1.29
   3  -1  70    2.99    1.10
  -2   0  70    4.51    1.29
   1   0  70    6.76    0.90
   4   0  70    0.63    1.27
  -4   1  70    6.90    2.74
  -1   1  70    5.93    0.87
   2   1  70    4.15    0.96
  -3   2  70    4.46    1.31
   0   2  70    5.89    1.25
   3   2  70    1.62    2.26
  -5   3  70    0.80    2.73
  -2   3  70    4.14    1.24
   1   3  70    1.21    1.19
  -4   4  70    3.42    2.76
  -1   4  70    1.79    1.26
  -3   5  70    0.29    1.60
   3  -5  71    9.27    3.00
   1  -4  71    5.59    1.57
   4  -4  71    4.45    1.65
  -1  -3  71    2.18    1.49
   2  -3  71    8.66    1.53
   5  -3  71    1.85    1.72
  -3  -2  71    0.62    3.25
   0  -2  71    7.96    1.33
   3  -2  71    9.52    1.45
  -2  -1  71   10.06    1.91
   1  -1  71   14.50    1.47
   4  -1  71    7.26    1.75
  -4   0  71    4.14    3.00
  -1   0  71   12.53    1.11
   2   0  71   11.49    1.22
  -3   1  71    7.89    1.62
   0   1  71   10.71    1.39
   3   1  71    7.24    1.66
  -5   2  71   -2.85    3.08
  -2   2  71   10.91    1.57
   1   2  71    5.28    1.23
  -4   3  71    8.54    2.76
  -1   3  71    6.22    1.01
   2   3  71    4.86    2.66
  -3   4  71    4.95    1.45
   0   4  71    4.19    1.22
  -2   5  71    5.75    1.80
   4  -5  72    6.92    3.21
   2  -4  72    1.19    1.45
   0  -3  72    3.69    1.32
   3  -3  72    6.19    1.43
  -2  -2  72    5.22    1.77
   1  -2  72    6.36    1.28
   4  -2  72    6.04    1.56
  -1  -1  72    6.66    1.03
   2  -1  72    7.28    1.02
   5  -1  72    3.48    2.41
  -3   0  72    6.70    1.60
   0   0  72    7.02    1.22
   3   0  72    4.25    1.37
  -2   1  72    5.24    1.25
   1   1  72    9.12    1.34
   4   1  72    9.24    3.12
  -4   2  72    0.12    2.25
  -1   2  72    7.53    1.03
   2   2  72    4.01    1.32
  -3   3  72    3.34    1.38
   0   3  72    5.90    1.38
  -2   4  72    5.25    1.39
   2  -5  73   14.06    2.47
   0  -4  73   15.04    2.29
   3  -4  73   12.27    2.75
  -2  -3  73   10.13    2.54
   1  -3  73   25.23    2.31
   4  -3  73   15.88    2.07
  -1  -2  73   25.87    1.83
   2  -2  73   33.04    2.39
   5  -2  73    6.99    1.95
  -3  -1  73   12.56    2.33
   0  -1  73   40.87    2.34
   3  -1  73   24.07    2.13
  -2   0  73   28.94    2.41
   1   0  73   39.81    1.65
   4   0  73   12.09    1.95
  -4   1  73   21.29    3.76
  -1   1  73   42.55    1.70
   2   1  73   23.26    1.65
  -3   2  73   19.65    2.11
   0   2  73   31.91    2.31
   3   2  73    8.56    2.82
  -5   3  73    6.47    3.28
  -2   3  73   21.71    2.15
   1   3  73   12.91    1.90
  -4   4  73   13.43    3.44
  -1   4  73   15.72    1.94
  -3   5  73    8.70    2.12
   3  -5  74    0.31    2.59
   1  -4  74    1.05    1.35
   4  -4  74    0.16    1.44
  -1  -3  74    2.15    1.54
   2  -3  74    0.61    1.08
   5  -3  74    0.75    1.51
   0  -2  74    0.38    0.98
   3  -2  74    0.55    0.97
  -2  -1  74    2.32    1.39
   1  -1  74   -0.01    0.78
   4  -1  74   -0.92    1.27
  -4   0  74   -0.92    2.96
  -1   0  74   -0.16    0.65
   2   0  74    0.87    0.77
  -3   1  74   -0.63    1.09
   0   1  74   -0.22    0.81
   3   1  74    0.21    1.31
  -5   2  74   -1.19    2.74
  -2   2  74    0.60    0.97
   1   2  74   -0.24    0.93
  -4   3  74    2.06    2.43
  -1   3  74    0.41    0.99
   2   3  74    1.22    2.59
  -3   4  74    0.21    1.28
   0   4  74   -1.02    1.27
  -2   5  74    1.33    1.57
   2  -4  75    2.55    1.50
   0  -3  75    9.06    1.64
   3  -3  75    3.11    1.33
  -2  -2  75    3.67    1.77
   1  -2  75    9.48    1.44
   4  -2  75    3.98    1.49
  -1  -1  75    8.52    1.15
   2  -1  75    6.87    1.00
  -3   0  75    7.45    1.78
   0   0  75   12.78    1.40
   3   0  75    8.52    1.67
  -2   1  75    9.50    1.49
   1   1  75    6.45    1.29
  -4   2  75    3.45    2.43
  -1   2  75    8.17    1.05
   2   2  75    3.17    1.31
  -3   3  75    4.81    1.34
   0   3  75    6.85    1.50
  -2   4  75    6.53    1.65
   2  -5  76    9.53    3.20
   0  -4  76   12.70    2.18
   3  -4  76   18.52    3.22
  -2  -3  76    6.06    3.26
   1  -3  76   30.07    2.31
   4  -3  76   16.18    2.17
  -1  -2  76   22.19    1.85
   2  -2  76   28.24    2.24
   5  -2  76   11.18    2.87
  -3  -1  76    9.94    2.36
   0  -1  76   34.87    2.28
   3  -1  76   25.57    2.21
  -2   0  76   29.53    2.53
   1   0  76   40.10    1.68
   4   0  76   15.02    2.13
  -4   1  76   22.57    3.93
  -1   1  76   36.74    1.70
   2   1  76   20.36    1.98
  -3   2  76   19.67    2.17
   0   2  76   31.35    2.40
  -2   3  76   16.99    1.90
   1   3  76   14.69    2.12
  -4   4  76   12.84    3.48
  -1   4  76   16.41    2.20
  -3   5  76    7.22    2.72
   1  -4  77    2.38    1.51
   4  -4  77    1.12    1.58
  -1  -3  77    1.40    1.64
   2  -3  77    2.03    1.29
   5  -3  77    4.08    2.27
   0  -2  77    0.64    1.13
   3  -2  77    1.65    1.12
  -2  -1  77    2.43    1.50
   1  -1  77    3.04    1.03
   4  -1  77    0.00    1.42
  -4   0  77    3.43    3.14
  -1   0  77    2.30    0.80
   2   0  77    1.57    0.85
  -3   1  77    2.12    1.25
   0   1  77    2.83    1.06
   3   1  77   -1.96    1.79
  -2   2  77    3.06    1.21
   1   2  77    1.48    1.12
  -4   3  77    1.47    2.28
  -1   3  77    2.04    1.18
  -3   4  77    1.29    1.36
   0   4  77    1.33    1.40
   2  -4  78   -1.75    1.23
   0  -3  78    1.46    1.31
   3  -3  78   -0.11    1.22
  -2  -2  78    0.49    1.62
   1  -2  78   -0.66    0.85
   4  -2  78   -0.57    1.29
  -1  -1  78    0.60    0.91
   2  -1  78    0.04    0.72
  -3   0  78    0.16    1.44
   0   0  78    0.07    0.83
   3   0  78    0.91    1.16
  -2   1  78    0.45    0.98
   1   1  78   -0.02    1.01
  -4   2  78   -2.28    2.13
  -1   2  78    0.53    0.75
   2   2  78    0.89    1.24
  -3   3  78   -0.45    1.19
   0   3  78   -0.52    1.04
  -2   4  78    0.74    1.20
   0  -4  79   53.33    3.11
   3  -4  79   57.62    3.43
   1  -3  79   82.94    3.72
   4  -3  79   59.04    3.41
  -1  -2  79   88.57    3.04
   2  -2  79  102.82    3.05
   5  -2  79   41.48    4.47
  -3  -1  79   41.11    3.74
   0  -1  79  125.17    4.10
   3  -1  79   84.83    3.42
  -2   0  79   95.18    3.85
   1   0  79  124.73    3.07
   4   0  79   53.01    3.59
  -4   1  79   65.70    5.28
  -1   1  79  123.43    3.06
   2   1  79   87.72    3.56
  -3   2  79   80.44    3.66
   0   2  79   97.76    3.79
  -2   3  79   81.10    3.60
   1   3  79   57.53    3.52
  -4   4  79   57.81    5.98
  -1   4  79   58.71    3.44
  -3   5  79   30.64    4.41
   1  -4  80    0.29    1.53
   4  -4  80   -1.51    1.44
  -1  -3  80   -0.47    1.26
   2  -3  80    2.55    1.35
   5  -3  80    0.96    2.30
   0  -2  80    1.88    1.21
   3  -2  80    2.89    1.15
  -2  -1  80   -1.05    1.42
   1  -1  80    2.52    1.03
   4  -1  80    0.34    1.38
  -4   0  80    1.03    3.07
  -1   0  80    2.16    0.81
   2   0  80    1.43    0.88
  -3   1  80    2.31    1.29
   0   1  80    4.09    1.16
   3   1  80   -0.70    2.08
  -2   2  80    1.99    1.13
   1   2  80    2.14    1.24
  -4   3  80    0.69    2.35
  -1   3  80    1.26    1.19
  -3   4  80    1.50    1.49
   0   4  80    0.69    1.57
   2  -4  81    2.69    1.55
   0  -3  81    1.29    1.42
   3  -3  81    2.99    1.47
  -2  -2  81   -1.97    1.61
   1  -2  81    2.53    1.15
   4  -2  81    1.58    1.35
  -1  -1  81    2.85    1.08
   2  -1  81    4.86    1.01
  -3   0  81    1.77    1.56
   0   0  81    6.17    1.18
   3   0  81    0.80    1.30
  -2   1  81    5.24    1.32
   1   1  81    2.48    1.19
  -4   2  81    5.01    2.45
  -1   2  81    2.52    1.13
   2   2  81    0.35    1.25
  -3   3  81    1.23    1.35
   0   3  81    1.02    1.23
  -2   4  81    1.67    1.30
   0  -4  82   42.66    2.82
   3  -4  82   48.58    3.42
   1  -3  82   63.93    3.34
   4  -3  82   45.69    3.29
  -1  -2  82   64.57    2.80
   2  -2  82   65.63    2.49
  -3  -1  82   25.89    3.21
   0  -1  82   80.17    3.28
   3  -1  82   58.71    2.95
  -2   0  82   64.65    3.24
   1   0  82   84.90    2.49
   4   0  82   44.72    3.45
  -4   1  82   41.11    4.95
  -1   1  82   81.97    2.48
   2   1  82   58.71    3.04
  -3   2  82   52.61    3.12
   0   2  82   67.36    3.17
  -2   3  82   56.56    3.32
   1   3  82   40.79    3.14
  -4   4  82   27.93    4.54
  -1   4  82   39.00    3.17
   1  -4  83   -0.31    1.56
   4  -4  83   -1.61    1.51
  -1  -3  83    0.47    1.40
   2  -3  83   -0.36    1.24
   0  -2  83   -0.74    1.09
   3  -2  83    0.69    1.05
  -2  -1  83   -0.84    1.42
   1  -1  83   -1.88    0.82
   4  -1  83    0.62    1.46
  -1   0  83    0.50    0.89
   2   0  83    0.31    0.85
  -3   1  83    0.98    1.25
   0   1  83    0.01    0.96
   3   1  83   -0.02    2.12
  -2   2  83    1.15    1.11
   1   2  83   -1.03    1.03
  -4   3  83    2.17    2.41
  -1   3  83   -0.57    1.08
  -3   4  83   -0.93    1.46
   0   4  83    1.12    1.55
   2  -4  84    1.32    1.63
   0  -3  84    1.02    1.40
   3  -3  84    0.64    1.34
  -2  -2  84    0.67    1.86
   1  -2  84    1.66    1.24
   4  -2  84    1.41    1.48
  -1  -1  84    3.78    1.09
   2  -1  84    2.16    0.87
  -3   0  84    0.92    1.60
   0   0  84    3.65    1.14
   3   0  84    1.37    1.46
  -2   1  84    3.50    1.33
   1   1  84    2.57    1.20
  -4   2  84    1.41    2.50
  -1   2  84    4.33    1.36
   2   2  84    2.04    1.37
  -3   3  84    0.90    1.33
   0   3  84    1.16    1.19
  -2   4  84    2.18    1.52
   0  -4  85    5.74    2.96
   3  -4  85    2.73    1.62
   1  -3  85    5.37    1.60
   4  -3  85    5.34    1.75
  -1  -2  85    6.69    1.46
   2  -2  85   10.41    1.30
  -3  -1  85    6.56    3.30
   0  -1  85    9.43    1.47
   3  -1  85    8.48    1.58
  -2   0  85    7.27    1.60
   1   0  85   13.56    1.23
   4   0  85    4.15    1.89
  -4   1  85    4.28    2.84
  -1   1  85   10.15    1.38
   2   1  85    3.56    1.22
  -3   2  85    2.03    1.45
   0   2  85    8.67    1.57
  -2   3  85    6.38    1.67
   1   3  85    3.22    1.65
  -1   4  85    3.18    1.76
   1  -4  86    4.21    1.98
   4  -4  86   -1.42    2.09
  -1  -3  86    1.89    1.59
   2  -3  86    5.11    1.57
   0  -2  86    4.00    1.45
   3  -2  86    4.17    1.33
  -2  -1  86    3.82    1.79
   1  -1  86    4.25    1.22
   4  -1  86    2.53    1.63
  -1   0  86    3.22    1.08
   2   0  86    4.24    1.09
  -3   1  86    4.55    1.63
   0   1  86    4.79    1.19
   3   1  86   -0.20    2.08
  -2   2  86    3.92    1.32
   1   2  86    1.78    1.32
  -4   3  86    0.16    2.43
  -1   3  86    0.53    1.45
  -3   4  86   -0.01    1.44
   0   4  86    0.93    2.78
   2  -4  87   -0.71    1.53
   0  -3  87   -0.46    1.42
   3  -3  87   -0.61    1.21
  -2  -2  87   -0.96    1.92
   1  -2  87    0.42    1.18
   4  -2  87   -0.88    1.40
  -1  -1  87    1.42    1.00
   2  -1  87    0.09    0.83
  -3   0  87   -0.55    1.57
   0   0  87   -0.13    0.88
   3   0  87   -0.97    1.25
  -2   1  87   -0.28    1.02
   1   1  87    0.25    1.10
  -4   2  87    2.09    2.46
  -1   2  87    0.29    1.05
   2   2  87    2.36    1.43
  -3   3  87    1.91    1.55
   0   3  87    0.98    1.34
  -2   4  87    0.92    1.50
   3  -4  88    1.87    1.63
   1  -3  88    0.45    1.42
   4  -3  88    0.34    1.53
  -1  -2  88   -0.37    1.25
   2  -2  88    3.02    1.02
  -3  -1  88    2.17    3.03
   0  -1  88    2.01    1.07
   3  -1  88   -0.25    1.20
  -2   0  88   -0.12    1.24
   1   0  88    2.60    0.85
   4   0  88   -0.94    2.54
  -4   1  88   -0.25    2.60
  -1   1  88    3.69    1.60
   2   1  88    3.11    1.33
  -3   2  88    1.95    1.49
   0   2  88    1.61    1.20
  -2   3  88    1.13    1.37
   1   3  88   -0.21    1.44
  -1   4  88    0.98    1.58
   1  -4  89    8.05    2.22
  -1  -3  89    6.43    1.76
   2  -3  89    9.69    1.92
   0  -2  89   12.18    1.85
   3  -2  89   11.08    1.75
  -2  -1  89   11.30    2.05
   1  -1  89   14.69    1.67
   4  -1  89   10.10    2.06
  -1   0  89   12.09    1.52
   2   0  89   12.72    1.43
  -3   1  89   10.41    1.98
   0   1  89   16.53    1.84
   3   1  89    8.98    3.07
  -2   2  89   12.09    1.82
   1   2  89   10.03    1.81
  -4   3  89    4.52    2.87
  -1   3  89   10.13    1.73
  -3   4  89    5.99    2.02
   2  -4  90    1.66    1.82
   0  -3  90    1.63    1.53
   3  -3  90    3.35    1.46
  -2  -2  90   -0.20    1.94
   1  -2  90    3.23    1.40
   4  -2  90    0.87    1.54
  -1  -1  90    4.62    1.39
   2  -1  90    4.11    1.06
  -3   0  90    0.16    1.69
   0   0  90    5.04    1.24
   3   0  90    0.67    1.39
  -2   1  90    1.46    1.27
   1   1  90    3.48    1.31
  -4   2  90    1.92    2.63
  -1   2  90    4.42    1.98
   2   2  90    1.16    1.36
  -3   3  90    1.86    1.57
   0   3  90    1.55    1.34
  -2   4  90    1.31    1.50
   3  -4  91   -1.92    1.46
   1  -3  91   -1.20    1.34
   4  -3  91   -2.42    1.45
  -1  -2  91    1.04    1.29
   2  -2  91    0.08    0.95
  -3  -1  91    2.26    3.33
   0  -1  91    1.40    1.02
   3  -1  91   -0.23    1.23
  -2   0  91    0.68    1.31
   1   0  91    0.65    0.97
  -4   1  91   -1.01    2.64
  -1   1  91    2.38    1.60
   2   1  91   -2.59    1.08
  -3   2  91   -0.42    1.40
   0   2  91   -0.61    1.15
  -2   3  91    0.52    1.35
   1   3  91    0.14    1.60
  -1   4  91    1.02    1.72
   1  -4  92    0.89    1.84
  -1  -3  92    0.18    1.61
   2  -3  92   -0.16    1.46
   0  -2  92    3.22    1.36
   3  -2  92    1.26    1.35
  -2  -1  92    0.39    1.57
   1  -1  92    0.78    1.12
   4  -1  92   -0.77    1.62
  -1   0  92    2.98    1.22
   2   0  92    0.31    1.18
  -3   1  92   -0.41    1.48
   0   1  92    1.09    1.11
   3   1  92    1.94    2.49
  -2   2  92    1.27    1.29
   1   2  92   -0.94    1.21
  -4   3  92    2.61    2.53
  -1   3  92    0.61    1.71
  -3   4  92    2.19    1.79
   2  -4  93   15.68    2.51
   0  -3  93   16.20    2.29
   3  -3  93   20.03    2.27
  -2  -2  93   11.00    2.55
   1  -2  93   22.01    2.28
   4  -2  93   18.53    2.35
  -1  -1  93   26.07    2.32
   2  -1  93   26.66    1.87
  -3   0  93   12.93    2.32
   0   0  93   29.75    2.28
   3   0  93   19.27    3.31
  -2   1  93   24.48    2.34
   1   1  93   27.45    2.43
  -4   2  93   13.98    3.46
  -1   2  93   20.81    3.77
   2   2  93   17.01    3.34
  -3   3  93   14.15    2.34
   0   3  93   15.01    2.11
  -2   4  93   12.63    2.10
   1  -3  94    1.62    1.45
   4  -3  94   -3.05    2.08
  -1  -2  94    0.03    1.26
   2  -2  94    0.95    1.03
   0  -1  94    0.22    1.16
   3  -1  94   -0.26    1.41
  -2   0  94    0.46    1.31
   1   0  94    2.98    1.13
  -1   1  94    0.33    1.34
   2   1  94   -0.55    1.30
  -3   2  94    0.17    1.47
   0   2  94    0.71    1.26
  -2   3  94   -0.49    1.41
   1   3  94   -2.04    1.58
  -1  -3  95    2.60    3.07
   2  -3  95   -0.98    1.46
   0  -2  95    0.75    1.29
   3  -2  95    0.95    1.35
  -2  -1  95   -0.82    1.65
   1  -1  95    0.11    0.88
   4  -1  95   -1.70    2.61
  -1   0  95    1.00    1.59
   2   0  95   -0.65    1.17
  -3   1  95    0.91    1.58
   0   1  95   -0.42    0.99
  -2   2  95   -0.93    1.21
   1   2  95   -0.98    1.28
  -1   3  95    0.45    1.70
  -3   4  95   -3.43    2.09
   2  -4  96   80.46    6.64
   0  -3  96  120.01    5.00
   3  -3  96  103.31    4.26
  -2  -2  96   78.74    6.89
   1  -2  96  155.64    5.14
   4  -2  96   96.47    4.27
  -1  -1  96  144.75    4.93
   2  -1  96  146.14    3.85
  -3   0  96   92.40    6.58
   0   0  96  174.04    5.24
   3   0  96  107.70    6.42
  -2   1  96  143.04    4.89
   1   1  96  148.87    5.08
  -1   2  96  108.61    7.25
   2   2  96   89.29    6.40
  -3   3  96   86.10    4.35
   0   3  96   95.36    4.42
  -2   4  96   84.96    4.25
   1  -3  97    1.34    1.51
  -1  -2  97    0.70    1.64
   2  -2  97    0.00    0.99
   0  -1  97   -0.41    1.10
   3  -1  97    0.33    1.48
  -2   0  97    1.58    1.45
   1   0  97    0.24    1.00
  -1   1  97   -0.80    1.41
   2   1  97    1.97    1.32
  -3   2  97    1.03    1.55
   0   2  97   -0.02    1.32
  -2   3  97   -1.27    1.42
   2  -3  98   -1.55    1.41
   0  -2  98    1.06    1.48
   3  -2  98   -1.09    1.37
  -2  -1  98    1.34    1.74
   1  -1  98    0.95    0.95
  -1   0  98    0.06    1.63
   2   0  98   -1.46    1.17
  -3   1  98   -0.03    1.53
   0   1  98    0.70    1.12
  -2   2  98   -0.92    1.21
   1   2  98   -2.78    1.30
  -1   3  98   -1.60    1.78
   2  -4  99    1.95    2.78
   0  -3  99    2.76    1.91
   3  -3  99    0.33    1.58
   1  -2  99   -0.31    1.28
  -1  -1  99    2.65    2.06
   2  -1  99    1.50    0.96
  -3   0  99    0.60    1.84
   0   0  99    1.58    1.17
   3   0  99    2.73    2.52
  -2   1  99    1.50    1.36
   1   1  99    1.82    1.24
  -1   2  99   -0.14    1.76
  -3   3  99    2.20    1.71
   0   3  99    1.49    1.98
   1  -3 100   -0.10    1.57
  -1  -2 100    0.74    1.84
   2  -2 100    0.31    1.07
   0  -1 100    3.89    1.38
   3  -1 100    0.62    1.48
  -2   0 100    1.41    1.46
   1   0 100    1.75    1.17
  -1   1 100   -0.53    1.34
   2   1 100   -0.36    1.33
  -3   2 100    1.00    1.61
   0   2 100    0.34    1.39
  -2   3 100   -0.97    1.48
   2  -3 101    0.75    1.48
   0  -2 101    1.77    1.64
   3  -2 101   -0.25    1.59
  -2  -1 101   -1.32    1.60
   1  -1 101    1.24    0.97
  -1   0 101    0.15    1.67
   2   0 101    0.12    1.37
  -3   1 101   -0.57    1.51
   0   1 101    0.46    1.08
  -2   2 101    1.64    1.37
   1   2 101   -2.31    1.48
  -1   3 101    0.44    1.84
   0  -3 102   -0.20    1.72
   3  -3 102   -0.88    1.57
   1  -2 102    0.34    1.31
  -1  -1 102    0.13    1.83
   2  -1 102   -0.63    1.03
  -3   0 102   -0.11    1.80
   0   0 102    0.71    1.19
   3   0 102   -2.57    2.13
  -2   1 102    0.90    1.35
   1   1 102    0.26    1.36
  -1   2 102    0.91    1.77
  -3   3 102   -1.07    1.67
   0   3 102   -1.74    1.76
   1  -3 103   10.16    2.28
  -1  -2 103    6.15    3.22
   2  -2 103    9.57    1.53
   0  -1 103   16.18    2.01
   3  -1 103    9.56    1.96
  -2   0 103    8.50    2.00
   1   0 103   13.02    1.69
  -1   1 103    9.87    2.47
   2   1 103    9.97    1.93
  -3   2 103    6.80    1.96
   0   2 103   11.09    1.94
  -2   3 103   10.25    2.07
   2  -3 104   -2.44    1.61
   0  -2 104    0.49    1.43
   3  -2 104   -0.99    1.55
  -2  -1 104    0.25    1.80
   1  -1 104    0.02    1.02
  -1   0 104   -0.28    1.67
   2   0 104   -0.39    1.32
  -3   1 104    0.70    1.65
   0   1 104   -0.02    1.14
  -2   2 104   -0.12    1.33
   1   2 104   -1.98    1.45
  -1   3 104    0.22    1.82
   0  -3 105    1.73    2.80
   3  -3 105   -1.48    2.30
   1  -2 105   -0.69    1.38
  -1  -1 105    0.88    1.94
   2  -1 105   -0.79    1.06
  -3   0 105   -0.44    2.62
   0   0 105    2.17    1.17
  -2   1 105    0.56    1.32
   1   1 105   -0.20    1.34
  -1   2 105    0.23    1.59
  -3   3 105    0.50    2.58
   1  -3 106    4.91    2.02
  -1  -2 106    6.40    3.03
   2  -2 106    5.70    1.43
   0  -1 106    4.54    1.51
   3  -1 106    4.91    1.77
  -2   0 106    4.30    1.79
   1   0 106    6.56    1.47
  -1   1 106    5.47    2.02
   2   1 106    3.20    1.62
  -3   2 106    2.57    1.72
   0   2 106    4.37    1.73
  -2   3 106    2.36    1.66
   2  -3 107    3.77    1.90
   0  -2 107    2.95    1.71
   3  -2 107   -0.32    1.53
  -2  -1 107    3.42    2.04
   1  -1 107    0.18    1.29
  -1   0 107    1.59    1.84
   2   0 107    1.37    1.45
  -3   1 107    0.01    1.57
   0   1 107    3.34    1.36
  -2   2 107    2.41    1.64
   1   2 107    1.55    1.74
  -1   3 107   -0.75    2.01
   1  -2 108    0.40    1.43
  -1  -1 108    0.34    1.96
   2  -1 108   -0.68    1.26
   0   0 108   -1.08    1.19
  -2   1 108    1.40    1.34
   1   1 108    0.91    1.43
  -1   2 108    2.08    1.85
   1  -3 109    0.66    1.78
   2  -2 109    0.30    1.21
   0  -1 109    0.31    1.33
  -2   0 109    0.79    1.66
   1   0 109   -0.89    1.14
  -1   1 109   -1.14    1.39
   2   1 109    0.83    2.20
  -3   2 109    1.63    1.67
   0   2 109   -0.41    1.89
  -2   3 109    0.32    1.71
   2  -3 110   62.45    3.92
   0  -2 110   62.09    3.99
   3  -2 110   53.72    5.41
  -2  -1 110   52.63    6.04
   1  -1 110   68.87    3.58
  -1   0 110   65.98    5.36
   2   0 110   63.18    3.63
  -3   1 110   46.30    5.36
   0   1 110   73.79    3.59
  -2   2 110   61.35    3.71
   1   2 110   43.37    3.41
   1  -2 111    1.32    1.58
  -1  -1 111    1.61    2.26
   2  -1 111    0.62    1.34
   0   0 111   -0.17    1.17
  -2   1 111   -0.59    1.77
   1   1 111   -0.51    1.52
  -1   2 111    1.63    2.19
   2  -2 112    1.85    1.30
   0  -1 112   -1.18    1.43
  -2   0 112   -0.69    2.15
   1   0 112    1.05    1.29
  -1   1 112   -2.46    1.41
  -3   2 112    2.49    2.72
   0   2 112    0.10    1.83
  -2   3 112   -0.85    2.49
   0  -2 113   31.93    2.91
   1  -1 113   40.25    2.97
  -1   0 113   25.64    3.97
   2   0 113   35.05    3.07
   0   1 113   34.81    4.62
  -2   2 113   29.79    2.93
   1  -2 114   -0.06    1.56
  -1  -1 114   -1.48    2.03
   2  -1 114    0.84    1.30
   0   0 114   -0.35    1.33
  -2   1 114    1.03    1.60
   1   1 114    0.41    1.57
  -1   2 114    3.16    2.22
   2  -2 115   -1.71    1.31
   0  -1 115    0.28    1.48
  -2   0 115    2.03    2.68
   1   0 115   -1.31    1.29
  -1   1 115   -2.12    1.75
   0   2 115   -0.10    2.00
   0  -2 116    3.57    2.66
   1  -1 116    1.48    1.60
  -1   0 116    2.42    2.20
   2   0 116   -1.21    1.53
   0   1 116    0.22    1.77
  -2   2 116   -1.17    2.23
   1  -2 117    0.00    1.60
  -1  -1 117    0.07    2.31
   2  -1 117    0.67    1.50
   0   0 117   -1.09    1.22
  -2   1 117   -0.31    1.91
   1   1 117   -0.72    1.46
  -1   2 117   -2.31    1.80
   2  -2 118   -0.27    1.78
   0  -1 118    0.65    1.61
  -2   0 118   -0.65    2.69
   1   0 118    0.41    1.45
  -1   1 118   -1.05    1.88
   0  -2 119    1.95    2.89
   1  -1 119    0.68    1.56
  -1   0 119    3.25    1.93
   2   0 119   -0.17    2.60
   0   1 119    4.50    2.59
  -2   2 119    2.98    2.73
   2  -1 120    3.17    2.32
   0   0 120    7.04    2.37
  -2   1 120    4.85    2.90
   1   1 120    7.85    2.87
   0  -1 121    1.65    1.83
   1   0 121    2.55    1.57
  -1   1 121    3.31    2.29
   1  -1 122    3.78    1.73
  -1   0 122    3.38    2.37
   0   1 122   -1.16    2.00
   0   0 123    3.38    2.18
   1   0 124   12.37    3.05
   0   0   0    0.00    0.00
;
_shelx_hkl_checksum              66477
loop_
_space_group_symop_operation_xyz
'x, y, z'
'-y, x-y, z'
'-x+y, -x, z'
'y, x, -z'
'x-y, -y, -z'
'-x, -x+y, -z'
'x+2/3, y+1/3, z+1/3'
'-y+2/3, x-y+1/3, z+1/3'
'-x+y+2/3, -x+1/3, z+1/3'
'y+2/3, x+1/3, -z+1/3'
'x-y+2/3, -y+1/3, -z+1/3'
'-x+2/3, -x+y+1/3, -z+1/3'
'x+1/3, y+2/3, z+2/3'
'-y+1/3, x-y+2/3, z+2/3'
'-x+y+1/3, -x+2/3, z+2/3'
'y+1/3, x+2/3, -z+2/3'
'x-y+1/3, -y+2/3, -z+2/3'
'-x+1/3, -x+y+2/3, -z+2/3'
'-x, -y, -z'
'y, -x+y, -z'
'x-y, x, -z'
'-y, -x, z'
'-x+y, y, z'
'x, x-y, z'
'-x+2/3, -y+1/3, -z+1/3'
'y+2/3, -x+y+1/3, -z+1/3'
'x-y+2/3, x+1/3, -z+1/3'
'-y+2/3, -x+1/3, z+1/3'
'-x+y+2/3, y+1/3, z+1/3'
'x+2/3, x-y+1/3, z+1/3'
'-x+1/3, -y+2/3, -z+2/3'
'y+1/3, -x+y+2/3, -z+2/3'
'x-y+1/3, x+2/3, -z+2/3'
'-y+1/3, -x+2/3, z+2/3'
'-x+y+1/3, y+2/3, z+2/3'
'x+1/3, x-y+2/3, z+2/3'
loop_
_atom_site_label
_atom_site_type_symbol
_atom_site_fract_x
_atom_site_fract_y
_atom_site_fract_z
_atom_site_U_iso_or_equiv
_atom_site_adp_type
_atom_site_occupancy
_atom_site_site_symmetry_order
_atom_site_calc_flag
_atom_site_refinement_flags_posn
_atom_site_refinement_flags_adp
_atom_site_refinement_flags_occupancy
Nd1 Nd 0.0000 0.0000 0.29167(2) 0.00716(19) Uani 1 6 d S T P
Nd2 Nd 0.0000 0.0000 0.41684(2) 0.0084(2) Uani 1 6 d S T P
Nd3 Nd 0.0000 0.0000 0.5000 0.0088(7) Uani 0.429(5) 12 d S T .
Nd4 Nd 0.0000 0.0000 0.0000 0.0069(2) Uani 1 12 d S T P
Zn1 Zn 0.0000 0.0000 0.11573(2) 0.0182(5) Uani 1 6 d S T P
Zn2A Zn 0.0000 0.0000 0.19440(4) 0.0268(7) Uani 0.848(5) 6 d S T P
Zn2B Zn 0.0000 0.0000 0.1799(2) 0.0268(7) Uani 0.152(5) 6 d S T P
As1 As 0.0000 0.0000 0.06309(2) 0.0071(3) Uani 1 6 d S T P
As2 As 0.0000 0.0000 0.14598(2) 0.0121(3) Uani 1 6 d S T P
As3 As 0.0000 0.0000 0.22807(2) 0.0092(3) Uani 1 6 d S T P
As4 As 0.0000 0.0000 0.35437(2) 0.0072(3) Uani 1 6 d S T P
loop_
_atom_site_aniso_label
_atom_site_aniso_U_11
_atom_site_aniso_U_22
_atom_site_aniso_U_33
_atom_site_aniso_U_23
_atom_site_aniso_U_13
_atom_site_aniso_U_12
Nd1 0.0052(2) 0.0052(2) 0.0111(4) 0.000 0.000 0.00259(12)
Nd2 0.0060(3) 0.0060(3) 0.0134(4) 0.000 0.000 0.00298(13)
Nd3 0.0063(9) 0.0063(9) 0.0138(14) 0.000 0.000 0.0031(4)
Nd4 0.0052(3) 0.0052(3) 0.0102(5) 0.000 0.000 0.00262(16)
Zn1 0.0173(6) 0.0173(6) 0.0199(11) 0.000 0.000 0.0086(3)
Zn2A 0.0175(8) 0.0175(8) 0.0454(16) 0.000 0.000 0.0088(4)
Zn2B 0.0175(8) 0.0175(8) 0.0454(16) 0.000 0.000 0.0088(4)
As1 0.0053(4) 0.0053(4) 0.0106(7) 0.000 0.000 0.0026(2)
As2 0.0093(5) 0.0093(5) 0.0177(8) 0.000 0.000 0.0046(2)
As3 0.0071(5) 0.0071(5) 0.0133(7) 0.000 0.000 0.0036(2)
As4 0.0060(4) 0.0060(4) 0.0097(7) 0.000 0.000 0.0030(2)
loop_
_atom_type_symbol
_atom_type_description
_atom_type_scat_dispersion_real
_atom_type_scat_dispersion_imag
_atom_type_scat_source
Zn Zn 0.2839 1.4301 'International Tables Vol C Tables 4.2.6.8 and 6.1.1.4'
As As 0.0499 2.0058 'International Tables Vol C Tables 4.2.6.8 and 6.1.1.4'
Nd Nd -0.1943 3.0179 'International Tables Vol C Tables 4.2.6.8 and 6.1.1.4'
loop_
_geom_angle_atom_site_label_1
_geom_angle_atom_site_label_2
_geom_angle_atom_site_label_3
_geom_angle
_geom_angle_site_symmetry_1
_geom_angle_site_symmetry_3
As4 Nd1 As4 90.09(4) 31 31_445
As4 Nd1 As4 90.09(4) 31 31_545
As4 Nd1 As4 90.09(4) 31_445 31_545
As4 Nd1 As1 178.98(4) 31 25_445
As4 Nd1 As1 90.63(3) 31_445 25_445
As4 Nd1 As1 90.63(3) 31_545 25_445
As4 Nd1 As1 90.63(3) 31 25
As4 Nd1 As1 178.98(4) 31_445 25
As4 Nd1 As1 90.63(3) 31_545 25
As1 Nd1 As1 88.64(4) 25_445 25
As4 Nd1 As1 90.63(3) 31 25_455
As4 Nd1 As1 90.63(3) 31_445 25_455
As4 Nd1 As1 178.98(4) 31_545 25_455
As1 Nd1 As1 88.64(4) 25_445 25_455
As1 Nd1 As1 88.64(4) 25 25_455
As1 Nd2 As1 90.50(4) 7_445 7
As1 Nd2 As1 90.50(4) 7_445 7_455
As1 Nd2 As1 90.50(4) 7 7_455
As1 Nd2 As3 178.27(4) 7_445 31
As1 Nd2 As3 90.72(3) 7 31
As1 Nd2 As3 90.72(3) 7_455 31
As1 Nd2 As3 90.72(3) 7_445 31_445
As1 Nd2 As3 178.27(4) 7 31_445
As1 Nd2 As3 90.72(3) 7_455 31_445
As3 Nd2 As3 88.04(4) 31 31_445
As1 Nd2 As3 90.72(3) 7_445 31_545
As1 Nd2 As3 90.72(3) 7 31_545
As1 Nd2 As3 178.27(4) 7_455 31_545
As3 Nd2 As3 88.04(4) 31 31_545
As3 Nd2 As3 88.04(4) 31_445 31_545
As1 Nd2 Zn1 134.374(16) 7_445 7
As1 Nd2 Zn1 82.68(4) 7 7
As1 Nd2 Zn1 134.373(16) 7_455 7
As3 Nd2 Zn1 44.640(16) 31 7
As3 Nd2 Zn1 95.59(4) 31_445 7
As3 Nd2 Zn1 44.641(16) 31_545 7
As1 Nd2 Zn1 82.68(4) 7_445 7_445
As1 Nd2 Zn1 134.374(16) 7 7_445
As1 Nd2 Zn1 134.373(16) 7_455 7_445
As3 Nd2 Zn1 95.59(4) 31 7_445
As3 Nd2 Zn1 44.640(16) 31_445 7_445
As3 Nd2 Zn1 44.641(16) 31_545 7_445
Zn1 Nd2 Zn1 71.20(4) 7 7_445
As1 Nd2 Zn1 134.373(16) 7_445 7_455
As1 Nd2 Zn1 134.373(16) 7 7_455
As1 Nd2 Zn1 82.68(4) 7_455 7_455
As3 Nd2 Zn1 44.641(16) 31 7_455
As3 Nd2 Zn1 44.641(16) 31_445 7_455
As3 Nd2 Zn1 95.60(4) 31_545 7_455
Zn1 Nd2 Zn1 71.20(4) 7 7_455
Zn1 Nd2 Zn1 71.20(4) 7_445 7_455
Zn2B Nd3 Zn2B 180.0(7) 31_445 7
Zn2B Nd3 Zn2B 104.1(4) 31_445 31
Zn2B Nd3 Zn2B 75.9(4) 7 31
Zn2B Nd3 Zn2B 75.9(4) 31_445 7_445
Zn2B Nd3 Zn2B 104.1(4) 7 7_445
Zn2B Nd3 Zn2B 180.0(7) 31 7_445
Zn2B Nd3 Zn2B 104.1(4) 31_445 31_545
Zn2B Nd3 Zn2B 75.9(4) 7 31_545
Zn2B Nd3 Zn2B 104.1(4) 31 31_545
Zn2B Nd3 Zn2B 75.9(4) 7_445 31_545
Zn2B Nd3 Zn2B 75.9(4) 31_445 7_455
Zn2B Nd3 Zn2B 104.1(4) 7 7_455
Zn2B Nd3 Zn2B 75.9(4) 31 7_455
Zn2B Nd3 Zn2B 104.1(4) 7_445 7_455
Zn2B Nd3 Zn2B 180.0(7) 31_545 7_455
Zn2B Nd3 As2 127.62(15) 31_445 31
Zn2B Nd3 As2 52.38(15) 7 31
Zn2B Nd3 As2 59.7(3) 31 31
Zn2B Nd3 As2 120.3(3) 7_445 31
Zn2B Nd3 As2 127.62(15) 31_545 31
Zn2B Nd3 As2 52.38(15) 7_455 31
Zn2B Nd3 As2 52.38(15) 31_445 7_445
Zn2B Nd3 As2 127.62(15) 7 7_445
Zn2B Nd3 As2 120.3(3) 31 7_445
Zn2B Nd3 As2 59.7(3) 7_445 7_445
Zn2B Nd3 As2 52.38(15) 31_545 7_445
Zn2B Nd3 As2 127.62(15) 7_455 7_445
As2 Nd3 As2 180.0 31 7_445
Zn2B Nd3 As2 59.7(3) 31_445 31_445
Zn2B Nd3 As2 120.3(3) 7 31_445
Zn2B Nd3 As2 127.62(15) 31 31_445
Zn2B Nd3 As2 52.38(15) 7_445 31_445
Zn2B Nd3 As2 127.62(15) 31_545 31_445
Zn2B Nd3 As2 52.38(15) 7_455 31_445
As2 Nd3 As2 89.99(4) 31 31_445
As2 Nd3 As2 90.01(4) 7_445 31_445
Zn2B Nd3 As2 120.3(3) 31_445 7
Zn2B Nd3 As2 59.7(3) 7 7
Zn2B Nd3 As2 52.38(15) 31 7
Zn2B Nd3 As2 127.62(15) 7_445 7
Zn2B Nd3 As2 52.38(15) 31_545 7
Zn2B Nd3 As2 127.62(15) 7_455 7
As2 Nd3 As2 90.01(4) 31 7
As2 Nd3 As2 89.99(4) 7_445 7
As2 Nd3 As2 180.00(5) 31_445 7
Zn2B Nd3 As2 127.62(15) 31_445 31_545
Zn2B Nd3 As2 52.38(15) 7 31_545
Zn2B Nd3 As2 127.62(15) 31 31_545
Zn2B Nd3 As2 52.38(15) 7_445 31_545
Zn2B Nd3 As2 59.7(3) 31_545 31_545
Zn2B Nd3 As2 120.3(3) 7_455 31_545
As2 Nd3 As2 89.99(4) 31 31_545
As2 Nd3 As2 90.01(4) 7_445 31_545
As2 Nd3 As2 89.99(4) 31_445 31_545
As2 Nd3 As2 90.01(4) 7 31_545
Zn2B Nd3 As2 52.38(15) 31_445 7_455
Zn2B Nd3 As2 127.62(15) 7 7_455
Zn2B Nd3 As2 52.38(15) 31 7_455
Zn2B Nd3 As2 127.62(15) 7_445 7_455
Zn2B Nd3 As2 120.3(3) 31_545 7_455
Zn2B Nd3 As2 59.7(3) 7_455 7_455
As2 Nd3 As2 90.01(4) 31 7_455
As2 Nd3 As2 89.99(4) 7_445 7_455
As2 Nd3 As2 90.01(4) 31_445 7_455
As2 Nd3 As2 89.99(4) 7 7_455
As2 Nd3 As2 180.00(5) 31_545 7_455
As4 Nd4 As4 180.00(4) 25_445 13_554
As4 Nd4 As4 89.37(3) 25_445 25
As4 Nd4 As4 90.63(3) 13_554 25
As4 Nd4 As4 90.63(3) 25_445 13_444
As4 Nd4 As4 89.37(3) 13_554 13_444
As4 Nd4 As4 180.00(4) 25 13_444
As4 Nd4 As4 90.63(3) 25_445 13_544
As4 Nd4 As4 89.37(3) 13_554 13_544
As4 Nd4 As4 90.63(3) 25 13_544
As4 Nd4 As4 89.37(3) 13_444 13_544
As4 Nd4 As4 89.37(3) 25_445 25_455
As4 Nd4 As4 90.63(3) 13_554 25_455
As4 Nd4 As4 89.37(3) 25 25_455
As4 Nd4 As4 90.63(3) 13_444 25_455
As4 Nd4 As4 180.00(4) 13_544 25_455
As2 Zn1 As3 109.67(5) . 25_445
As2 Zn1 As3 109.67(5) . 25
As3 Zn1 As3 109.27(5) 25_445 25
As2 Zn1 As3 109.67(5) . 25_455
As3 Zn1 As3 109.27(5) 25_445 25_455
As3 Zn1 As3 109.27(5) 25 25_455
As2 Zn1 Zn2A 51.57(5) . 25
As3 Zn1 Zn2A 125.32(3) 25_445 25
As3 Zn1 Zn2A 58.10(6) 25 25
As3 Zn1 Zn2A 125.32(3) 25_455 25
As2 Zn1 Zn2A 51.57(5) . 25_445
As3 Zn1 Zn2A 58.10(6) 25_445 25_445
As3 Zn1 Zn2A 125.32(3) 25 25_445
As3 Zn1 Zn2A 125.32(3) 25_455 25_445
Zn2A Zn1 Zn2A 85.44(8) 25 25_445
As2 Zn1 Zn2A 51.57(5) . 25_455
As3 Zn1 Zn2A 125.32(3) 25_445 25_455
As3 Zn1 Zn2A 125.32(3) 25 25_455
As3 Zn1 Zn2A 58.10(6) 25_455 25_455
Zn2A Zn1 Zn2A 85.44(8) 25 25_455
Zn2A Zn1 Zn2A 85.44(8) 25_445 25_455
As2 Zn1 Nd2 137.76(2) . 13_444
As3 Zn1 Nd2 55.55(4) 25_445 13_444
As3 Zn1 Nd2 112.56(7) 25 13_444
As3 Zn1 Nd2 55.55(4) 25_455 13_444
Zn2A Zn1 Nd2 170.67(7) 25 13_444
Zn2A Zn1 Nd2 101.35(4) 25_445 13_444
Zn2A Zn1 Nd2 101.36(4) 25_455 13_444
As2 Zn1 Nd2 137.76(2) . 13_554
As3 Zn1 Nd2 112.56(7) 25_445 13_554
As3 Zn1 Nd2 55.55(4) 25 13_554
As3 Zn1 Nd2 55.55(4) 25_455 13_554
Zn2A Zn1 Nd2 101.35(4) 25 13_554
Zn2A Zn1 Nd2 170.67(7) 25_445 13_554
Zn2A Zn1 Nd2 101.36(4) 25_455 13_554
Nd2 Zn1 Nd2 71.20(4) 13_444 13_554
As2 Zn1 Nd2 137.76(2) . 13_544
As3 Zn1 Nd2 55.55(4) 25_445 13_544
As3 Zn1 Nd2 55.55(4) 25 13_544
As3 Zn1 Nd2 112.56(7) 25_455 13_544
Zn2A Zn1 Nd2 101.36(4) 25 13_544
Zn2A Zn1 Nd2 101.36(4) 25_445 13_544
Zn2A Zn1 Nd2 170.67(7) 25_455 13_544
Nd2 Zn1 Nd2 71.20(4) 13_444 13_544
Nd2 Zn1 Nd2 71.20(4) 13_554 13_544
Zn2B Zn2A As2 76.47(8) . 25_445
Zn2B Zn2A As2 76.47(8) . 25
As2 Zn2A As2 114.70(6) 25_445 25
Zn2B Zn2A As2 76.47(8) . 25_455
As2 Zn2A As2 114.70(6) 25_445 25_455
As2 Zn2A As2 114.70(6) 25 25_455
Zn2B Zn2A As3 180.0 . .
As2 Zn2A As3 103.53(8) 25_445 .
As2 Zn2A As3 103.53(8) 25 .
As2 Zn2A As3 103.53(8) 25_455 .
Zn2B Zn2A Zn1 128.43(5) . 25
As2 Zn2A Zn1 121.75(5) 25_445 25
As2 Zn2A Zn1 51.95(5) 25 25
As2 Zn2A Zn1 121.75(5) 25_455 25
As3 Zn2A Zn1 51.57(5) . 25
Zn2B Zn2A Zn1 128.43(5) . 25_445
As2 Zn2A Zn1 51.95(5) 25_445 25_445
As2 Zn2A Zn1 121.75(5) 25 25_445
As2 Zn2A Zn1 121.75(5) 25_455 25_445
As3 Zn2A Zn1 51.57(5) . 25_445
Zn1 Zn2A Zn1 85.45(8) 25 25_445
Zn2B Zn2A Zn1 128.43(5) . 25_455
As2 Zn2A Zn1 121.75(5) 25_445 25_455
As2 Zn2A Zn1 121.75(5) 25 25_455
As2 Zn2A Zn1 51.95(5) 25_455 25_455
As3 Zn2A Zn1 51.57(5) . 25_455
Zn1 Zn2A Zn1 85.45(8) 25 25_455
Zn1 Zn2A Zn1 85.45(8) 25_445 25_455
Zn2B Zn2A Nd3 46.52(4) . 13_444
As2 Zn2A Nd3 59.09(5) 25_445 13_444
As2 Zn2A Nd3 123.00(11) 25 13_444
As2 Zn2A Nd3 59.09(5) 25_455 13_444
As3 Zn2A Nd3 133.48(4) . 13_444
Zn1 Zn2A Nd3 174.95(9) 25 13_444
Zn1 Zn2A Nd3 98.24(3) 25_445 13_444
Zn1 Zn2A Nd3 98.24(3) 25_455 13_444
Zn2B Zn2A Nd3 46.52(4) . 13_554
As2 Zn2A Nd3 123.00(11) 25_445 13_554
As2 Zn2A Nd3 59.09(5) 25 13_554
As2 Zn2A Nd3 59.09(5) 25_455 13_554
As3 Zn2A Nd3 133.48(4) . 13_554
Zn1 Zn2A Nd3 98.24(3) 25 13_554
Zn1 Zn2A Nd3 174.95(9) 25_445 13_554
Zn1 Zn2A Nd3 98.24(3) 25_455 13_554
Nd3 Zn2A Nd3 77.87(6) 13_444 13_554
Zn2B Zn2A Nd3 46.52(4) . 13_544
As2 Zn2A Nd3 59.09(5) 25_445 13_544
As2 Zn2A Nd3 59.09(5) 25 13_544
As2 Zn2A Nd3 123.00(11) 25_455 13_544
As3 Zn2A Nd3 133.48(4) . 13_544
Zn1 Zn2A Nd3 98.24(3) 25 13_544
Zn1 Zn2A Nd3 98.24(3) 25_445 13_544
Zn1 Zn2A Nd3 174.95(9) 25_455 13_544
Nd3 Zn2A Nd3 77.87(6) 13_444 13_544
Nd3 Zn2A Nd3 77.87(6) 13_554 13_544
Zn2A Zn2B As2 75.8(4) . 25
Zn2A Zn2B As2 75.8(4) . 25_445
As2 Zn2B As2 114.2(3) 25 25_445
Zn2A Zn2B As2 75.8(4) . 25_455
As2 Zn2B As2 114.2(3) 25 25_455
As2 Zn2B As2 114.2(3) 25_445 25_455
Zn2A Zn2B Nd3 114.4(3) . 13_444
As2 Zn2B Nd3 169.8(7) 25 13_444
As2 Zn2B Nd3 70.14(6) 25_445 13_444
As2 Zn2B Nd3 70.14(6) 25_455 13_444
Zn2A Zn2B Nd3 114.4(3) . 13_554
As2 Zn2B Nd3 70.14(6) 25 13_554
As2 Zn2B Nd3 169.8(7) 25_445 13_554
As2 Zn2B Nd3 70.14(6) 25_455 13_554
Nd3 Zn2B Nd3 104.1(4) 13_444 13_554
Zn2A Zn2B Nd3 114.4(3) . 13_544
As2 Zn2B Nd3 70.14(6) 25 13_544
As2 Zn2B Nd3 70.14(6) 25_445 13_544
As2 Zn2B Nd3 169.8(7) 25_455 13_544
Nd3 Zn2B Nd3 104.1(4) 13_444 13_544
Nd3 Zn2B Nd3 104.1(4) 13_554 13_544
Zn2A Zn2B As2 180.0 . .
As2 Zn2B As2 104.2(4) 25 .
As2 Zn2B As2 104.2(4) 25_445 .
As2 Zn2B As2 104.2(4) 25_455 .
Nd3 Zn2B As2 65.6(3) 13_444 .
Nd3 Zn2B As2 65.6(3) 13_554 .
Nd3 Zn2B As2 65.6(3) 13_544 .
Nd2 As1 Nd2 90.49(4) 13_554 13_444
Nd2 As1 Nd2 90.49(4) 13_554 13_544
Nd2 As1 Nd2 90.49(4) 13_444 13_544
Nd2 As1 Nd1 178.70(5) 13_554 25_445
Nd2 As1 Nd1 90.423(18) 13_444 25_445
Nd2 As1 Nd1 90.423(18) 13_544 25_445
Nd2 As1 Nd1 90.423(18) 13_554 25
Nd2 As1 Nd1 178.70(5) 13_444 25
Nd2 As1 Nd1 90.423(19) 13_544 25
Nd1 As1 Nd1 88.65(4) 25_445 25
Nd2 As1 Nd1 90.423(18) 13_554 25_455
Nd2 As1 Nd1 90.423(19) 13_444 25_455
Nd2 As1 Nd1 178.70(5) 13_544 25_455
Nd1 As1 Nd1 88.65(4) 25_445 25_455
Nd1 As1 Nd1 88.65(4) 25 25_455
Zn2A As2 Zn2A 114.70(6) 25_445 25
Zn2A As2 Zn2A 114.70(6) 25_445 25_455
Zn2A As2 Zn2A 114.70(6) 25 25_455
Zn2A As2 Zn2B 121.92(5) 25_445 25
Zn2A As2 Zn2B 27.8(4) 25 25
Zn2A As2 Zn2B 121.92(5) 25_455 25
Zn2A As2 Zn2B 27.8(4) 25_445 25_445
Zn2A As2 Zn2B 121.92(5) 25 25_445
Zn2A As2 Zn2B 121.92(5) 25_455 25_445
Zn2B As2 Zn2B 114.2(3) 25 25_445
Zn2A As2 Zn2B 121.92(5) 25_445 25_455
Zn2A As2 Zn2B 121.92(5) 25 25_455
Zn2A As2 Zn2B 27.8(4) 25_455 25_455
Zn2B As2 Zn2B 114.2(3) 25 25_455
Zn2B As2 Zn2B 114.2(3) 25_445 25_455
Zn2A As2 Zn1 76.47(8) 25_445 .
Zn2A As2 Zn1 76.47(8) 25 .
Zn2A As2 Zn1 76.47(8) 25_455 .
Zn2B As2 Zn1 104.2(4) 25 .
Zn2B As2 Zn1 104.2(4) 25_445 .
Zn2B As2 Zn1 104.2(4) 25_455 .
Zn2A As2 Zn2B 103.53(8) 25_445 .
Zn2A As2 Zn2B 103.53(8) 25 .
Zn2A As2 Zn2B 103.53(8) 25_455 .
Zn2B As2 Zn2B 75.8(4) 25 .
Zn2B As2 Zn2B 75.8(4) 25_445 .
Zn2B As2 Zn2B 75.8(4) 25_455 .
Zn1 As2 Zn2B 180.0 . .
Zn2A As2 Nd3 158.26(9) 25_445 13_554
Zn2A As2 Nd3 74.82(5) 25 13_554
Zn2A As2 Nd3 74.82(5) 25_455 13_554
Zn2B As2 Nd3 57.5(2) 25 13_554
Zn2B As2 Nd3 130.5(4) 25_445 13_554
Zn2B As2 Nd3 57.5(2) 25_455 13_554
Zn1 As2 Nd3 125.27(3) . 13_554
Zn2B As2 Nd3 54.73(3) . 13_554
Zn2A As2 Nd3 74.82(5) 25_445 13_444
Zn2A As2 Nd3 158.26(9) 25 13_444
Zn2A As2 Nd3 74.82(5) 25_455 13_444
Zn2B As2 Nd3 130.5(4) 25 13_444
Zn2B As2 Nd3 57.5(2) 25_445 13_444
Zn2B As2 Nd3 57.5(2) 25_455 13_444
Zn1 As2 Nd3 125.27(3) . 13_444
Zn2B As2 Nd3 54.73(3) . 13_444
Nd3 As2 Nd3 89.99(4) 13_554 13_444
Zn2A As2 Nd3 74.82(5) 25_445 13_544
Zn2A As2 Nd3 74.82(5) 25 13_544
Zn2A As2 Nd3 158.26(9) 25_455 13_544
Zn2B As2 Nd3 57.5(2) 25 13_544
Zn2B As2 Nd3 57.5(2) 25_445 13_544
Zn2B As2 Nd3 130.5(4) 25_455 13_544
Zn1 As2 Nd3 125.27(3) . 13_544
Zn2B As2 Nd3 54.73(3) . 13_544
Nd3 As2 Nd3 89.99(4) 13_554 13_544
Nd3 As2 Nd3 89.99(4) 13_444 13_544
Zn1 As3 Zn1 109.26(5) 25_445 25
Zn1 As3 Zn1 109.26(5) 25_445 25_455
Zn1 As3 Zn1 109.26(5) 25 25_455
Zn1 As3 Zn2A 70.32(5) 25_445 .
Zn1 As3 Zn2A 70.32(5) 25 .
Zn1 As3 Zn2A 70.32(5) 25_455 .
Zn1 As3 Nd2 163.05(7) 25_445 31
Zn1 As3 Nd2 79.81(3) 25 31
Zn1 As3 Nd2 79.81(3) 25_455 31
Zn2A As3 Nd2 126.63(3) . 31
Zn1 As3 Nd2 79.81(3) 25_445 31_445
Zn1 As3 Nd2 163.05(7) 25 31_445
Zn1 As3 Nd2 79.81(3) 25_455 31_445
Zn2A As3 Nd2 126.63(3) . 31_445
Nd2 As3 Nd2 88.05(4) 31 31_445
Zn1 As3 Nd2 79.81(3) 25_445 31_545
Zn1 As3 Nd2 79.81(3) 25 31_545
Zn1 As3 Nd2 163.05(7) 25_455 31_545
Zn2A As3 Nd2 126.63(3) . 31_545
Nd2 As3 Nd2 88.05(4) 31 31_545
Nd2 As3 Nd2 88.05(4) 31_445 31_545
Nd1 As4 Nd1 90.09(4) 31 31_445
Nd1 As4 Nd1 90.09(4) 31 31_545
Nd1 As4 Nd1 90.09(4) 31_445 31_545
Nd1 As4 Nd4 179.49(5) 31 7_445
Nd1 As4 Nd4 90.271(16) 31_445 7_445
Nd1 As4 Nd4 90.272(16) 31_545 7_445
Nd1 As4 Nd4 90.271(16) 31 7
Nd1 As4 Nd4 179.49(5) 31_445 7
Nd1 As4 Nd4 90.272(16) 31_545 7
Nd4 As4 Nd4 89.36(4) 7_445 7
Nd1 As4 Nd4 90.272(16) 31 7_455
Nd1 As4 Nd4 90.272(16) 31_445 7_455
Nd1 As4 Nd4 179.49(5) 31_545 7_455
Nd4 As4 Nd4 89.36(3) 7_445 7_455
Nd4 As4 Nd4 89.36(3) 7 7_455
loop_
_geom_bond_atom_site_label_1
_geom_bond_atom_site_label_2
_geom_bond_distance
_geom_bond_site_symmetry_2
Nd1 As4 2.9702(11) 31
Nd1 As4 2.9702(11) 31_445
Nd1 As4 2.9702(11) 31_545
Nd1 As1 3.0085(11) 25_445
Nd1 As1 3.0085(11) 25
Nd1 As1 3.0085(11) 25_455
Nd2 As1 2.9596(11) 7_445
Nd2 As1 2.9596(11) 7
Nd2 As1 2.9596(11) 7_455
Nd2 As3 3.0247(11) 31
Nd2 As3 3.0247(11) 31_445
Nd2 As3 3.0247(11) 31_545
Nd2 Zn1 3.6109(17) 7
Nd2 Zn1 3.6109(17) 7_445
Nd2 Zn1 3.6109(17) 7_455
Nd3 Zn2B 2.665(7) 31_445
Nd3 Zn2B 2.665(7) 7
Nd3 Zn2B 2.665(7) 31
Nd3 Zn2B 2.665(7) 7_445
Nd3 Zn2B 2.665(7) 31_545
Nd3 Zn2B 2.665(7) 7_455
Nd3 As2 2.9729(11) 31
Nd3 As2 2.9729(11) 7_445
Nd3 As2 2.9728(11) 31_445
Nd3 As2 2.9728(11) 7
Nd3 As2 2.9729(11) 31_545
Nd3 As2 2.9729(11) 7_455
Nd4 As4 2.9890(10) 25_445
Nd4 As4 2.9890(10) 13_554
Nd4 As4 2.9890(10) 25
Nd4 As4 2.9890(10) 13_444
Nd4 As4 2.9890(10) 13_544
Nd4 As4 2.9890(10) 25_455
Zn1 As2 2.510(3) .
Zn1 As3 2.5775(10) 25_445
Zn1 As3 2.5775(11) 25
Zn1 As3 2.5776(10) 25_455
Zn1 Zn2A 3.098(2) 25
Zn1 Zn2A 3.098(2) 25_445
Zn1 Zn2A 3.098(2) 25_455
Zn1 Nd2 3.6106(17) 13_444
Zn1 Nd2 3.6106(17) 13_554
Zn1 Nd2 3.6107(17) 13_544
Zn2A Zn2B 1.200(17) .
Zn2A As2 2.4963(10) 25_445
Zn2A As2 2.4963(10) 25
Zn2A As2 2.4963(10) 25_455
Zn2A As3 2.793(3) .
Zn2A Zn1 3.098(2) 25
Zn2A Zn1 3.098(2) 25_445
Zn2A Zn1 3.098(2) 25_455
Zn2A Nd3 3.345(2) 13_444
Zn2A Nd3 3.345(2) 13_554
Zn2A Nd3 3.345(2) 13_544
Zn2B As2 2.504(4) 25
Zn2B As2 2.504(4) 25_445
Zn2B As2 2.504(4) 25_455
Zn2B Nd3 2.665(7) 13_444
Zn2B Nd3 2.665(7) 13_554
Zn2B Nd3 2.665(7) 13_544
Zn2B As2 2.818(17) .
As1 Nd2 2.9599(11) 13_554
As1 Nd2 2.9599(11) 13_444
As1 Nd2 2.9599(11) 13_544
As1 Nd1 3.0082(11) 25_445
As1 Nd1 3.0082(11) 25
As1 Nd1 3.0082(11) 25_455
As2 Zn2A 2.4963(10) 25_445
As2 Zn2A 2.4963(10) 25
As2 Zn2A 2.4963(10) 25_455
As2 Zn2B 2.504(4) 25
As2 Zn2B 2.504(4) 25_445
As2 Zn2B 2.504(4) 25_455
As2 Nd3 2.9727(11) 13_554
As2 Nd3 2.9727(11) 13_444
As2 Nd3 2.9727(11) 13_544
As3 Zn1 2.5776(10) 25_445
As3 Zn1 2.5776(11) 25
As3 Zn1 2.5776(10) 25_455
As3 Nd2 3.0244(11) 31
As3 Nd2 3.0244(11) 31_445
As3 Nd2 3.0244(11) 31_545
As4 Nd1 2.9702(11) 31
As4 Nd1 2.9702(11) 31_445
As4 Nd1 2.9702(11) 31_545
As4 Nd4 2.9892(10) 7_445
As4 Nd4 2.9892(10) 7
As4 Nd4 2.9892(10) 7_455
