#------------------------------------------------------------------------------
#$Date: 2015-12-09 15:33:01 +0200 (Wed, 09 Dec 2015) $
#$Revision: 171117 $
#$URL: svn://www.crystallography.net/cod/cif/7/03/70/7037025.cif $
#------------------------------------------------------------------------------
#
# This file is available in the Crystallography Open Database (COD),
# http://www.crystallography.net/
#
# All data on this site have been placed in the public domain by the
# contributors.
#
data_7037025
loop_
_publ_author_name
'Lin, Xinsong'
'Tabassum, Danisa'
'Mar, Arthur'
_publ_section_title
;
 Narrowing the gap: from semiconductor to semimetal in the homologous
 series of rare-earth zinc arsenides RE2-yZn4As4&#x00B7;n(REAs) and
 Mn-substituted derivatives RE2-yMnxZn4-xAs4&#x00B7;n(REAs) (RE = La-Nd,
 Sm, Gd).
;
_journal_issue                   46
_journal_name_full
'Dalton transactions (Cambridge, England : 2003)'
_journal_page_first              20254
_journal_page_last               20264
_journal_paper_doi               10.1039/c5dt03596a
_journal_volume                  44
_journal_year                    2015
_chemical_formula_structural     'Pr3.45 Zn4 As6'
_chemical_formula_sum            'As6 Pr3.45 Zn4'
_chemical_formula_weight         1197.14
_chemical_name_common            'praseodymium zinc arsenide (3.4/4/6)'
_chemical_name_systematic        'praseodymium zinc arsenide (3.4/4/6)'
_space_group_crystal_system      trigonal
_space_group_IT_number           166
_space_group_name_Hall           '-R 3 2"'
_space_group_name_H-M_alt        'R -3 m :H'
_symmetry_space_group_name_Hall  '-R 3 2"'
_symmetry_space_group_name_H-M   'R -3 m :H'
_atom_sites_solution_primary     direct
_atom_sites_solution_secondary   difmap
_audit_creation_method           SHELXL-2013
_cell_angle_alpha                90
_cell_angle_beta                 90
_cell_angle_gamma                120
_cell_formula_units_Z            3
_cell_length_a                   4.2067(7)
_cell_length_b                   4.2067(7)
_cell_length_c                   62.637(10)
_cell_measurement_reflns_used    2937
_cell_measurement_temperature    296(2)
_cell_measurement_theta_max      32.76
_cell_measurement_theta_min      4.88
_cell_volume                     959.9(3)
_computing_cell_refinement       'Bruker SAINT 7.68A (Bruker, 2009)'
_computing_data_collection       'Bruker APEX 2 (Bruker, 2008)'
_computing_data_reduction        'Bruker SAINT 7.68A'
_computing_molecular_graphics    'ATOMS 5.1 (Dowty, 1999)'
_computing_publication_material  'Bruker SHELXTL'
_computing_structure_refinement  'Bruker SHELXTL'
_computing_structure_solution    'Bruker SHELXTL'
_diffrn_ambient_temperature      296(2)
_diffrn_measured_fraction_theta_full 0.997
_diffrn_measured_fraction_theta_max 0.988
_diffrn_measurement_device_type  'Bruker PLATFORM/SMART APEX II CCD'
_diffrn_measurement_method       '\w and \f scans'
_diffrn_radiation_type           MoK\a
_diffrn_radiation_wavelength     0.71073
_diffrn_reflns_av_R_equivalents  0.0311
_diffrn_reflns_av_unetI/netI     0.0161
_diffrn_reflns_laue_measured_fraction_full 0.997
_diffrn_reflns_laue_measured_fraction_max 0.988
_diffrn_reflns_limit_h_max       6
_diffrn_reflns_limit_h_min       -6
_diffrn_reflns_limit_k_max       6
_diffrn_reflns_limit_k_min       -6
_diffrn_reflns_limit_l_max       95
_diffrn_reflns_limit_l_min       -94
_diffrn_reflns_number            4546
_diffrn_reflns_point_group_measured_fraction_full 0.997
_diffrn_reflns_point_group_measured_fraction_max 0.988
_diffrn_reflns_theta_full        25.242
_diffrn_reflns_theta_max         33.236
_diffrn_reflns_theta_min         1.951
_diffrn_source                   'fine-focus sealed tube'
_exptl_absorpt_coefficient_mu    35.569
_exptl_absorpt_correction_T_max  0.5580
_exptl_absorpt_correction_T_min  0.1761
_exptl_absorpt_correction_type   numerical
_exptl_absorpt_process_details   'Bruker SHELXTL (Sheldrick, 2013)'
_exptl_crystal_colour            black
_exptl_crystal_density_diffrn    6.213
_exptl_crystal_density_method    'not measured'
_exptl_crystal_description       irregular
_exptl_crystal_F_000             1565
_exptl_crystal_size_max          0.090
_exptl_crystal_size_mid          0.039
_exptl_crystal_size_min          0.021
_refine_diff_density_max         3.600
_refine_diff_density_min         -2.776
_refine_diff_density_rms         0.260
_refine_ls_extinction_coef       0.00326(10)
_refine_ls_extinction_expression Fc^*^=kFc[1+0.001xFc^2^\l^3^/sin(2\q)]^-1/4^
_refine_ls_extinction_method     SHELXL
_refine_ls_goodness_of_fit_ref   1.156
_refine_ls_hydrogen_treatment    undef
_refine_ls_matrix_type           full
_refine_ls_number_parameters     27
_refine_ls_number_reflns         564
_refine_ls_number_restraints     0
_refine_ls_restrained_S_all      1.156
_refine_ls_R_factor_all          0.0252
_refine_ls_R_factor_gt           0.0208
_refine_ls_shift/su_max          0.001
_refine_ls_shift/su_mean         0.000
_refine_ls_structure_factor_coef Fsqd
_refine_ls_weighting_details
'w=1/[\s^2^(Fo^2^)+(0.0141P)^2^+15.2591P] where P=(Fo^2^+2Fc^2^)/3'
_refine_ls_weighting_scheme      calc
_refine_ls_wR_factor_gt          0.0433
_refine_ls_wR_factor_ref         0.0449
_reflns_Friedel_coverage         0.000
_reflns_number_gt                509
_reflns_number_total             564
_reflns_threshold_expression     'I > 2\s(I)'
_cod_data_source_file            c5dt03596a6.cif
_cod_data_source_block           Pr4-xZn4As6
_cod_depositor_comments
'Adding full bibliography for 7037017--7037025.cif.'
_cod_original_cell_volume        959.9(4)
_cod_database_code               7037025
_shelx_space_group_comment
;
The symmetry employed for this shelxl refinement is uniquely defined
by the following loop, which should always be used as a source of
symmetry information in preference to the above space-group names.
They are only intended as comments.
;
_shelx_estimated_absorpt_t_min   0.142
_shelx_estimated_absorpt_t_max   0.522
_shelxl_version_number           2013-4
_shelx_res_file
;
TITL Pr3.4Mn4As6 R-3m lsf final refinement
CELL 0.71073   4.20670   4.20670  62.63750  90.0000  90.0000 120.0000
ZERR    3.00   0.00070   0.00070   0.00980   0.0000   0.0000   0.0000
LATT  3
SYMM -Y, X-Y, Z
SYMM -X+Y, -X, Z
SYMM Y, X, -Z
SYMM X-Y, -Y, -Z
SYMM -X, -X+Y, -Z
SFAC ZN AS PR
UNIT 12 18 10.35
TEMP 23
SIZE 0.021 0.039 0.09

L.S. 4
ACTA

EADP ZN1A ZN1B
WGHT    0.014100   15.259100
EXTI    0.003264
FVAR       0.03985   0.87885
PR1   3    0.000000    0.000000    0.388933    10.16667    0.00740    0.00740 =
         0.00882    0.00000    0.00000    0.00370
PR2   3    0.000000    0.000000    0.500000     0.03842    0.01103    0.01103 =
         0.00955    0.00000    0.00000    0.00551
PR3   3    0.000000    0.000000    0.000000    10.08333    0.00700    0.00700 =
         0.00750    0.00000    0.00000    0.00350
ZN1A  1    0.000000    0.000000    0.129018    20.16667    0.01782    0.01782 =
         0.03540    0.00000    0.00000    0.00891
ZN1B  1    0.000000    0.000000    0.149661   -20.16667    0.01782    0.01782 =
         0.03540    0.00000    0.00000    0.00891
ZN2   1    0.000000    0.000000    0.234816    10.16667    0.01674    0.01674 =
         0.01591    0.00000    0.00000    0.00837
AS1   2    0.000000    0.000000    0.085049    10.16667    0.00795    0.00795 =
         0.01051    0.00000    0.00000    0.00397
AS2   2    0.000000    0.000000    0.194420    10.16667    0.01056    0.01056 =
         0.01357    0.00000    0.00000    0.00528
AS3   2    0.000000    0.000000    0.305017    10.16667    0.00767    0.00767 =
         0.00839    0.00000    0.00000    0.00384
HKLF 4

REM  Pr3.4Mn4As6 R-3m lsf final refinement
REM R1 =  0.0208 for     509 Fo > 4sig(Fo)  and  0.0252 for all     564 data
REM     27 parameters refined using      0 restraints

END

WGHT      0.0141     15.2583

REM Highest difference peak  3.600,  deepest hole -2.776,  1-sigma level  0.260
Q1    1   0.0000  0.0000  0.1400  10.16667  0.05    3.60
Q2    1   0.0767 -0.0767  0.2300  10.50000  0.05    1.16
Q3    1  -0.0924  0.0924  0.3850  10.50000  0.05    1.16
Q4    1   0.0000  0.0000  0.2098  10.16667  0.05    1.14
Q5    1   0.0000  0.0000  0.0544  10.16667  0.05    1.06
Q6    1   0.0000  0.0000  0.3724  10.16667  0.05    1.04
Q7    1   0.1912  0.1912  0.0000  10.50000  0.05    1.00
Q8    1   0.0000  0.0000  0.4077  10.16667  0.05    0.95
Q9    1   0.0000  0.0000  0.2717  10.16667  0.05    0.94
Q10   1   0.0000  0.0000  0.3346  10.16667  0.05    0.90
Q11   1   0.0000  0.0000  0.2846  10.16667  0.05    0.86
Q12   1   0.0000  0.0000  0.4873  10.16667  0.05    0.86
Q13   1   0.1129 -0.1129  0.3048  10.50000  0.05    0.86
Q14   1   0.0000  0.0000  0.0394  10.16667  0.05    0.84
Q15   1   0.1071  0.2142  0.3897  10.50000  0.05    0.82
Q16   1   0.0000  0.0000  0.0948  10.16667  0.05    0.81
Q17   1   0.0685  0.1370  0.3974  10.50000  0.05    0.79
Q18   1   0.0000  0.0000  0.0281  10.16667  0.05    0.73
Q19   1  -0.0698 -0.1396  0.1151  10.50000  0.05    0.67
Q20   1  -0.0690 -0.1379  0.0828  10.50000  0.05    0.65
;
_shelx_res_checksum              37834
_shelx_hkl_file
;
  -1   0 -94    1.02    0.66
   0   0 -93   36.17    2.78
   0  -1 -92   48.66    3.28
   1   0 -92   43.21    3.19
  -1   1 -92   52.51    3.41
   1  -1 -91   11.93    1.22
  -1   0 -91   14.20    1.30
   0   1 -91   10.20    1.72
   1  -2 -90    5.02    1.13
  -1  -1 -90    3.03    1.10
   0   0 -90    8.04    1.52
  -2   1 -90    4.65    0.82
   1   1 -90    6.84    0.99
   2  -2 -89    5.18    1.19
   0  -1 -89    5.63    0.83
  -2   0 -89    6.92    1.45
   1   0 -89    6.13    1.36
  -1   1 -89    7.29    1.45
   0   2 -89    8.05    1.60
   0  -2 -88    6.36    1.46
   1  -1 -88   12.88    1.26
  -1   0 -88   13.49    1.27
   2   0 -88   11.15    1.25
   0   1 -88   15.06    2.04
   1  -2 -87    0.20    0.45
  -1  -1 -87    0.42    0.37
   2  -1 -87    0.62    0.56
   0   0 -87    0.30    0.40
  -2   1 -87    0.51    0.46
   1   1 -87    0.62    0.49
  -1   2 -87    0.31    0.67
   2  -2 -86    0.17    0.46
   0  -1 -86    0.28    0.39
  -2   0 -86    0.19    0.43
   1   0 -86    0.58    0.49
  -1   1 -86    0.17    0.57
   0   2 -86    0.09    0.49
   0  -2 -85   51.17    2.34
  -2  -1 -85   45.33    3.03
   1  -1 -85   57.99    2.42
  -1   0 -85   61.98    2.47
   2   0 -85   49.42    2.36
   0   1 -85   59.56    3.64
  -2   2 -85   57.65    3.61
   1   2 -85   43.39    3.09
   1  -2 -84   -0.19    0.36
  -1  -1 -84   -0.03    0.33
   2  -1 -84    0.59    0.48
   0   0 -84    0.20    0.37
  -2   1 -84   -0.24    0.35
   1   1 -84   -0.11    0.43
  -1   2 -84   -0.11    0.60
   1  -3 -83    0.36    0.85
  -1  -2 -83   -0.20    0.74
   2  -2 -83    1.01    0.52
   0  -1 -83    0.43    0.34
   3  -1 -83    0.32    0.52
  -2   0 -83    1.19    0.54
   1   0 -83    1.82    0.54
  -1   1 -83    0.10    0.36
  -3   2 -83    0.28    0.51
   0   2 -83    0.21    0.50
   2  -3 -82  107.92    3.82
   0  -2 -82  119.34    4.00
   3  -2 -82  106.77    3.94
  -2  -1 -82  106.00    5.11
   1  -1 -82  151.65    4.46
  -1   0 -82  147.26    4.45
   2   0 -82  125.29    4.09
  -3   1 -82  110.88    5.24
   0   1 -82  147.54    4.51
  -2   2 -82  123.58    5.93
   1   2 -82  106.39    3.78
  -1   3 -82  112.15    3.91
   1  -2 -81    2.58    0.62
  -1  -1 -81    0.78    0.37
   2  -1 -81    0.92    0.49
   0   0 -81    2.25    0.57
  -2   1 -81    0.79    0.47
   1   1 -81    0.55    0.49
  -1   2 -81    0.97    0.76
   0   3 -81    0.59    0.88
   1  -3 -80   14.76    1.42
  -1  -2 -80   13.88    1.35
   2  -2 -80   16.10    1.36
   0  -1 -80   18.81    1.44
   3  -1 -80   14.08    1.41
  -2   0 -80   17.03    1.41
   1   0 -80   18.37    1.44
  -1   1 -80   17.31    1.34
   2   1 -80   16.50    2.17
  -3   2 -80   14.54    1.38
   0   2 -80   14.81    1.41
  -2   3 -80   12.93    2.05
   2  -3 -79    0.45    0.45
   0  -2 -79    0.28    0.35
   3  -2 -79   -0.03    0.50
  -2  -1 -79    0.02    0.41
   1  -1 -79   -0.03    0.35
  -1   0 -79    0.51    0.40
   2   0 -79    0.00    0.41
  -3   1 -79    0.37    0.47
   0   1 -79    0.12    0.39
  -2   2 -79   -0.65    0.33
   1   2 -79   -0.26    0.47
  -1   3 -79   -0.01    0.49
   0  -3 -78    0.68    0.55
   3  -3 -78    1.80    0.56
   1  -2 -78    2.00    0.60
  -1  -1 -78    2.57    0.51
   2  -1 -78    1.69    0.60
  -3   0 -78    1.73    0.90
   0   0 -78    6.37    0.81
   3   0 -78    2.69    1.10
  -2   1 -78    1.90    0.58
   1   1 -78    2.22    0.62
  -1   2 -78    1.91    0.60
  -3   3 -78    1.48    0.99
   0   3 -78    1.47    0.66
   1  -3 -77   23.31    1.79
  -1  -2 -77   23.57    1.69
   2  -2 -77   26.31    1.39
   0  -1 -77   32.90    1.68
   3  -1 -77   23.27    1.82
  -2   0 -77   28.26    1.67
   1   0 -77   31.02    1.65
  -1   1 -77   31.83    1.60
   2   1 -77   21.34    1.67
  -3   2 -77   20.46    1.65
   0   2 -77   28.70    1.92
  -2   3 -77   18.46    2.38
   2  -3 -76    0.71    0.48
   0  -2 -76   -0.04    0.27
   3  -2 -76    1.01    0.57
  -2  -1 -76   -0.23    0.44
   1  -1 -76    1.18    0.45
  -1   0 -76    0.31    0.36
   2   0 -76    0.87    0.50
  -3   1 -76    0.46    0.51
   0   1 -76    0.86    0.46
  -2   2 -76    0.53    0.43
   1   2 -76   -0.13    0.45
  -1   3 -76    0.22    0.51
   0  -3 -75    0.25    0.47
   3  -3 -75   -0.06    0.37
   1  -2 -75    0.11    0.39
   4  -2 -75    1.13    0.89
  -1  -1 -75    0.58    0.34
   2  -1 -75   -0.30    0.37
  -3   0 -75    0.35    0.49
   0   0 -75    2.56    0.53
   3   0 -75    0.40    0.74
  -2   1 -75    0.10    0.39
   1   1 -75   -0.29    0.34
  -1   2 -75   -0.45    0.41
  -3   3 -75    0.29    0.71
   0   3 -75   -0.29    0.47
  -2   4 -75   -0.29    0.74
   1  -3 -74    2.47    0.68
  -1  -2 -74    2.22    0.64
   2  -2 -74    2.90    0.55
   0  -1 -74    4.78    0.58
   3  -1 -74    2.42    0.67
  -2   0 -74    4.18    0.59
   1   0 -74    4.69    0.75
  -1   1 -74    4.30    0.69
   2   1 -74    3.32    0.75
  -3   2 -74    3.15    0.71
   0   2 -74    4.30    0.77
  -2   3 -74    2.76    1.07
   1  -4 -73    1.58    1.01
   2  -3 -73    0.64    0.47
   0  -2 -73    0.80    0.36
   3  -2 -73    0.82    0.42
  -2  -1 -73    0.72    0.45
   1  -1 -73    0.36    0.30
  -1   0 -73    0.49    0.31
   2   0 -73    0.14    0.40
  -3   1 -73    0.89    0.48
   0   1 -73    0.09    0.36
  -2   2 -73    0.71    0.44
   1   2 -73    0.78    0.47
  -1   3 -73    0.47    0.51
   2  -4 -72  162.85    5.09
   0  -3 -72  179.05    5.24
   3  -3 -72  184.93    4.55
  -2  -2 -72  164.19    4.93
   1  -2 -72  238.89    6.57
   4  -2 -72  160.15    5.14
  -1  -1 -72  246.61    5.27
   2  -1 -72  256.21    5.35
  -3   0 -72  194.50    5.31
   0   0 -72  296.99    7.44
   3   0 -72  188.15    8.06
  -2   1 -72  242.74    6.50
   1   1 -72  252.71    6.70
  -4   2 -72  156.74    6.82
  -1   2 -72  253.78    6.71
  -3   3 -72  186.46    5.35
   0   3 -72  183.07    5.54
  -2   4 -72  155.51    5.03
   1  -3 -71    0.33    0.38
   4  -3 -71    0.07    0.53
  -1  -2 -71    0.44    0.42
   2  -2 -71    0.17    0.32
  -3  -1 -71   -0.09    0.73
   0  -1 -71    0.60    0.32
   3  -1 -71    0.46    0.49
  -2   0 -71    0.19    0.31
   1   0 -71    0.42    0.38
  -1   1 -71    0.73    0.35
   2   1 -71    0.34    0.42
  -3   2 -71    0.21    0.45
   0   2 -71    0.86    0.45
  -2   3 -71    0.52    0.49
  -1   4 -71    1.18    0.91
   1  -4 -70    6.92    0.82
  -1  -3 -70    6.97    1.46
   2  -3 -70    6.50    0.93
   0  -2 -70    7.14    0.74
   3  -2 -70    7.36    0.79
  -2  -1 -70    6.72    0.90
   1  -1 -70   11.52    0.85
  -1   0 -70   10.53    0.80
   2   0 -70    9.04    1.04
  -3   1 -70    7.94    0.99
   0   1 -70   10.88    1.08
  -2   2 -70    8.63    0.97
   1   2 -70    6.59    0.94
  -4   3 -70    6.46    0.96
  -1   3 -70    6.77    0.98
   2  -4 -69   35.94    2.15
   0  -3 -69   44.96    2.11
   3  -3 -69   40.76    1.71
  -2  -2 -69   33.45    2.01
   1  -2 -69   60.90    2.42
   4  -2 -69   38.97    2.22
  -1  -1 -69   61.87    1.92
   2  -1 -69   60.95    1.92
  -3   0 -69   44.87    2.01
   0   0 -69   75.49    2.06
   3   0 -69   43.71    3.18
  -2   1 -69   60.34    2.37
   1   1 -69   59.96    2.41
  -4   2 -69   37.37    2.76
  -1   2 -69   63.66    2.49
   2   2 -69   32.50    3.14
  -3   3 -69   46.47    2.08
   0   3 -69   42.27    2.12
  -2   4 -69   38.69    2.04
   3  -4 -68    1.02    0.53
   1  -3 -68    1.50    0.43
   4  -3 -68    1.19    0.62
  -1  -2 -68    2.03    0.58
   2  -2 -68    1.66    0.45
  -3  -1 -68    0.77    0.53
   0  -1 -68    3.27    0.48
   3  -1 -68    0.97    0.50
  -2   0 -68    2.31    0.45
   1   0 -68    4.32    0.51
  -4   1 -68    1.05    0.75
  -1   1 -68    3.50    0.59
   2   1 -68    1.38    0.55
  -3   2 -68    1.69    0.53
   0   2 -68    1.92    0.57
  -2   3 -68    1.06    0.51
   1   3 -68    0.94    0.80
  -1   4 -68    0.68    0.58
   1  -4 -67   15.40    1.21
  -1  -3 -67   13.82    1.39
   2  -3 -67   16.32    1.41
   0  -2 -67   20.82    1.22
   3  -2 -67   19.53    1.24
  -2  -1 -67   19.72    1.48
   1  -1 -67   22.99    1.10
   4  -1 -67   16.60    2.34
  -4   0 -67   10.95    1.69
  -1   0 -67   24.22    1.03
   2   0 -67   19.97    1.50
  -3   1 -67   19.05    1.47
   0   1 -67   22.57    1.40
   3   1 -67   12.38    1.99
  -2   2 -67   20.92    1.48
   1   2 -67   17.24    1.45
  -4   3 -67   15.80    1.41
  -1   3 -67   16.16    1.42
  -3   4 -67   12.81    1.90
   0   4 -67   11.23    1.70
   2  -4 -66    0.10    0.45
   0  -3 -66    0.18    0.36
   3  -3 -66    0.32    0.35
  -2  -2 -66    0.15    0.46
   1  -2 -66    0.23    0.33
   4  -2 -66   -0.23    0.45
  -1  -1 -66    0.07    0.28
   2  -1 -66    0.09    0.27
  -3   0 -66    0.11    0.40
   0   0 -66    0.81    0.28
   3   0 -66   -0.50    0.46
  -2   1 -66    0.59    0.39
   1   1 -66    0.47    0.37
  -4   2 -66   -0.01    0.57
  -1   2 -66    0.39    0.36
   2   2 -66    0.26    0.76
  -3   3 -66   -0.33    0.32
   0   3 -66    0.69    0.39
  -2   4 -66    0.14    0.46
   0  -4 -65    5.44    1.29
   3  -4 -65    5.44    0.91
   1  -3 -65    8.10    0.81
   4  -3 -65    7.17    1.07
  -1  -2 -65    9.69    1.02
   2  -2 -65   12.03    0.94
  -3  -1 -65    7.02    0.98
   0  -1 -65   15.42    0.94
   3  -1 -65   10.38    1.10
  -2   0 -65   11.11    0.84
   1   0 -65   16.20    0.95
  -4   1 -65    4.18    1.15
  -1   1 -65   15.38    0.93
   2   1 -65    9.06    1.02
  -3   2 -65   10.98    1.10
   0   2 -65   11.05    1.10
  -2   3 -65    8.88    1.02
   1   3 -65    7.59    1.02
  -1   4 -65    5.79    0.76
   1  -4 -64    4.46    0.71
   4  -4 -64    4.08    1.45
  -1  -3 -64    4.23    0.82
   2  -3 -64    4.64    0.75
   0  -2 -64    6.67    0.70
   3  -2 -64    4.32    0.61
  -2  -1 -64    5.88    0.82
   1  -1 -64    6.28    0.63
   4  -1 -64    5.36    1.42
  -4   0 -64    3.29    0.74
  -1   0 -64    6.89    0.63
   2   0 -64    4.88    0.75
  -3   1 -64    5.58    0.80
   0   1 -64    6.63    0.61
   3   1 -64    2.10    1.02
  -2   2 -64    6.91    0.82
   1   2 -64    4.54    0.78
  -4   3 -64    4.45    0.80
  -1   3 -64    5.76    0.87
  -3   4 -64    5.29    0.85
   0   4 -64    4.62    1.16
   2  -4 -63   10.48    1.16
   0  -3 -63   11.43    0.96
   3  -3 -63   10.90    0.96
  -2  -2 -63    8.00    1.04
   1  -2 -63   12.92    1.15
   4  -2 -63    9.70    1.16
  -1  -1 -63   13.06    0.91
   2  -1 -63   14.60    0.96
  -3   0 -63    9.89    1.01
   0   0 -63   17.52    0.91
   3   0 -63   10.29    1.67
  -2   1 -63   15.01    1.24
   1   1 -63   16.49    1.27
  -4   2 -63    8.31    1.01
  -1   2 -63   12.89    1.17
   2   2 -63    7.01    0.99
  -3   3 -63    9.40    0.99
   0   3 -63   11.58    0.93
  -2   4 -63    7.56    0.98
   0  -4 -62   79.55    3.08
   3  -4 -62   86.50    3.30
   1  -3 -62  115.52    3.77
   4  -3 -62   86.82    4.55
  -1  -2 -62  120.23    3.72
   2  -2 -62  135.33    3.37
  -3  -1 -62   88.60    3.15
   0  -1 -62  166.22    3.69
   3  -1 -62  121.94    3.92
  -2   0 -62  141.05    3.24
   1   0 -62  170.07    3.71
   4   0 -62   75.95    4.60
  -4   1 -62   91.10    4.60
  -1   1 -62  171.64    3.70
   2   1 -62  118.38    3.75
  -3   2 -62  120.73    3.68
   0   2 -62  140.43    4.20
  -2   3 -62  119.33    3.73
   1   3 -62   83.28    3.11
  -4   4 -62   75.89    2.86
  -1   4 -62   88.94    2.59
   1  -4 -61    0.41    0.40
   4  -4 -61    0.54    0.60
  -1  -3 -61    0.53    0.49
   2  -3 -61    1.41    0.42
   0  -2 -61    0.50    0.31
   3  -2 -61    0.60    0.34
  -2  -1 -61    0.59    0.40
   1  -1 -61    2.10    0.40
   4  -1 -61    0.56    0.86
  -4   0 -61    1.01    0.55
  -1   0 -61    1.20    0.31
   2   0 -61    0.90    0.46
  -3   1 -61    0.67    0.45
   0   1 -61    1.77    0.35
   3   1 -61    1.34    0.57
  -2   2 -61    1.07    0.31
   1   2 -61    0.39    0.33
  -4   3 -61    0.34    0.44
  -1   3 -61    1.00    0.36
  -3   4 -61    1.01    0.52
   0   4 -61    0.73    0.57
   2  -4 -60    3.86    0.74
   0  -3 -60    5.05    0.66
   3  -3 -60    5.94    0.69
  -2  -2 -60    3.70    0.76
   1  -2 -60   10.87    0.84
   4  -2 -60    5.03    0.86
  -1  -1 -60    9.84    0.78
   2  -1 -60   12.00    0.86
  -3   0 -60    5.56    0.77
   0   0 -60   14.53    0.86
   3   0 -60    5.37    1.24
  -2   1 -60   11.06    1.02
   1   1 -60   10.20    1.00
  -4   2 -60    4.99    0.84
  -1   2 -60   10.56    1.00
   2   2 -60    4.87    0.81
  -3   3 -60    6.72    0.85
   0   3 -60    6.32    0.71
  -2   4 -60    5.16    0.82
   2  -5 -59   52.59    3.62
   0  -4 -59   64.59    2.71
   3  -4 -59   72.22    2.36
  -2  -3 -59   59.99    3.66
   1  -3 -59   94.31    2.58
   4  -3 -59   74.60    3.00
  -1  -2 -59   95.27    3.13
   2  -2 -59  111.98    2.91
  -3  -1 -59   71.78    2.76
   0  -1 -59  131.15    3.07
   3  -1 -59   96.90    3.29
  -2   0 -59  115.52    2.78
   1   0 -59  133.07    3.07
   4   0 -59   64.01    4.14
  -4   1 -59   70.29    2.64
  -1   1 -59  142.26    3.11
   2   1 -59   94.92    2.49
  -3   2 -59   88.18    3.02
   0   2 -59  116.52    2.77
   3   2 -59   51.30    3.45
  -2   3 -59   92.81    3.09
   1   3 -59   74.79    2.83
  -4   4 -59   65.83    2.55
  -1   4 -59   69.76    2.23
   1  -4 -58    4.60    0.67
   4  -4 -58    3.54    0.81
  -1  -3 -58    5.00    0.87
   2  -3 -58    6.50    0.72
   5  -3 -58    1.25    0.80
  -3  -2 -58    2.77    1.05
   0  -2 -58   10.84    0.84
   3  -2 -58    6.87    0.70
  -2  -1 -58    7.71    0.86
   1  -1 -58   14.24    0.90
   4  -1 -58    4.94    1.32
  -4   0 -58    4.69    0.78
  -1   0 -58   13.56    0.84
   2   0 -58    9.54    0.99
  -3   1 -58    7.08    0.67
   0   1 -58   14.79    0.81
   3   1 -58    5.46    0.89
  -2   2 -58   11.01    0.77
   1   2 -58    8.39    0.74
  -4   3 -58    4.61    0.75
  -1   3 -58    6.61    0.66
   2   3 -58    4.91    1.30
  -3   4 -58    4.21    0.73
   0   4 -58    2.92    0.73
  -2   5 -58    3.54    0.75
   2  -4 -57    9.84    1.11
   0  -3 -57   11.36    0.92
   3  -3 -57   11.30    0.92
  -2  -2 -57   10.29    1.13
   1  -2 -57   16.92    1.04
   4  -2 -57   13.68    1.31
  -1  -1 -57   16.84    0.99
   2  -1 -57   14.90    0.93
  -3   0 -57   10.76    1.04
   0   0 -57   17.30    0.84
   3   0 -57   11.13    1.14
  -2   1 -57   14.56    0.89
   1   1 -57   16.17    0.93
  -4   2 -57   11.68    1.14
  -1   2 -57   15.98    0.88
   2   2 -57   12.63    1.23
  -3   3 -57   12.47    1.08
   0   3 -57   14.38    0.99
  -2   4 -57   10.66    1.11
   2  -5 -56   60.63    2.61
   0  -4 -56   64.93    2.75
   3  -4 -56   80.19    2.48
  -2  -3 -56   58.36    2.67
   1  -3 -56  119.54    3.02
   4  -3 -56   82.15    3.15
  -1  -2 -56  115.20    3.64
   2  -2 -56  141.91    3.40
  -3  -1 -56   90.40    3.04
   0  -1 -56  183.89    3.92
   3  -1 -56  125.10    3.86
  -2   0 -56  149.73    3.31
   1   0 -56  186.39    3.92
   4   0 -56   76.71    3.02
  -4   1 -56   78.65    2.77
  -1   1 -56  187.23    3.93
   2   1 -56  123.60    2.96
  -3   2 -56  125.28    3.66
   0   2 -56  142.56    3.25
   3   2 -56   62.10    4.01
  -5   3 -56   57.37    3.45
  -2   3 -56  116.61    3.63
   1   3 -56   76.97    2.92
  -4   4 -56   71.53    2.69
  -1   4 -56   78.95    2.38
  -3   5 -56   58.38    2.57
   3  -5 -55    2.62    0.68
   1  -4 -55    1.96    0.48
   4  -4 -55    1.72    0.62
  -1  -3 -55    1.74    0.61
   2  -3 -55    2.21    0.44
   5  -3 -55    1.73    0.64
  -3  -2 -55    0.87    0.58
   0  -2 -55    2.70    0.43
   3  -2 -55    2.19    0.43
  -2  -1 -55    2.74    0.57
   1  -1 -55    2.43    0.39
   4  -1 -55    3.10    1.11
  -4   0 -55    2.60    0.67
  -1   0 -55    2.81    0.40
   2   0 -55    2.68    0.44
  -3   1 -55    2.48    0.43
   0   1 -55    2.86    0.39
   3   1 -55    1.99    0.64
  -5   2 -55    1.44    0.79
  -2   2 -55    2.08    0.36
   1   2 -55    1.57    0.39
  -4   3 -55    1.54    0.50
  -1   3 -55    2.22    0.56
   2   3 -55    0.67    0.61
  -3   4 -55    2.02    0.55
   0   4 -55    1.63    0.60
  -2   5 -55    1.66    0.65
   1  -5 -54    5.51    1.33
   4  -5 -54    5.74    1.66
   2  -4 -54    5.39    0.80
   0  -3 -54    5.40    0.62
   3  -3 -54    5.44    0.62
  -2  -2 -54    4.50    0.77
   1  -2 -54    5.10    0.49
   4  -2 -54    5.91    0.90
  -4  -1 -54    7.26    1.50
  -1  -1 -54    5.82    0.58
   2  -1 -54    5.86    0.58
   5  -1 -54    6.44    1.56
  -3   0 -54    5.10    0.70
   0   0 -54    5.87    0.53
   3   0 -54    5.64    0.82
  -5   1 -54    3.35    0.96
  -2   1 -54    5.36    0.53
   1   1 -54    5.55    0.55
   4   1 -54    5.00    1.36
  -4   2 -54    4.92    0.77
  -1   2 -54    6.17    0.57
   2   2 -54    6.05    0.88
  -3   3 -54    5.27    0.57
   0   3 -54    5.19    0.61
  -5   4 -54    5.07    1.27
  -2   4 -54    4.62    0.73
  -4   5 -54    2.24    0.92
   2  -5 -53   18.61    1.53
   0  -4 -53   20.83    1.65
   3  -4 -53   22.49    1.35
  -2  -3 -53   20.47    2.46
   1  -3 -53   36.83    1.40
   4  -3 -53   23.68    1.56
  -1  -2 -53   39.40    1.77
   2  -2 -53   45.95    1.54
   5  -2 -53   15.21    2.32
  -3  -1 -53   21.43    1.57
   0  -1 -53   62.43    1.51
   3  -1 -53   34.50    1.72
  -2   0 -53   44.44    1.46
   1   0 -53   64.12    1.73
   4   0 -53   21.70    1.78
  -4   1 -53   24.74    1.42
  -1   1 -53   61.66    1.43
   2   1 -53   36.56    1.35
  -3   2 -53   38.03    1.67
   0   2 -53   47.07    1.47
   3   2 -53   17.35    1.61
  -5   3 -53   17.03    2.02
  -2   3 -53   38.95    1.31
   1   3 -53   24.41    1.69
  -4   4 -53   19.81    1.48
  -1   4 -53   21.58    1.27
  -3   5 -53   17.98    1.52
   3  -5 -52   20.11    1.60
   1  -4 -52   29.71    1.37
   4  -4 -52   27.91    1.78
  -1  -3 -52   31.47    1.73
   2  -3 -52   45.00    1.58
   5  -3 -52   25.58    1.70
  -3  -2 -52   21.44    1.71
   0  -2 -52   57.28    1.75
   3  -2 -52   42.15    1.50
  -2  -1 -52   44.43    1.86
   1  -1 -52   72.60    1.97
   4  -1 -52   28.64    2.00
  -4   0 -52   24.06    1.66
  -1   0 -52   74.97    1.91
   2   0 -52   59.14    1.73
  -3   1 -52   47.02    1.47
   0   1 -52   71.47    1.52
   3   1 -52   32.92    1.76
  -5   2 -52   24.30    2.43
  -2   2 -52   57.97    1.64
   1   2 -52   45.26    1.51
  -4   3 -52   32.92    1.62
  -1   3 -52   49.19    1.96
   2   3 -52   22.80    1.86
  -3   4 -52   28.99    1.55
   0   4 -52   25.12    1.76
  -2   5 -52   21.74    1.69
   1  -5 -51    5.32    0.95
   4  -5 -51    5.37    1.56
  -1  -4 -51    6.17    1.55
   2  -4 -51    8.73    0.94
   5  -4 -51    5.97    1.29
   0  -3 -51   12.92    0.91
   3  -3 -51    9.53    0.80
  -2  -2 -51    9.21    1.02
   1  -2 -51   15.35    0.80
   4  -2 -51    9.01    1.01
  -4  -1 -51    7.36    1.46
  -1  -1 -51   14.08    0.88
   2  -1 -51   17.51    0.90
   5  -1 -51    5.63    1.05
  -3   0 -51   10.23    0.96
   0   0 -51   19.59    0.70
   3   0 -51    9.67    1.05
  -5   1 -51    7.00    0.93
  -2   1 -51   15.06    0.78
   1   1 -51   15.13    0.87
   4   1 -51    4.79    0.97
  -4   2 -51    9.06    0.96
  -1   2 -51   16.13    0.82
   2   2 -51    9.27    1.07
  -3   3 -51   10.31    0.75
   0   3 -51    9.22    0.79
  -5   4 -51    6.78    0.97
  -2   4 -51    8.93    0.98
   1   4 -51    4.10    0.91
  -4   5 -51    7.24    1.44
  -1   5 -51    6.27    1.40
   2  -5 -50    5.01    0.82
   0  -4 -50    7.14    0.98
   3  -4 -50    8.12    0.77
  -2  -3 -50    6.06    1.44
   1  -3 -50   12.57    0.89
   4  -3 -50    8.82    1.04
  -1  -2 -50   13.65    0.91
   2  -2 -50   18.74    0.92
   5  -2 -50    4.19    1.34
  -3  -1 -50    8.23    0.96
   0  -1 -50   24.94    0.84
   3  -1 -50   15.08    0.97
  -2   0 -50   17.90    0.92
   1   0 -50   25.67    0.78
   4   0 -50    8.80    1.18
  -4   1 -50    8.18    0.87
  -1   1 -50   23.95    0.77
   2   1 -50   15.10    0.93
  -3   2 -50   13.33    1.06
   0   2 -50   18.40    0.91
   3   2 -50    6.23    1.00
  -5   3 -50    6.87    1.27
  -2   3 -50   13.40    0.82
   1   3 -50    9.55    1.09
  -4   4 -50    6.03    0.82
  -1   4 -50    7.10    0.74
  -3   5 -50    4.99    0.79
   3  -5 -49   23.74    1.46
   1  -4 -49   30.77    1.29
   4  -4 -49   23.24    1.61
  -1  -3 -49   32.06    1.70
   2  -3 -49   34.59    1.31
   5  -3 -49   24.79    1.82
  -3  -2 -49   24.79    1.82
   0  -2 -49   40.58    1.37
   3  -2 -49   36.99    1.32
  -2  -1 -49   35.91    1.61
   1  -1 -49   44.77    1.42
   4  -1 -49   31.48    1.88
  -4   0 -49   26.71    1.58
  -1   0 -49   45.19    1.12
   2   0 -49   40.33    1.34
  -3   1 -49   34.59    1.21
   0   1 -49   44.40    1.08
   3   1 -49   27.57    1.84
  -5   2 -49   25.48    2.47
  -2   2 -49   37.04    1.22
   1   2 -49   34.15    1.28
  -4   3 -49   26.98    1.47
  -1   3 -49   34.83    1.60
   2   3 -49   25.54    1.92
  -3   4 -49   26.33    1.52
   0   4 -49   24.99    1.78
  -2   5 -49   22.93    1.74
   1  -5 -48    1.08    0.59
   4  -5 -48    0.80    0.52
  -1  -4 -48    0.63    0.82
   2  -4 -48    0.89    0.34
   5  -4 -48   -0.25    0.40
   0  -3 -48    0.78    0.33
   3  -3 -48    0.74    0.30
  -2  -2 -48    0.12    0.38
   1  -2 -48    1.51    0.29
   4  -2 -48    0.23    0.33
  -4  -1 -48    0.58    0.51
  -1  -1 -48    2.13    0.38
   2  -1 -48    1.67    0.27
   5  -1 -48   -0.01    0.57
  -3   0 -48    0.59    0.33
   0   0 -48    2.50    0.30
   3   0 -48    0.09    0.37
  -5   1 -48    0.16    0.44
  -2   1 -48    1.11    0.27
   1   1 -48    1.99    0.36
   4   1 -48    0.18    0.58
  -4   2 -48    0.72    0.40
  -1   2 -48    1.91    0.32
   2   2 -48    0.99    0.49
  -3   3 -48    1.03    0.31
   0   3 -48    1.26    0.36
  -5   4 -48    0.21    0.44
  -2   4 -48    0.44    0.36
   1   4 -48    0.29    0.57
  -4   5 -48    0.84    0.50
  -1   5 -48    0.03    0.53
   2  -5 -47   24.70    1.69
   0  -4 -47   33.96    1.76
   3  -4 -47   40.10    1.51
  -2  -3 -47   32.21    2.97
   1  -3 -47   66.36    1.90
   4  -3 -47   37.12    1.87
  -1  -2 -47   66.47    1.90
   2  -2 -47   85.77    2.24
   5  -2 -47   27.96    2.06
  -3  -1 -47   40.06    1.83
   0  -1 -47  111.97    2.26
   3  -1 -47   68.35    1.96
  -2   0 -47   87.92    2.18
   1   0 -47  116.27    2.17
   4   0 -47   31.89    2.16
  -4   1 -47   38.97    1.69
  -1   1 -47  116.18    2.18
   2   1 -47   63.13    1.87
  -3   2 -47   67.86    2.27
   0   2 -47   89.78    2.21
   3   2 -47   22.79    1.83
  -5   3 -47   27.30    2.53
  -2   3 -47   64.46    1.76
   1   3 -47   40.46    1.92
  -4   4 -47   34.14    1.33
  -1   4 -47   37.91    1.46
  -3   5 -47   25.84    1.75
   3  -5 -46  181.48    5.14
   1  -4 -46  253.41    5.24
   4  -4 -46  208.94    6.02
  -1  -3 -46  245.59    6.54
   2  -3 -46  356.18    6.92
   5  -3 -46  185.52    5.39
  -3  -2 -46  177.40    7.39
   0  -2 -46  408.95    7.97
   3  -2 -46  356.50    5.87
  -2  -1 -46  352.71    8.28
   1  -1 -46  503.88    9.63
   4  -1 -46  247.78    6.70
  -4   0 -46  214.83    5.68
  -1   0 -46  531.70    8.17
   2   0 -46  440.23    7.99
  -3   1 -46  352.54    6.69
   0   1 -46  532.57    8.05
   3   1 -46  247.59    6.57
  -5   2 -46  174.70    7.13
  -2   2 -46  429.39    7.89
   1   2 -46  354.81    6.83
  -4   3 -46  251.57    6.38
  -1   3 -46  351.63    8.53
   2   3 -46  180.90    5.38
  -3   4 -46  247.84    5.13
   0   4 -46  206.99    5.80
  -2   5 -46  178.09    5.26
   1  -5 -45    9.31    1.12
   4  -5 -45    9.53    1.21
  -1  -4 -45   10.95    1.85
   2  -4 -45   16.35    1.03
   5  -4 -45   10.90    1.22
   0  -3 -45   21.71    1.09
   3  -3 -45   20.99    1.02
  -2  -2 -45   20.72    1.47
   1  -2 -45   38.16    1.09
   4  -2 -45   18.63    1.08
  -4  -1 -45   11.11    1.20
  -1  -1 -45   38.03    1.25
   2  -1 -45   38.65    1.05
   5  -1 -45    8.12    1.19
  -3   0 -45   23.18    1.29
   0   0 -45   50.92    1.18
   3   0 -45   19.68    1.47
  -5   1 -45    8.67    1.03
  -2   1 -45   38.44    0.97
   1   1 -45   36.91    1.21
   4   1 -45   10.58    1.33
  -4   2 -45   20.76    1.37
  -1   2 -45   36.53    1.15
   2   2 -45   16.60    1.38
  -3   3 -45   23.92    0.97
   0   3 -45   21.63    1.10
  -5   4 -45   12.92    1.22
  -2   4 -45   14.35    1.18
   1   4 -45   11.61    1.29
  -4   5 -45   10.97    1.15
  -1   5 -45    8.94    1.15
   2  -5 -44    2.16    0.57
   0  -4 -44    2.48    0.63
   3  -4 -44    1.03    0.33
  -2  -3 -44    1.67    0.91
   1  -3 -44    1.01    0.26
   4  -3 -44    1.87    0.53
  -1  -2 -44    1.70    0.35
   2  -2 -44    0.18    0.21
   5  -2 -44    2.38    0.78
  -3  -1 -44    0.95    0.45
   0  -1 -44    0.84    0.22
   3  -1 -44    1.21    0.36
  -5   0 -44    1.75    1.00
  -2   0 -44    0.69    0.27
   1   0 -44    0.23    0.18
   4   0 -44    1.79    0.69
  -4   1 -44    1.89    0.46
  -1   1 -44    0.71    0.20
   2   1 -44    1.18    0.33
  -3   2 -44    0.68    0.33
   0   2 -44    0.89    0.28
   3   2 -44    2.56    0.73
  -5   3 -44    1.75    0.76
  -2   3 -44    1.36    0.30
   1   3 -44    0.88    0.48
  -4   4 -44    1.85    0.41
  -1   4 -44    1.42    0.50
  -3   5 -44    1.16    0.51
   0  -5 -43    0.21    1.00
   3  -5 -43   -0.09    0.32
   1  -4 -43    0.37    0.27
   4  -4 -43    0.30    0.39
  -1  -3 -43    0.23    0.41
   2  -3 -43    0.08    0.23
   5  -3 -43    0.38    0.39
  -3  -2 -43    0.43    0.59
   0  -2 -43   -0.21    0.19
   3  -2 -43   -0.09    0.19
  -2  -1 -43   -0.18    0.21
   1  -1 -43    0.37    0.23
   4  -1 -43    0.26    0.48
  -4   0 -43   -0.10    0.35
  -1   0 -43    0.77    0.20
   2   0 -43    0.54    0.27
   5   0 -43    0.36    0.95
  -3   1 -43    0.33    0.23
   0   1 -43    0.48    0.18
   3   1 -43   -0.07    0.41
  -5   2 -43    0.15    0.58
  -2   2 -43    0.34    0.21
   1   2 -43    0.14    0.26
  -4   3 -43    0.20    0.33
  -1   3 -43    0.07    0.28
   2   3 -43    0.39    0.55
  -3   4 -43   -0.39    0.22
   0   4 -43    0.77    0.47
  -2   5 -43    0.52    0.45
   1  -5 -42    0.22    0.46
   4  -5 -42    0.79    0.50
  -1  -4 -42    1.06    0.94
   2  -4 -42    0.98    0.32
   5  -4 -42    0.72    0.52
   0  -3 -42    0.91    0.30
   3  -3 -42    1.24    0.32
  -2  -2 -42    1.06    0.42
   1  -2 -42    2.05    0.30
   4  -2 -42    1.28    0.39
  -4  -1 -42    0.86    0.53
  -1  -1 -42    1.90    0.35
   2  -1 -42    2.07    0.29
   5  -1 -42    0.14    0.62
  -3   0 -42    0.68    0.34
   0   0 -42    3.47    0.24
   3   0 -42    1.27    0.49
  -5   1 -42    0.62    0.46
  -2   1 -42    2.57    0.27
   1   1 -42    2.48    0.37
   4   1 -42    0.71    0.66
  -4   2 -42    1.61    0.35
  -1   2 -42    2.21    0.31
   2   2 -42    0.50    0.42
  -3   3 -42    1.04    0.28
   0   3 -42    1.90    0.40
  -5   4 -42    1.35    0.53
  -2   4 -42    1.21    0.41
   1   4 -42    1.35    0.67
  -4   5 -42    0.77    0.48
  -1   5 -42    0.70    0.54
   2  -5 -41    4.60    0.74
   0  -4 -41    5.79    0.82
   3  -4 -41    4.08    0.53
  -2  -3 -41    3.41    1.10
   1  -3 -41    4.34    0.43
   4  -3 -41    4.37    0.59
  -1  -2 -41    4.98    0.51
   2  -2 -41    4.16    0.38
   5  -2 -41    3.26    0.82
  -3  -1 -41    4.01    0.67
   0  -1 -41    4.11    0.37
   3  -1 -41    4.79    0.53
  -5   0 -41    5.07    1.34
  -2   0 -41    4.64    0.46
   1   0 -41    4.38    0.36
   4   0 -41    5.17    0.92
  -4   1 -41    4.01    0.62
  -1   1 -41    4.51    0.34
   2   1 -41    5.51    0.55
  -3   2 -41    5.00    0.46
   0   2 -41    4.07    0.44
   3   2 -41    5.86    0.96
  -5   3 -41    2.89    0.95
  -2   3 -41    4.31    0.44
   1   3 -41    4.71    0.76
  -4   4 -41    4.13    0.53
  -1   4 -41    4.05    0.64
  -3   5 -41    4.00    0.70
   0  -5 -40    5.03    1.45
   3  -5 -40    5.99    0.71
   1  -4 -40    7.19    0.67
   4  -4 -40    7.15    0.91
  -1  -3 -40    7.63    0.91
   2  -3 -40   10.80    0.75
   5  -3 -40    5.10    0.70
  -3  -2 -40    5.49    1.20
   0  -2 -40   14.48    0.84
   3  -2 -40   11.27    0.65
  -2  -1 -40   11.68    0.96
   1  -1 -40   20.60    0.64
   4  -1 -40    5.83    0.90
  -4   0 -40    5.65    0.79
  -1   0 -40   20.49    0.65
   2   0 -40   15.26    0.63
   5   0 -40    3.66    1.28
  -3   1 -40   12.32    0.72
   0   1 -40   20.79    0.64
   3   1 -40    6.91    0.93
  -5   2 -40    4.91    0.74
  -2   2 -40   15.31    0.72
   1   2 -40   10.88    0.77
  -4   3 -40    7.37    0.82
  -1   3 -40   10.54    0.90
   2   3 -40    4.90    0.92
  -3   4 -40    8.63    0.68
   0   4 -40    6.73    0.94
  -5   5 -40    2.78    0.65
  -2   5 -40    4.21    0.77
   1  -5 -39   22.42    1.60
   4  -5 -39   19.81    1.60
  -1  -4 -39   22.75    2.58
   2  -4 -39   34.37    1.29
   5  -4 -39   18.68    1.53
   0  -3 -39   45.03    1.42
   3  -3 -39   44.59    1.24
  -2  -2 -39   39.34    1.74
   1  -2 -39   73.87    1.61
   4  -2 -39   35.75    1.38
  -4  -1 -39   22.26    2.25
  -1  -1 -39   71.92    1.85
   2  -1 -39   75.33    1.60
   5  -1 -39   20.97    1.80
  -3   0 -39   42.64    1.68
   0   0 -39  106.64    1.68
   3   0 -39   41.33    1.89
  -5   1 -39   19.51    1.47
  -2   1 -39   73.07    1.47
   1   1 -39   72.51    1.84
   4   1 -39   23.13    1.85
  -4   2 -39   36.08    1.22
  -1   2 -39   74.47    1.76
   2   2 -39   33.48    1.71
  -3   3 -39   42.39    1.32
   0   3 -39   44.79    1.46
  -5   4 -39   22.35    1.55
  -2   4 -39   32.78    1.55
   1   4 -39   20.21    1.72
  -4   5 -39   19.20    1.48
  -1   5 -39   21.84    1.69
   2  -5 -38    9.59    0.98
   0  -4 -38   11.38    1.11
   3  -4 -38   14.95    0.96
  -2  -3 -38   13.62    1.88
   1  -3 -38   25.69    0.84
   4  -3 -38   16.17    1.04
  -1  -2 -38   24.97    0.96
   2  -2 -38   33.40    0.94
   5  -2 -38   10.15    1.23
  -3  -1 -38   13.49    1.12
   0  -1 -38   47.45    1.12
   3  -1 -38   22.29    1.02
  -2   0 -38   32.57    1.06
   1   0 -38   46.50    1.06
   4   0 -38   12.74    1.32
  -4   1 -38   13.62    1.05
  -1   1 -38   46.30    1.04
   2   1 -38   25.86    1.01
  -3   2 -38   24.01    0.73
   0   2 -38   31.60    1.08
   3   2 -38   10.30    1.23
  -5   3 -38    8.87    1.35
  -2   3 -38   23.77    0.89
   1   3 -38   13.75    1.24
  -4   4 -38   11.79    0.84
  -1   4 -38   13.18    1.09
  -3   5 -38   11.11    1.12
   0   5 -38    7.51    1.68
   0  -5 -37    1.16    0.99
   3  -5 -37    0.91    0.51
   1  -4 -37    1.74    0.38
   4  -4 -37    0.32    0.36
  -1  -3 -37    1.88    0.53
   2  -3 -37    3.02    0.38
   5  -3 -37    0.60    0.40
  -3  -2 -37    1.69    0.85
   0  -2 -37    4.28    0.36
   3  -2 -37    2.42    0.33
  -2  -1 -37    2.32    0.45
   1  -1 -37    6.27    0.40
   4  -1 -37    1.81    0.62
  -4   0 -37    0.78    0.43
  -1   0 -37    5.54    0.37
   2   0 -37    4.44    0.35
   5   0 -37    0.64    0.74
  -3   1 -37    2.76    0.37
   0   1 -37    6.09    0.36
   3   1 -37    2.08    0.62
  -5   2 -37    0.87    0.41
  -2   2 -37    5.15    0.42
   1   2 -37    2.77    0.42
  -4   3 -37    2.18    0.37
  -1   3 -37    3.61    0.52
   2   3 -37    1.26    0.60
  -3   4 -37    1.96    0.36
   0   4 -37    0.65    0.43
  -5   5 -37    0.85    0.42
  -2   5 -37    1.90    0.55
   1  -5 -36  137.92    4.16
   4  -5 -36  139.91    4.42
  -1  -4 -36  148.94    6.54
   2  -4 -36  209.62    4.48
   5  -4 -36  137.62    3.55
   0  -3 -36  249.47    5.02
   3  -3 -36  247.25    4.35
  -2  -2 -36  215.12    5.54
   1  -2 -36  347.52    4.89
   4  -2 -36  216.92    4.63
  -4  -1 -36  132.97    5.81
  -1  -1 -36  342.27    6.47
   2  -1 -36  346.64    5.57
   5  -1 -36  146.03    4.64
  -3   0 -36  250.01    6.04
   0   0 -36  436.40    5.90
   3   0 -36  258.37    6.42
  -5   1 -36  138.01    4.11
  -2   1 -36  349.21    5.46
   1   1 -36  351.38    6.48
   4   1 -36  140.01    4.55
  -4   2 -36  220.73    4.36
  -1   2 -36  355.05    6.41
   2   2 -36  206.63    5.62
  -3   3 -36  251.86    4.96
   0   3 -36  253.10    5.06
  -5   4 -36  141.22    4.19
  -2   4 -36  204.42    5.52
   1   4 -36  142.51    4.54
  -4   5 -36  145.08    3.43
  -1   5 -36  136.22    4.34
   2  -5 -35    2.41    0.53
   5  -5 -35    0.61    0.51
   0  -4 -35    1.00    0.45
   3  -4 -35    1.88    0.39
  -2  -3 -35    1.79    0.87
   1  -3 -35    2.37    0.30
   4  -3 -35    1.52    0.38
  -1  -2 -35    3.59    0.41
   2  -2 -35    3.62    0.35
   5  -2 -35    1.69    0.68
  -3  -1 -35    1.56    0.44
   0  -1 -35    6.43    0.41
   3  -1 -35    2.68    0.39
  -5   0 -35    1.98    0.87
  -2   0 -35    4.24    0.42
   1   0 -35    6.67    0.40
   4   0 -35    0.71    0.51
  -4   1 -35    1.88    0.45
  -1   1 -35    6.40    0.36
   2   1 -35    3.46    0.42
  -3   2 -35    3.10    0.29
   0   2 -35    3.60    0.41
   3   2 -35    0.56    0.54
  -5   3 -35    1.75    0.48
  -2   3 -35    2.93    0.36
   1   3 -35    1.48    0.50
  -4   4 -35    0.91    0.30
  -1   4 -35    1.77    0.46
  -3   5 -35    1.99    0.55
   0   5 -35    0.51    0.58
   3  -5 -34   13.27    1.24
   1  -4 -34   17.91    0.95
   4  -4 -34   14.72    1.03
  -1  -3 -34   17.29    1.29
   2  -3 -34   26.43    0.82
   5  -3 -34   12.81    1.01
  -3  -2 -34   11.05    1.62
   0  -2 -34   36.27    0.92
   3  -2 -34   27.65    1.08
  -2  -1 -34   25.14    1.21
   1  -1 -34   47.58    1.05
   4  -1 -34   21.48    1.57
  -4   0 -34   15.37    1.20
  -1   0 -34   45.71    1.02
   2   0 -34   35.98    0.91
   5   0 -34   10.76    2.03
  -3   1 -34   26.59    0.94
   0   1 -34   47.51    1.03
   3   1 -34   18.34    1.45
  -5   2 -34   13.97    1.13
  -2   2 -34   34.29    0.82
   1   2 -34   25.87    1.03
  -4   3 -34   18.27    1.21
  -1   3 -34   27.70    1.23
   2   3 -34   16.32    1.47
  -3   4 -34   17.43    0.89
   0   4 -34   13.76    1.24
  -5   5 -34    9.29    0.85
  -2   5 -34   12.74    1.16
   3  -6 -33   22.01    2.34
   1  -5 -33   25.16    2.57
   4  -5 -33   24.49    1.75
  -1  -4 -33   21.93    2.57
   2  -4 -33   38.51    1.33
   5  -4 -33   25.19    1.37
   0  -3 -33   49.44    1.44
   3  -3 -33   47.49    1.27
   6  -3 -33   17.71    2.57
  -2  -2 -33   38.14    1.70
   1  -2 -33   72.09    1.29
   4  -2 -33   38.61    1.45
  -4  -1 -33   24.02    2.32
  -1  -1 -33   69.57    1.74
   2  -1 -33   72.77    1.52
   5  -1 -33   29.96    1.91
  -3   0 -33   46.43    1.74
   0   0 -33   95.18    1.50
   3   0 -33   52.59    2.06
  -5   1 -33   26.44    1.55
  -2   1 -33   71.84    1.40
   1   1 -33   73.88    1.79
   4   1 -33   28.75    2.02
  -4   2 -33   41.40    1.28
  -1   2 -33   70.93    1.65
   2   2 -33   41.00    1.84
  -3   3 -33   47.50    1.38
   0   3 -33   49.04    1.48
  -5   4 -33   24.93    1.51
  -2   4 -33   39.52    1.66
   1   4 -33   29.07    2.03
  -4   5 -33   27.54    1.26
  -1   5 -33   24.53    1.78
  -3   6 -33   19.30    2.28
   2  -5 -32    3.63    0.53
   5  -5 -32    1.66    0.57
   0  -4 -32    4.28    0.68
   3  -4 -32    4.69    0.47
  -2  -3 -32    2.48    0.95
   1  -3 -32    7.35    0.41
   4  -3 -32    5.77    0.63
  -1  -2 -32    7.47    0.55
   2  -2 -32    9.10    0.52
   5  -2 -32    2.53    0.74
  -3  -1 -32    4.15    0.65
   0  -1 -32   14.19    0.52
   3  -1 -32    7.97    0.63
  -5   0 -32    1.76    0.84
  -2   0 -32   10.11    0.62
   1   0 -32   13.70    0.49
   4   0 -32    2.68    0.70
  -4   1 -32    3.30    0.55
  -1   1 -32   13.52    0.44
   2   1 -32    7.12    0.58
  -3   2 -32    6.79    0.49
   0   2 -32    9.96    0.63
   3   2 -32    1.28    0.62
  -5   3 -32    2.61    0.55
  -2   3 -32    7.17    0.52
   1   3 -32    2.84    0.62
  -4   4 -32    4.04    0.62
  -1   4 -32    4.11    0.62
  -3   5 -32    1.78    0.51
   0   5 -32    2.74    0.79
   3  -5 -31   26.39    1.61
  -2  -4 -31   19.58    2.59
   1  -4 -31   38.04    1.29
   4  -4 -31   31.51    1.37
  -1  -3 -31   38.88    1.68
   2  -3 -31   57.53    1.33
   5  -3 -31   26.61    1.34
  -3  -2 -31   27.83    2.13
   0  -2 -31   75.06    1.53
   3  -2 -31   60.08    1.71
   6  -2 -31   16.98    2.28
  -2  -1 -31   56.94    1.96
   1  -1 -31  103.55    1.90
   4  -1 -31   42.17    2.00
  -4   0 -31   32.52    1.53
  -1   0 -31  106.12    1.89
   2   0 -31   74.04    1.87
   5   0 -31   25.07    3.00
  -3   1 -31   57.13    1.50
   0   1 -31  105.62    1.87
   3   1 -31   36.92    1.84
  -5   2 -31   25.40    1.43
  -2   2 -31   76.64    1.45
   1   2 -31   58.22    1.64
  -4   3 -31   38.91    1.59
  -1   3 -31   57.96    1.94
   2   3 -31   25.62    1.85
  -3   4 -31   37.83    1.27
   0   4 -31   29.78    1.71
  -5   5 -31   20.67    1.55
  -2   5 -31   25.75    1.53
   3  -6 -30    6.39    1.04
   1  -5 -30   12.66    1.83
   4  -5 -30   10.51    1.13
  -1  -4 -30   14.46    2.06
   2  -4 -30   25.72    0.87
   5  -4 -30   10.59    0.93
  -3  -3 -30    6.17    1.47
   0  -3 -30   34.71    1.13
   3  -3 -30   33.90    1.03
   6  -3 -30    9.35    1.25
  -2  -2 -30   24.61    1.31
   1  -2 -30   68.49    1.22
   4  -2 -30   25.41    1.13
  -4  -1 -30   11.45    1.58
  -1  -1 -30   70.40    1.66
   2  -1 -30   67.22    1.43
   5  -1 -30   13.41    1.38
  -3   0 -30   33.83    1.39
   0   0 -30  105.66    1.61
   3   0 -30   33.72    1.61
  -5   1 -30   11.68    1.08
  -2   1 -30   68.80    1.32
   1   1 -30   68.59    1.32
   4   1 -30   10.77    1.27
  -4   2 -30   23.52    0.93
  -1   2 -30   67.63    1.56
   2   2 -30   24.32    1.60
  -3   3 -30   33.61    1.35
   0   3 -30   33.41    1.18
  -5   4 -30   10.80    1.05
  -2   4 -30   23.61    1.22
   1   4 -30   12.94    1.37
  -4   5 -30   11.80    0.90
  -1   5 -30   12.50    1.27
  -3   6 -30    5.04    1.27
   2  -5 -29    2.09    0.44
   5  -5 -29    0.56    0.43
   0  -4 -29    2.85    0.57
   3  -4 -29    2.52    0.46
   6  -4 -29   -0.11    0.99
  -2  -3 -29    2.34    0.87
   1  -3 -29    6.77    0.39
   4  -3 -29    3.02    0.48
  -1  -2 -29    6.26    0.48
   2  -2 -29    7.90    0.47
   5  -2 -29    2.47    0.73
  -3  -1 -29    3.67    0.60
   0  -1 -29   12.98    0.46
   3  -1 -29    6.84    0.57
  -5   0 -29    0.85    0.70
  -2   0 -29    8.66    0.55
   1   0 -29   11.78    0.45
   4   0 -29    4.16    0.77
  -4   1 -29    4.04    0.59
  -1   1 -29   13.69    0.42
   2   1 -29    5.68    0.74
  -6   2 -29    0.22    0.64
  -3   2 -29    6.29    0.46
   0   2 -29    8.51    0.56
   3   2 -29    2.45    0.72
  -5   3 -29    2.67    0.55
  -2   3 -29    6.24    0.48
   1   3 -29    2.99    0.63
  -4   4 -29    2.28    0.50
  -1   4 -29    3.43    0.57
  -3   5 -29    2.46    0.55
   0   5 -29    1.61    0.65
   3  -5 -28    1.88    0.56
  -2  -4 -28    0.59    1.01
   1  -4 -28    6.41    0.49
   4  -4 -28    3.61    0.56
  -1  -3 -28    6.08    0.61
   2  -3 -28   14.79    0.63
   5  -3 -28    0.97    0.36
  -3  -2 -28    1.69    0.75
   0  -2 -28   27.01    0.73
   3  -2 -28   14.86    0.82
   6  -2 -28    1.03    0.85
  -2  -1 -28   17.23    1.00
   1  -1 -28   41.43    0.95
   4  -1 -28    7.63    0.98
  -4   0 -28    4.47    0.66
  -1   0 -28   42.55    0.91
   2   0 -28   27.53    0.95
   5   0 -28    0.37    0.96
  -3   1 -28   17.60    0.70
   0   1 -28   43.65    1.29
   3   1 -28    6.87    0.91
  -5   2 -28    2.45    0.51
  -2   2 -28   27.22    0.68
   1   2 -28   16.47    0.83
  -4   3 -28    6.43    0.69
  -1   3 -28   16.87    0.91
   2   3 -28    2.81    0.70
  -3   4 -28    6.11    0.54
   0   4 -28    3.50    0.68
  -5   5 -28    0.30    0.40
  -2   5 -28    2.95    0.58
   3  -6 -27   22.04    1.74
   4  -5 -27   29.43    1.48
  -1  -4 -27   36.15    1.98
   2  -4 -27   62.30    1.48
   5  -4 -27   33.09    1.47
  -3  -3 -27   21.82    2.51
   0  -3 -27   80.88    1.71
   3  -3 -27   78.28    2.10
   6  -3 -27   23.33    1.91
  -2  -2 -27   59.77    2.16
   1  -2 -27  136.55    2.13
   4  -2 -27   64.32    1.86
  -4  -1 -27   25.14    2.38
  -1  -1 -27  140.26    2.82
   2  -1 -27  134.23    2.44
   5  -1 -27   33.40    1.98
  -3   0 -27   79.93    2.40
   0   0 -27  197.75    3.05
   3   0 -27   82.43    2.69
  -5   1 -27   29.60    1.54
  -2   1 -27  139.85    2.33
   1   1 -27  138.31    2.34
   4   1 -27   21.62    2.61
  -4   2 -27   62.57    1.65
  -1   2 -27  142.22    2.76
   2   2 -27   64.49    2.36
  -6   3 -27   22.03    2.31
  -3   3 -27   80.38    2.37
   0   3 -27   79.45    2.02
   3   3 -27   19.23    2.56
  -5   4 -27   32.74    1.59
  -2   4 -27   61.91    2.13
   1   4 -27   33.05    1.98
  -4   5 -27   33.37    1.31
  -1   5 -27   33.59    1.92
  -3   6 -27   28.25    2.62
   2  -5 -26  167.89    3.75
   5  -5 -26  112.24    3.24
   0  -4 -26  198.06    4.19
   3  -4 -26  233.79    4.83
   6  -4 -26   95.47    5.57
  -2  -3 -26  158.46    4.79
   1  -3 -26  332.51    4.80
   4  -3 -26  233.06    4.93
  -1  -2 -26  334.65    5.49
   2  -2 -26  398.50    6.31
   5  -2 -26  162.00    4.95
  -3  -1 -26  230.56    5.79
   0  -1 -26  488.01    7.60
   3  -1 -26  343.62    6.43
  -5   0 -26  117.45    5.29
  -2   0 -26  400.54    7.21
   1   0 -26  509.76    8.57
   4   0 -26  197.98    5.44
  -4   1 -26  227.13    5.61
  -1   1 -26  511.17    7.51
   2   1 -26  337.47    7.88
  -6   2 -26  103.76    3.50
  -3   2 -26  336.95    6.16
   0   2 -26  414.42    7.17
   3   2 -26  161.42    4.90
  -5   3 -26  164.06    4.52
  -2   3 -26  333.20    6.25
   1   3 -26  227.62    5.96
  -4   4 -26  187.25    5.03
  -1   4 -26  223.38    5.80
  -3   5 -26  161.95    4.68
   0   5 -26  115.64    4.01
   0  -5 -25    6.65    1.35
   3  -5 -25   14.21    1.00
  -2  -4 -25    8.04    1.71
   1  -4 -25   20.92    0.63
   4  -4 -25   14.62    1.01
  -1  -3 -25   21.03    0.98
   2  -3 -25   34.02    0.94
   5  -3 -25   12.62    0.96
  -3  -2 -25   13.59    1.65
   0  -2 -25   47.60    1.05
   3  -2 -25   33.72    1.18
  -2  -1 -25   34.23    1.38
   1  -1 -25   66.50    1.30
   4  -1 -25   19.76    1.49
  -4   0 -25   14.70    1.12
  -1   0 -25   67.97    1.26
   2   0 -25   49.32    1.32
   5   0 -25    7.23    1.70
  -3   1 -25   34.43    1.03
   0   1 -25   67.78    1.48
   3   1 -25   19.01    1.44
  -5   2 -25   11.58    1.02
  -2   2 -25   47.42    1.12
   1   2 -25   36.08    1.16
  -4   3 -25   21.56    1.10
  -1   3 -25   35.52    1.00
   2   3 -25   12.86    1.31
  -3   4 -25   21.96    1.08
   0   4 -25   14.46    1.25
  -5   5 -25    8.87    0.99
  -2   5 -25   13.28    1.14
   3  -6 -24    0.43    0.53
   4  -5 -24    1.11    0.43
  -1  -4 -24    1.34    0.55
   2  -4 -24    1.43    0.26
   5  -4 -24    0.89    0.37
  -3  -3 -24    0.94    0.92
   0  -3 -24    2.40    0.26
   3  -3 -24    1.58    0.34
   6  -3 -24    0.46    0.61
  -2  -2 -24    1.20    0.34
   1  -2 -24    3.28    0.24
   4  -2 -24    1.69    0.35
  -4  -1 -24    0.69    0.60
  -1  -1 -24    3.53    0.33
   2  -1 -24    3.97    0.30
   5  -1 -24    0.83    0.56
  -3   0 -24    2.54    0.44
   0   0 -24    4.74    0.21
   3   0 -24    1.44    0.48
  -5   1 -24    1.71    0.50
  -2   1 -24    3.65    0.30
   1   1 -24    3.80    0.38
   4   1 -24    0.48    0.80
  -4   2 -24    1.57    0.30
  -1   2 -24    3.43    0.29
   2   2 -24    1.72    0.53
  -6   3 -24    1.27    0.77
  -3   3 -24    2.00    0.38
   0   3 -24    1.83    0.33
   3   3 -24    2.19    1.12
  -5   4 -24    1.55    0.49
  -2   4 -24    2.43    0.46
   1   4 -24    1.30    0.62
  -4   5 -24    1.34    0.47
  -1   5 -24    1.17    0.55
  -3   6 -24    0.51    0.50
   4  -6 -23   45.61    2.31
   2  -5 -23   78.88    2.78
   5  -5 -23   56.85    2.08
   0  -4 -23   95.08    3.08
   3  -4 -23  112.12    2.73
   6  -4 -23   50.92    2.66
  -2  -3 -23   78.24    2.85
   1  -3 -23  157.45    2.26
   4  -3 -23  109.55    2.75
  -4  -2 -23   47.44    3.20
  -1  -2 -23  161.27    2.80
   2  -2 -23  189.36    3.26
   5  -2 -23   76.83    2.95
  -3  -1 -23  109.11    3.22
   0  -1 -23  241.54    3.86
   3  -1 -23  159.41    3.35
  -5   0 -23   63.07    3.45
  -2   0 -23  191.07    3.68
   1   0 -23  245.44    3.83
   4   0 -23   98.09    3.22
  -4   1 -23  106.85    3.08
  -1   1 -23  245.97    3.78
   2   1 -23  154.58    4.18
  -6   2 -23   49.40    2.19
  -3   2 -23  155.52    3.13
   0   2 -23  196.89    3.59
   3   2 -23   76.31    2.92
  -5   3 -23   80.63    2.10
  -2   3 -23  157.42    3.18
   1   3 -23  104.87    3.36
  -4   4 -23   97.03    2.92
  -1   4 -23  112.01    3.20
  -3   5 -23   76.73    2.73
   0   5 -23   54.75    2.57
  -2   6 -23   48.73    3.35
   0  -5 -22    0.12    0.61
   3  -5 -22    1.49    0.43
  -2  -4 -22    0.24    0.96
   1  -4 -22    2.94    0.28
   4  -4 -22    1.26    0.38
  -1  -3 -22    3.17    0.43
   2  -3 -22    7.64    0.47
   5  -3 -22    1.36    0.40
  -3  -2 -22    1.29    0.63
   0  -2 -22   11.90    0.40
   3  -2 -22    7.85    0.61
   6  -2 -22   -0.11    1.05
  -2  -1 -22    8.00    0.71
   1  -1 -22   19.97    0.65
   4  -1 -22    2.53    0.61
  -4   0 -22    2.12    0.49
  -1   0 -22   19.76    0.49
   2   0 -22   12.51    0.60
   5   0 -22   -1.30    0.74
  -3   1 -22    8.53    0.52
   0   1 -22   21.20    0.70
   3   1 -22    2.41    0.60
  -5   2 -22    1.45    0.44
  -2   2 -22   12.08    0.45
   1   2 -22    8.06    0.60
  -4   3 -22    3.52    0.40
  -1   3 -22    8.21    0.45
   2   3 -22    1.48    0.59
  -3   4 -22    2.97    0.47
   0   4 -22    2.08    0.51
  -5   5 -22    0.72    0.49
  -2   5 -22    1.64    0.48
  -4   6 -22   -0.01    0.58
   3  -6 -21   19.03    2.49
   1  -5 -21   28.84    2.09
   4  -5 -21   33.76    1.49
  -1  -4 -21   30.83    1.79
   2  -4 -21   58.52    1.42
   5  -4 -21   30.89    1.43
  -3  -3 -21   23.04    2.49
   0  -3 -21   76.14    1.42
   3  -3 -21   75.09    2.01
   6  -3 -21   22.88    1.85
  -2  -2 -21   62.26    1.74
   1  -2 -21  126.72    1.98
   4  -2 -21   61.76    1.77
  -4  -1 -21   31.54    2.29
  -1  -1 -21  128.04    2.57
   2  -1 -21  128.51    2.26
   5  -1 -21   30.04    1.81
  -3   0 -21   74.72    2.24
   0   0 -21  185.01    2.56
   3   0 -21   76.38    2.51
  -5   1 -21   31.60    1.58
  -2   1 -21  130.86    2.52
   1   1 -21  129.74    2.67
   4   1 -21   30.58    2.99
  -4   2 -21   60.87    1.59
  -1   2 -21  128.44    2.52
   2   2 -21   56.66    2.21
  -6   3 -21   22.35    1.56
  -3   3 -21   75.00    2.22
   0   3 -21   77.09    1.91
   3   3 -21   20.93    2.61
  -5   4 -21   31.87    1.53
  -2   4 -21   60.17    1.58
   1   4 -21   34.99    2.02
  -4   5 -21   29.93    1.47
  -1   5 -21   32.22    1.87
  -3   6 -21   22.96    1.73
   4  -6 -20   24.95    2.82
   2  -5 -20   41.74    1.49
   5  -5 -20   31.69    1.61
   0  -4 -20   46.11    1.91
   3  -4 -20   54.82    1.70
   6  -4 -20   25.04    1.97
  -2  -3 -20   40.54    1.87
   1  -3 -20   80.25    1.31
   4  -3 -20   51.89    1.67
  -4  -2 -20   27.15    2.63
  -1  -2 -20   82.00    1.59
   2  -2 -20   97.01    1.87
   5  -2 -20   37.56    2.02
  -3  -1 -20   54.55    1.99
   0  -1 -20  133.56    2.20
   3  -1 -20   80.07    1.96
  -5   0 -20   28.77    2.25
  -2   0 -20   99.62    2.07
   1   0 -20  137.31    2.47
   4   0 -20   44.66    1.98
  -4   1 -20   56.10    1.91
  -1   1 -20  133.21    2.13
   2   1 -20   80.39    2.54
  -6   2 -20   25.71    1.74
  -3   2 -20   79.72    1.80
   0   2 -20  100.83    1.97
   3   2 -20   36.68    2.73
  -5   3 -20   43.07    1.39
  -2   3 -20   78.67    2.20
   1   3 -20   57.37    2.19
  -4   4 -20   43.92    1.73
  -1   4 -20   55.74    1.95
   2   4 -20   25.02    2.92
  -3   5 -20   42.14    1.82
   0   5 -20   29.69    2.07
  -2   6 -20   24.96    2.65
   0  -5 -19   33.15    2.50
   3  -5 -19   57.54    1.89
  -2  -4 -19   27.27    2.75
   1  -4 -19   95.50    1.59
   4  -4 -19   67.47    2.12
  -1  -3 -19   89.09    2.89
   2  -3 -19  153.56    2.76
   5  -3 -19   54.73    1.82
  -3  -2 -19   58.24    2.26
   0  -2 -19  203.67    2.72
   3  -2 -19  153.15    3.31
   6  -2 -19   29.34    3.36
  -2  -1 -19  151.46    3.23
   1  -1 -19  268.23    4.25
   4  -1 -19   93.22    3.06
  -4   0 -19   73.25    2.40
  -1   0 -19  280.82    4.23
   2   0 -19  210.90    3.98
   5   0 -19   37.73    3.59
  -3   1 -19  159.13    3.09
   0   1 -19  286.76    4.93
   3   1 -19   93.92    3.03
  -5   2 -19   57.01    2.12
  -2   2 -19  205.56    3.78
   1   2 -19  157.62    3.24
   4   2 -19   22.67    2.83
  -4   3 -19   94.59    2.18
  -1   3 -19  152.21    3.05
   2   3 -19   55.24    2.41
  -6   4 -19   32.11    2.41
  -3   4 -19   94.91    2.72
   0   4 -19   72.88    2.62
  -5   5 -19   34.84    1.72
  -2   5 -19   61.05    2.25
  -4   6 -19   30.64    1.86
   3  -6 -18   -0.44    0.64
   1  -5 -18    0.45    0.40
   4  -5 -18    0.16    0.32
  -1  -4 -18    1.09    0.50
   2  -4 -18    0.11    0.18
   5  -4 -18    0.34    0.32
  -3  -3 -18    1.26    0.61
   0  -3 -18    0.05    0.13
   3  -3 -18    0.02    0.19
   6  -3 -18    0.26    0.58
  -2  -2 -18    0.79    0.26
   1  -2 -18    0.26    0.12
   4  -2 -18    0.02    0.20
  -4  -1 -18    1.85    0.71
  -1  -1 -18    0.11    0.12
   2  -1 -18    0.07    0.17
   5  -1 -18    2.15    0.63
  -3   0 -18   -0.12    0.22
   0   0 -18    1.56    0.14
   3   0 -18    0.29    0.34
  -5   1 -18    0.58    0.38
  -2   1 -18    0.07    0.13
   1   1 -18    0.03    0.19
   4   1 -18    1.79    0.92
  -4   2 -18    0.30    0.21
  -1   2 -18    0.12    0.13
   2   2 -18    0.60    0.41
  -6   3 -18    1.28    0.54
  -3   3 -18   -0.13    0.15
   0   3 -18    0.19    0.20
   3   3 -18    2.67    1.15
  -5   4 -18    0.67    0.39
  -2   4 -18    0.01    0.17
   1   4 -18    0.61    0.58
  -4   5 -18    0.25    0.33
  -1   5 -18    0.65    0.45
  -3   6 -18    0.96    0.54
   4  -6 -17    5.77    1.07
   2  -5 -17    7.76    0.74
   5  -5 -17    3.89    0.64
   0  -4 -17    9.38    0.93
   3  -4 -17    8.74    0.73
   6  -4 -17    5.58    1.00
  -2  -3 -17    7.46    0.88
   1  -3 -17   12.94    0.43
   4  -3 -17    9.43    0.73
  -4  -2 -17    5.55    1.25
  -1  -2 -17   12.35    0.64
   2  -2 -17   14.00    0.62
   5  -2 -17    7.44    0.96
  -3  -1 -17   11.12    0.77
   0  -1 -17   20.51    0.42
   3  -1 -17   14.80    0.69
  -5   0 -17    6.33    1.24
  -2   0 -17   13.57    0.52
   1   0 -17   20.41    0.50
   4   0 -17    9.69    1.01
  -4   1 -17   11.34    0.88
  -1   1 -17   20.01    0.45
   2   1 -17   13.18    1.01
  -6   2 -17    4.51    0.78
  -3   2 -17   13.36    0.57
   0   2 -17   14.69    0.45
   3   2 -17    8.14    1.44
  -5   3 -17    8.22    0.63
  -2   3 -17   12.26    0.69
   1   3 -17   10.55    1.04
  -4   4 -17    7.14    0.75
  -1   4 -17    9.79    0.84
   2   4 -17    5.80    1.49
  -3   5 -17    7.35    0.84
   0   5 -17    6.89    1.03
  -2   6 -17    5.51    1.35
   0  -5 -16   47.15    2.99
   3  -5 -16   68.43    2.08
  -2  -4 -16   37.98    2.83
   1  -4 -16  100.43    1.66
   4  -4 -16   77.10    2.27
  -1  -3 -16   97.42    3.04
   2  -3 -16  158.50    2.81
   5  -3 -16   62.67    1.96
  -3  -2 -16   59.31    2.36
   0  -2 -16  203.61    2.69
   3  -2 -16  155.95    3.33
   6  -2 -16   34.36    3.63
  -2  -1 -16  155.77    3.25
   1  -1 -16  264.35    4.09
   4  -1 -16  100.75    3.18
  -4   0 -16   80.77    2.55
  -1   0 -16  262.12    5.81
   2   0 -16  205.77    4.79
   5   0 -16   47.73    3.50
  -3   1 -16  158.26    3.12
   0   1 -16  271.78    4.72
   3   1 -16  101.37    3.14
  -5   2 -16   66.18    2.30
  -2   2 -16  205.89    3.74
   1   2 -16  160.71    3.27
   4   2 -16   41.16    3.68
  -4   3 -16  104.32    2.32
  -1   3 -16  158.45    3.10
   2   3 -16   60.24    3.53
  -6   4 -16   33.12    2.52
  -3   4 -16  101.19    2.85
   0   4 -16   81.76    2.80
  -5   5 -16   47.22    2.01
  -2   5 -16   65.81    2.38
  -4   6 -16   38.63    1.94
   3  -6 -15    7.80    1.18
   1  -5 -15    9.47    0.94
   4  -5 -15    8.94    0.85
  -1  -4 -15   10.47    1.09
   2  -4 -15   14.21    0.66
   5  -4 -15    8.39    0.80
  -3  -3 -15    7.56    1.03
   0  -3 -15   19.47    0.56
   3  -3 -15   16.45    0.81
   6  -3 -15    7.73    1.09
  -2  -2 -15   15.45    0.85
   1  -2 -15   31.02    0.59
   4  -2 -15   14.99    0.81
  -4  -1 -15    9.45    1.39
  -1  -1 -15   32.45    0.72
   2  -1 -15   28.26    0.88
   5  -1 -15    8.28    1.67
  -3   0 -15   18.92    0.93
   0   0 -15   49.26    0.96
   3   0 -15   17.81    1.12
  -5   1 -15    8.65    0.91
  -2   1 -15   31.25    0.81
   1   1 -15   31.15    0.90
   4   1 -15    5.53    1.39
  -4   2 -15   15.00    0.74
  -1   2 -15   32.08    0.80
   2   2 -15   15.75    1.20
  -6   3 -15    7.14    0.93
  -3   3 -15   19.19    0.69
   0   3 -15   18.35    0.79
   3   3 -15    5.48    1.46
  -5   4 -15    8.18    0.87
  -2   4 -15   15.60    0.70
   1   4 -15   10.70    1.21
  -4   5 -15    8.76    0.89
  -1   5 -15   10.68    1.15
  -3   6 -15    6.75    0.93
   4  -6 -14    1.16    0.68
   2  -5 -14    0.44    0.33
   5  -5 -14    0.91    0.39
   0  -4 -14    0.50    0.37
   3  -4 -14    0.65    0.29
   6  -4 -14    0.97    0.59
  -2  -3 -14    0.67    0.40
   1  -3 -14    0.39    0.12
   4  -3 -14    0.37    0.25
  -4  -2 -14    0.52    0.69
  -1  -2 -14    0.94    0.23
   2  -2 -14    0.72    0.16
   5  -2 -14   -0.14    0.40
  -3  -1 -14    1.14    0.32
   0  -1 -14    0.98    0.10
   3  -1 -14    1.01    0.23
  -5   0 -14    0.23    0.55
  -2   0 -14    1.16    0.18
   1   0 -14    0.83    0.12
   4   0 -14    0.40    0.43
  -4   1 -14    0.93    0.32
  -1   1 -14    0.74    0.12
   2   1 -14    0.25    0.32
  -6   2 -14   -0.06    0.43
  -3   2 -14    0.48    0.18
   0   2 -14    0.67    0.12
   3   2 -14    0.37    0.66
  -5   3 -14    0.50    0.28
  -2   3 -14    0.53    0.22
   1   3 -14    0.73    0.41
  -4   4 -14    0.26    0.26
  -1   4 -14    0.69    0.31
   2   4 -14    1.13    0.97
  -3   5 -14    0.20    0.31
   0   5 -14    0.48    0.57
  -2   6 -14    0.28    0.75
   2  -6 -13   67.17    3.86
   0  -5 -13   73.10    3.93
   3  -5 -13  102.48    2.75
  -2  -4 -13   58.35    3.69
   1  -4 -13  147.66    2.18
   4  -4 -13  112.42    2.96
  -1  -3 -13  139.84    3.92
   2  -3 -13  216.93    3.22
   5  -3 -13   99.26    2.63
  -3  -2 -13   96.16    3.19
   0  -2 -13  261.13    3.39
   3  -2 -13  215.00    4.29
   6  -2 -13   65.82    4.32
  -2  -1 -13  212.70    4.19
   1  -1 -13  341.40    7.28
   4  -1 -13  140.71    4.03
  -4   0 -13  119.10    3.39
  -1   0 -13  342.47    5.95
   2   0 -13  269.34    4.88
   5   0 -13   76.94    4.51
  -3   1 -13  216.09    4.06
   0   1 -13  344.92    5.96
   3   1 -13  140.63    3.95
  -5   2 -13  104.54    3.10
  -2   2 -13  264.95    4.74
   1   2 -13  216.10    4.18
   4   2 -13   63.85    4.06
  -4   3 -13  142.65    3.01
  -1   3 -13  213.63    4.06
   2   3 -13  111.51    4.87
  -6   4 -13   61.53    3.50
  -3   4 -13  144.42    3.74
   0   4 -13  123.29    3.67
  -5   5 -13   76.45    2.70
  -2   5 -13   94.61    3.13
  -4   6 -13   59.64    2.53
  -1   6 -13   62.39    3.95
   3  -6 -12   -0.12    0.57
   1  -5 -12   -0.33    0.34
   4  -5 -12    0.69    0.37
  -1  -4 -12    0.13    0.49
   2  -4 -12    0.09    0.21
   5  -4 -12   -0.02    0.30
  -3  -3 -12    0.02    0.45
   0  -3 -12    0.35    0.15
   3  -3 -12    0.32    0.19
   6  -3 -12   -0.14    0.44
  -2  -2 -12    0.54    0.30
   1  -2 -12    0.13    0.08
   4  -2 -12    0.45    0.23
  -4  -1 -12    0.68    0.57
  -1  -1 -12    0.02    0.08
   2  -1 -12    0.18    0.14
   5  -1 -12    0.77    0.81
  -3   0 -12    0.29    0.26
   0   0 -12    0.13    0.09
   3   0 -12    0.64    0.36
  -5   1 -12    0.11    0.31
  -2   1 -12    0.08    0.10
   1   1 -12   -0.22    0.12
   4   1 -12    1.07    0.85
  -4   2 -12    0.21    0.19
  -1   2 -12    0.08    0.07
   2   2 -12    0.33    0.35
  -6   3 -12   -0.16    0.38
  -3   3 -12    0.00    0.15
   0   3 -12    0.19    0.18
   3   3 -12    0.59    0.91
  -5   4 -12    0.29    0.32
  -2   4 -12    0.46    0.24
   1   4 -12   -0.42    0.59
  -4   5 -12    0.09    0.29
  -1   5 -12    0.40    0.47
  -3   6 -12    0.33    0.47
   4  -6 -11   -0.04    0.58
   2  -5 -11   -0.13    0.38
   5  -5 -11    0.04    0.49
   0  -4 -11    0.30    0.33
   3  -4 -11    0.35    0.25
   6  -4 -11    0.76    0.50
  -2  -3 -11    0.12    0.34
   1  -3 -11    1.83    0.18
   4  -3 -11    0.03    0.20
  -4  -2 -11   -0.19    0.43
  -1  -2 -11    1.16    0.23
   2  -2 -11    4.08    0.36
   5  -2 -11   -0.42    0.32
  -3  -1 -11    0.19    0.23
   0  -1 -11    9.10    0.22
   3  -1 -11    1.46    0.26
  -5   0 -11   -0.11    0.56
  -2   0 -11    3.71    0.24
   1   0 -11    8.02    0.37
   4   0 -11    0.16    0.36
  -4   1 -11    0.43    0.27
  -1   1 -11    9.12    0.29
   2   1 -11    2.32    0.45
  -6   2 -11    0.43    0.46
  -3   2 -11    1.93    0.25
   0   2 -11    3.62    0.21
   3   2 -11    0.42    0.66
  -5   3 -11    0.12    0.25
  -2   3 -11    1.46    0.20
   1   3 -11    0.04    0.32
  -4   4 -11    0.00    0.25
  -1   4 -11    0.07    0.24
   2   4 -11    0.03    0.76
  -3   5 -11   -0.16    0.25
   0   5 -11   -0.53    0.45
  -2   6 -11   -0.06    0.70
   2  -6 -10  112.61    5.26
   0  -5 -10  123.21    5.48
   3  -5 -10  157.28    3.75
  -2  -4 -10  103.68    5.16
   1  -4 -10  224.27    3.12
   4  -4 -10  178.32    4.07
  -1  -3 -10  218.55    5.60
   2  -3 -10  308.64    4.98
   5  -3 -10  157.32    3.62
  -3  -2 -10  158.84    4.45
   0  -2 -10  360.86    4.58
   3  -2 -10  313.29    5.83
   6  -2 -10   96.91    5.46
  -2  -1 -10  299.26    5.72
   1  -1 -10  450.70    6.61
   4  -1 -10  213.58    5.60
  -4   0 -10  169.34    4.60
  -1   0 -10  445.43    7.62
   2   0 -10  373.56    6.52
   5   0 -10  116.49    5.88
  -3   1 -10  304.15    5.58
   0   1 -10  437.46    7.65
   3   1 -10  219.78    5.54
  -5   2 -10  159.24    4.24
  -2   2 -10  361.21    6.41
   1   2 -10  296.95    5.67
   4   2 -10  100.51    5.28
  -4   3 -10  223.34    4.36
  -1   3 -10  308.11    4.78
   2   3 -10  152.74    6.27
  -6   4 -10  101.54    4.79
  -3   4 -10  227.02    5.41
   0   4 -10  184.93    4.94
  -5   5 -10  120.21    3.69
  -2   5 -10  154.77    4.39
  -4   6 -10  100.56    4.96
   3  -6  -9    2.12    0.74
   1  -5  -9    1.90    0.51
   4  -5  -9    2.25    0.49
  -1  -4  -9    2.98    0.84
   2  -4  -9    2.42    0.39
   5  -4  -9    3.33    0.53
  -3  -3  -9    1.51    0.61
   0  -3  -9    2.39    0.23
   3  -3  -9    2.20    0.35
   6  -3  -9    1.32    1.10
  -2  -2  -9    2.92    0.48
   1  -2  -9    1.86    0.15
   4  -2  -9    2.19    0.36
  -4  -1  -9    2.42    0.58
  -1  -1  -9    1.93    0.14
   2  -1  -9    1.36    0.21
   5  -1  -9    1.74    0.91
  -3   0  -9    2.16    0.30
   0   0  -9    2.61    0.14
   3   0  -9    2.42    0.48
  -5   1  -9    3.18    0.59
  -2   1  -9    2.13    0.20
   1   1  -9    2.27    0.24
   4   1  -9    1.59    0.92
  -4   2  -9    2.31    0.32
  -1   2  -9    1.77    0.15
   2   2  -9    2.01    0.52
  -6   3  -9    2.30    0.60
  -3   3  -9    2.36    0.28
   0   3  -9    2.29    0.31
   3   3  -9    2.35    1.06
  -5   4  -9    2.70    0.54
  -2   4  -9    2.31    0.38
   1   4  -9    2.70    0.97
  -4   5  -9    1.80    0.47
  -1   5  -9    1.65    0.60
  -3   6  -9    2.95    0.70
   4  -6  -8   14.60    1.53
   2  -5  -8   21.03    1.55
   5  -5  -8   15.06    1.49
   0  -4  -8   30.64    1.42
   3  -4  -8   33.38    1.26
   6  -4  -8   13.39    1.38
  -2  -3  -8   22.01    1.36
   1  -3  -8   60.28    1.03
   4  -3  -8   34.70    1.27
  -4  -2  -8   15.28    1.38
  -1  -2  -8   62.50    1.45
   2  -2  -8   86.33    2.39
   5  -2  -8   24.78    1.48
  -3  -1  -8   33.82    1.43
   0  -1  -8  125.22    1.63
   3  -1  -8   59.63    1.50
  -5   0  -8   15.29    1.83
  -2   0  -8   85.11    1.52
   1   0  -8  126.77    2.83
   4   0  -8   27.47    2.52
  -4   1  -8   36.15    1.42
  -1   1  -8  127.96    2.28
   2   1  -8   59.27    1.93
  -6   2  -8   14.86    1.29
  -3   2  -8   61.79    1.42
   0   2  -8   85.95    1.69
   3   2  -8   24.95    2.38
  -5   3  -8   22.76    0.97
  -2   3  -8   61.41    1.36
   1   3  -8   33.39    1.55
  -4   4  -8   26.96    1.26
  -1   4  -8   36.82    1.43
   2   4  -8   14.05    2.11
  -3   5  -8   23.05    1.18
   0   5  -8   12.37    1.86
  -2   6  -8   16.95    2.19
   2  -6  -7   -0.17    0.78
   0  -5  -7    1.27    0.72
   3  -5  -7    1.71    0.62
  -2  -4  -7    0.54    0.67
   1  -4  -7    2.63    0.28
   4  -4  -7    0.73    0.32
  -1  -3  -7    2.08    0.46
   2  -3  -7    3.96    0.30
   5  -3  -7    1.62    0.54
  -3  -2  -7    0.65    0.39
   0  -2  -7    5.00    0.23
   3  -2  -7    3.68    0.39
   6  -2  -7    1.65    1.05
  -2  -1  -7    3.59    0.36
   1  -1  -7    9.02    0.36
   4  -1  -7    1.82    0.46
  -4   0  -7    1.99    0.45
  -1   0  -7    9.22    0.27
   2   0  -7    4.97    0.29
   5   0  -7    1.81    1.05
  -3   1  -7    3.27    0.31
   0   1  -7    8.80    0.29
   3   1  -7    1.38    0.42
  -5   2  -7    0.40    0.35
  -2   2  -7    4.94    0.31
   1   2  -7    3.83    0.51
   4   2  -7    1.01    0.93
  -4   3  -7    2.62    0.34
  -1   3  -7    4.02    0.29
   2   3  -7    0.38    0.61
  -6   4  -7    0.27    0.59
  -3   4  -7    2.16    0.40
   0   4  -7    1.47    0.49
  -5   5  -7    0.73    0.42
  -2   5  -7    0.61    0.36
  -4   6  -7    0.40    0.61
   3  -6  -6    0.88    0.64
   1  -5  -6   -0.26    0.37
   4  -5  -6   -0.09    0.42
  -1  -4  -6    0.02    0.47
   2  -4  -6    0.12    0.16
   5  -4  -6   -0.28    0.36
  -3  -3  -6   -0.09    0.43
   0  -3  -6    0.18    0.15
   3  -3  -6    0.59    0.23
   6  -3  -6    1.10    0.95
  -2  -2  -6    0.57    0.31
   1  -2  -6    1.03    0.11
   4  -2  -6    0.02    0.21
  -4  -1  -6    0.42    0.40
  -1  -1  -6    0.58    0.15
   2  -1  -6    1.05    0.19
   5  -1  -6    0.33    0.70
  -3   0  -6    0.15    0.18
   0   0  -6    1.74    0.10
   3   0  -6    0.21    0.29
  -5   1  -6    0.32    0.36
  -2   1  -6    0.92    0.15
   1   1  -6    0.94    0.17
   4   1  -6    0.14    0.60
  -4   2  -6   -0.06    0.17
  -1   2  -6    1.77    0.14
   2   2  -6   -0.02    0.33
  -6   3  -6    0.34    0.42
  -3   3  -6    0.26    0.16
   0   3  -6    0.28    0.20
   3   3  -6    0.42    0.78
  -5   4  -6   -0.48    0.27
  -2   4  -6    0.00    0.19
   1   4  -6    1.35    0.74
  -4   5  -6    0.44    0.34
  -1   5  -6    0.29    0.42
  -3   6  -6   -0.08    0.41
   4  -6  -5   10.63    1.36
   2  -5  -5   14.51    1.30
   5  -5  -5   10.70    1.24
   0  -4  -5   17.76    1.46
   3  -4  -5   19.59    1.00
   6  -4  -5    9.33    1.16
  -2  -3  -5   14.18    1.17
   1  -3  -5   29.95    0.64
   4  -3  -5   19.62    0.92
  -4  -2  -5    8.32    1.03
  -1  -2  -5   30.56    0.88
   2  -2  -5   42.11    1.12
   5  -2  -5   12.49    1.13
  -3  -1  -5   20.46    1.05
   0  -1  -5   60.99    0.85
   3  -1  -5   32.41    0.79
  -5   0  -5   11.64    1.60
  -2   0  -5   42.13    0.84
   1   0  -5   60.63    1.23
   4   0  -5   15.88    1.90
  -4   1  -5   21.35    1.05
  -1   1  -5   59.98    1.44
   2   1  -5   31.05    1.24
  -6   2  -5   14.11    1.26
  -3   2  -5   30.38    1.08
   0   2  -5   41.41    0.93
   3   2  -5   12.33    1.71
  -5   3  -5   16.99    0.89
  -2   3  -5   30.75    0.84
   1   3  -5   23.52    1.31
  -4   4  -5   17.60    1.05
  -1   4  -5   22.55    1.07
   2   4  -5   13.45    2.05
  -3   5  -5   15.77    1.09
   0   5  -5   11.17    1.75
  -2   6  -5   10.79    1.79
   2  -6  -4    1.93    1.09
   0  -5  -4    2.36    0.83
   3  -5  -4    3.72    0.74
  -2  -4  -4    1.60    0.83
   1  -4  -4    5.19    0.51
   4  -4  -4    3.45    0.50
  -1  -3  -4    5.40    0.63
   2  -3  -4    8.13    0.40
   5  -3  -4    3.41    0.65
  -3  -2  -4    1.72    0.50
   0  -2  -4   11.22    0.30
   3  -2  -4    8.14    0.54
   6  -2  -4    1.52    1.10
  -2  -1  -4    7.70    0.50
   1  -1  -4   16.85    0.57
   4  -1  -4    4.91    0.66
  -4   0  -4    4.08    0.59
  -1   0  -4   17.35    0.37
   2   0  -4   10.76    0.40
   5   0  -4    2.10    1.03
  -3   1  -4    7.73    0.42
   0   1  -4   16.88    0.71
   3   1  -4    3.65    0.93
  -5   2  -4    2.63    0.53
  -2   2  -4    9.89    0.40
   1   2  -4    7.63    0.67
   4   2  -4    2.44    1.13
  -4   3  -4    5.05    0.46
  -1   3  -4    7.88    0.40
   2   3  -4    4.17    1.01
  -6   4  -4    1.81    0.74
  -3   4  -4    4.12    0.52
   0   4  -4    4.13    0.67
  -5   5  -4    3.26    0.61
  -2   5  -4    3.11    0.58
  -4   6  -4    2.89    0.60
   3  -6  -3    4.67    0.99
   1  -5  -3    5.99    0.82
   4  -5  -3    4.88    0.83
  -1  -4  -3    6.36    1.17
   2  -4  -3    6.18    0.45
   5  -4  -3    5.32    0.81
  -3  -3  -3    5.80    0.90
   0  -3  -3    6.95    0.41
   3  -3  -3    5.79    0.52
   6  -3  -3    5.66    1.47
  -2  -2  -3    7.84    0.72
   1  -2  -3    5.64    0.23
   4  -2  -3    6.14    0.53
  -4  -1  -3    5.35    0.75
  -1  -1  -3    6.14    0.36
   2  -1  -3    6.88    0.27
   5  -1  -3    6.15    1.37
  -3   0  -3    6.34    0.47
   3   0  -3    6.65    0.65
  -5   1  -3    7.60    0.84
  -2   1  -3    5.56    0.30
   1   1  -3    6.56    0.30
   4   1  -3    5.49    1.23
  -4   2  -3    6.14    0.49
  -1   2  -3    6.43    0.29
   2   2  -3    7.43    0.79
  -6   3  -3    5.97    0.85
  -3   3  -3    5.70    0.43
   0   3  -3    6.79    0.49
   3   3  -3    7.28    1.52
  -5   4  -3    5.51    0.57
  -2   4  -3    6.50    0.59
   1   4  -3    6.49    1.28
  -4   5  -3    6.74    0.77
  -1   5  -3    6.27    0.88
  -3   6  -3    6.00    0.89
   4  -6  -2    0.21    0.55
   2  -5  -2   -0.28    0.36
   5  -5  -2    0.66    0.47
   0  -4  -2   -0.39    0.34
   3  -4  -2    0.39    0.27
   6  -4  -2    0.94    0.49
  -2  -3  -2   -0.37    0.28
   1  -3  -2    1.48    0.16
   4  -3  -2   -0.01    0.21
  -4  -2  -2    0.00    0.44
  -1  -2  -2    1.97    0.23
   2  -2  -2    3.66    0.33
   5  -2  -2   -0.21    0.35
  -3  -1  -2    0.31    0.26
   0  -1  -2    9.57    0.21
   3  -1  -2    2.56    0.24
  -5   0  -2   -0.13    0.50
  -2   0  -2    3.99    0.20
   1   0  -2    9.32    0.30
   4   0  -2   -0.47    0.48
  -4   1  -2    0.38    0.28
  -1   1  -2    9.13    0.35
   2   1  -2    2.26    0.40
  -6   2  -2   -0.14    0.41
  -3   2  -2    1.78    0.24
   0   2  -2    3.27    0.30
   3   2  -2    0.02    0.62
  -5   3  -2   -0.09    0.23
  -2   3  -2    1.59    0.22
   1   3  -2   -0.21    0.30
  -4   4  -2    0.28    0.21
  -1   4  -2    0.48    0.27
   2   4  -2    1.50    0.98
  -3   5  -2    0.07    0.28
   0   5  -2    0.44    0.70
  -2   6  -2    0.03    0.68
   2  -6  -1    0.51    1.08
   0  -5  -1    1.97    0.76
   3  -5  -1    1.24    0.50
  -2  -4  -1    0.23    0.58
   1  -4  -1    4.59    0.49
   4  -4  -1    1.75    0.52
  -1  -3  -1    3.19    0.50
   2  -3  -1    7.54    0.38
   5  -3  -1    2.10    0.56
  -3  -2  -1    1.17    0.44
   0  -2  -1   11.64    0.33
   3  -2  -1    6.50    0.49
   6  -2  -1    0.87    0.98
  -2  -1  -1    7.16    0.47
   1  -1  -1   25.60    1.22
   4  -1  -1    3.83    0.57
  -4   0  -1    2.27    0.47
  -1   0  -1   23.00    0.45
   2   0  -1   12.81    0.43
   5   0  -1    0.19    0.83
  -3   1  -1    7.84    0.42
   0   1  -1   23.13    0.65
   3   1  -1    3.57    0.88
  -5   2  -1    0.81    0.37
  -2   2  -1   11.63    0.52
   1   2  -1    9.10    0.71
   4   2  -1    0.76    0.89
  -4   3  -1    2.60    0.35
  -1   3  -1    7.35    0.51
   2   3  -1    1.85    0.78
  -6   4  -1    0.27    0.42
  -3   4  -1    3.65    0.48
   0   4  -1    1.80    0.49
  -5   5  -1    0.39    0.37
  -2   5  -1    0.67    0.37
   1   5  -1   -0.36    0.87
  -4   6  -1    0.80    0.45
  -1   6  -1   -0.28    0.83
   3  -6   0  254.05    7.15
   1  -5   0  342.35    8.25
   4  -5   0  336.58    8.50
  -1  -4   0  349.18   12.09
   2  -4   0  575.80   10.26
   5  -4   0  338.25    8.30
  -3  -3   0  239.48    9.66
   0  -3   0  695.23    9.98
   3  -3   0  681.11   11.83
   6  -3   0  249.57    9.78
  -2  -2   0  551.80   12.58
   1  -2   0  916.41   13.62
   4  -2   0  571.14   12.45
  -4  -1   0  320.40    8.15
  -1  -1   0  891.56   15.59
   2  -1   0  961.19   13.63
   5  -1   0  328.48   11.64
  -3   0   0  654.30   11.67
   3   0   0  671.62   14.15
  -5   1   0  331.79   11.32
  -2   1   0  897.50   18.68
   1   1   0  841.18   27.46
   4   1   0  326.73   11.49
  -4   2   0  571.13   10.01
  -1   2   0  926.21   18.61
   2   2   0  534.24   16.88
  -6   3   0  248.18    6.38
  -3   3   0  665.88   11.57
   0   3   0  623.43   11.60
   3   3   0  238.18    9.27
  -5   4   0  338.95    6.48
  -2   4   0  564.28   12.30
   1   4   0  320.16   11.23
  -4   5   0  327.78    8.00
  -1   5   0  342.00    8.26
  -3   6   0  249.21    6.71
   4  -6   1    0.54    0.62
   2  -5   1    1.49    0.53
   5  -5   1    0.38    0.48
   0  -4   1    1.12    0.53
   3  -4   1    2.60    0.56
   6  -4   1    0.39    0.52
  -2  -3   1    1.55    0.47
   1  -3   1    7.86    0.43
   4  -3   1    2.15    0.51
  -4  -2   1    0.90    0.54
  -1  -2   1    8.05    0.39
   2  -2   1   12.45    0.38
   5  -2   1    0.09    0.65
  -3  -1   1    3.17    0.49
   0  -1   1   23.51    0.41
   3  -1   1    7.60    0.50
  -5   0   1    0.34    0.57
  -2   0   1   12.91    0.35
   1   0   1   22.85    0.61
   4   0   1    2.20    0.49
  -4   1   1    3.42    0.50
  -1   1   1   23.24    0.65
   2   1   1    7.56    0.65
  -6   2   1    0.25    0.62
  -3   2   1    7.97    0.58
   0   2   1   12.23    0.52
   3   2   1    1.89    0.81
  -5   3   1    1.29    0.33
  -2   3   1    7.09    0.50
   1   3   1    3.78    0.58
  -4   4   1    1.92    0.33
  -1   4   1    3.62    0.49
   2   4   1    0.16    0.80
  -3   5   1    1.48    0.40
   0   5   1    0.56    0.72
  -2   6   1    0.33    0.72
   2  -6   2    1.03    1.08
   0  -5   2   -0.58    0.45
   3  -5   2    0.44    0.40
  -2  -4   2   -0.43    0.50
   1  -4   2   -0.15    0.25
   4  -4   2    0.07    0.35
  -1  -3   2    0.37    0.29
   2  -3   2    1.86    0.22
   5  -3   2   -0.27    0.34
  -3  -2   2    0.41    0.31
   0  -2   2    3.68    0.23
   3  -2   2    1.48    0.26
   6  -2   2    0.82    0.94
  -2  -1   2    1.73    0.25
   1  -1   2    9.22    0.43
   4  -1   2    0.29    0.31
  -4   0   2    0.34    0.41
  -1   0   2    9.10    0.29
   2   0   2    3.99    0.40
   5   0   2   -0.33    0.76
  -3   1   2    1.80    0.31
   3   1   2    1.06    0.59
  -5   2   2    0.51    0.33
  -2   2   2    3.87    0.33
   1   2   2    2.20    0.38
   4   2   2   -0.57    0.76
  -4   3   2    0.27    0.21
  -1   3   2    2.19    0.29
   2   3   2    0.25    0.54
  -6   4   2    0.18    0.42
  -3   4   2    0.07    0.17
   0   4   2   -0.23    0.32
  -5   5   2    0.01    0.33
  -2   5   2    0.45    0.45
   1   5   2    0.59    0.92
  -4   6   2    0.19    0.39
  -1   6   2   -0.32    0.74
   3  -6   3    5.08    1.01
   1  -5   3    5.77    0.81
   4  -5   3    5.43    0.89
  -1  -4   3    6.25    1.16
   2  -4   3    6.46    0.53
   5  -4   3    5.14    0.81
  -3  -3   3    6.53    1.32
   0  -3   3    7.26    0.53
   3  -3   3    6.68    0.54
   6  -3   3    5.04    1.44
  -2  -2   3    6.29    0.66
   1  -2   3    6.18    0.30
   4  -2   3    6.73    0.73
  -4  -1   3    6.13    0.79
  -1  -1   3    6.05    0.31
   2  -1   3    6.94    0.31
   5  -1   3    8.96    1.52
  -3   0   3    6.63    0.48
   3   0   3    7.26    0.63
  -5   1   3    5.44    1.07
  -2   1   3    6.11    0.42
   1   1   3    6.61    0.48
   4   1   3    4.08    1.14
  -4   2   3    5.63    0.47
  -1   2   3    6.17    0.40
   2   2   3    7.09    1.07
  -6   3   3    5.30    0.79
  -3   3   3    6.02    0.54
   0   3   3    6.97    0.49
   3   3   3    7.81    1.57
  -5   4   3    6.89    0.62
  -2   4   3    6.50    0.59
   1   4   3    5.22    1.15
  -4   5   3    5.45    0.70
  -1   5   3    6.76    0.90
  -3   6   3    5.27    1.18
   4  -6   4    2.54    0.79
   2  -5   4    1.86    0.57
   5  -5   4    2.97    0.73
   0  -4   4    3.23    0.77
   3  -4   4    4.51    0.67
   6  -4   4    1.28    0.60
  -2  -3   4    3.49    0.57
   1  -3   4    7.72    0.41
   4  -3   4    4.14    0.62
  -4  -2   4    1.25    0.58
  -1  -2   4    7.49    0.35
   2  -2   4   10.59    0.42
   5  -2   4    2.86    1.05
  -3  -1   4    4.21    0.55
   0  -1   4   16.66    0.36
   3  -1   4    8.77    0.54
  -5   0   4    1.56    0.73
  -2   0   4   10.44    0.41
   1   0   4   16.70    0.55
   4   0   4    3.46    0.57
  -4   1   4    4.74    0.57
  -1   1   4   14.97    0.74
   2   1   4    8.66    0.65
  -6   2   4    1.66    0.85
  -3   2   4    6.99    0.56
   0   2   4    8.91    0.69
   3   2   4    2.13    0.87
  -5   3   4    3.38    0.44
  -2   3   4    7.49    0.54
   1   3   4    4.39    0.87
  -4   4   4    3.63    0.42
  -1   4   4    5.01    0.43
   2   4   4    2.45    1.01
  -3   5   4    3.68    0.55
   0   5   4    2.85    0.95
  -2   6   4    1.60    0.95
   2  -6   5   11.15    2.10
   0  -5   5   12.63    1.63
   3  -5   5   15.97    1.37
  -2  -4   5    9.47    1.57
   1  -4   5   21.41    1.18
   4  -4   5   17.90    1.34
  -1  -3   5   19.58    1.03
   2  -3   5   29.29    0.91
   5  -3   5   14.64    1.22
  -3  -2   5   14.86    1.16
   0  -2   5   42.46    0.85
   3  -2   5   30.12    1.23
   6  -2   5   11.61    2.00
  -2  -1   5   30.51    0.89
   1  -1   5   61.34    1.51
   4  -1   5   21.67    1.13
  -4   0   5   21.39    1.61
  -1   0   5   62.66    1.18
   2   0   5   41.87    1.26
   5   0   5   11.80    1.90
  -3   1   5   32.25    0.88
   3   1   5   20.27    1.88
  -5   2   5   15.49    1.13
  -2   2   5   41.71    1.72
   1   2   5   30.32    1.15
   4   2   5   10.87    1.25
  -4   3   5   20.31    0.81
   2   3   5   15.76    1.82
  -6   4   5   10.68    1.08
  -3   4   5   20.83    0.80
   0   4   5   18.51    1.17
  -5   5   5   10.46    1.02
  -2   5   5   12.86    1.48
   1   5   5   10.28    1.81
  -4   6   5   11.36    1.07
  -1   6   5    9.64    1.72
   3  -6   6   -0.11    0.56
   1  -5   6    0.24    0.38
   4  -5   6    0.42    0.43
  -1  -4   6    0.10    0.44
   2  -4   6   -0.04    0.20
   5  -4   6   -0.54    0.30
  -3  -3   6    0.42    0.61
   0  -3   6    0.21    0.20
   3  -3   6    0.00    0.28
   6  -3   6   -0.21    0.84
  -2  -2   6    0.17    0.23
   1  -2   6    0.74    0.16
   4  -2   6    0.03    0.26
  -4  -1   6    0.15    0.40
  -1  -1   6    1.08    0.14
   2  -1   6    0.56    0.17
   5  -1   6    0.10    0.72
  -3   0   6    0.42    0.19
   3   0   6    0.16    0.24
  -5   1   6    0.03    0.44
  -2   1   6    0.90    0.13
   1   1   6    0.66    0.20
   4   1   6   -0.09    0.36
  -4   2   6    0.11    0.17
  -1   2   6    1.36    0.33
   2   2   6    0.46    0.45
  -6   3   6   -0.05    0.38
  -3   3   6    0.07    0.19
   0   3   6    0.11    0.16
   3   3   6    0.79    0.84
  -5   4   6    0.07    0.24
  -2   4   6    0.03    0.16
   1   4   6   -0.50    0.51
  -4   5   6    0.29    0.31
  -1   5   6   -0.25    0.38
  -3   6   6    0.65    0.63
   4  -6   7   -0.05    0.52
   2  -5   7    0.54    0.46
   5  -5   7    0.07    0.44
   0  -4   7    1.91    0.60
   3  -4   7    2.91    0.55
   6  -4   7    1.06    0.82
  -2  -3   7    0.32    0.48
   1  -3   7    3.72    0.29
   4  -3   7    3.00    0.48
  -4  -2   7    0.93    0.54
  -1  -2   7    3.48    0.41
   2  -2   7    5.46    0.31
   5  -2   7    5.88    1.31
  -3  -1   7    2.04    0.41
   0  -1   7    9.30    0.30
   3  -1   7    4.20    0.38
  -5   0   7    0.97    0.71
  -2   0   7    5.05    0.31
   1   0   7    8.98    0.30
   4   0   7    1.92    0.49
  -4   1   7    2.08    0.43
  -1   1   7    9.14    0.55
   2   1   7    3.88    0.43
  -6   2   7    0.43    0.69
  -3   2   7    3.24    0.40
   3   2   7    2.32    0.83
  -5   3   7    1.16    0.31
  -2   3   7    3.86    0.39
   1   3   7    1.56    0.63
  -4   4   7    1.62    0.32
  -1   4   7    2.27    0.38
   2   4   7    0.84    0.83
  -3   5   7    0.89    0.36
   0   5   7   -0.29    0.65
  -2   6   7    1.32    0.90
   2  -6   8   13.80    2.31
   0  -5   8   16.63    1.90
   3  -5   8   21.12    1.60
  -2  -4   8   12.53    1.79
   1  -4   8   34.08    1.46
   4  -4   8   25.75    1.52
  -1  -3   8   33.86    1.39
   2  -3   8   58.96    1.48
   5  -3   8   23.42    1.38
  -3  -2   8   22.25    1.33
   0  -2   8   87.68    1.79
   3  -2   8   59.12    1.90
   6  -2   8   10.46    1.88
  -2  -1   8   59.34    1.40
   1  -1   8  128.42    2.94
   4  -1   8   30.80    2.15
  -4   0   8   26.06    1.83
  -1   0   8  129.40    2.28
   2   0   8   85.50    2.15
   5   0   8   15.52    2.12
  -3   1   8   60.95    1.39
   3   1   8   35.53    2.18
  -5   2   8   23.96    1.31
  -2   2   8   85.57    2.13
   1   2   8   60.10    1.78
   4   2   8   12.10    1.29
  -4   3   8   35.30    1.36
   2   3   8   24.30    2.20
  -6   4   8   14.04    1.22
  -3   4   8   33.56    1.28
   0   4   8   27.13    1.35
  -5   5   8   18.55    1.34
  -2   5   8   22.78    1.68
  -4   6   8   13.61    1.19
   3  -6   9    1.08    1.05
   1  -5   9    2.17    0.59
   4  -5   9    1.46    0.57
  -1  -4   9    1.66    0.73
   2  -4   9    2.22    0.34
   5  -4   9    1.28    0.47
  -3  -3   9    3.05    0.97
   0  -3   9    2.16    0.32
   3  -3   9    2.32    0.44
   6  -3   9    1.18    0.94
  -2  -2   9    1.28    0.35
   1  -2   9    1.82    0.21
   4  -2   9    3.12    0.50
  -4  -1   9    1.98    0.51
  -1  -1   9    1.99    0.15
   2  -1   9    2.30    0.26
   5  -1   9    3.31    1.02
  -3   0   9    2.39    0.30
   0   0   9    2.15    0.45
   3   0   9    1.46    0.38
  -5   1   9    1.62    0.72
  -2   1   9    1.80    0.16
   1   1   9    1.95    0.25
   4   1   9    2.71    0.64
  -4   2   9    3.15    0.46
   2   2   9    2.77    0.72
  -6   3   9    2.09    0.60
  -3   3   9    2.24    0.35
   0   3   9    2.24    0.29
   3   3   9    1.11    0.88
  -5   4   9    2.53    0.42
  -2   4   9    2.01    0.36
   1   4   9    1.95    0.77
  -4   5   9    2.57    0.51
  -1   5   9    2.69    0.64
  -3   6   9    3.48    0.94
   4  -6  10  103.79    3.88
   2  -5  10  154.17    6.62
   5  -5  10  118.16    3.97
   0  -4  10  190.72    6.97
   3  -4  10  220.95    5.66
   6  -4  10   95.68    5.15
  -2  -3  10  151.35    6.29
   1  -3  10  315.41    5.77
   4  -3  10  227.36    5.57
  -4  -2  10   97.97    3.47
  -1  -2  10  316.78    6.99
   2  -2  10  379.68    6.57
   5  -2  10  150.59    6.42
  -3  -1  10  217.68    5.47
   0  -1  10  469.41    7.56
   3  -1  10  321.38    5.73
  -5   0  10  121.74    5.38
  -2   0  10  369.59    6.44
   1   0  10  445.15    7.62
   4   0  10  190.55    4.91
  -4   1  10  221.58    5.31
  -1   1  10  427.28    9.51
   2   1  10  314.02    6.72
  -6   2  10  100.69    4.89
  -3   2  10  302.33    6.77
   3   2  10  157.84    6.07
  -5   3  10  156.87    3.41
  -2   3  10  308.76    6.74
   1   3  10  216.26    7.43
  -4   4  10  181.43    4.52
  -1   4  10  228.60    5.25
   2   4  10  109.80    4.96
  -3   5  10  149.03    4.14
   0   5  10  113.35    5.11
  -2   6  10  106.46    5.20
   2  -6  11   -0.28    0.95
   0  -5  11    0.22    0.55
   3  -5  11    0.46    0.41
  -2  -4  11    0.70    0.66
   1  -4  11    0.21    0.30
   4  -4  11    0.32    0.32
  -1  -3  11    0.61    0.41
   2  -3  11    1.61    0.26
   5  -3  11   -0.30    0.31
  -3  -2  11   -0.17    0.28
   0  -2  11    3.78    0.29
   3  -2  11    1.34    0.27
   6  -2  11   -0.08    0.75
  -2  -1  11    1.42    0.30
   1  -1  11    8.91    0.48
   4  -1  11   -0.05    0.50
  -4   0  11    0.01    0.42
  -1   0  11    8.83    0.28
   2   0  11    4.78    0.29
   5   0  11    0.02    0.72
  -3   1  11    1.53    0.22
   3   1  11    0.35    0.52
  -5   2  11    1.01    0.39
  -2   2  11    3.29    0.34
   1   2  11    1.46    0.31
   4   2  11    0.05    0.45
  -4   3  11    0.29    0.26
   2   3  11   -0.11    0.49
  -6   4  11    0.25    0.40
  -3   4  11    0.08    0.22
   0   4  11    0.03    0.43
  -5   5  11   -0.39    0.29
  -2   5  11    0.06    0.26
  -4   6  11    0.40    0.41
   3  -6  12    0.12    0.97
   1  -5  12    0.51    0.44
   4  -5  12    0.02    0.40
  -1  -4  12    0.14    0.52
   2  -4  12    0.40    0.22
   5  -4  12   -0.08    0.37
  -3  -3  12   -0.35    0.49
   0  -3  12    0.07    0.24
   3  -3  12   -0.14    0.24
   6  -3  12    0.07    0.74
  -2  -2  12    0.43    0.29
   1  -2  12    0.10    0.11
   4  -2  12    0.41    0.31
  -4  -1  12    0.27    0.37
  -1  -1  12    0.07    0.13
   2  -1  12    0.20    0.14
   5  -1  12    1.15    0.79
  -3   0  12    0.21    0.18
   0   0  12    0.20    0.34
   3   0  12    0.08    0.27
  -5   1  12    0.39    0.54
  -2   1  12    0.05    0.07
   1   1  12    0.20    0.14
   4   1  12   -0.10    0.39
  -4   2  12   -0.13    0.21
   2   2  12    0.33    0.40
  -6   3  12    0.16    0.41
  -3   3  12    0.53    0.23
   0   3  12    0.18    0.24
   3   3  12    0.31    0.78
  -5   4  12    0.08    0.24
  -2   4  12   -0.05    0.22
   1   4  12    0.15    0.56
  -4   5  12    0.24    0.31
  -1   5  12    0.88    0.71
  -3   6  12    0.65    0.63
   1  -6  13   52.69    3.35
   4  -6  13   62.49    2.86
   2  -5  13   99.12    4.94
   5  -5  13   70.18    2.86
   0  -4  13  121.10    4.99
   3  -4  13  140.24    3.98
   6  -4  13   53.77    3.66
  -2  -3  13  101.11    4.59
   1  -3  13  218.84    4.22
   4  -3  13  138.60    3.87
  -4  -2  13   63.75    2.57
  -1  -2  13  217.73    5.04
   2  -2  13  272.58    6.07
   5  -2  13  103.68    4.81
  -3  -1  13  140.25    3.79
   0  -1  13  359.00    5.87
   3  -1  13  219.50    4.17
  -5   0  13   75.39    3.94
  -2   0  13  271.94    4.76
   1   0  13  338.69    7.30
   4   0  13  122.62    3.60
  -4   1  13  142.76    3.70
  -1   1  13  326.46    7.46
   2   1  13  217.69    6.93
  -6   2  13   64.35    3.60
  -3   2  13  212.44    4.93
   0   2  13  257.29    7.94
   3   2  13   88.96    4.28
  -5   3  13  103.49    2.47
  -2   3  13  213.15    4.91
   1   3  13  134.55    5.13
  -4   4  13  120.41    3.29
  -3   5  13   98.90    3.00
   2  -6  14   -0.24    0.88
   0  -5  14    0.65    0.63
   3  -5  14    0.02    0.40
  -2  -4  14    0.54    0.64
   1  -4  14    0.86    0.34
   4  -4  14    0.22    0.34
  -1  -3  14    0.03    0.33
   2  -3  14    0.45    0.19
   5  -3  14    0.30    0.35
  -3  -2  14    0.74    0.39
   0  -2  14    0.85    0.17
   3  -2  14    0.44    0.22
   6  -2  14   -0.54    0.69
  -2  -1  14    0.51    0.23
   1  -1  14    0.94    0.16
   4  -1  14    1.19    0.66
  -4   0  14    0.54    0.47
  -1   0  14    0.75    0.15
   2   0  14    1.17    0.17
   5   0  14    1.09    0.85
  -3   1  14    0.35    0.15
   0   1  14    0.52    0.25
   3   1  14    0.36    0.32
  -5   2  14    0.19    0.31
  -2   2  14    0.46    0.17
   1   2  14    0.20    0.22
   4   2  14    1.10    0.61
  -4   3  14    0.93    0.33
   2   3  14    1.41    0.65
  -6   4  14    0.86    0.48
  -3   4  14    0.10    0.22
   0   4  14    0.35    0.52
  -5   5  14    0.70    0.40
  -2   5  14    0.40    0.31
  -4   6  14    1.07    0.47
   3  -6  15    8.19    1.84
   1  -5  15    9.78    1.05
   4  -5  15    9.80    1.08
  -1  -4  15    8.10    1.30
   2  -4  15   14.27    0.78
   5  -4  15    8.24    0.95
  -3  -3  15    4.37    1.08
   0  -3  15   18.84    1.04
   3  -3  15   18.52    1.05
   6  -3  15    5.88    1.42
  -2  -2  15   15.49    0.92
   1  -2  15   30.73    0.86
   4  -2  15   14.05    0.90
  -4  -1  15    8.90    0.92
  -1  -1  15   31.11    0.98
   2  -1  15   31.27    0.90
   5  -1  15    9.96    1.62
  -3   0  15   18.81    0.69
   0   0  15   49.11    1.24
   3   0  15   18.56    1.03
  -5   1  15    8.36    1.35
  -2   1  15   30.55    0.74
   1   1  15   33.17    0.89
   4   1  15    9.21    1.01
  -4   2  15   14.81    0.97
   2   2  15   15.69    1.45
  -6   3  15    5.97    0.84
  -3   3  15   18.88    0.88
   0   3  15   17.58    0.87
   3   3  15    7.19    1.43
  -5   4  15    9.60    0.74
  -2   4  15   13.65    0.90
   1   4  15   10.84    1.42
  -4   5  15    8.71    0.87
  -1   5  15   10.96    1.47
  -3   6  15    4.48    1.08
   4  -6  16   36.44    2.22
   2  -5  16   72.38    3.95
   5  -5  16   45.58    2.18
   0  -4  16   74.95    3.66
   3  -4  16  100.48    3.12
   6  -4  16   31.66    3.07
  -2  -3  16   64.78    3.43
   1  -3  16  159.04    4.00
   4  -3  16   98.94    2.99
  -4  -2  16   38.04    2.71
  -1  -2  16  160.64    3.86
   2  -2  16  209.14    3.91
   5  -2  16   61.65    3.52
  -3  -1  16   98.22    2.91
   0  -1  16  278.61    4.63
   3  -1  16  163.96    3.23
  -5   0  16   43.01    2.90
  -2   0  16  206.81    3.75
   1   0  16  266.17    5.79
   4   0  16   81.75    2.73
  -4   1  16  102.34    2.85
  -1   1  16  259.91    5.98
   2   1  16  159.56    5.31
  -6   2  16   33.33    2.58
  -3   2  16  155.32    3.80
   0   2  16  202.36    6.24
   3   2  16   64.19    2.39
  -5   3  16   65.83    2.27
  -2   3  16  161.34    3.11
   1   3  16  103.16    3.96
  -4   4  16   81.33    2.47
  -3   5  16   67.76    3.06
   2  -6  17    4.79    1.40
   0  -5  17    6.49    1.25
   3  -5  17    7.26    0.96
  -2  -4  17    4.69    1.19
   1  -4  17   10.09    0.90
   4  -4  17    7.00    0.84
  -1  -3  17   10.09    1.22
   2  -3  17   11.85    0.62
   5  -3  17    7.11    1.35
  -3  -2  17    7.87    0.85
   0  -2  17   14.69    0.50
   3  -2  17   12.87    0.67
   6  -2  17    4.27    1.30
  -2  -1  17   13.60    0.70
   1  -1  17   20.06    0.61
   4  -1  17   12.06    1.02
  -4   0  17    8.18    1.19
  -1   0  17   19.68    0.67
   2   0  17   15.19    0.48
   5   0  17    5.43    1.35
  -3   1  17   12.37    0.70
   0   1  17   20.68    0.63
   3   1  17    9.20    0.86
  -5   2  17    7.31    0.83
  -2   2  17   14.13    0.66
   1   2  17   13.55    0.98
   4   2  17    5.37    1.29
  -4   3  17    9.38    0.80
   2   3  17    5.99    1.08
  -6   4  17    5.78    0.86
  -3   4  17   10.51    0.79
   0   4  17    9.19    1.18
  -5   5  17    5.06    0.74
  -2   5  17    7.40    0.74
  -4   6  17    5.67    0.81
   3  -6  18    2.45    1.23
   1  -5  18    1.20    0.47
   4  -5  18    1.10    0.45
  -1  -4  18    0.60    0.53
   2  -4  18    0.03    0.21
   5  -4  18    1.05    0.47
  -3  -3  18    1.51    0.79
   0  -3  18   -0.09    0.23
   3  -3  18    0.22    0.18
   6  -3  18   -0.02    0.76
  -2  -2  18    0.30    0.26
   1  -2  18    0.33    0.17
   4  -2  18    0.60    0.29
  -4  -1  18    1.91    0.78
  -1  -1  18    0.15    0.16
   2  -1  18   -0.03    0.14
   5  -1  18    0.12    0.66
  -3   0  18    0.02    0.16
   0   0  18    1.42    0.20
   3   0  18    0.69    0.32
  -5   1  18    0.82    0.67
  -2   1  18    0.11    0.11
   1   1  18    0.24    0.19
   4   1  18    0.94    0.50
  -4   2  18   -0.05    0.22
  -1   2  18    0.00    0.24
   2   2  18    0.67    0.46
  -6   3  18    1.22    0.53
  -3   3  18   -0.04    0.19
   0   3  18    0.09    0.22
   3   3  18    0.61    0.71
  -5   4  18    0.51    0.36
  -2   4  18    0.30    0.28
  -4   5  18    0.46    0.51
  -3   6  18    1.15    0.77
   4  -6  19   27.06    2.06
   2  -5  19   57.39    2.22
   5  -5  19   36.06    1.98
   0  -4  19   72.94    3.50
   3  -4  19   87.73    2.92
   6  -4  19   27.84    2.82
  -2  -3  19   56.96    3.11
   1  -3  19  161.14    3.97
   4  -3  19   91.96    2.83
  -4  -2  19   32.24    2.45
  -1  -2  19  153.96    3.78
   2  -2  19  211.42    3.97
   5  -2  19   59.05    3.31
  -3  -1  19   94.61    2.77
   0  -1  19  284.30    4.81
   3  -1  19  162.58    3.19
  -5   0  19   37.89    2.65
  -2   0  19  212.03    3.79
   1   0  19  277.73    6.02
   4   0  19   73.13    2.53
  -4   1  19   92.86    2.67
  -1   1  19  264.50    6.23
   2   1  19  154.55    3.87
  -6   2  19   30.15    2.76
  -3   2  19  152.48    3.73
   0   2  19  203.91    6.24
   3   2  19   55.08    2.19
  -5   3  19   55.85    2.08
  -2   3  19  160.27    5.47
   1   3  19   91.60    3.69
  -4   4  19   69.01    2.27
   2   4  19   27.45    2.78
  -3   5  19   52.83    2.77
   2  -6  20   18.95    2.59
   0  -5  20   30.87    2.35
   3  -5  20   37.15    2.00
  -2  -4  20   26.49    2.60
   1  -4  20   54.35    2.01
   4  -4  20   45.68    1.91
  -1  -3  20   48.86    2.71
   2  -3  20   80.06    1.91
   5  -3  20   40.11    2.69
  -3  -2  20   40.63    1.75
   0  -2  20  101.02    2.64
   3  -2  20   80.07    1.95
   6  -2  20   25.53    2.70
  -2  -1  20   77.72    2.23
   1  -1  20  134.27    3.23
   4  -1  20   54.90    2.09
  -4   0  20   46.90    2.60
  -1   0  20  131.36    3.08
   2   0  20  101.51    2.00
   5   0  20   33.78    2.91
  -3   1  20   82.72    2.20
   0   1  20  128.51    2.95
   3   1  20   52.11    1.95
  -5   2  20   39.07    1.67
  -2   2  20   97.66    2.48
   1   2  20   79.72    2.97
   4   2  20   29.85    2.81
  -4   3  20   52.33    1.82
   2   3  20   36.24    2.56
  -6   4  20   23.29    1.63
  -3   4  20   55.56    1.85
   0   4  20   46.65    2.40
  -5   5  20   30.99    1.29
  -2   5  20   38.64    2.19
  -4   6  20   26.57    1.55
   3  -6  21   24.28    2.94
   1  -5  21   30.60    1.75
   4  -5  21   30.00    1.77
  -1  -4  21   23.63    2.07
   2  -4  21   59.33    2.07
   5  -4  21   30.17    1.67
  -3  -3  21   22.56    2.31
   0  -3  21   73.25    2.34
   3  -3  21   75.53    1.86
   6  -3  21   20.40    2.42
  -2  -2  21   59.52    1.98
   1  -2  21  125.20    3.17
   4  -2  21   60.45    3.04
  -4  -1  21   29.82    2.23
  -1  -1  21  132.10    3.10
   2  -1  21  136.24    2.67
   5  -1  21   33.51    2.49
  -3   0  21   77.31    2.22
   3   0  21   76.84    2.37
  -5   1  21   28.28    2.20
  -2   1  21  128.05    2.47
   1   1  21  131.39    3.08
   4   1  21   32.81    1.68
  -4   2  21   56.93    1.92
  -1   2  21  135.95    4.57
   2   2  21   60.60    2.04
  -6   3  21   22.59    1.57
  -3   3  21   73.25    2.19
   0   3  21   74.63    2.10
   3   3  21   17.47    2.22
  -5   4  21   33.06    1.55
  -2   4  21   59.58    1.95
  -4   5  21   34.41    1.50
  -3   6  21   20.96    2.21
   2  -5  22    1.73    0.51
   5  -5  22    1.15    0.54
   0  -4  22    3.23    0.76
   3  -4  22    2.85    0.56
   6  -4  22   -0.24    0.76
  -2  -3  22    1.13    0.57
   1  -3  22    7.41    0.67
   4  -3  22    3.21    0.53
  -4  -2  22   -0.30    0.59
  -1  -2  22    7.58    0.58
   2  -2  22   11.87    0.59
   5  -2  22    1.93    0.79
  -3  -1  22    2.91    0.48
   0  -1  22   20.31    0.54
   3  -1  22    7.63    0.48
  -5   0  22    1.36    0.85
  -2   0  22   11.72    0.44
   1   0  22   20.50    0.76
   4   0  22    2.20    0.55
  -4   1  22    3.97    0.53
  -1   1  22   19.71    0.85
   2   1  22    7.60    0.66
  -3   2  22    7.95    0.64
   0   2  22   12.18    0.60
   3   2  22    1.15    0.49
  -5   3  22    1.27    0.43
  -2   3  22    6.66    0.95
   1   3  22    2.70    0.65
  -4   4  22    1.35    0.39
  -3   5  22    1.20    0.39
   0   5  22    1.36    0.80
   0  -5  23   59.27    3.47
   3  -5  23   75.44    2.86
   1  -4  23  109.90    3.25
   4  -4  23   90.58    3.00
  -1  -3  23  101.27    4.50
   2  -3  23  158.81    3.27
   5  -3  23   77.28    3.94
  -3  -2  23   74.97    3.80
   0  -2  23  199.56    3.57
   3  -2  23  162.52    3.33
   6  -2  23   52.72    3.38
  -2  -1  23  155.34    3.91
   1  -1  23  244.65    5.56
   4  -1  23  106.28    3.32
  -4   0  23   91.99    4.18
  -1   0  23  251.39    7.47
   2   0  23  195.04    4.56
   5   0  23   58.12    3.47
  -3   1  23  154.33    3.78
   0   1  23  242.68    5.22
   3   1  23  106.51    3.14
  -5   2  23   80.30    2.61
  -2   2  23  183.09    4.48
   1   2  23  161.19    3.88
   4   2  23   52.88    3.50
  -4   3  23  106.22    3.03
  -1   3  23  162.00    5.70
   2   3  23   78.79    4.05
  -6   4  23   53.53    2.24
  -3   4  23  105.59    3.01
  -5   5  23   60.08    2.30
  -2   5  23   77.29    3.45
  -4   6  23   50.44    2.16
   3  -6  24    1.86    1.18
   1  -5  24    1.66    0.55
   4  -5  24    1.63    0.56
  -1  -4  24    1.09    0.63
   2  -4  24    1.57    0.40
   5  -4  24    1.93    0.52
  -3  -3  24    0.31    0.60
   0  -3  24    2.09    0.43
   3  -3  24    2.34    0.33
   6  -3  24    1.75    0.95
  -2  -2  24    2.76    0.44
   1  -2  24    2.80    0.38
   4  -2  24    1.86    0.70
  -4  -1  24    1.41    0.75
  -1  -1  24    3.46    0.35
   2  -1  24    3.49    0.32
   5  -1  24    1.42    0.82
  -3   0  24    2.25    0.37
   0   0  24    4.61    0.85
   3   0  24    2.94    0.48
  -5   1  24    1.63    0.76
  -2   1  24    3.61    0.32
   1   1  24    3.43    0.37
   4   1  24    0.92    0.53
  -4   2  24    2.09    0.41
  -1   2  24    3.77    0.56
   2   2  24    2.25    0.46
  -6   3  24    0.17    0.46
  -3   3  24    2.38    0.40
   0   3  24    1.90    0.38
   3   3  24    0.50    0.74
  -5   4  24    1.19    0.45
  -2   4  24    2.41    0.67
   1   4  24    1.94    0.78
  -4   5  24    1.84    0.48
  -3   6  24    0.85    0.45
   2  -5  25   12.40    1.11
   5  -5  25    8.71    1.04
   0  -4  25   14.87    1.60
   3  -4  25   20.23    1.25
  -2  -3  25    8.50    1.33
   1  -3  25   33.11    1.35
   4  -3  25   21.21    1.18
  -4  -2  25    5.35    1.24
  -1  -2  25   35.70    1.22
   2  -2  25   47.52    1.28
   5  -2  25   10.64    1.57
  -3  -1  25   20.60    1.08
   0  -1  25   67.13    1.39
   3  -1  25   38.63    1.55
  -5   0  25   11.99    1.72
  -2   0  25   47.73    1.11
   1   0  25   69.96    1.82
   4   0  25   14.41    1.18
  -4   1  25   20.09    1.09
  -1   1  25   70.17    1.99
   2   1  25   35.22    1.32
  -3   2  25   32.69    1.24
   0   2  25   47.91    1.39
   3   2  25   10.69    1.55
  -5   3  25   10.02    0.95
  -2   3  25   34.50    1.96
   1   3  25   20.55    1.67
  -4   4  25   17.71    1.17
  -1   4  25   20.38    1.52
  -3   5  25   12.51    1.03
   0   5  25   11.26    1.66
   0  -5  26  119.38    5.53
   3  -5  26  171.71    6.93
   1  -4  26  232.09    5.84
   4  -4  26  200.96    5.20
  -1  -3  26  232.72    8.45
   2  -3  26  346.52    6.33
   5  -3  26  157.86    6.50
  -3  -2  26  167.27    6.64
   0  -2  26  417.61    8.90
   3  -2  26  354.16    6.40
   6  -2  26  104.34    5.10
  -2  -1  26  340.70    7.70
   1  -1  26  509.10   10.81
   4  -1  26  242.50    5.98
  -4   0  26  190.56    7.22
  -1   0  26  506.70   14.76
   2   0  26  409.30    8.85
   5   0  26  118.14    5.32
  -3   1  26  341.65    7.45
   0   1  26  468.74   16.09
   3   1  26  227.29    5.72
  -5   2  26  165.85    4.47
  -2   2  26  380.08    8.89
   1   2  26  336.34    7.53
   4   2  26   99.36    5.37
  -4   3  26  229.38    5.59
  -1   3  26  334.55   11.22
   2   3  26  172.43    7.01
  -6   4  26  109.59    3.52
  -3   4  26  228.15    5.58
   0   4  26  192.23    7.51
  -5   5  26  121.76    3.65
  -2   5  26  165.87    4.40
  -4   6  26  109.12    4.82
   3  -6  27   22.52    2.72
   1  -5  27   30.64    1.74
   4  -5  27   30.48    1.80
  -1  -4  27   26.07    2.14
   2  -4  27   60.11    2.14
   5  -4  27   32.94    1.72
  -3  -3  27   23.69    2.44
   0  -3  27   80.51    2.51
   3  -3  27   77.06    1.96
   6  -3  27   21.63    2.46
  -2  -2  27   61.29    2.99
   1  -2  27  137.84    3.46
   4  -2  27   59.68    3.08
  -4  -1  27   35.54    2.45
  -1  -1  27  141.20    2.57
   2  -1  27  142.70    2.85
   5  -1  27   33.06    2.44
  -3   0  27   75.95    2.30
   0   0  27  198.67    7.28
   3   0  27   78.90    2.46
  -5   1  27   28.91    2.63
  -2   1  27  137.07    3.33
   1   1  27  138.37    3.29
   4   1  27   26.36    2.61
  -4   2  27   56.84    1.98
  -1   2  27  140.16    5.05
   2   2  27   59.52    2.05
  -6   3  27   22.33    1.59
  -3   3  27   79.47    2.36
   0   3  27   82.38    2.30
   3   3  27   21.49    2.43
  -5   4  27   32.99    1.58
  -2   4  27   68.00    3.14
   1   4  27   27.05    2.28
  -4   5  27   33.65    1.56
  -3   6  27   23.50    1.59
   2  -5  28    1.72    0.51
   5  -5  28    0.77    0.53
   0  -4  28    3.38    0.81
   3  -4  28    4.00    0.63
  -2  -3  28    2.30    0.74
   1  -3  28   16.52    0.98
   4  -3  28    6.37    0.70
  -1  -2  28   16.55    1.26
   2  -2  28   25.72    0.89
   5  -2  28    1.52    0.82
  -3  -1  28    6.87    0.72
   0  -1  28   42.22    0.98
   3  -1  28   18.46    1.21
  -5   0  28    0.53    0.77
  -2   0  28   27.24    0.76
   1   0  28   41.96    1.27
   4   0  28    4.22    0.71
  -4   1  28    6.45    1.05
  -1   1  28   42.23    1.45
   2   1  28   17.57    0.90
  -3   2  28   17.01    0.85
   0   2  28   27.56    0.94
   3   2  28    1.60    0.76
  -5   3  28    1.56    0.47
  -2   3  28   16.21    1.52
   1   3  28    5.19    1.02
  -4   4  28    2.87    0.53
  -1   4  28    6.23    0.97
  -3   5  28    2.66    0.54
   0   5  28    0.62    0.71
   0  -5  29    0.37    0.67
   3  -5  29    2.14    0.95
   1  -4  29    3.61    0.57
   4  -4  29    1.89    0.48
  -1  -3  29    1.05    0.53
   2  -3  29    6.59    0.66
   5  -3  29    2.10    0.86
  -3  -2  29    1.26    0.64
   0  -2  29    7.27    0.65
   3  -2  29    6.18    0.52
   6  -2  29   -0.66    0.71
  -2  -1  29    6.44    0.59
   1  -1  29   11.56    0.66
   4  -1  29    3.87    0.69
  -4   0  29    1.83    0.74
  -1   0  29   11.26    0.59
   2   0  29    7.82    0.65
  -3   1  29    6.38    0.57
   0   1  29   11.60    1.20
   3   1  29    3.50    0.57
  -5   2  29    1.27    0.46
  -2   2  29    7.53    0.61
   1   2  29    6.86    0.59
  -4   3  29    3.04    0.52
  -1   3  29    7.47    0.96
   2   3  29    2.01    0.83
  -3   4  29    2.98    0.51
   0   4  29    2.11    0.73
  -5   5  29    1.56    0.53
  -2   5  29    2.23    0.52
   1  -5  30   12.06    1.18
   4  -5  30   11.50    1.18
  -1  -4  30   12.19    1.65
   2  -4  30   24.48    1.32
   5  -4  30   13.39    1.84
  -3  -3  30    7.85    1.42
   0  -3  30   35.87    2.08
   3  -3  30   34.82    1.16
   6  -3  30    8.17    1.58
  -2  -2  30   25.94    1.75
   1  -2  30   67.13    2.01
   4  -2  30   26.77    1.89
  -4  -1  30   14.20    1.79
  -1  -1  30   66.14    1.86
   2  -1  30   70.93    2.17
   5  -1  30   13.08    1.74
  -3   0  30   31.97    1.29
   0   0  30  103.41    4.46
   3   0  30   35.66    1.46
  -5   1  30   14.93    1.86
  -2   1  30   68.73    1.90
   1   1  30   67.70    1.83
   4   1  30   11.94    1.71
  -4   2  30   24.71    1.16
  -1   2  30   69.79    2.98
   2   2  30   24.91    1.88
  -3   3  30   33.33    1.35
   0   3  30   36.82    2.10
  -5   4  30   11.71    1.07
  -2   4  30   23.97    1.80
   1   4  30    8.09    1.41
  -4   5  30   12.25    1.07
  -3   6  30    8.00    0.94
   2  -5  31   25.07    1.51
   5  -5  31   21.36    1.66
   0  -4  31   30.61    2.15
   3  -4  31   36.95    1.65
  -2  -3  31   26.40    2.04
   1  -3  31   57.23    1.95
   4  -3  31   37.79    1.56
  -1  -2  31   58.00    2.78
   2  -2  31   76.29    2.33
   5  -2  31   24.31    2.38
  -3  -1  31   37.73    1.56
   0  -1  31  104.96    2.10
   3  -1  31   61.65    2.10
  -5   0  31   19.43    2.31
  -2   0  31   76.65    1.65
   1   0  31  107.05    2.64
   4   0  31   29.18    1.54
  -4   1  31   38.41    2.33
  -1   1  31  106.60    2.90
   2   1  31   58.07    1.87
  -3   2  31   58.16    1.85
   0   2  31   79.41    2.00
   3   2  31   23.81    2.42
  -5   3  31   26.52    1.48
  -2   3  31   57.93    2.84
   1   3  31   43.51    2.52
  -4   4  31   30.32    1.44
  -1   4  31   37.10    2.22
  -3   5  31   24.62    1.32
   0   5  31   22.98    2.39
   0  -5  32    0.76    0.71
   3  -5  32    2.39    0.93
   1  -4  32    4.32    0.65
   4  -4  32    3.36    0.63
  -1  -3  32    3.19    0.78
   2  -3  32    7.39    0.70
   5  -3  32    1.57    0.76
  -3  -2  32    3.33    0.86
   0  -2  32   10.69    0.78
   3  -2  32    6.82    0.54
   6  -2  32    1.17    1.02
  -2  -1  32    7.16    0.64
   1  -1  32   12.86    0.71
   4  -1  32    4.65    0.73
  -4   0  32    2.00    0.77
  -1   0  32   13.34    0.66
   2   0  32   10.83    0.79
  -3   1  32    6.07    0.56
   0   1  32   12.92    1.36
   3   1  32    3.79    0.93
  -5   2  32    1.71    0.73
  -2   2  32    9.23    0.71
   1   2  32    6.89    1.05
  -4   3  32    4.65    0.60
  -1   3  32    6.92    0.95
   2   3  32    2.09    0.77
  -3   4  32    4.56    0.62
   0   4  32    2.61    0.81
  -5   5  32    1.50    0.51
  -2   5  32    1.57    0.51
   1  -5  33   25.59    2.07
   4  -5  33   26.15    2.64
  -1  -4  33   23.82    2.40
   2  -4  33   40.77    1.69
   5  -4  33   22.76    2.38
   0  -3  33   50.08    2.60
   3  -3  33   46.44    1.43
   6  -3  33   18.25    2.23
  -2  -2  33   40.07    2.32
   1  -2  33   70.84    2.14
   4  -2  33   33.25    2.19
  -4  -1  33   24.93    2.47
  -1  -1  33   72.36    2.00
   2  -1  33   74.76    2.25
   5  -1  33   27.13    2.45
  -3   0  33   47.00    1.66
   0   0  33   91.22    4.15
   3   0  33   46.57    1.77
  -5   1  33   26.01    2.51
  -2   1  33   72.04    2.03
   1   1  33   72.53    1.94
   4   1  33   27.19    2.71
  -4   2  33   39.30    1.55
  -1   2  33   74.15    3.22
   2   2  33   35.70    2.42
  -3   3  33   43.62    1.65
   0   3  33   52.62    2.65
  -5   4  33   26.12    1.54
  -2   4  33   38.66    2.42
   1   4  33   22.80    2.37
  -4   5  33   27.17    1.44
  -3   6  33   18.32    1.98
   2  -5  34   14.51    1.25
   5  -5  34    9.77    1.14
   0  -4  34   13.46    1.62
   3  -4  34   15.16    1.76
  -2  -3  34   12.73    1.64
   1  -3  34   25.77    1.21
   4  -3  34   18.33    1.09
  -1  -2  34   27.00    1.72
   2  -2  34   31.30    1.36
   5  -2  34   13.44    1.73
  -3  -1  34   17.86    1.10
   0  -1  34   46.44    1.12
   3  -1  34   27.54    1.31
  -5   0  34    6.76    1.49
  -2   0  34   34.61    0.94
   1   0  34   46.70    1.36
   4   0  34   15.16    1.94
  -4   1  34   16.00    1.75
  -1   1  34   44.20    1.62
   2   1  34   24.30    1.78
  -3   2  34   26.41    1.14
   0   2  34   32.36    1.91
   3   2  34   11.58    1.73
  -5   3  34   12.95    1.14
  -2   3  34   25.03    1.78
   1   3  34   15.70    1.72
  -4   4  34   13.24    1.10
  -1   4  34   19.13    1.57
  -3   5  34   11.71    1.08
   0   5  34   10.37    1.65
   0  -5  35    0.60    0.71
   3  -5  35   -0.02    0.64
   1  -4  35    1.45    0.44
   4  -4  35    1.02    0.42
  -1  -3  35    2.44    0.74
   2  -3  35    1.79    0.40
   5  -3  35    1.91    0.79
  -3  -2  35    2.25    0.79
   0  -2  35    4.56    0.54
   3  -2  35    3.06    0.39
  -2  -1  35    3.28    0.47
   1  -1  35    5.85    0.52
   4  -1  35    2.49    0.61
  -4   0  35    2.03    0.83
  -1   0  35    6.46    0.56
   2   0  35    4.45    0.53
  -3   1  35    3.36    0.43
   0   1  35    8.74    1.21
   3   1  35    1.61    0.74
  -5   2  35    0.54    0.53
  -2   2  35    4.40    0.53
   1   2  35    3.83    0.82
  -4   3  35    1.69    0.43
  -1   3  35    3.94    0.76
   2   3  35    2.46    0.86
  -3   4  35    1.63    0.42
   0   4  35    2.01    0.74
  -5   5  35    0.84    0.50
  -2   5  35    1.14    0.71
   1  -5  36  135.03    4.27
   4  -5  36  134.61    6.07
  -1  -4  36  140.35    6.20
   2  -4  36  217.43    5.52
   5  -4  36  142.72    6.01
   0  -3  36  248.32    9.08
   3  -3  36  251.01    5.02
   6  -3  36  103.42    4.95
  -2  -2  36  214.28    7.95
   1  -2  36  349.91    7.88
   4  -2  36  223.09    7.45
  -4  -1  36  130.34    5.95
  -1  -1  36  354.47    7.83
   2  -1  36  355.00    7.97
  -3   0  36  258.21    6.11
   0   0  36  443.89   14.80
   3   0  36  258.38    6.15
  -5   1  36  135.32    6.12
  -2   1  36  354.87    7.88
   1   1  36  343.57   12.02
   4   1  36  124.28    6.28
  -4   2  36  214.30    5.28
  -1   2  36  329.25   11.87
   2   2  36  213.14    8.29
  -3   3  36  254.09    6.02
   0   3  36  248.04    9.10
  -5   4  36  147.33    4.16
  -2   4  36  196.29    7.74
   1   4  36  133.23    6.23
  -4   5  36  132.53    4.05
   2  -5  37    1.56    0.55
   5  -5  37    0.85    0.84
   0  -4  37    1.78    0.73
   3  -4  37    0.66    0.63
  -2  -3  37    1.88    0.77
   1  -3  37    2.59    0.47
   4  -3  37    2.31    0.75
  -1  -2  37    2.70    0.66
   2  -2  37    4.02    0.58
   5  -2  37    2.57    0.89
  -3  -1  37    1.53    0.42
   0  -1  37    5.93    0.40
   3  -1  37    2.99    0.57
  -5   0  37    1.76    0.99
  -2   0  37    4.24    0.35
   1   0  37    5.66    0.38
   4   0  37    2.30    0.96
  -4   1  37    1.40    0.67
  -1   1  37    6.08    0.64
   2   1  37    2.19    0.74
  -3   2  37    2.57    0.43
   0   2  37    4.02    0.82
   3   2  37    0.80    0.70
  -5   3  37    0.43    0.41
  -2   3  37    2.93    0.78
   1   3  37    1.86    0.69
  -4   4  37    0.84    0.38
  -1   4  37    0.92    0.60
  -3   5  37    1.52    0.47
   0   5  37    1.42    0.89
   0  -5  38    5.68    1.30
   3  -5  38   11.61    1.71
   1  -4  38   14.47    1.19
   4  -4  38   12.65    1.08
  -1  -3  38   13.24    1.57
   2  -3  38   23.42    1.18
   5  -3  38    9.79    1.46
  -3  -2  38    9.21    1.40
   0  -2  38   32.66    1.31
   3  -2  38   26.87    1.36
  -2  -1  38   25.03    1.10
   1  -1  38   44.24    1.49
   4  -1  38   16.29    1.31
  -4   0  38   14.42    1.75
  -1   0  38   46.99    1.56
   2   0  38   34.69    1.29
  -3   1  38   23.75    1.05
   0   1  38   44.46    2.69
   3   1  38   15.86    1.88
  -5   2  38    9.85    1.56
  -2   2  38   31.47    1.31
   1   2  38   26.61    1.86
  -4   3  38   15.09    1.11
  -1   3  38   23.09    1.71
   2   3  38   12.73    1.82
  -3   4  38   14.40    1.10
   0   4  38   11.60    1.59
  -5   5  38    8.73    1.51
  -2   5  38    9.92    1.57
   1  -5  39   20.54    2.19
   4  -5  39   19.56    2.31
  -1  -4  39   19.51    2.17
   2  -4  39   35.88    1.62
   5  -4  39   16.96    2.06
   0  -3  39   43.24    2.52
   3  -3  39   47.42    1.82
  -2  -2  39   32.56    2.18
   1  -2  39   71.15    2.23
   4  -2  39   37.53    1.70
  -1  -1  39   73.88    2.12
   2  -1  39   76.32    2.27
  -3   0  39   46.36    1.67
   0   0  39  100.93    4.58
   3   0  39   38.25    2.72
  -5   1  39   22.91    2.43
  -2   1  39   73.09    2.16
   1   1  39   72.53    3.54
   4   1  39   21.78    2.58
  -4   2  39   36.08    1.51
  -1   2  39   74.80    3.61
   2   2  39   36.43    2.49
  -3   3  39   42.78    1.68
   0   3  39   41.98    2.53
  -5   4  39   23.03    1.58
  -2   4  39   30.93    2.26
   1   4  39   17.19    2.18
  -4   5  39   21.22    1.50
   2  -5  40    5.94    0.85
   5  -5  40    2.24    1.00
   0  -4  40    6.12    1.17
   3  -4  40    7.60    0.84
  -2  -3  40    4.06    1.02
   1  -3  40   12.32    0.97
   4  -3  40    7.46    1.19
  -1  -2  40   10.20    1.28
   2  -2  40   15.01    0.95
   5  -2  40    6.24    1.17
  -3  -1  40    6.49    0.76
   0  -1  40   21.83    0.92
   3  -1  40   11.61    0.99
  -5   0  40    6.88    1.55
  -2   0  40   15.10    0.82
   1   0  40   22.29    2.29
   4   0  40    7.29    1.46
  -4   1  40    7.85    1.28
  -1   1  40   19.28    1.03
   2   1  40   10.82    1.47
  -3   2  40   11.66    0.88
   0   2  40   17.33    1.70
   3   2  40    2.55    0.99
  -5   3  40    6.65    0.80
  -2   3  40   10.86    1.38
   1   3  40    8.18    1.36
  -4   4  40    5.46    0.76
  -1   4  40    8.23    1.24
  -3   5  40    5.70    0.81
   0   5  40    4.94    1.34
   3  -5  41    3.95    1.08
   1  -4  41    4.09    0.67
   4  -4  41    3.17    0.98
  -1  -3  41    4.46    0.94
   2  -3  41    4.99    0.65
   5  -3  41    4.70    1.09
  -3  -2  41    4.83    1.08
   0  -2  41    4.61    0.86
   3  -2  41    4.38    0.64
  -2  -1  41    4.31    0.56
   1  -1  41    3.71    0.46
   4  -1  41    4.77    1.43
  -4   0  41    2.69    0.93
  -1   0  41    4.24    0.53
   2   0  41    3.47    0.98
  -3   1  41    5.16    0.57
   0   1  41    6.11    1.16
   3   1  41    3.91    1.07
  -5   2  41    5.25    1.21
  -2   2  41    4.39    0.58
   1   2  41    4.41    0.94
  -4   3  41    5.36    0.70
  -1   3  41    3.73    0.88
   2   3  41    4.05    1.13
  -3   4  41    4.85    0.68
   0   4  41    4.11    1.06
  -2   5  41    3.50    1.03
   1  -5  42    0.39    0.65
   4  -5  42    0.15    0.66
  -1  -4  42    0.74    0.67
   2  -4  42    0.86    0.40
   5  -4  42   -0.36    0.65
   0  -3  42    1.70    0.64
   3  -3  42    0.90    0.40
  -2  -2  42    1.06    0.51
   1  -2  42    1.45    0.39
   4  -2  42    0.33    0.42
  -1  -1  42    2.24    0.39
   2  -1  42    3.10    0.47
  -3   0  42    0.71    0.33
   0   0  42    4.05    0.91
   3   0  42    1.93    0.87
  -5   1  42    1.50    0.90
  -2   1  42    2.41    0.42
   1   1  42    2.46    0.83
   4   1  42    0.58    0.86
  -4   2  42    1.11    0.39
  -1   2  42    2.32    0.85
   2   2  42    0.10    0.52
  -3   3  42    1.55    0.61
   0   3  42    0.99    0.58
  -5   4  42    0.67    0.45
  -2   4  42    1.19    0.68
   1   4  42    0.70    0.79
  -4   5  42    0.07    0.36
   2  -5  43    0.07    0.44
   0  -4  43   -0.03    0.53
   3  -4  43    0.31    0.37
  -2  -3  43   -0.11    0.52
   1  -3  43    0.43    0.33
   4  -3  43   -0.01    0.48
  -1  -2  43   -0.14    0.36
   2  -2  43    0.20    0.27
  -3  -1  43   -0.15    0.46
   0  -1  43    0.30    0.25
   3  -1  43    0.44    0.37
  -5   0  43    0.10    0.93
  -2   0  43    0.29    0.26
   1   0  43    1.02    0.77
   4   0  43   -0.46    0.72
  -4   1  43   -0.26    0.50
  -1   1  43    0.78    0.32
   2   1  43    1.65    0.77
  -3   2  43    0.09    0.25
   0   2  43    0.05    0.48
   3   2  43   -0.23    0.69
  -5   3  43   -0.36    0.35
  -2   3  43    0.12    0.43
   1   3  43   -0.40    0.48
  -4   4  43    0.19    0.34
  -3   5  43   -0.19    0.35
   0   5  43   -0.45    0.82
   3  -5  44    1.55    0.85
   1  -4  44    1.13    0.41
   4  -4  44    1.30    0.74
  -1  -3  44    2.15    0.73
   2  -3  44    1.06    0.38
   5  -3  44    1.97    0.83
  -3  -2  44    2.63    0.86
   0  -2  44    1.30    0.59
   3  -2  44    0.50    0.38
  -2  -1  44    1.42    0.38
   1  -1  44    0.76    0.27
   4  -1  44    1.16    1.05
  -4   0  44    2.62    0.99
  -1   0  44    0.35    0.27
   2   0  44    2.00    0.91
  -3   1  44    1.52    0.36
   0   1  44    0.86    0.71
   3   1  44    0.17    0.60
  -5   2  44    2.03    0.91
  -2   2  44    1.36    0.56
   1   2  44    1.82    0.74
  -4   3  44    2.00    0.51
  -1   3  44    0.88    0.56
   2   3  44    0.45    0.68
  -3   4  44    2.86    0.90
   0   4  44    2.02    0.83
  -2   5  44    3.18    1.02
   1  -5  45   10.21    1.68
   4  -5  45   10.23    1.69
  -1  -4  45    8.79    1.53
   2  -4  45   18.54    1.36
   5  -4  45    8.89    1.51
   0  -3  45   21.57    1.79
   3  -3  45   23.34    1.38
  -2  -2  45   17.33    1.79
   1  -2  45   36.90    1.49
   4  -2  45   16.92    1.29
  -1  -1  45   37.55    1.40
   2  -1  45   35.69    1.40
  -3   0  45   25.00    1.82
   0   0  45   48.04    2.84
   3   0  45   20.38    2.38
  -5   1  45   10.73    1.81
  -2   1  45   36.25    1.44
   1   1  45   35.84    2.46
   4   1  45   11.99    2.08
  -4   2  45   19.75    1.16
  -1   2  45   39.66    2.61
   2   2  45   19.19    2.15
  -3   3  45   18.64    1.86
   0   3  45   24.85    1.96
  -5   4  45   10.90    1.12
  -2   4  45   17.68    1.94
   1   4  45    8.80    1.57
  -4   5  45    8.51    1.03
  -1   5  45    9.25    1.64
   2  -5  46  174.66    5.15
   0  -4  46  214.72    8.51
   3  -4  46  244.18    6.38
  -2  -3  46  185.50    7.59
   1  -3  46  350.69    8.31
   4  -3  46  255.16    8.56
  -1  -2  46  353.57   12.39
   2  -2  46  425.33    9.74
  -3  -1  46  257.13    9.17
   0  -1  46  542.88   11.82
   3  -1  46  370.92   13.46
  -2   0  46  442.41    9.77
   1   0  46  522.42   18.28
   4   0  46  217.68    9.22
  -4   1  46  251.14    9.12
  -1   1  46  526.40   11.87
   2   1  46  350.86   12.81
  -3   2  46  345.61   11.71
   0   2  46  420.24   14.77
   3   2  46  170.94    7.92
  -5   3  46  176.43    5.01
  -2   3  46  354.31   11.86
   1   3  46  251.59    9.66
  -4   4  46  210.35    5.63
  -3   5  46  186.80    5.11
   3  -5  47   24.45    2.49
   1  -4  47   38.30    1.82
   4  -4  47   32.13    2.34
  -1  -3  47   39.67    2.64
   2  -3  47   62.60    2.29
  -3  -2  47   22.73    2.30
   0  -2  47   87.95    4.18
   3  -2  47   66.97    2.28
  -2  -1  47   63.44    3.19
   1  -1  47  114.45    3.04
   4  -1  47   35.06    3.55
  -4   0  47   35.30    2.59
  -1   0  47  117.07    3.27
   2   0  47   85.93    4.61
  -3   1  47   65.82    2.11
   0   1  47  125.81    5.53
   3   1  47   42.11    3.00
  -5   2  47   26.42    2.62
  -2   2  47   90.13    3.92
   1   2  47   68.73    3.67
  -4   3  47   35.65    1.67
  -1   3  47   67.15    3.53
   2   3  47   23.25    2.60
  -3   4  47   36.06    2.54
   0   4  47   35.22    2.61
  -2   5  47   27.62    2.64
   1  -5  48    0.99    0.82
   4  -5  48    0.15    0.68
  -1  -4  48   -0.23    0.55
   2  -4  48    0.68    0.41
   5  -4  48    1.50    0.82
   0  -3  48    0.65    0.58
   3  -3  48    0.55    0.41
  -2  -2  48    0.54    0.48
   1  -2  48    1.31    0.39
   4  -2  48    0.68    0.75
  -1  -1  48    1.25    0.35
   2  -1  48    3.45    1.04
  -3   0  48    0.72    0.62
   0   0  48    2.94    0.86
   3   0  48   -0.06    0.71
  -5   1  48    1.56    0.90
  -2   1  48    0.85    0.34
   1   1  48    1.24    0.78
   4   1  48    0.74    0.98
  -4   2  48    0.31    0.35
  -1   2  48    1.94    0.88
   2   2  48    1.61    0.79
  -3   3  48    0.91    0.58
   0   3  48    0.97    0.66
  -5   4  48    0.11    0.44
  -2   4  48    0.06    0.48
   1   4  48   -0.32    0.63
  -4   5  48    0.90    0.49
  -1   5  48   -0.19    0.74
   2  -5  49   23.45    1.72
   0  -4  49   27.91    2.29
   3  -4  49   27.76    1.53
  -2  -3  49   24.64    2.51
   1  -3  49   36.79    1.59
   4  -3  49   30.55    2.06
  -1  -2  49   36.37    2.36
   2  -2  49   39.53    1.58
  -3  -1  49   29.43    2.11
   0  -1  49   43.63    1.64
   3  -1  49   36.49    2.86
  -2   0  49   39.16    1.54
   1   0  49   45.36    3.04
   4   0  49   25.27    3.01
  -4   1  49   33.44    2.37
  -1   1  49   42.26    1.69
   2   1  49   33.57    2.58
  -3   2  49   34.44    2.27
   0   2  49   40.16    2.66
   3   2  49   23.20    2.79
  -5   3  49   26.49    1.73
  -2   3  49   35.70    2.34
   1   3  49   26.04    2.61
  -4   4  49   25.78    1.56
  -3   5  49   23.90    1.67
   3  -5  50    6.44    1.37
   1  -4  50    8.24    0.97
   4  -4  50    6.12    1.19
  -1  -3  50   11.08    1.60
   2  -3  50   12.10    1.05
  -3  -2  50    6.42    1.29
   0  -2  50   17.94    1.92
   3  -2  50   13.06    1.80
  -2  -1  50   15.30    1.60
   1  -1  50   20.54    2.22
   4  -1  50    9.50    1.87
  -4   0  50   10.03    1.65
  -1   0  50   23.51    1.25
   2   0  50   19.39    2.34
  -3   1  50   13.46    0.88
   0   1  50   23.50    2.52
   3   1  50    7.18    1.54
  -5   2  50    6.87    1.41
  -2   2  50   15.51    1.66
   1   2  50   14.36    1.85
  -4   3  50    6.74    0.84
  -1   3  50   13.04    1.75
   2   3  50    5.15    1.34
  -3   4  50    6.97    1.31
   0   4  50    5.05    1.29
  -2   5  50    3.67    1.11
   1  -5  51    6.20    1.42
   4  -5  51    6.77    1.42
   2  -4  51    9.57    1.03
   0  -3  51   10.37    1.52
   3  -3  51   10.05    1.02
  -2  -2  51    8.10    1.29
   1  -2  51   15.77    1.10
   4  -2  51   11.52    1.78
  -1  -1  51   14.91    1.64
   2  -1  51   15.89    1.97
  -3   0  51    9.62    1.41
   0   0  51   22.57    1.87
   3   0  51    9.33    1.76
  -5   1  51    5.85    1.48
  -2   1  51   14.71    1.07
   1   1  51   14.23    1.96
   4   1  51    3.01    1.34
  -4   2  51   10.97    1.00
  -1   2  51   16.42    1.29
   2   2  51    6.66    1.42
  -3   3  51   10.20    1.44
   0   3  51    9.25    1.51
  -5   4  51    5.71    1.26
  -2   4  51    6.63    1.28
   1   4  51    3.65    1.28
  -4   5  51    6.70    1.44
  -1   5  51    2.79    1.14
   2  -5  52   22.58    1.70
   0  -4  52   27.54    2.71
   3  -4  52   31.21    1.65
  -2  -3  52   26.80    2.67
   1  -3  52   47.35    1.90
  -1  -2  52   46.22    2.78
   2  -2  52   56.87    2.03
  -3  -1  52   30.32    2.16
   0  -1  52   75.01    4.01
   3  -1  52   45.70    3.21
  -2   0  52   59.28    2.07
   1   0  52   70.12    3.96
   4   0  52   20.13    2.78
  -4   1  52   30.44    2.38
  -1   1  52   71.88    2.39
   2   1  52   42.77    3.08
  -3   2  52   46.48    2.72
   0   2  52   66.79    3.64
   3   2  52   17.63    2.51
  -5   3  52   28.06    1.66
  -2   3  52   39.07    2.59
   1   3  52   31.83    2.63
  -4   4  52   24.45    1.68
  -3   5  52   25.79    1.78
   3  -5  53   15.44    2.02
   1  -4  53   25.22    1.70
   4  -4  53   21.49    2.12
  -1  -3  53   22.54    2.38
   2  -3  53   34.25    1.65
  -3  -2  53   17.11    2.06
   0  -2  53   50.03    3.00
   3  -2  53   38.11    2.74
  -2  -1  53   36.19    2.33
   1  -1  53   71.94    3.71
   4  -1  53   19.92    2.69
  -4   0  53   28.30    2.77
  -1   0  53   62.25    2.18
   2   0  53   46.60    3.34
  -3   1  53   38.19    2.39
   0   1  53   64.29    3.78
   3   1  53   25.29    2.83
  -5   2  53   18.96    2.32
  -2   2  53   45.71    2.60
   1   2  53   37.92    2.78
  -4   3  53   25.76    1.49
  -1   3  53   41.66    2.88
   2   3  53   16.73    2.39
  -3   4  53   23.45    2.37
   0   4  53   20.59    2.43
  -2   5  53   15.18    2.02
   4  -5  54    6.05    1.35
   2  -4  54    4.36    0.76
   0  -3  54    3.96    1.02
   3  -3  54    5.97    0.81
  -2  -2  54    4.98    1.08
   1  -2  54    6.19    0.72
   4  -2  54    3.56    1.17
  -1  -1  54    4.44    0.97
   2  -1  54    6.48    1.31
  -3   0  54    5.97    1.19
   0   0  54    7.20    1.26
   3   0  54    5.01    1.41
  -5   1  54    2.20    1.14
  -2   1  54    5.43    0.68
   1   1  54    6.92    1.40
  -4   2  54    4.66    0.72
  -1   2  54    4.75    0.73
   2   2  54    4.23    1.18
  -3   3  54    4.58    0.99
   0   3  54    6.28    1.35
  -2   4  54    5.71    1.16
   2  -5  55    1.66    0.62
   0  -4  55    0.16    0.62
   3  -4  55    3.21    0.70
  -2  -3  55    1.32    0.81
   1  -3  55    2.89    0.59
  -1  -2  55    1.46    0.68
   2  -2  55    2.05    0.91
  -3  -1  55    2.64    0.85
   0  -1  55    2.89    0.96
   3  -1  55    2.29    0.98
  -2   0  55    3.05    0.56
   1   0  55    1.83    0.87
   4   0  55    2.87    1.37
  -4   1  55    1.92    0.85
  -1   1  55    3.31    0.57
   2   1  55    1.99    0.95
  -3   2  55    1.87    0.75
   0   2  55    2.46    1.01
   3   2  55    2.08    1.10
  -5   3  55    1.54    0.63
  -2   3  55    2.48    0.79
   1   3  55    2.43    1.00
  -4   4  55    1.11    0.50
  -3   5  55    1.21    0.55
   3  -5  56   59.98    3.50
   1  -4  56   84.47    3.00
  -1  -3  56   83.30    4.52
   2  -3  56  120.20    3.67
  -3  -2  56   61.56    3.65
   0  -2  56  142.73    6.38
   3  -2  56  127.21    5.79
  -2  -1  56  114.56    5.19
   1  -1  56  182.74    7.61
  -1   0  56  185.97    4.90
   2   0  56  138.64    6.86
  -3   1  56  111.00    5.02
   0   1  56  187.90    7.74
   3   1  56   84.69    4.98
  -5   2  56   59.20    3.75
  -2   2  56  154.57    5.82
   1   2  56  117.14    5.79
  -4   3  56   82.81    2.88
  -1   3  56  123.97    5.80
   2   3  56   59.64    4.12
  -3   4  56   79.51    4.21
   0   4  56   68.10    4.20
  -2   5  56   61.65    3.69
   2  -4  57   11.49    1.19
   0  -3  57   12.55    1.81
   3  -3  57   11.54    1.93
  -2  -2  57   15.07    1.86
   1  -2  57   15.82    2.18
   4  -2  57    7.98    1.58
  -1  -1  57   14.39    1.76
   2  -1  57   16.67    2.08
  -3   0  57   13.84    1.76
   0   0  57   20.57    1.18
   3   0  57    8.27    1.77
  -2   1  57   17.55    1.22
   1   1  57   13.03    1.98
  -4   2  57   10.34    1.61
  -1   2  57   16.86    1.31
   2   2  57    8.29    1.70
  -3   3  57   10.86    1.58
   0   3  57   16.56    2.11
  -2   4  57   11.33    1.64
   2  -5  58    1.91    0.73
   0  -4  58    2.25    0.98
   3  -4  58    2.99    0.72
   1  -3  58    8.62    0.94
  -1  -2  58    7.18    1.32
   2  -2  58   11.09    1.76
  -3  -1  58    2.23    0.86
   0  -1  58   14.99    1.94
   3  -1  58    8.27    1.59
  -2   0  58   11.14    1.01
   1   0  58   13.75    1.87
   4   0  58    4.19    1.55
  -4   1  58    3.57    1.10
  -1   1  58   15.13    1.13
   2   1  58    5.02    1.36
  -3   2  58    8.67    1.37
   0   2  58    9.98    1.72
  -2   3  58    9.42    1.40
   1   3  58    4.05    1.28
  -4   4  58    3.51    0.76
   3  -5  59   54.56    3.32
   1  -4  59   77.36    4.50
  -1  -3  59   70.82    4.23
   2  -3  59   88.35    5.22
  -3  -2  59   53.71    3.46
   0  -2  59  108.43    5.46
   3  -2  59   90.50    4.79
  -2  -1  59   93.78    4.46
   1  -1  59  133.35    6.05
   4  -1  59   71.58    4.49
  -1   0  59  133.74    3.85
   2   0  59  119.56    6.07
  -3   1  59   91.54    4.36
   0   1  59  135.97    6.15
   3   1  59   71.65    4.70
  -2   2  59  109.52    4.80
   1   2  59   95.22    5.12
  -4   3  59   76.15    2.76
  -1   3  59   91.85    4.96
  -3   4  59   68.80    3.90
   0   4  59   49.85    3.78
   2  -4  60    3.78    0.74
   0  -3  60    6.89    1.40
   3  -3  60    7.07    1.55
  -2  -2  60    5.96    1.29
   1  -2  60    8.21    1.61
   4  -2  60    4.62    1.29
  -1  -1  60    9.71    1.49
   2  -1  60   10.24    1.64
  -3   0  60    6.17    1.29
   0   0  60   13.60    1.07
   3   0  60    8.50    1.83
  -2   1  60   10.12    0.96
   1   1  60   10.53    1.88
  -4   2  60    6.15    1.30
  -1   2  60   10.07    1.03
   2   2  60    5.71    1.53
  -3   3  60    6.18    1.25
   0   3  60    8.12    1.69
  -2   4  60    5.42    1.22
   0  -4  61    0.35    0.81
   3  -4  61   -0.07    0.82
   1  -3  61    0.97    0.47
  -1  -2  61    0.92    0.64
   2  -2  61    0.12    0.64
   0  -1  61    2.20    0.88
   3  -1  61   -0.27    0.71
  -2   0  61    0.34    0.40
   1   0  61    0.73    0.71
   4   0  61   -0.48    0.99
  -4   1  61    0.70    0.84
  -1   1  61    1.37    0.43
   2   1  61    0.95    0.82
  -3   2  61    1.14    0.69
   0   2  61    1.65    1.00
  -2   3  61    0.61    0.53
   1   3  61    1.65    1.00
  -4   4  61    0.72    0.53
  -1   4  61   -0.11    0.58
   1  -4  62   88.70    5.09
  -1  -3  62   87.61    4.91
   2  -3  62  112.72    6.22
   0  -2  62  138.62    6.51
   3  -2  62  124.23    5.82
  -2  -1  62  121.03    5.40
   1  -1  62  172.40    7.26
   4  -1  62   90.01    5.10
  -1   0  62  167.09    4.61
   2   0  62  134.89    6.71
  -3   1  62  122.40    5.30
   0   1  62  172.54    7.29
   3   1  62   91.58    5.55
  -2   2  62  129.48    5.53
   1   2  62  113.25    6.10
  -4   3  62   85.08    3.09
  -1   3  62  112.41    3.89
  -3   4  62   82.02    4.41
   0   4  62   67.12    4.50
   2  -4  63    7.11    1.00
   0  -3  63    6.53    1.47
   3  -3  63    9.62    1.79
  -2  -2  63    7.47    1.46
   1  -2  63   20.96    2.49
   4  -2  63    9.29    1.69
  -1  -1  63   14.93    1.90
   2  -1  63   14.10    1.95
   0   0  63   18.12    1.15
   3   0  63    7.29    1.83
  -2   1  63   15.41    1.20
   1   1  63   13.64    2.15
  -4   2  63    6.27    1.40
  -1   2  63   14.44    1.23
   2   2  63    6.29    1.59
  -3   3  63   11.96    1.67
   0   3  63    8.17    1.77
  -2   4  63   11.02    1.68
   3  -4  64    3.27    1.27
   1  -3  64    6.17    1.55
  -1  -2  64    4.14    1.11
   2  -2  64    7.38    1.46
   0  -1  64    5.84    1.28
   3  -1  64    5.11    1.34
  -2   0  64    5.26    0.80
   1   0  64    6.97    1.40
   4   0  64    4.91    1.77
  -4   1  64    3.18    1.18
  -1   1  64    6.76    0.81
   2   1  64    4.86    1.41
  -3   2  64    5.76    1.21
   0   2  64    6.60    1.59
  -2   3  64    5.08    1.13
   1   3  64    5.23    1.50
  -4   4  64    3.91    1.11
  -1   4  64    2.92    1.05
   1  -4  65    6.53    1.61
  -1  -3  65    7.11    1.55
   2  -3  65   10.23    1.97
   0  -2  65   11.67    1.93
   3  -2  65    8.02    1.55
  -2  -1  65    9.91    1.52
   1  -1  65   14.53    1.93
   4  -1  65    5.96    1.53
  -1   0  65   17.40    1.26
   2   0  65   10.80    1.91
  -3   1  65   10.61    1.59
   0   1  65   12.91    1.85
   3   1  65    4.45    1.63
  -2   2  65   11.03    1.48
   1   2  65    8.65    1.81
  -4   3  65    5.15    0.85
  -1   3  65    9.11    1.43
  -3   4  65    8.98    1.51
   0   4  65    4.60    1.60
   2  -4  66    0.05    0.88
   0  -3  66    0.34    0.71
   3  -3  66   -0.02    0.69
  -2  -2  66    0.67    0.74
   1  -2  66   -0.80    0.53
   4  -2  66   -0.25    0.69
  -1  -1  66    0.00    0.57
   2  -1  66    0.14    0.59
   0   0  66    0.78    0.40
   3   0  66    0.97    1.10
  -2   1  66    0.19    0.47
   1   1  66    0.68    0.87
  -4   2  66    0.17    0.71
  -1   2  66    0.56    0.44
   2   2  66    1.15    1.02
  -3   3  66   -0.06    0.53
   0   3  66    0.26    0.88
  -2   4  66    0.79    0.71
   3  -4  67   16.23    2.53
   1  -3  67   13.21    2.24
  -1  -2  67   18.79    2.32
   2  -2  67   23.06    2.57
   0  -1  67   23.59    2.55
   3  -1  67   20.12    2.45
  -2   0  67   19.65    2.14
   1   0  67   24.08    2.51
  -4   1  67   13.55    2.04
  -1   1  67   24.12    1.32
   2   1  67   20.12    2.82
  -3   2  67   22.20    2.27
   0   2  67   19.45    2.64
  -2   3  67   20.53    2.12
   1   3  67   16.93    2.60
  -1   4  67   12.81    1.89
   1  -4  68    0.65    0.97
  -1  -3  68    1.19    0.95
   2  -3  68    2.43    1.13
   0  -2  68    1.66    0.96
   3  -2  68    1.74    0.97
  -2  -1  68    1.33    0.78
   1  -1  68    4.80    1.19
   4  -1  68    0.64    0.94
  -1   0  68    3.32    0.64
   2   0  68    4.74    1.29
  -3   1  68    3.03    0.98
   0   1  68    2.61    0.96
   3   1  68    0.86    1.17
  -2   2  68    2.69    0.80
   1   2  68    1.55    1.05
  -4   3  68    0.60    0.55
  -1   3  68    2.29    0.87
  -3   4  68    1.26    0.81
   2  -4  69   41.01    4.18
   0  -3  69   41.83    3.37
   3  -3  69   43.14    3.37
  -2  -2  69   35.38    2.89
   1  -2  69   56.25    3.85
   4  -2  69   39.36    3.00
   2  -1  69   60.91    3.75
   0   0  69   75.38    2.60
   3   0  69   38.82    3.94
  -2   1  69   60.87    3.22
   1   1  69   61.61    4.14
  -4   2  69   44.85    3.06
  -1   2  69   60.68    2.40
   2   2  69   35.61    3.90
  -3   3  69   43.56    2.90
   0   3  69   48.07    3.70
  -2   4  69   35.72    2.70
   3  -4  70    4.75    1.60
   1  -3  70    5.98    1.70
  -1  -2  70    7.32    1.52
   2  -2  70    9.88    1.72
   0  -1  70    8.83    1.61
   3  -1  70    7.96    1.61
  -2   0  70    8.05    1.44
   1   0  70    9.94    1.65
  -4   1  70    3.17    1.22
  -1   1  70    9.89    1.00
   2   1  70    7.52    1.82
  -3   2  70    7.29    1.36
   0   2  70   10.59    1.96
  -2   3  70    4.91    1.15
   1   3  70    7.05    1.89
  -1   4  70    5.79    1.34
   2  -3  71    0.85    0.88
   0  -2  71    0.06    0.69
   3  -2  71    0.47    0.74
  -2  -1  71   -0.15    0.62
   1  -1  71    0.04    0.59
   4  -1  71   -0.36    0.79
  -1   0  71    1.16    0.72
   2   0  71    0.36    0.71
  -3   1  71    1.09    0.83
   0   1  71    0.34    0.63
  -2   2  71    0.80    0.62
   1   2  71    0.04    0.96
  -4   3  71    0.17    0.62
  -1   3  71    0.40    0.61
   2  -4  72  148.01    8.14
   0  -3  72  183.42    8.72
   3  -3  72  195.71    8.49
  -2  -2  72  159.22    7.43
   1  -2  72  255.64   10.42
   4  -2  72  156.25    7.23
  -1  -1  72  257.19   10.10
   2  -1  72  254.96   10.08
   0   0  72  310.05    7.57
   3   0  72  172.21    8.49
  -2   1  72  249.88    8.96
   1   1  72  246.77   10.40
  -4   2  72  160.82    6.99
  -1   2  72  251.91    6.61
   2   2  72  151.92    8.13
  -3   3  72  191.54    7.59
   0   3  72  178.98    8.71
   3  -4  73    0.23    1.02
   1  -3  73   -0.33    0.80
  -1  -2  73    1.18    0.82
   2  -2  73    0.47    0.74
   0  -1  73   -0.12    0.60
   3  -1  73    1.11    0.84
  -2   0  73   -0.17    0.59
   1   0  73    0.95    0.72
  -1   1  73    0.67    0.41
   2   1  73   -0.82    0.91
  -3   2  73    0.70    0.74
   0   2  73    0.84    0.88
  -2   3  73    1.23    0.74
   2  -3  74    3.61    1.37
   0  -2  74    6.57    1.50
   3  -2  74    2.51    1.06
  -2  -1  74    3.21    1.05
   1  -1  74    5.80    1.30
  -1   0  74    7.87    1.45
   2   0  74    3.38    1.23
  -3   1  74    3.07    1.07
   0   1  74    6.90    1.41
  -2   2  74    2.00    0.76
   1   2  74    2.94    1.29
  -4   3  74    1.65    0.86
  -1   3  74    1.03    0.72
   0  -3  75    1.18    0.94
   3  -3  75    0.90    0.95
   1  -2  75    0.19    0.64
   4  -2  75    0.85    0.92
  -1  -1  75    0.44    0.72
   2  -1  75    0.51    0.73
   0   0  75    2.86    0.99
   3   0  75    0.34    0.96
  -2   1  75   -0.56    0.52
   1   1  75   -0.10    0.69
  -1   2  75    0.44    0.42
  -3   3  75    0.47    0.77
   0   3  75   -0.79    0.93
   1  -3  76    1.16    1.07
  -1  -2  76    0.29    0.74
   2  -2  76    0.29    0.75
   0  -1  76    1.40    0.85
   3  -1  76    0.13    0.80
  -2   0  76    1.36    0.79
   1   0  76    0.29    0.66
  -1   1  76    1.26    0.48
   2   1  76    0.72    0.98
  -3   2  76    0.21    0.64
   0   2  76    0.07    0.66
  -2   3  76    0.50    0.65
   2  -3  77   20.66    2.79
   0  -2  77   23.96    2.84
   3  -2  77   24.06    2.71
  -2  -1  77   20.66    2.51
   1  -1  77   36.95    2.80
  -1   0  77   33.11    2.61
   2   0  77   30.64    3.13
  -3   1  77   26.36    2.50
   0   1  77   33.74    1.73
  -2   2  77   28.05    2.49
   1   2  77   25.07    3.29
  -1   3  77   22.84    2.35
   0  -3  78    2.20    1.24
   3  -3  78    2.05    1.12
   1  -2  78    1.02    0.87
  -1  -1  78    2.28    1.00
   2  -1  78    1.40    0.83
   0   0  78    2.66    0.96
   3   0  78    2.48    1.19
  -2   1  78    3.28    0.98
   1   1  78    1.83    1.03
  -1   2  78    2.46    0.61
  -3   3  78    1.58    0.86
   0   3  78    0.93    1.15
   1  -3  79   -0.23    0.85
  -1  -2  79   -0.85    0.60
   2  -2  79    0.58    0.79
   0  -1  79    0.09    0.61
   3  -1  79    2.84    1.14
  -2   0  79    0.08    0.68
   1   0  79   -0.23    0.55
  -1   1  79    0.65    0.45
   2   1  79    1.34    1.08
  -3   2  79    0.02    0.66
   0   2  79   -0.88    0.63
  -2   3  79    0.59    0.62
   2  -3  80   14.75    2.33
   0  -2  80   14.37    2.24
   3  -2  80   14.73    2.13
  -2  -1  80   11.86    1.94
   1  -1  80   14.91    2.06
  -1   0  80   20.49    2.34
   2   0  80   14.61    2.12
   0   1  80   18.36    1.45
  -2   2  80   15.40    1.85
   1   2  80   14.06    2.51
  -1   3  80   12.16    1.75
   1  -2  81    1.16    0.86
  -1  -1  81    1.36    0.86
   2  -1  81    3.98    1.19
   0   0  81    1.70    0.85
  -2   1  81    2.05    0.79
   1   1  81    1.95    1.10
  -1   2  81    1.68    0.78
   0   3  81    2.28    1.31
   1  -3  82  107.25    6.25
  -1  -2  82  108.62    5.94
   2  -2  82  120.11    6.18
   0  -1  82  156.02    7.10
   3  -1  82   94.11    5.46
   1   0  82  148.00    6.89
  -1   1  82  147.67    4.42
  -3   2  82  109.26    5.19
   0   2  82  115.52    6.14
  -2   3  82  107.10    5.13
   0  -2  83   -0.15    0.70
   3  -2  83    0.26    0.84
  -2  -1  83    0.77    0.91
   1  -1  83    1.20    0.79
  -1   0  83    0.35    0.77
   2   0  83    0.38    0.76
   0   1  83    0.63    0.49
  -2   2  83    0.92    0.72
   1   2  83    0.19    1.01
   1  -2  84    0.29    0.72
  -1  -1  84    1.15    0.86
   2  -1  84   -0.47    0.58
   0   0  84   -0.60    0.53
   1   1  84    0.08    0.82
  -1   2  84    0.99    0.67
   2  -2  85   53.36    3.75
   0  -1  85   61.61    3.96
   1   0  85   56.36    3.76
  -1   1  85   61.27    2.43
   0   2  85   48.17    2.34
   0  -2  86    0.44    0.80
   1  -1  86   -0.24    0.55
  -1   0  86   -0.40    0.62
   2   0  86    1.14    0.89
   0   1  86   -0.47    0.40
  -2   2  86    0.25    0.62
   1  -2  87    0.16    0.72
  -1  -1  87    0.59    0.80
   2  -1  87   -0.20    0.56
   0   0  87   -0.30    0.60
   1   1  87    0.16    0.75
  -1   2  87    0.25    0.65
   0  -1  88   11.49    1.94
   1   0  88   10.22    1.78
  -1   1  88   14.59    1.99
   0   2  88    9.24    1.16
   1  -1  89    6.24    1.47
  -1   0  89    7.85    1.54
   0   1  89    6.12    1.42
  -2   2  89    4.68    1.21
  -1  -1  90    5.53    1.46
   0   0  90    7.04    1.47
  -1   2  90    5.93    1.26
   0  -1  91   12.80    2.03
   1   0  91   13.61    2.05
  -1   1  91   13.10    1.93
   1  -1  92   48.60    3.52
  -1   0  92   43.47    3.22
   0   1  92   45.06    3.30
   0   0  93   32.30    3.16
  -1   0  95   44.51    3.24
   0   0   0    0.00    0.00
;
_shelx_hkl_checksum              37757
loop_
_space_group_symop_operation_xyz
'x, y, z'
'-y, x-y, z'
'-x+y, -x, z'
'y, x, -z'
'x-y, -y, -z'
'-x, -x+y, -z'
'x+2/3, y+1/3, z+1/3'
'-y+2/3, x-y+1/3, z+1/3'
'-x+y+2/3, -x+1/3, z+1/3'
'y+2/3, x+1/3, -z+1/3'
'x-y+2/3, -y+1/3, -z+1/3'
'-x+2/3, -x+y+1/3, -z+1/3'
'x+1/3, y+2/3, z+2/3'
'-y+1/3, x-y+2/3, z+2/3'
'-x+y+1/3, -x+2/3, z+2/3'
'y+1/3, x+2/3, -z+2/3'
'x-y+1/3, -y+2/3, -z+2/3'
'-x+1/3, -x+y+2/3, -z+2/3'
'-x, -y, -z'
'y, -x+y, -z'
'x-y, x, -z'
'-y, -x, z'
'-x+y, y, z'
'x, x-y, z'
'-x+2/3, -y+1/3, -z+1/3'
'y+2/3, -x+y+1/3, -z+1/3'
'x-y+2/3, x+1/3, -z+1/3'
'-y+2/3, -x+1/3, z+1/3'
'-x+y+2/3, y+1/3, z+1/3'
'x+2/3, x-y+1/3, z+1/3'
'-x+1/3, -y+2/3, -z+2/3'
'y+1/3, -x+y+2/3, -z+2/3'
'x-y+1/3, x+2/3, -z+2/3'
'-y+1/3, -x+2/3, z+2/3'
'-x+y+1/3, y+2/3, z+2/3'
'x+1/3, x-y+2/3, z+2/3'
loop_
_atom_site_label
_atom_site_type_symbol
_atom_site_fract_x
_atom_site_fract_y
_atom_site_fract_z
_atom_site_U_iso_or_equiv
_atom_site_adp_type
_atom_site_occupancy
_atom_site_site_symmetry_order
_atom_site_calc_flag
_atom_site_refinement_flags_posn
_atom_site_refinement_flags_adp
_atom_site_refinement_flags_occupancy
Pr1 Pr 0.0000 0.0000 0.38893(2) 0.00787(11) Uani 1 6 d S T P
Pr2 Pr 0.0000 0.0000 0.5000 0.0105(3) Uani 0.461(3) 12 d S T .
Pr3 Pr 0.0000 0.0000 0.0000 0.00716(12) Uani 1 12 d S T P
Zn1A Zn 0.0000 0.0000 0.12902(2) 0.0237(3) Uani 0.879(3) 6 d S T P
Zn1B Zn 0.0000 0.0000 0.14966(15) 0.0237(3) Uani 0.121(3) 6 d S T P
Zn2 Zn 0.0000 0.0000 0.23482(2) 0.0165(2) Uani 1 6 d S T P
As1 As 0.0000 0.0000 0.08505(2) 0.00880(15) Uani 1 6 d S T P
As2 As 0.0000 0.0000 0.19442(2) 0.01156(16) Uani 1 6 d S T P
As3 As 0.0000 0.0000 0.30502(2) 0.00791(14) Uani 1 6 d S T P
loop_
_atom_site_aniso_label
_atom_site_aniso_U_11
_atom_site_aniso_U_22
_atom_site_aniso_U_33
_atom_site_aniso_U_23
_atom_site_aniso_U_13
_atom_site_aniso_U_12
Pr1 0.00740(13) 0.00740(13) 0.00882(17) 0.000 0.000 0.00370(6)
Pr2 0.0110(4) 0.0110(4) 0.0096(5) 0.000 0.000 0.0055(2)
Pr3 0.00700(15) 0.00700(15) 0.0075(2) 0.000 0.000 0.00350(8)
Zn1A 0.0178(4) 0.0178(4) 0.0354(7) 0.000 0.000 0.00891(18)
Zn1B 0.0178(4) 0.0178(4) 0.0354(7) 0.000 0.000 0.00891(18)
Zn2 0.0167(3) 0.0167(3) 0.0159(4) 0.000 0.000 0.00837(14)
As1 0.0079(2) 0.0079(2) 0.0105(3) 0.000 0.000 0.00397(10)
As2 0.0106(2) 0.0106(2) 0.0136(3) 0.000 0.000 0.00528(11)
As3 0.0077(2) 0.0077(2) 0.0084(3) 0.000 0.000 0.00384(10)
loop_
_atom_type_symbol
_atom_type_description
_atom_type_scat_dispersion_real
_atom_type_scat_dispersion_imag
_atom_type_scat_source
Zn Zn 0.2839 1.4301 'International Tables Vol C Tables 4.2.6.8 and 6.1.1.4'
As As 0.0499 2.0058 'International Tables Vol C Tables 4.2.6.8 and 6.1.1.4'
Pr Pr -0.2180 2.8214 'International Tables Vol C Tables 4.2.6.8 and 6.1.1.4'
loop_
_geom_angle_atom_site_label_1
_geom_angle_atom_site_label_2
_geom_angle_atom_site_label_3
_geom_angle
_geom_angle_site_symmetry_1
_geom_angle_site_symmetry_3
As3 Pr1 As3 90.186(18) 31_445 31
As3 Pr1 As3 90.185(18) 31_445 31_545
As3 Pr1 As3 90.186(19) 31 31_545
As3 Pr1 As1 177.911(18) 31_445 7
As3 Pr1 As1 91.289(14) 31 7
As3 Pr1 As1 91.289(13) 31_545 7
As3 Pr1 As1 91.289(14) 31_445 7_445
As3 Pr1 As1 177.911(18) 31 7_445
As3 Pr1 As1 91.289(14) 31_545 7_445
As1 Pr1 As1 87.199(19) 7 7_445
As3 Pr1 As1 91.289(13) 31_445 7_455
As3 Pr1 As1 91.289(14) 31 7_455
As3 Pr1 As1 177.911(18) 31_545 7_455
As1 Pr1 As1 87.199(19) 7 7_455
As1 Pr1 As1 87.199(19) 7_445 7_455
As3 Pr1 Zn2 134.519(8) 31_445 31
As3 Pr1 Zn2 83.034(19) 31 31
As3 Pr1 Zn2 134.518(8) 31_545 31
As1 Pr1 Zn2 44.294(8) 7 31
As1 Pr1 Zn2 94.88(2) 7_445 31
As1 Pr1 Zn2 44.295(8) 7_455 31
As3 Pr1 Zn2 83.034(19) 31_445 31_445
As3 Pr1 Zn2 134.519(8) 31 31_445
As3 Pr1 Zn2 134.518(8) 31_545 31_445
As1 Pr1 Zn2 94.88(2) 7 31_445
As1 Pr1 Zn2 44.294(8) 7_445 31_445
As1 Pr1 Zn2 44.295(8) 7_455 31_445
Zn2 Pr1 Zn2 70.99(2) 31 31_445
As3 Pr1 Zn2 134.518(8) 31_445 31_545
As3 Pr1 Zn2 134.518(8) 31 31_545
As3 Pr1 Zn2 83.033(19) 31_545 31_545
As1 Pr1 Zn2 44.295(8) 7 31_545
As1 Pr1 Zn2 44.295(8) 7_445 31_545
As1 Pr1 Zn2 94.88(2) 7_455 31_545
Zn2 Pr1 Zn2 70.99(2) 31 31_545
Zn2 Pr1 Zn2 70.99(2) 31_445 31_545
Zn1B Pr2 Zn1B 180.0 31 7_445
Zn1B Pr2 Zn1B 105.0(2) 31 31_445
Zn1B Pr2 Zn1B 75.0(2) 7_445 31_445
Zn1B Pr2 Zn1B 75.0(2) 31 7
Zn1B Pr2 Zn1B 105.0(2) 7_445 7
Zn1B Pr2 Zn1B 180.0(4) 31_445 7
Zn1B Pr2 Zn1B 105.0(2) 31 31_545
Zn1B Pr2 Zn1B 75.0(2) 7_445 31_545
Zn1B Pr2 Zn1B 105.0(2) 31_445 31_545
Zn1B Pr2 Zn1B 75.0(2) 7 31_545
Zn1B Pr2 Zn1B 75.0(2) 31 7_455
Zn1B Pr2 Zn1B 105.0(2) 7_445 7_455
Zn1B Pr2 Zn1B 75.0(2) 31_445 7_455
Zn1B Pr2 Zn1B 105.0(2) 7 7_455
Zn1B Pr2 Zn1B 180.0(4) 31_545 7_455
Zn1B Pr2 As2 127.31(9) 31 31_445
Zn1B Pr2 As2 52.69(9) 7_445 31_445
Zn1B Pr2 As2 59.28(19) 31_445 31_445
Zn1B Pr2 As2 120.72(19) 7 31_445
Zn1B Pr2 As2 127.31(9) 31_545 31_445
Zn1B Pr2 As2 52.69(9) 7_455 31_445
Zn1B Pr2 As2 52.69(9) 31 7
Zn1B Pr2 As2 127.31(9) 7_445 7
Zn1B Pr2 As2 120.72(19) 31_445 7
Zn1B Pr2 As2 59.28(19) 7 7
Zn1B Pr2 As2 52.69(9) 31_545 7
Zn1B Pr2 As2 127.31(9) 7_455 7
As2 Pr2 As2 180.00(2) 31_445 7
Zn1B Pr2 As2 59.28(19) 31 31
Zn1B Pr2 As2 120.72(19) 7_445 31
Zn1B Pr2 As2 127.31(9) 31_445 31
Zn1B Pr2 As2 52.69(9) 7 31
Zn1B Pr2 As2 127.31(9) 31_545 31
Zn1B Pr2 As2 52.69(9) 7_455 31
As2 Pr2 As2 89.530(18) 31_445 31
As2 Pr2 As2 90.470(19) 7 31
Zn1B Pr2 As2 120.72(19) 31 7_445
Zn1B Pr2 As2 59.28(19) 7_445 7_445
Zn1B Pr2 As2 52.69(9) 31_445 7_445
Zn1B Pr2 As2 127.31(9) 7 7_445
Zn1B Pr2 As2 52.69(9) 31_545 7_445
Zn1B Pr2 As2 127.31(9) 7_455 7_445
As2 Pr2 As2 90.470(18) 31_445 7_445
As2 Pr2 As2 89.530(18) 7 7_445
As2 Pr2 As2 180.0 31 7_445
Zn1B Pr2 As2 127.31(9) 31 31_545
Zn1B Pr2 As2 52.69(9) 7_445 31_545
Zn1B Pr2 As2 127.31(9) 31_445 31_545
Zn1B Pr2 As2 52.69(9) 7 31_545
Zn1B Pr2 As2 59.28(19) 31_545 31_545
Zn1B Pr2 As2 120.72(19) 7_455 31_545
As2 Pr2 As2 89.530(18) 31_445 31_545
As2 Pr2 As2 90.470(18) 7 31_545
As2 Pr2 As2 89.530(18) 31 31_545
As2 Pr2 As2 90.470(18) 7_445 31_545
Zn1B Pr2 As2 52.69(9) 31 7_455
Zn1B Pr2 As2 127.31(9) 7_445 7_455
Zn1B Pr2 As2 52.69(9) 31_445 7_455
Zn1B Pr2 As2 127.31(9) 7 7_455
Zn1B Pr2 As2 120.72(19) 31_545 7_455
Zn1B Pr2 As2 59.28(19) 7_455 7_455
As2 Pr2 As2 90.470(18) 31_445 7_455
As2 Pr2 As2 89.530(18) 7 7_455
As2 Pr2 As2 90.470(18) 31 7_455
As2 Pr2 As2 89.530(18) 7_445 7_455
As2 Pr2 As2 180.00(2) 31_545 7_455
As3 Pr3 As3 180.00(2) 25 13_444
As3 Pr3 As3 88.750(17) 25 25_445
As3 Pr3 As3 91.250(17) 13_444 25_445
As3 Pr3 As3 91.250(17) 25 13_554
As3 Pr3 As3 88.750(17) 13_444 13_554
As3 Pr3 As3 180.00(2) 25_445 13_554
As3 Pr3 As3 91.250(17) 25 13_544
As3 Pr3 As3 88.750(17) 13_444 13_544
As3 Pr3 As3 91.250(17) 25_445 13_544
As3 Pr3 As3 88.750(17) 13_554 13_544
As3 Pr3 As3 88.750(17) 25 25_455
As3 Pr3 As3 91.250(17) 13_444 25_455
As3 Pr3 As3 88.750(17) 25_445 25_455
As3 Pr3 As3 91.250(17) 13_554 25_455
As3 Pr3 As3 180.00(2) 13_544 25_455
Zn1B Zn1A As2 75.68(3) . 25
Zn1B Zn1A As2 75.68(3) . 25_445
As2 Zn1A As2 114.10(3) 25 25_445
Zn1B Zn1A As2 75.68(3) . 25_455
As2 Zn1A As2 114.09(3) 25 25_455
As2 Zn1A As2 114.09(3) 25_445 25_455
Zn1B Zn1A As1 180.0 . .
As2 Zn1A As1 104.32(3) 25 .
As2 Zn1A As1 104.32(3) 25_445 .
As2 Zn1A As1 104.32(3) 25_455 .
Zn1B Zn1A Zn2 128.19(3) . 25_445
As2 Zn1A Zn2 122.26(2) 25 25_445
As2 Zn1A Zn2 52.51(2) 25_445 25_445
As2 Zn1A Zn2 122.25(2) 25_455 25_445
As1 Zn1A Zn2 51.81(3) . 25_445
Zn1B Zn1A Zn2 128.19(3) . 25
As2 Zn1A Zn2 52.51(2) 25 25
As2 Zn1A Zn2 122.26(2) 25_445 25
As2 Zn1A Zn2 122.25(2) 25_455 25
As1 Zn1A Zn2 51.81(3) . 25
Zn2 Zn1A Zn2 85.79(4) 25_445 25
Zn1B Zn1A Zn2 128.19(3) . 25_455
As2 Zn1A Zn2 122.25(2) 25 25_455
As2 Zn1A Zn2 122.25(2) 25_445 25_455
As2 Zn1A Zn2 52.51(2) 25_455 25_455
As1 Zn1A Zn2 51.81(3) . 25_455
Zn2 Zn1A Zn2 85.79(4) 25_445 25_455
Zn2 Zn1A Zn2 85.79(4) 25 25_455
Zn1B Zn1A Pr2 45.846(17) . 13_554
As2 Zn1A Pr2 58.68(2) 25 13_554
As2 Zn1A Pr2 121.53(5) 25_445 13_554
As2 Zn1A Pr2 58.68(2) 25_455 13_554
As1 Zn1A Pr2 134.154(17) . 13_554
Zn2 Zn1A Pr2 174.04(4) 25_445 13_554
Zn2 Zn1A Pr2 98.552(15) 25 13_554
Zn2 Zn1A Pr2 98.552(15) 25_455 13_554
Zn1B Zn1A Pr2 45.846(17) . 13_444
As2 Zn1A Pr2 121.53(5) 25 13_444
As2 Zn1A Pr2 58.68(2) 25_445 13_444
As2 Zn1A Pr2 58.68(2) 25_455 13_444
As1 Zn1A Pr2 134.154(17) . 13_444
Zn2 Zn1A Pr2 98.552(15) 25_445 13_444
Zn2 Zn1A Pr2 174.04(4) 25 13_444
Zn2 Zn1A Pr2 98.552(15) 25_455 13_444
Pr2 Zn1A Pr2 76.83(3) 13_554 13_444
Zn1B Zn1A Pr2 45.846(17) . 13_544
As2 Zn1A Pr2 58.68(2) 25 13_544
As2 Zn1A Pr2 58.68(2) 25_445 13_544
As2 Zn1A Pr2 121.53(5) 25_455 13_544
As1 Zn1A Pr2 134.154(17) . 13_544
Zn2 Zn1A Pr2 98.552(15) 25_445 13_544
Zn2 Zn1A Pr2 98.552(15) 25 13_544
Zn2 Zn1A Pr2 174.04(4) 25_455 13_544
Pr2 Zn1A Pr2 76.83(3) 13_554 13_544
Pr2 Zn1A Pr2 76.83(3) 13_444 13_544
Zn1A Zn1B As2 74.5(2) . 25_445
Zn1A Zn1B As2 74.5(2) . 25
As2 Zn1B As2 113.14(18) 25_445 25
Zn1A Zn1B As2 74.5(2) . 25_455
As2 Zn1B As2 113.14(18) 25_445 25_455
As2 Zn1B As2 113.14(18) 25 25_455
Zn1A Zn1B Pr2 113.68(19) . 13_554
As2 Zn1B Pr2 171.8(4) 25_445 13_554
As2 Zn1B Pr2 70.49(3) 25 13_554
As2 Zn1B Pr2 70.49(3) 25_455 13_554
Zn1A Zn1B Pr2 113.68(19) . 13_444
As2 Zn1B Pr2 70.49(3) 25_445 13_444
As2 Zn1B Pr2 171.8(4) 25 13_444
As2 Zn1B Pr2 70.49(3) 25_455 13_444
Pr2 Zn1B Pr2 105.0(2) 13_554 13_444
Zn1A Zn1B Pr2 113.68(19) . 13_544
As2 Zn1B Pr2 70.49(3) 25_445 13_544
As2 Zn1B Pr2 70.49(3) 25 13_544
As2 Zn1B Pr2 171.8(4) 25_455 13_544
Pr2 Zn1B Pr2 105.0(2) 13_554 13_544
Pr2 Zn1B Pr2 105.0(2) 13_444 13_544
Zn1A Zn1B As2 180.0 . .
As2 Zn1B As2 105.5(2) 25_445 .
As2 Zn1B As2 105.5(2) 25 .
As2 Zn1B As2 105.5(2) 25_455 .
Pr2 Zn1B As2 66.32(19) 13_554 .
Pr2 Zn1B As2 66.32(19) 13_444 .
Pr2 Zn1B As2 66.32(19) 13_544 .
As2 Zn2 As1 109.15(3) . 25
As2 Zn2 As1 109.15(3) . 25_445
As1 Zn2 As1 109.79(2) 25 25_445
As2 Zn2 As1 109.15(3) . 25_455
As1 Zn2 As1 109.79(2) 25 25_455
As1 Zn2 As1 109.79(2) 25_445 25_455
As2 Zn2 Zn1A 51.81(3) . 25_445
As1 Zn2 Zn1A 125.036(15) 25 25_445
As1 Zn2 Zn1A 57.34(3) 25_445 25_445
As1 Zn2 Zn1A 125.035(15) 25_455 25_445
As2 Zn2 Zn1A 51.81(3) . 25
As1 Zn2 Zn1A 57.34(3) 25 25
As1 Zn2 Zn1A 125.036(15) 25_445 25
As1 Zn2 Zn1A 125.035(14) 25_455 25
Zn1A Zn2 Zn1A 85.79(4) 25_445 25
As2 Zn2 Zn1A 51.81(3) . 25_455
As1 Zn2 Zn1A 125.035(14) 25 25_455
As1 Zn2 Zn1A 125.035(15) 25_445 25_455
As1 Zn2 Zn1A 57.34(3) 25_455 25_455
Zn1A Zn2 Zn1A 85.79(4) 25_445 25_455
Zn1A Zn2 Zn1A 85.79(4) 25 25_455
As2 Zn2 Pr1 137.903(13) . 31
As1 Zn2 Pr1 55.937(16) 25 31
As1 Zn2 Pr1 112.94(4) 25_445 31
As1 Zn2 Pr1 55.938(16) 25_455 31
Zn1A Zn2 Pr1 170.29(3) 25_445 31
Zn1A Zn2 Pr1 101.263(19) 25 31
Zn1A Zn2 Pr1 101.263(19) 25_455 31
As2 Zn2 Pr1 137.903(13) . 31_445
As1 Zn2 Pr1 112.94(4) 25 31_445
As1 Zn2 Pr1 55.937(16) 25_445 31_445
As1 Zn2 Pr1 55.938(16) 25_455 31_445
Zn1A Zn2 Pr1 101.263(19) 25_445 31_445
Zn1A Zn2 Pr1 170.29(3) 25 31_445
Zn1A Zn2 Pr1 101.263(19) 25_455 31_445
Pr1 Zn2 Pr1 70.98(2) 31 31_445
As2 Zn2 Pr1 137.902(13) . 31_545
As1 Zn2 Pr1 55.938(16) 25 31_545
As1 Zn2 Pr1 55.938(16) 25_445 31_545
As1 Zn2 Pr1 112.94(4) 25_455 31_545
Zn1A Zn2 Pr1 101.263(19) 25_445 31_545
Zn1A Zn2 Pr1 101.263(19) 25 31_545
Zn1A Zn2 Pr1 170.29(3) 25_455 31_545
Pr1 Zn2 Pr1 70.98(2) 31 31_545
Pr1 Zn2 Pr1 70.98(2) 31_445 31_545
Zn2 As1 Zn2 109.79(2) 25 25_445
Zn2 As1 Zn2 109.78(2) 25 25_455
Zn2 As1 Zn2 109.78(2) 25_445 25_455
Zn2 As1 Zn1A 70.84(3) 25 .
Zn2 As1 Zn1A 70.84(3) 25_445 .
Zn2 As1 Zn1A 70.84(3) 25_455 .
Zn2 As1 Pr1 161.94(3) 25 13_444
Zn2 As1 Pr1 79.768(17) 25_445 13_444
Zn2 As1 Pr1 79.769(17) 25_455 13_444
Zn1A As1 Pr1 127.221(13) . 13_444
Zn2 As1 Pr1 79.768(17) 25 13_554
Zn2 As1 Pr1 161.94(3) 25_445 13_554
Zn2 As1 Pr1 79.769(17) 25_455 13_554
Zn1A As1 Pr1 127.221(13) . 13_554
Pr1 As1 Pr1 87.201(19) 13_444 13_554
Zn2 As1 Pr1 79.769(17) 25 13_544
Zn2 As1 Pr1 79.769(17) 25_445 13_544
Zn2 As1 Pr1 161.94(3) 25_455 13_544
Zn1A As1 Pr1 127.220(13) . 13_544
Pr1 As1 Pr1 87.201(19) 13_444 13_544
Pr1 As1 Pr1 87.201(19) 13_554 13_544
Zn1A As2 Zn1A 114.10(3) 25 25_445
Zn1A As2 Zn1A 114.10(3) 25 25_455
Zn1A As2 Zn1A 114.10(3) 25_445 25_455
Zn1A As2 Zn1B 122.20(3) 25 25_445
Zn1A As2 Zn1B 29.8(2) 25_445 25_445
Zn1A As2 Zn1B 122.20(3) 25_455 25_445
Zn1A As2 Zn1B 29.8(2) 25 25
Zn1A As2 Zn1B 122.20(3) 25_445 25
Zn1A As2 Zn1B 122.20(3) 25_455 25
Zn1B As2 Zn1B 113.15(18) 25_445 25
Zn1A As2 Zn1B 122.20(3) 25 25_455
Zn1A As2 Zn1B 122.20(3) 25_445 25_455
Zn1A As2 Zn1B 29.8(2) 25_455 25_455
Zn1B As2 Zn1B 113.15(18) 25_445 25_455
Zn1B As2 Zn1B 113.15(18) 25 25_455
Zn1A As2 Zn2 75.68(3) 25 .
Zn1A As2 Zn2 75.68(3) 25_445 .
Zn1A As2 Zn2 75.68(3) 25_455 .
Zn1B As2 Zn2 105.5(2) 25_445 .
Zn1B As2 Zn2 105.5(2) 25 .
Zn1B As2 Zn2 105.5(2) 25_455 .
Zn1A As2 Zn1B 104.32(3) 25 .
Zn1A As2 Zn1B 104.32(3) 25_445 .
Zn1A As2 Zn1B 104.32(3) 25_455 .
Zn1B As2 Zn1B 74.5(2) 25_445 .
Zn1B As2 Zn1B 74.5(2) 25 .
Zn1B As2 Zn1B 74.5(2) 25_455 .
Zn2 As2 Zn1B 180.0 . .
Zn1A As2 Pr2 158.72(4) 25 13_444
Zn1A As2 Pr2 75.52(2) 25_445 13_444
Zn1A As2 Pr2 75.52(2) 25_455 13_444
Zn1B As2 Pr2 56.82(12) 25_445 13_444
Zn1B As2 Pr2 128.9(2) 25 13_444
Zn1B As2 Pr2 56.82(12) 25_455 13_444
Zn2 As2 Pr2 125.596(13) . 13_444
Zn1B As2 Pr2 54.404(13) . 13_444
Zn1A As2 Pr2 75.52(2) 25 13_554
Zn1A As2 Pr2 158.72(4) 25_445 13_554
Zn1A As2 Pr2 75.52(2) 25_455 13_554
Zn1B As2 Pr2 128.9(2) 25_445 13_554
Zn1B As2 Pr2 56.82(12) 25 13_554
Zn1B As2 Pr2 56.82(12) 25_455 13_554
Zn2 As2 Pr2 125.596(13) . 13_554
Zn1B As2 Pr2 54.404(13) . 13_554
Pr2 As2 Pr2 89.530(18) 13_444 13_554
Zn1A As2 Pr2 75.52(2) 25 13_544
Zn1A As2 Pr2 75.52(2) 25_445 13_544
Zn1A As2 Pr2 158.72(4) 25_455 13_544
Zn1B As2 Pr2 56.82(12) 25_445 13_544
Zn1B As2 Pr2 56.82(12) 25 13_544
Zn1B As2 Pr2 128.9(2) 25_455 13_544
Zn2 As2 Pr2 125.596(13) . 13_544
Zn1B As2 Pr2 54.404(13) . 13_544
Pr2 As2 Pr2 89.530(18) 13_444 13_544
Pr2 As2 Pr2 89.530(18) 13_554 13_544
Pr1 As3 Pr1 90.187(18) 31_445 31
Pr1 As3 Pr1 90.186(19) 31_445 31_545
Pr1 As3 Pr1 90.186(19) 31 31_545
Pr1 As3 Pr3 178.99(2) 31_445 7
Pr1 As3 Pr3 90.526(10) 31 7
Pr1 As3 Pr3 90.527(10) 31_545 7
Pr1 As3 Pr3 90.526(10) 31_445 7_445
Pr1 As3 Pr3 178.99(2) 31 7_445
Pr1 As3 Pr3 90.527(10) 31_545 7_445
Pr3 As3 Pr3 88.752(17) 7 7_445
Pr1 As3 Pr3 90.527(10) 31_445 7_455
Pr1 As3 Pr3 90.527(10) 31 7_455
Pr1 As3 Pr3 178.99(2) 31_545 7_455
Pr3 As3 Pr3 88.752(17) 7 7_455
Pr3 As3 Pr3 88.752(17) 7_445 7_455
loop_
_geom_bond_atom_site_label_1
_geom_bond_atom_site_label_2
_geom_bond_distance
_geom_bond_site_symmetry_2
Pr1 As3 2.9698(6) 31_445
Pr1 As3 2.9698(6) 31
Pr1 As3 2.9698(6) 31_545
Pr1 As1 3.0500(6) 7
Pr1 As1 3.0500(6) 7_445
Pr1 As1 3.0501(6) 7_455
Pr1 Zn2 3.6227(9) 31
Pr1 Zn2 3.6227(9) 31_445
Pr1 Zn2 3.6227(9) 31_545
Pr2 Zn1B 2.652(4) 31
Pr2 Zn1B 2.652(4) 7_445
Pr2 Zn1B 2.652(4) 31_445
Pr2 Zn1B 2.652(4) 7
Pr2 Zn1B 2.652(4) 31_545
Pr2 Zn1B 2.652(4) 7_455
Pr2 As2 2.9869(6) 31_445
Pr2 As2 2.9869(6) 7
Pr2 As2 2.9869(6) 31
Pr2 As2 2.9869(6) 7_445
Pr2 As2 2.9869(6) 31_545
Pr2 As2 2.9869(6) 7_455
Pr3 As3 3.0076(5) 25
Pr3 As3 3.0076(5) 13_444
Pr3 As3 3.0076(5) 25_445
Pr3 As3 3.0076(5) 13_554
Pr3 As3 3.0076(5) 13_544
Pr3 As3 3.0076(5) 25_455
Zn1A Zn1B 1.293(10) .
Zn1A As2 2.5066(6) 25
Zn1A As2 2.5066(5) 25_445
Zn1A As2 2.5066(5) 25_455
Zn1A As1 2.7542(16) .
Zn1A Zn2 3.0901(11) 25_445
Zn1A Zn2 3.0901(11) 25
Zn1A Zn2 3.0901(11) 25_455
Zn1A Pr2 3.3851(10) 13_554
Zn1A Pr2 3.3851(10) 13_444
Zn1A Pr2 3.3851(10) 13_544
Zn1B As2 2.520(3) 25_445
Zn1B As2 2.520(3) 25
Zn1B As2 2.520(3) 25_455
Zn1B Pr2 2.652(4) 13_554
Zn1B Pr2 2.652(4) 13_444
Zn1B Pr2 2.652(4) 13_544
Zn1B As2 2.804(10) .
Zn2 As2 2.5303(12) .
Zn2 As1 2.5711(5) 25
Zn2 As1 2.5711(5) 25_445
Zn2 As1 2.5711(5) 25_455
Zn2 Zn1A 3.0901(11) 25_445
Zn2 Zn1A 3.0901(11) 25
Zn2 Zn1A 3.0902(11) 25_455
Zn2 Pr1 3.6229(9) 31
Zn2 Pr1 3.6229(9) 31_445
Zn2 Pr1 3.6229(9) 31_545
As1 Zn2 2.5711(5) 25
As1 Zn2 2.5711(5) 25_445
As1 Zn2 2.5711(5) 25_455
As1 Pr1 3.0500(6) 13_444
As1 Pr1 3.0500(6) 13_554
As1 Pr1 3.0500(6) 13_544
As2 Zn1A 2.5066(6) 25
As2 Zn1A 2.5066(6) 25_445
As2 Zn1A 2.5066(5) 25_455
As2 Zn1B 2.520(3) 25_445
As2 Zn1B 2.520(3) 25
As2 Zn1B 2.520(3) 25_455
As2 Pr2 2.9869(6) 13_444
As2 Pr2 2.9869(6) 13_554
As2 Pr2 2.9869(6) 13_544
As3 Pr1 2.9698(6) 31_445
As3 Pr1 2.9698(6) 31
As3 Pr1 2.9698(6) 31_545
As3 Pr3 3.0075(5) 7
As3 Pr3 3.0075(5) 7_445
As3 Pr3 3.0075(5) 7_455
