#------------------------------------------------------------------------------
#$Date: 2016-04-05 20:26:42 +0300 (Tue, 05 Apr 2016) $
#$Revision: 181719 $
#$URL: svn://www.crystallography.net/cod/cif/7/03/75/7037527.cif $
#------------------------------------------------------------------------------
#
# This file is available in the Crystallography Open Database (COD),
# http://www.crystallography.net/
#
# All data on this site have been placed in the public domain by the
# contributors.
#
data_7037527
loop_
_publ_author_name
'Wang, Wei'
'Meng, Wei'
'Du, Haifeng'
_publ_section_title
;
 B(C6F5)3-catalyzed metal-free hydrogenation of 3,6-diarylpyridazines.
;
_journal_issue                   14
_journal_name_full
'Dalton transactions (Cambridge, England : 2003)'
_journal_page_first              5945
_journal_page_last               5948
_journal_paper_doi               10.1039/c5dt03872c
_journal_volume                  45
_journal_year                    2016
_chemical_formula_moiety         'C16 H14 F2 N2'
_chemical_formula_sum            'C16 H14 F2 N2'
_chemical_formula_weight         272.29
_chemical_name_systematic
;
 ?
;
_space_group_crystal_system      triclinic
_space_group_IT_number           2
_space_group_name_Hall           '-P 1'
_space_group_name_H-M_alt        'P -1'
_symmetry_space_group_name_Hall  '-P 1'
_symmetry_space_group_name_H-M   'P -1'
_atom_sites_solution_hydrogens   mixed
_audit_creation_date             2014-09-04
_audit_creation_method
;
Olex2 1.2
(compiled 2013.12.10 svn.r2850 for OlexSys, GUI svn.r4736)
;
_audit_update_record
;
2015-09-29 deposited with the CCDC.
2015-12-02 downloaded from the CCDC.
;
_cell_angle_alpha                97.097(6)
_cell_angle_beta                 103.762(8)
_cell_angle_gamma                92.953(4)
_cell_formula_units_Z            2
_cell_length_a                   5.633(2)
_cell_length_b                   10.581(4)
_cell_length_c                   11.330(5)
_cell_measurement_reflns_used    2077
_cell_measurement_temperature    173.1500
_cell_measurement_theta_max      27.4832
_cell_measurement_theta_min      2.8817
_cell_volume                     648.6(4)
_computing_cell_refinement       'CrystalClear (Rigaku Inc., 2007)'
_computing_data_collection       'CrystalClear (Rigaku Inc., 2007)'
_computing_data_reduction        'CrystalClear (Rigaku Inc., 2007)'
_computing_molecular_graphics    'Olex2 (Dolomanov et al., 2009)'
_computing_publication_material  'Olex2 (Dolomanov et al., 2009)'
_computing_structure_refinement  'SHELXL (Sheldrick, 2013)'
_computing_structure_solution
;
'SHELXS (Sheldrick, 2013)'
;
_diffrn_ambient_temperature      173.1500
_diffrn_detector_area_resol_mean 28.5714
_diffrn_measured_fraction_theta_full 0.995
_diffrn_measured_fraction_theta_max 0.994
_diffrn_measurement_device
;
Saturn724+ (2x2 bin mode)
;
_diffrn_measurement_device_details
;
AFC10: Fixed Chi 2 circle
;
_diffrn_measurement_device_type  'Saturn724+ CCD'
_diffrn_measurement_method       '\w scans at fixed \c = 45\%'
_diffrn_orient_matrix_type       d*Trek
_diffrn_orient_matrix_UB_11      -0.1574
_diffrn_orient_matrix_UB_12      0.0803
_diffrn_orient_matrix_UB_13      -0.0492
_diffrn_orient_matrix_UB_21      -0.0354
_diffrn_orient_matrix_UB_22      -0.0776
_diffrn_orient_matrix_UB_23      -0.0432
_diffrn_orient_matrix_UB_31      -0.0595
_diffrn_orient_matrix_UB_32      -0.0250
_diffrn_orient_matrix_UB_33      0.0652
_diffrn_radiation_detector       CCD
_diffrn_radiation_monochromator  'Graphite Monochromator'
_diffrn_radiation_type           MoK\a
_diffrn_radiation_wavelength     0.71073
_diffrn_reflns_av_R_equivalents  0.0345
_diffrn_reflns_av_unetI/netI     0.0292
_diffrn_reflns_Laue_measured_fraction_full 0.995
_diffrn_reflns_Laue_measured_fraction_max 0.994
_diffrn_reflns_limit_h_max       7
_diffrn_reflns_limit_h_min       -7
_diffrn_reflns_limit_k_max       13
_diffrn_reflns_limit_k_min       -13
_diffrn_reflns_limit_l_max       13
_diffrn_reflns_limit_l_min       -14
_diffrn_reflns_number            8212
_diffrn_reflns_point_group_measured_fraction_full 0.995
_diffrn_reflns_point_group_measured_fraction_max 0.994
_diffrn_reflns_theta_full        26.000
_diffrn_reflns_theta_max         27.483
_diffrn_reflns_theta_min         1.869
_diffrn_source                   'Sealed Tube'
_diffrn_source_current           30.0000
_diffrn_source_power             1.5000
_diffrn_source_voltage           50.0000
_exptl_absorpt_coefficient_mu    0.103
_exptl_absorpt_correction_T_max  1.0000
_exptl_absorpt_correction_T_min  0.8049
_exptl_absorpt_correction_type   multi-scan
_exptl_absorpt_process_details   'CrystalClear (Rigaku Inc., 2007)'
_exptl_crystal_colour            Colorless
_exptl_crystal_density_diffrn    1.394
_exptl_crystal_description       block
_exptl_crystal_F_000             284
_exptl_crystal_size_max          0.23
_exptl_crystal_size_mid          0.16
_exptl_crystal_size_min          0.11
_refine_diff_density_max         0.317
_refine_diff_density_min         -0.206
_refine_diff_density_rms         0.056
_refine_ls_extinction_method     none
_refine_ls_goodness_of_fit_ref   1.148
_refine_ls_hydrogen_treatment    mixed
_refine_ls_matrix_type           full
_refine_ls_number_parameters     195
_refine_ls_number_reflns         2970
_refine_ls_number_restraints     0
_refine_ls_restrained_S_all      1.148
_refine_ls_R_factor_all          0.0678
_refine_ls_R_factor_gt           0.0603
_refine_ls_shift/su_max          0.000
_refine_ls_shift/su_mean         0.000
_refine_ls_structure_factor_coef Fsqd
_refine_ls_weighting_details
'w=1/[\s^2^(Fo^2^)+(0.0561P)^2^+0.3266P] where P=(Fo^2^+2Fc^2^)/3'
_refine_ls_weighting_scheme      calc
_refine_ls_wR_factor_gt          0.1423
_refine_ls_wR_factor_ref         0.1488
_reflns_Friedel_coverage         0.000
_reflns_number_gt                2696
_reflns_number_total             2970
_reflns_threshold_expression     'I > 2\s(I)'
_cod_data_source_file            c5dt03872c2.cif
_cod_data_source_block           sa3599
_cod_depositor_comments          'Adding full bibliography for 7037527.cif.'
_cod_original_cell_volume        648.6(5)
_cod_database_code               7037527
_shelxl_version_number           2013-4
_shelx_space_group_comment
;
The symmetry employed for this shelxl refinement is uniquely defined
by the following loop, which should always be used as a source of
symmetry information in preference to the above space-group names.
They are only intended as comments.
;
_diffrn_number_total             2973
_olex2_refinement_description
;
1. Fixed Uiso
 At 1.2 times of:
  All C(H) groups, All C(H,H) groups
2. Others
 Sof(H15)=Sof(F2A)=1-FVAR(1)
 Sof(F2)=Sof(H13)=FVAR(1)
3.a Ternary CH refined with riding coordinates:
 C10(H10)
3.b Secondary CH2 refined with riding coordinates:
 C8(H8A,H8B), C9(H9A,H9B)
3.c Aromatic/amide H refined with riding coordinates:
 C2(H2A), C4(H4), C5(H5), C6(H6), C12(H12), C13(H13), C14(H14), C15(H15),
 C16(H16)
;
_shelx_res_file
;
TITL sa3599 in P-1
CELL 0.71073 5.6328 10.5811 11.3299 97.097 103.762 92.953
ZERR 2 0.0023 0.0041 0.0046 0.006 0.008 0.004
LATT 1

SFAC C H F N
UNIT 32 28 4 4
EQIV $1 1-X,2-Y,1-Z

L.S. 4
PLAN  20
HTAB N2 N1_$1
BOND
fmap 2
MORE -1
ACTA 52
HTAB
CONF
OMIT 1 7 2
OMIT 0 1 0
OMIT -1 -1 1
REM <HKL>D:/D/SXRD/sa(3501-3599)/sa3599/sa3599.hkl</HKL>

WGHT    0.056100    0.326600
FVAR      10.64953   0.69585
F1    3    0.194969    1.167123    1.082679    11.00000    0.04704    0.04059 =
         0.04102   -0.00530    0.02409   -0.00055
PART 1
F2    3    0.455645    0.422120    0.288847    21.00000    0.04852    0.05423 =
         0.06705   -0.00675    0.00903    0.02332
PART 0
N1    4    0.410887    0.947590    0.614075    11.00000    0.04092    0.03197 =
         0.02972   -0.00301    0.01392   -0.01076
N2    4    0.355602    0.854940    0.511990    11.00000    0.04970    0.03935 =
         0.02968   -0.00680    0.01876   -0.01799
C1    1    0.373038    1.044945    0.805737    11.00000    0.02520    0.02496 =
         0.02649    0.00475    0.00510    0.00302
C2    1    0.240762    1.060462    0.895586    11.00000    0.02743    0.02532 =
         0.03117    0.00376    0.00846    0.00171
AFIX  43
H2A   2    0.099060    1.007993    0.888575    11.00000   -1.20000
AFIX   0
C3    1    0.323079    1.154456    0.994585    11.00000    0.03327    0.02794 =
         0.03073    0.00492    0.01330    0.00504
C4    1    0.528193    1.236823    1.010398    11.00000    0.03620    0.02720 =
         0.02906   -0.00041    0.00553    0.00104
AFIX  43
H4    2    0.576536    1.300409    1.077777    11.00000   -1.20000
AFIX   0
C5    1    0.660452    1.220918    0.921140    11.00000    0.02800    0.03303 =
         0.03416    0.00416    0.00470   -0.00497
AFIX  43
H5    2    0.800568    1.274804    0.928662    11.00000   -1.20000
AFIX   0
C6    1    0.586512    1.126340    0.821723    11.00000    0.02700    0.03277 =
         0.02941    0.00396    0.00823   -0.00125
AFIX  43
H6    2    0.679771    1.116232    0.764124    11.00000   -1.20000
AFIX   0
C7    1    0.289778    0.945783    0.696684    11.00000    0.02639    0.02525 =
         0.02904    0.00598    0.00842    0.00043
C8    1    0.075559    0.850792    0.689044    11.00000    0.02883    0.03042 =
         0.03249    0.00125    0.01254   -0.00446
AFIX  23
H8A   2   -0.074445    0.893904    0.675447    11.00000   -1.20000
H8B   2    0.096323    0.817222    0.766423    11.00000   -1.20000
AFIX   0
C9    1    0.052873    0.740371    0.585560    11.00000    0.03269    0.02895 =
         0.03410    0.00170    0.01112   -0.00555
AFIX  23
H9A   2    0.164366    0.677327    0.613595    11.00000   -1.20000
H9B   2   -0.112819    0.699533    0.563267    11.00000   -1.20000
AFIX   0
C10   1    0.112306    0.787803    0.474106    11.00000    0.03761    0.02800 =
         0.03176   -0.00013    0.00839   -0.00076
AFIX  13
H10   2   -0.007121    0.847607    0.443484    11.00000   -1.20000
AFIX   0
C11   1    0.105812    0.679780    0.371983    11.00000    0.03721    0.02405 =
         0.03044    0.00264    0.01273   -0.00372
C12   1   -0.094616    0.656273    0.272156    11.00000    0.03809    0.02777 =
         0.03902    0.00586    0.00764    0.00127
AFIX  43
H12   2   -0.223338    0.708646    0.266399    11.00000   -1.20000
AFIX   0
C13   1   -0.104470    0.555143    0.180781    11.00000    0.04893    0.03307 =
         0.03609    0.00248    0.00357   -0.00613
PART 1
AFIX  43
H13   2   -0.241002    0.540534    0.114394    21.00000   -1.20000
AFIX   0
PART 0
C14   1    0.081619    0.475783    0.185377    11.00000    0.05572    0.02697 =
         0.03552   -0.00415    0.01378   -0.00384
AFIX  43
H14   2    0.073702    0.408074    0.123469    11.00000   -1.20000
AFIX   0
C15   1    0.279529    0.500097    0.284643    11.00000    0.04234    0.03422 =
         0.04675    0.00273    0.01753    0.00650
PART 2
AFIX  43
H15   2    0.407485    0.447308    0.289313   -21.00000   -1.20000
AFIX   0
PART 0
C16   1    0.296845    0.599873    0.378152    11.00000    0.03285    0.03785 =
         0.03287    0.00105    0.00446   -0.00157
AFIX  43
H16   2    0.433886    0.613612    0.444296    11.00000   -1.20000
AFIX   0
PART 2
F2A   3   -0.275797    0.528712    0.086594   -21.00000    0.06493    0.03778 =
         0.04000   -0.00608   -0.01682    0.00293
PART 0
H2    2    0.402888    0.885836    0.454423    11.00000    0.05052
HKLF 4

REM  sa3599 in P-1
REM R1 =  0.0603 for    2696 Fo > 4sig(Fo)  and  0.0678 for all    2970 data
REM    195 parameters refined using      0 restraints

END

WGHT      0.0561      0.3266

REM Instructions for potential hydrogen bonds
EQIV $2 -x, -y+2, -z+2
HTAB C2 F1_$2
EQIV $3 x+1, y+1, z+1
HTAB C4 F2A_$3
HTAB C8 F1_$2
EQIV $4 -x+1, -y+1, -z+1
HTAB C9 F2_$4
HTAB N2 N1_$1

REM Highest difference peak  0.317,  deepest hole -0.206,  1-sigma level  0.056
Q1    1   0.2232  0.8987  0.4863  11.00000  0.05    0.32
Q2    1   0.2314  0.7441  0.5194  11.00000  0.05    0.30
Q3    1   0.3061  1.0063  0.7439  11.00000  0.05    0.29
Q4    1   0.1195  0.7363  0.4140  11.00000  0.05    0.29
Q5    1   0.8402  1.3049  0.9488  11.00000  0.05    0.28
Q6    1   0.3471  0.9897  0.7605  11.00000  0.05    0.27
Q7    1   0.2976  1.0043  0.6069  11.00000  0.05    0.25
Q8    1  -0.0790  0.6136  0.2156  11.00000  0.05    0.23
Q9    1  -0.1032  0.5939  0.2322  11.00000  0.05    0.23
Q10   1   0.1949  0.8980  0.6969  11.00000  0.05    0.21
Q11   1   0.6254  1.1570  0.8812  11.00000  0.05    0.20
Q12   1   0.2706  0.5637  0.3210  11.00000  0.05    0.19
Q13   1   0.2366  1.1342  0.9229  11.00000  0.05    0.19
Q14   1   0.5789  1.1852  0.8579  11.00000  0.05    0.19
Q15   1   0.3199  1.0923  0.9596  11.00000  0.05    0.19
Q16   1   0.4158  1.2001  1.0003  11.00000  0.05    0.19
Q17   1  -0.0446  0.6693  0.5862  11.00000  0.05    0.17
Q18   1   0.3839  0.8936  0.5678  11.00000  0.05    0.17
Q19   1   0.5827  1.2613  1.0977  11.00000  0.05    0.16
Q20   1   0.4623  1.1776  1.0124  11.00000  0.05    0.16
;
_shelx_res_checksum              71166
_shelx_hkl_file
;
   0   0  -1  -17.91   11.76   1-0.95501 0.93894 0.23459-0.24243 0.18139-0.24412
   0   0   1    3.02   10.92   1-0.94888 0.96495 0.18804-0.18020 0.25347-0.19073
   0   0  -1   -1.93   12.07   1 0.53155-0.54764-0.84455 0.83671-0.06456 0.00180
   0   0   1    9.46   10.55   1 0.54991-0.53383-0.83521 0.84306-0.00257 0.06533
   0   0  -2  681.84   21.36   1-0.56293 0.53073-0.80716 0.79144 0.17772-0.30321
   0   0  -2  788.69   61.53   1-0.95543 0.92329 0.25727-0.27295 0.14475-0.27022
   0   0   2  717.78   45.81   1-0.94317 0.97531 0.16432-0.14860 0.28882-0.16333
   0   0  -2  683.12   40.88   1 0.52151-0.55368-0.84788 0.83218-0.09550-0.03000
   0   0   311983.93  159.45   1-0.86751 0.91583-0.33629 0.35980 0.36650-0.17829
   0   0  -312145.85  164.89   1-0.47013 0.42188-0.87332 0.84982 0.12756-0.31592
   0   0  -312431.43  200.31   1-0.95406 0.90586 0.27956-0.30308 0.10770-0.29590
   0   0   311793.89  190.32   1-0.93567 0.98388 0.14006-0.11648 0.32387-0.13562
   0   0   4  432.38   26.73   1-0.89518 0.95961-0.21205 0.24340 0.39201-0.14107
   0   0  -4  295.98   26.06   1-0.36531 0.30097-0.92797 0.89664 0.07358-0.32473
   0   0  -4  254.30   50.65   1-0.95089 0.88661 0.30144-0.33280 0.07024-0.32117
   0   0   4  508.78   47.84   1-0.92636 0.99065 0.11539-0.08395 0.35850-0.10751
   0   0  -4  478.63   67.74   1 0.49966-0.56400-0.85182 0.82043-0.15727-0.09375
   0   0   510721.73  156.05   1-0.90768 0.98842-0.07559 0.11484 0.41278-0.09916
   0   0  -510294.19  151.87   1-0.24583 0.16539-0.96919 0.92983 0.01492-0.32872
   0   0  -510206.71  200.64   1-0.94603 0.86576 0.32246-0.36180 0.03213-0.34576
   0   0   5 9862.13  189.94   1-0.91521 0.99557 0.09031-0.05101 0.39271-0.07897
   0   0   6  288.27   22.13   1-0.90138 0.99826 0.07930-0.03220 0.42570-0.04936
   0   0  -6  216.83   22.93   1-0.10590 0.00932-0.99295 0.94622-0.05319-0.32338
   0   0  -6  247.62   68.27   1-0.93912 0.84279 0.34352-0.39072-0.00618-0.37017
   0   0   6  305.50   58.51   1-0.90216 0.99859 0.06481-0.01765 0.42648-0.04999
   0   0   7 1041.08   62.54   1-0.86624 0.97870 0.25967-0.20490 0.42682 0.01230
   0   0  -7 1085.05   67.70   1 0.06332-0.17599-0.98936 0.93484-0.13097-0.30838
   0   0  -7 1206.72  117.82   1-0.93025 0.81787 0.36413-0.41920-0.04494-0.39413
   0   0   7  856.16   91.26   1-0.88716 0.99965 0.03888 0.01613 0.45981-0.02058
   0   0  -7 1155.49  162.88   1-0.58973 0.47731 0.78622-0.84104-0.18455-0.25457
   0   0   8    1.20    5.64   1-0.76389 0.89280 0.50244-0.43997 0.40498 0.09649
   0   0  -917306.56  410.64   1-0.90633 0.76184 0.40399-0.47479-0.12389-0.44064
   0   0  -917222.03  453.40   1-0.59841 0.45388 0.76211-0.83259-0.24714-0.31745
   0   0 -1061260.56 3967.00   1-0.89105 0.73050 0.42319-0.50185-0.16412-0.46313
   0   0 -1061098.11 1798.29   1-0.60178 0.44118 0.74852-0.82684-0.27850-0.34883
   0   0 -1125196.71  779.60   1-0.87361 0.69707 0.44140-0.52798-0.20481-0.48509
   0   0 -1123886.17  784.00   1-0.60452 0.42844 0.73382-0.82007-0.30992-0.37935
   0   0 -12  659.45  127.65   1-0.85338 0.66078 0.45950-0.55395-0.24617-0.50645
   0   0 -12  513.56  196.32   1-0.60646 0.41438 0.71811-0.81220-0.34133-0.41060
   0   0 -13 2074.01  156.79   1-0.83033 0.62169 0.47696-0.57929-0.28816-0.52718
   0   0 -13 1382.62  163.57   1-0.60767 0.39959 0.70125-0.80319-0.37278-0.44182
   0   0 -14   30.84   57.40   1-0.80419 0.57950 0.49375-0.60394-0.33087-0.54719
   0   0 -14  379.61  158.73   1-0.60811 0.38401 0.68319-0.79297-0.40427-0.47298
   0   1 -14  218.95  112.84   1-0.83368 0.61463 0.47460-0.51704-0.28234-0.59572
   0   1 -13 2486.95  185.10   1-0.85667 0.65367 0.45675-0.49132-0.23975-0.57559
   0   1 -12  685.13  140.97   1-0.87683 0.68988 0.43823-0.46493-0.19775-0.55487
   0   1 -11 1829.63  159.58   1-0.89419 0.72322 0.41951-0.43830-0.15628-0.53369
   0   1 -1034491.32  841.52   1-0.90934 0.75442 0.39976-0.41069-0.11523-0.51202
   0   1  -9   61.54  124.06   1-0.92220 0.78335 0.37943-0.38249-0.07457-0.48996
   0   1  -8 2274.86  173.93   1-0.93290 0.81009 0.35849-0.35369-0.03421-0.46759
   0   1  -7 5391.75  213.13   1-0.94150 0.83475 0.33694-0.32426 0.00592-0.44500
   0   1  -6  570.11   74.74   1-0.94791 0.85715 0.31514-0.29441 0.04620-0.42260
   0  -1   6  468.68   61.70   1-0.90421 0.99499 0.06861-0.08921 0.42152-0.04504
   0  -1   6  540.50   71.60   1 0.55603-0.46519-0.83091 0.81025 0.02006 0.35647
   0  -1   5   76.34   14.80   1-0.71744 0.79233 0.57648-0.60512 0.39107-0.07765
   0  -1   5  -16.90    7.09   1-0.77509 0.84990-0.55528 0.52679 0.30147 0.01225
   0  -1   5  101.51   60.99   1-0.91507 0.98977 0.09001-0.11848 0.39311-0.07937
   0  -1   5  149.87   73.45   1 0.53974-0.46498-0.84097 0.81247-0.03789 0.35168
   0  -1   416800.75  209.98   1-0.70311 0.76182 0.59700-0.63344 0.38629-0.13552
   0   1  -416558.24  268.31   1-0.95500 0.89638 0.26801-0.23161 0.12703-0.37796
   0  -1   416716.70  267.80   1 0.51701-0.45834-0.84903 0.81268-0.10878 0.35981
   0  -1   3  397.96   21.78   1-0.74348 0.78615 0.53664-0.58090 0.39904-0.21099
   0  -1   3  325.84   24.80   1 0.11195-0.06933-0.98191 0.93752-0.15265 0.34095
   0   1  -3  477.17   80.76   1-0.95536 0.91280 0.24241-0.19816 0.16888-0.35708
   0  -1   3  259.90   49.14   1-0.93049 0.97305 0.12578-0.16997 0.34404-0.15579
   0  -1   3  439.41   60.81   1 0.48111-0.43858-0.85238 0.80819-0.20486 0.39302
   0   1  -3  444.95   50.64   1 0.39506-0.43759-0.83229 0.87649-0.38885 0.20069
   0   1  -239606.20  480.15   1-0.59622 0.56971 0.72263-0.67058 0.34974-0.47512
   0  -1   241329.87  500.06   1-0.81209 0.83864 0.40761-0.45967 0.41756-0.29219
   0   1  -239961.41  515.71   1-0.95315 0.92667 0.21404-0.16196 0.21370-0.33917
   0  -1   241094.64  519.76   1 0.41107-0.38461-0.83823 0.78617-0.35829 0.48373
   0   1  -240145.33  504.16   1 0.34109-0.36756-0.80650 0.85857-0.48291 0.35741
   0   1   0    1.09   14.87   1-0.89802 0.90371 0.10949-0.04178 0.42609-0.42609
   0  -1   0  -12.28    9.11   1-0.88776 0.88211 0.03987-0.10764 0.45856-0.45856
   0  -1   0  -13.98   14.77   1-0.36457 0.35894-0.00379-0.06392-0.93116 0.93116
   0  -1  -2230838.3 2758.67   1-0.60779 0.57009 0.69863-0.78192-0.37749 0.25216
   0   1   310438.56  161.54   1-0.90803 0.96210-0.06086 0.15216 0.41444-0.22627
   0  -1  -310479.04  162.20   1-0.82416 0.77017-0.45725 0.36593 0.33417-0.52241
   0  -1  -310241.50  158.78   1-0.93393 0.88013 0.35619-0.44754-0.02986-0.15831
   0   1   310331.06  160.65   1-0.93571 0.98957 0.14019-0.04884 0.32369-0.13544
   0  -1  -3 9988.62  189.66   1-0.60433 0.55062 0.73502-0.82616-0.30742 0.11944
   0   1   426589.87  350.54   1-0.90802 0.97823-0.02348 0.12263 0.41826-0.16736
   0  -1  -426392.91  347.23   1-0.75480 0.68471-0.58903 0.48985 0.28864-0.53963
   0  -1  -426549.59  361.04   1-0.93202 0.86217 0.36040-0.45961-0.03782-0.21307
   0   1   426191.15  353.39   1-0.92297 0.99291 0.10736-0.00815 0.36957-0.11857
   0  -1  -425868.75  368.42   1 0.55561-0.62561-0.83123 0.73210 0.01845-0.26948
   0  -1  -425675.43  389.19   1-0.60211 0.53223 0.74696-0.84602-0.28195 0.03102
   0   1   510393.79  167.53   1-0.90521 0.99157 0.03801 0.06898 0.42325-0.10963
   0  -1  -510078.79  167.18   1-0.66901 0.58282-0.70438 0.59732 0.23720-0.55092
   0  -1  -510122.32  194.85   1-0.92625 0.84035 0.37205-0.47912-0.06017-0.25345
   0   1   510048.94  183.90   1-0.90895 0.99496 0.07767 0.02939 0.40958-0.09584
   0  -1  -510080.22  194.47   1 0.53696-0.62305-0.84228 0.73531-0.04710-0.26668
   0  -1  -510001.74  218.22   1-0.60166 0.51572 0.74908-0.85597-0.27725-0.03641
   0   1   617113.59  318.97   1-0.89666 0.99873 0.11894-0.00429 0.42643-0.05003
   0  -1  -616826.45  318.85   1-0.56666 0.46438-0.80409 0.68917 0.17975-0.55622
   0  -1  -616821.16  345.65   1-0.91788 0.81593 0.38672-0.50167-0.08898-0.28736
   0   1   616224.28  327.97   1-0.89327 0.99534 0.04908 0.06583 0.44682-0.07033
   0  -1  -615988.53  381.90   1-0.60227 0.50028 0.74616-0.86088-0.28372-0.09267
   0   1   7 5757.64  160.03   1-0.87719 0.99532 0.21832-0.09585 0.42763 0.01149
   0  -1  -7 5923.34  168.94   1-0.44592 0.32768-0.88766 0.76500 0.11491-0.55442
   0  -1  -7 6441.37  224.10   1-0.90720 0.78919 0.40278-0.52559-0.12140-0.31768
   0   1   7 6190.88  205.54   1-0.87570 0.99388 0.02107 0.10169 0.48239-0.04307
   0  -1  -7 6103.93  252.31   1-0.60350 0.48577 0.74001-0.86251-0.29690-0.14173
   0   1   8  641.79   59.53   1-0.84097 0.97517 0.33725-0.20696 0.42311 0.07874
   0  -1  -8  606.99   59.90   1-0.30283 0.16846-0.95207 0.82130 0.04297-0.54505
   0  -1  -8  723.70  119.79   1-0.89425 0.76018 0.41944-0.55012-0.15614-0.34566
   0  -1  -8  883.86  115.78   1-0.60483 0.47109 0.73169-0.86203-0.31431-0.18698
   0   1   923929.40  456.05   1-0.77494 0.92564 0.48263-0.34468 0.40806 0.15609
   0  -1  -923082.54  442.01   1-0.12536-0.02516-0.99113 0.85327-0.04402-0.52085
   0  -1  -923939.25  519.07   1-0.87922 0.72913 0.43582-0.57440-0.19242-0.37204
   0  -1  -924343.03  592.16   1-0.60611 0.45636 0.72155-0.85973-0.33464-0.22931
   0   1  10   64.16   14.43   1-0.63746 0.80419 0.67889-0.53321 0.36433 0.26259
   0  -1 -10  280.94   63.84   1-0.86148 0.69534 0.45261-0.59906-0.23018-0.39700
   0  -1 -10  390.89  183.28   1-0.60716 0.44141 0.70983-0.85585-0.35705-0.26956
   0  -1 -11 1776.05  123.35   1-0.84111 0.65892 0.46915-0.62348-0.26910-0.42081
   0  -1 -11 1874.15  186.92   1-0.60786 0.42610 0.69666-0.85052-0.38099-0.30828
   0  -1 -12 4347.07  277.51   1-0.81789 0.61966 0.48530-0.64750-0.30905-0.44357
   0  -1 -12 4753.03  383.07   1-0.60811 0.41034 0.68210-0.84381-0.40611-0.34582
   0  -1 -13  160.61   70.63   1-0.79153 0.57724 0.50094-0.67101-0.35003-0.46531
   0  -1 -13  281.47  182.27   1-0.60782 0.39404 0.66618-0.83573-0.43214-0.38245
   0   2 -14  352.07  141.45   1-0.85424 0.64084 0.45878-0.43347-0.24449-0.63357
   0   2 -14  125.85  109.30   1-0.60351 0.39079 0.73997-0.71453-0.29699-0.58027
   0   2 -13 3946.84  239.76   1-0.87463 0.67727 0.44041-0.40724-0.20261-0.61273
   0   2 -13 4296.23  277.62   1-0.59942 0.40193 0.75841-0.72475-0.25591-0.55961
   0   2 -1219449.23  674.15   1-0.89219 0.71080 0.42187-0.38078-0.16130-0.59140
   0   2 -1218294.62  645.28   1-0.59406 0.41263 0.77556-0.73407-0.21348-0.53931
   0   2 -11 2381.36  156.34   1-0.90751 0.74217 0.40236-0.35340-0.12053-0.56945
   0   2 -10   26.97  110.78   1-0.92053 0.77125 0.38232-0.32550-0.08025-0.54700
   0   2  -9 1789.65  166.58   1-0.93138 0.79816 0.36177-0.29709-0.04043-0.52409
   0   2  -8 8868.92  354.97   1-0.94015 0.82298 0.34073-0.26818-0.00103-0.50077
   0  -2   8 9293.91  356.89   1 0.55594-0.43859-0.83098 0.75828 0.01972 0.48232
   0   2  -7 3119.60  226.80   1-0.94692 0.84580 0.31919-0.23877 0.03798-0.47706
   0  -2   7 3435.55  221.68   1 0.53916-0.43790-0.84125 0.76070-0.03982 0.47913
   0  -2   611607.84  208.90   1-0.90517 0.99080 0.03848-0.12690 0.42328-0.04694
   0   2  -612002.86  296.11   1-0.95158 0.86648 0.29760-0.20911 0.07689-0.45329
   0  -2   611980.80  282.39   1 0.51727-0.43209-0.84897 0.76057-0.10803 0.48457
   0  -2   5  373.35   22.42   1-0.88702 0.95597 0.17410-0.27039 0.42764-0.11397
   0  -2   5  445.96   32.75   1 0.09319-0.02404-0.98513 0.88854-0.14432 0.45815
   0   2  -5  527.95   82.46   1-0.95449 0.88545 0.27503-0.17870 0.11531-0.42898
   0  -2   5  470.42  102.58   1 0.48730-0.41821-0.85242 0.75617-0.18949 0.50328
   0   2  -4 8553.58  127.04   1-0.44599 0.39300 0.84578-0.74169 0.29280-0.54354
   0  -2   4 8604.62  127.26   1-0.87750 0.93039 0.21704-0.32115 0.42764-0.17671
   0   2  -4 8819.31  212.93   1-0.95549 0.90253 0.25188-0.14771 0.15356-0.40449
   0  -2   4 9211.53  177.17   1 0.44313-0.39019-0.84738 0.74326-0.29253 0.54341
   0   2  -3  410.43   53.82   1-0.67696 0.64005 0.63167-0.51977 0.37775-0.56583
   0  -2   3  332.23   27.10   1-0.87928 0.91610 0.20959-0.32153 0.42770-0.23950
   0   2  -3  307.03  123.66   1-0.95457 0.91767 0.22802-0.11602 0.19181-0.38001
   0  -2   3  362.52   67.74   1 0.37165-0.33479-0.82219 0.71020-0.43113 0.61929
   0   2  -3  415.18   56.32   1 0.24487-0.28177-0.74404 0.85602-0.62164 0.43339
   0   2  -2999998.712481.06   1 0.12459-0.14542-0.64290 0.76270-0.75574 0.63018
   0   2  -163879.44  786.93   1-0.86692 0.86222 0.25729-0.12971 0.42689-0.48962
   0  -2   162319.24  768.79   1-0.91205 0.91682 0.08382-0.21150 0.40141-0.33866
   0  -2   162830.30  770.67   1-0.00860 0.01342-0.50423 0.37663-0.86352 0.92626
   0   2  -163339.65  776.48   1-0.11411 0.10930-0.37668 0.50432-0.91928 0.85656
   0   2   0 2453.19   71.72   1-0.89278 0.90415 0.14314-0.00773 0.42712-0.42712
   0  -2   0 2523.65   80.32   1-0.90705 0.89580 0.00711-0.14262 0.42094-0.42094
   0  -2   0 2521.41   56.23   1-0.86377 0.85250 0.00354-0.13911 0.50386-0.50386
   0  -2   0 2620.78   78.91   1-0.34366 0.33240-0.03963-0.09581-0.93825 0.93825
   0   2   0 2644.79   75.54   1-0.42267 0.43388 0.10318 0.03231-0.90038 0.90038
   0  -2  -272777.17  901.75   1-0.89672 0.85311-0.20210 0.05093 0.39375-0.51922
   0  -2  -276206.71  904.01   1-0.34844 0.30503 0.57811-0.72931-0.73781 0.61241
   0   2   275642.90  897.99   1-0.94239 0.98582 0.16152-0.01026 0.29293-0.16743
   0  -2  -277203.07  967.80   1-0.59045 0.54695 0.53657-0.68778-0.60287 0.47726
   0   2   366645.39  835.13   1-0.90500 0.96470 0.04075 0.11830 0.42344-0.23526
   0  -2  -366289.36  830.09   1-0.87368 0.81397-0.31391 0.15490 0.37165-0.55986
   0  -2  -366094.81  798.97   1-0.79958 0.74014 0.49643-0.65555-0.33796 0.14980
   0   2   365929.75  796.51   1-0.92150 0.98101 0.10398 0.05513 0.37419-0.18594
   0  -2  -367544.44  873.04   1-0.60405 0.54465 0.61885-0.77760-0.50213 0.31415
   0   2   4133569.9 1713.90   1-0.90324 0.97909 0.06125 0.10565 0.42472-0.17382
   0  -2  -4130806.7 1678.02   1-0.83717 0.76139-0.42567 0.25874 0.34342-0.59440
   0  -2  -4133749.8 1697.06   1-0.85771 0.78223 0.45586-0.62285-0.23770-0.01316
   0   2   4132462.0 1679.30   1-0.90584 0.98142 0.07167 0.09530 0.41750-0.16651
   0  -2  -4137148.9 1791.37   1-0.60742 0.53201 0.65727-0.82385-0.44612 0.19548
   0   2   5 1434.61   67.37   1-0.89924 0.99094 0.10052 0.07400 0.42573-0.11207
   0  -2  -5 1667.47   76.82   1-0.78681 0.69493-0.53424 0.35946 0.30904-0.62277
   0  -2  -5 1404.52   61.42   1-0.86967 0.77813 0.44517-0.62003-0.21327-0.10032
   0   2   5 1408.60   62.25   1-0.88945 0.98110 0.04265 0.13218 0.45503-0.14129
   0  -2  -5 1403.88  104.76   1-0.60805 0.51664 0.67544-0.84987-0.41717 0.10386
   0   2   6  252.93   41.51   1-0.89058 0.99834 0.15558 0.02676 0.42738-0.05098
   0  -2  -6  242.60   35.14   1-0.72186 0.61389-0.63784 0.45520 0.26844-0.64491
   0  -2  -6  358.98   53.67   1-0.86810 0.76051 0.44664-0.62937-0.21658-0.15972
   0   2   6  300.38   41.18   1-0.87148 0.97922 0.01474 0.16795 0.49020-0.11364
   0  -2  -6  313.12  120.65   1-0.60811 0.50069 0.68287-0.86514-0.40482 0.02885
   0   2   7 9313.69  278.40   1-0.87549 0.99932 0.22516-0.03499 0.42755 0.01157
   0  -2  -7 9427.59  285.26   1-0.64143 0.51738-0.73453 0.54398 0.22138-0.66059
   0  -2  -710503.95  322.60   1-0.86000 0.73636 0.45390-0.64449-0.23316-0.20587
   0   2   7 9719.49  296.98   1-0.85146 0.97528-0.01344 0.20399 0.52424-0.08492
   0  -2  -7 9797.70  347.22   1-0.60811 0.48468 0.68385-0.87396-0.40316-0.03547
   0   2   8 4163.75  136.04   1-0.85095 0.99084 0.30889-0.11089 0.42481 0.07704
   0  -2  -8 4384.08  147.59   1-0.54325 0.40328-0.82289 0.62458 0.16648-0.66877
   0  -2  -8 4750.94  173.39   1-0.84756 0.70788 0.46418-0.66265-0.25722-0.24453
   0   2   8 4428.45  159.71   1-0.82924 0.96913-0.04184 0.24025 0.55732-0.05524
   0  -2  -8 4337.00  224.76   1-0.60811 0.46867 0.68055-0.87850-0.40871-0.09257
   0   2   9 4462.46  125.44   1-0.81186 0.96824 0.40812-0.20248 0.41751 0.14664
   0  -2  -9 4574.75  129.51   1-0.42415 0.26809-0.89963 0.69349 0.10364-0.66872
   0  -2  -9 5303.64  181.17   1-0.83156 0.67582 0.47610-0.68244-0.28604-0.27842
   0  -2  -9 4773.16  269.67   1-0.60803 0.45259 0.67411-0.87991-0.41935-0.14460
   0   2  1011124.75  357.91   1-0.75039 0.92288 0.52539-0.31195 0.40108 0.22575
   0  -2 -1012008.12  418.21   1-0.81224 0.64046 0.48887-0.70308-0.31820-0.30899
   0  -2 -1011540.00  494.96   1-0.60778 0.43633 0.66521-0.87885-0.43368-0.19293
   0  -2 -11   60.90   61.27   1-0.78960 0.60176 0.50199-0.72407-0.35288-0.33702
   0  -2 -11  253.29  133.98   1-0.60725 0.41979 0.65424-0.87572-0.45078-0.23849
   0  -2 -12  223.79   78.79   1-0.76344 0.55956 0.51511-0.74506-0.38962-0.36300
   0  -2 -12 1054.79  273.31   1-0.60634 0.40288 0.64143-0.87074-0.47001-0.28192
   0  -2 -13  513.86  187.87   1-0.60496 0.38549 0.62691-0.86407-0.49091-0.32368
   0   3 -14  358.27  142.46   1-0.86849 0.66073 0.44627-0.35322-0.21575-0.66231
   0   3 -14  338.72  152.05   1-0.59826 0.39035 0.76264-0.66908-0.24585-0.63241
   0   3 -13 4278.36  256.70   1-0.88656 0.69475 0.42823-0.32727-0.17496-0.64047
   0   3 -13 4800.55  296.03   1-0.59215 0.40030 0.78053-0.67913-0.20028-0.61524
   0   3 -1237998.68 8273.88   1-0.90237 0.72661 0.40930-0.30047-0.13486-0.61785
   0   3 -11  917.70  132.32   1-0.91588 0.75617 0.38994-0.27325-0.09540-0.59458
   0   3 -10 9682.91  394.28   1-0.92722 0.78357 0.37019-0.24563-0.05658-0.57067
   0   3  -9  -82.52  109.42   1-0.93653 0.80893 0.35010-0.21767-0.01841-0.54611
   0  -3   9  188.33   80.49   1 0.54842-0.42065-0.83616 0.70356-0.00793 0.57274
   0  -3   8 7513.41  237.20   1-0.78785 0.89967-0.53234 0.39193 0.30966 0.19228
   0   3  -8 7860.97  343.99   1-0.94388 0.83234 0.32971-0.18942 0.01907-0.52088
   0  -3   8 8112.77  325.81   1 0.52946-0.41778-0.84534 0.70489-0.07115 0.57321
   0  -3   7 3981.75  223.16   1-0.90322 0.99936-0.14625-0.00207 0.40348 0.03558
   0  -3   7 3764.82  213.18   1-0.08536 0.18104-0.99436 0.84559-0.06282 0.50218
   0   3  -7 3228.90  236.30   1-0.94922 0.85370 0.30956-0.16115 0.05606-0.49519
   0  -3   7 3876.07  307.77   1 0.50522-0.40962-0.85119 0.70290-0.14219 0.58149
   0   3  -676481.31 1320.70   1-0.26006 0.18054 0.94093-0.78477 0.21682-0.59290
   0  -3   675122.71 1297.71   1-0.90753 0.98753-0.00495-0.15122 0.41993-0.04359
   0   3  -681854.52 1484.97   1-0.95295 0.87350 0.28880-0.13255 0.09202-0.46841
   0  -3   677413.17 1409.78   1 0.47308-0.39368-0.85195 0.69577-0.22443 0.60075
   0   3  -547985.15  635.29   1-0.50599 0.44260 0.80252-0.63858 0.31611-0.62953
   0  -3   547270.07  624.19   1-0.90268 0.96653 0.06705-0.23108 0.42505-0.11143
   0   3  -546569.58  686.63   1-0.95500 0.89162 0.26802-0.10393 0.12702-0.44069
   0  -3   550586.79  711.82   1 0.42916-0.36583-0.84388 0.67983-0.32199 0.63560
   0   3  -545796.23  643.23   1 0.23235-0.29576-0.73492 0.89892-0.63709 0.32320
   0   3  -4 1664.61  128.36   1-0.67096 0.62365 0.63922-0.46746 0.37575-0.62652
   0  -3   4 1794.11   58.22   1-0.89945 0.94666 0.09891-0.27074 0.42566-0.17473
   0   3  -4 1650.14  106.79   1-0.95547 0.90815 0.24740-0.07547 0.16083-0.41176
   0  -3   4 1596.19   82.38   1-0.90802 0.95536 0.07585-0.24771 0.41200-0.16100
   0  -3   4 2160.49  259.68   1 0.36603-0.31869-0.81931 0.64742-0.44129 0.69229
   0   3  -4 1553.98   82.29   1 0.18102-0.22835-0.69339 0.86524-0.69744 0.44633
   0   3  -3 3436.35   88.96   1-0.77469 0.74338 0.48310-0.30348 0.40799-0.59605
   0  -3   3 3386.93   92.40   1-0.89945 0.93059 0.09892-0.27856 0.42566-0.23747
   0   3  -3 3380.84  123.15   1-0.95451 0.92327 0.22727-0.04750 0.19299-0.38119
   0  -3   3 3130.77  108.40   1-0.90937 0.94064 0.07849-0.25821 0.40850-0.22025
   0  -3   3 3206.47   98.03   1 0.26926-0.23798-0.76163 0.58190-0.58940 0.77765
   0   3  -3 3159.27   91.53   1 0.09426-0.12551-0.61382 0.79352-0.78379 0.59545
   0   3  -2197556.1 2375.10   1-0.83549 0.82029 0.35120-0.16378 0.42261-0.54798
   0  -3   2189344.4 2275.85   1-0.90195 0.91736 0.07405-0.26163 0.42543-0.29998
   0   3  -2194784.5 2355.99   1-0.95238 0.93721 0.20825-0.02065 0.22267-0.34813
   0  -3   2191332.0 2309.75   1-0.90525 0.92045 0.07056-0.25815 0.41896-0.29346
   0  -3   2199046.2 2391.78   1 0.11820-0.10304-0.63689 0.44934-0.76183 0.88739
   0   3  -2192923.0 2317.90   1-0.04651 0.03124-0.46061 0.64811-0.88637 0.76089
   0   3  -195452.57 1176.49   1-0.86914 0.87013 0.24932-0.05403 0.42710-0.48983
   0  -3   197089.09 1187.14   1-0.09562 0.09480-0.39999 0.20463-0.91151 0.97423
   0   3  -193744.26 1146.34   1-0.24474 0.24558-0.19595 0.39137-0.94957 0.88685
   0   3   0183894.1 2221.53   1-0.88649 0.90355 0.17671 0.02640 0.42766-0.42766
   0  -3   0180174.0 2151.74   1-0.83650 0.81960-0.03284-0.17051 0.54696-0.54696
   0  -3   0184904.8 2221.67   1-0.32207 0.30518-0.07552-0.12765-0.94369 0.94369
   0   3   168410.82  867.64   1-0.89480 0.92792 0.13096 0.07997 0.42681-0.36407
   0  -3  -169565.15  877.55   1-0.90680 0.87377-0.09744-0.11368 0.41013-0.47286
   0   3   171087.89  855.63   1-0.94985 0.98289 0.19298 0.01813 0.24601-0.18327
   0  -3  -170234.57  843.69   1-0.59889 0.56589-0.25000 0.03880 0.76080-0.82356
   0  -3  -168010.23  856.67   1-0.47553 0.44263 0.21072-0.42171-0.85408 0.79134
   0  -3  -2  405.19   45.69   1-0.89977 0.85059-0.17729-0.04168 0.39871-0.52416
   0  -3  -2  362.12   48.74   1-0.54981 0.50064 0.39468-0.61366-0.73615 0.61054
   0   3   2  580.00   62.01   1-0.60125 0.65038 0.59303-0.37403-0.53553 0.66113
   0   3   380775.32 1020.68   1-0.89853 0.96378 0.10580 0.12078 0.42595-0.23775
   0  -3  -380642.53 1018.58   1-0.88578 0.82037-0.26286 0.03611 0.38247-0.57068
   0  -3  -383385.96 1069.86   1-0.58146 0.51622 0.49957-0.72640-0.64212 0.45371
   0   3   4230944.2 3968.43   1-0.89649 0.97780 0.12007 0.11433 0.42647-0.17554
   0  -3  -4222496.0 2834.69   1-0.86234 0.78083-0.35363 0.11905 0.36234-0.61329
   0  -3  -4222893.5 2792.19   1-0.55965 0.47850 0.57051-0.80520-0.60107 0.35026
   0   3   4227179.6 3866.84   1-0.83175 0.91297-0.03876 0.27353 0.55378-0.30274
   0  -3  -4238916.2 4121.39   1-0.59515 0.51379 0.55878-0.79342-0.57753 0.32632
   0   3   515460.09  322.84   1-0.89176 0.98914 0.14901 0.09321 0.42725-0.11359
   0  -3  -515399.08  315.84   1-0.82860 0.73104-0.44680 0.20426 0.33730-0.65103
   0  -3  -516048.72  298.56   1-0.70217 0.60469 0.53965-0.78203-0.46445 0.15088
   0   3   515827.99  293.73   1-0.83193 0.92923-0.03854 0.28117 0.55352-0.23972
   0  -3  -516518.21  402.00   1-0.60114 0.50366 0.59231-0.83476-0.53646 0.22244
   0   3   6  132.31   47.24   1-0.88348 0.99693 0.19100 0.05905 0.42774-0.05134
   0  -3  -6  192.60   80.57   1-0.78372 0.67006-0.53990 0.28951 0.30703-0.68351
   0  -3  -6  144.96   43.74   1-0.74696 0.63338 0.52285-0.77307-0.41069 0.03441
   0   3   6  206.04   43.67   1-0.81899 0.93236-0.05412 0.30460 0.57124-0.19468
   0  -3  -6  431.33  157.05   1-0.60307 0.48996 0.61106-0.86094-0.51274 0.13676
   0   3   7  178.70   50.55   1-0.87033 0.99984 0.24497 0.01291 0.42720 0.01192
   0  -3  -7  277.44   55.39   1-0.72642 0.59665-0.63147 0.37322 0.27119-0.71042
   0  -3  -7  211.79   39.64   1-0.75924 0.62996 0.51703-0.77538-0.39523-0.04379
   0   3   7  247.64   41.39   1-0.80027 0.92972-0.07544 0.33377 0.59486-0.15554
   0  -3  -7  770.97  222.09   1-0.60419 0.47507 0.62004-0.87776-0.50049 0.06186
   0   3   812753.49  291.32   1-0.85044 0.99601 0.31039-0.04468 0.42473 0.07712
   0  -3  -810599.49  247.34   1-0.65528 0.50946-0.71973 0.45356 0.22929-0.73125
   0  -3  -811532.02  259.00   1-0.75707 0.61174 0.51802-0.78423-0.39811-0.10364
   0   3   810867.83  248.31   1-0.77749 0.92302-0.09974 0.36593 0.62093-0.11885
   0  -3  -812321.46  366.98   1-0.60449 0.45937 0.62266-0.88823-0.49685-0.00443
   0   3   9  707.96   83.00   1-0.82080 0.98286 0.38762-0.11431 0.41955 0.14461
   0  -3  -9  334.79   55.60   1-0.56800 0.40607-0.80298 0.52895 0.18048-0.74518
   0  -3  -9  345.74   55.09   1-0.74635 0.58447 0.52311-0.79686-0.41147-0.15294
   0   3   9  342.88   55.29   1-0.75097 0.91277-0.12567 0.39984 0.64826-0.08342
   0  -3  -9  946.60  184.89   1-0.60427 0.44314 0.62072-0.89413-0.49955-0.06440
   0   3  10  479.90   62.70   1-0.77788 0.95605 0.47720-0.19608 0.40886 0.21797
   0  -3 -10  646.70   84.86   1-0.72885 0.55087 0.53015-0.81175-0.43325-0.19387
   0  -3 -10  644.48  155.48   1-0.60361 0.42648 0.61530-0.89655-0.50699-0.11962
   0  -3 -11 2587.31  129.58   1-0.70585 0.51178 0.53842-0.82787-0.46027-0.22956
   0  -3 -11 2692.03  208.76   1-0.60325 0.40905 0.60659-0.89595-0.51780-0.17301
   0  -3 -12  294.22  135.99   1-0.60170 0.39139 0.59591-0.89309-0.53182-0.22180
   0  -3 -13  222.27  128.35   1-0.59964 0.37321 0.58310-0.88809-0.54810-0.26832
   0   4 -14  867.15  145.20   1-0.87813 0.67601 0.43693-0.27612-0.19487-0.68319
   0   4 -14  290.73  136.09   1-0.59172 0.38945 0.78159-0.62029-0.19741-0.68085
   0   4 -13   31.79  103.83   1-0.89451 0.70833 0.41913-0.25042-0.15547-0.65996
   0   4 -12 4564.74  319.08   1-0.90876 0.73863 0.40059-0.22402-0.11692-0.63579
   0   4 -11  133.21  101.38   1-0.92086 0.76678 0.38176-0.19733-0.07916-0.61081
   0   4 -10  334.70  109.75   1-0.93093 0.79291 0.36272-0.17042-0.04225-0.58501
   0  -4  10  407.92   98.47   1 0.54539-0.40721-0.83797 0.64548-0.01859 0.64616
   0  -4   9 1709.97  104.63   1-0.77367 0.89581-0.55774 0.35740 0.30057 0.26414
   0   4  -9 1682.10  187.66   1-0.93911 0.81715 0.34354-0.14337-0.00622-0.55830
   0  -4   9 1673.76  162.31   1 0.52570-0.40360-0.84662 0.64628-0.08280 0.64762
   0  -4   8  116.52   27.08   1-0.88494 0.99102-0.26680 0.05849 0.38168 0.12021
   0  -4   8  151.99   53.63   1 0.02079 0.08531-0.99351 0.78477-0.11176 0.61388
   0   4  -8  -23.01  109.04   1-0.94550 0.83959 0.32432-0.11628 0.02880-0.53061
   0  -4   8  182.09   83.88   1 0.50104-0.39502-0.85168 0.64350-0.15357 0.65563
   0   4  -7 3090.00  225.23   1-0.30333 0.21341 0.92344-0.70742 0.23503-0.67379
   0  -4   7 2846.64  168.51   1-0.90493 0.99544-0.12660-0.08948 0.40628 0.03277
   0   4  -7 3408.20  229.13   1-0.95006 0.86019 0.30565-0.08947 0.06291-0.50204
   0  -4   7 3604.29  424.85   1 0.46936-0.37957-0.85162 0.63552-0.23329 0.67233
   0   4  -6 1373.55  146.90   1-0.50414 0.43035 0.80396-0.58017 0.31540-0.69151
   0  -4   6 1081.41   76.95   1-0.90818 0.98255-0.04235-0.18158 0.41641-0.04006
   0   4  -6 1132.59  122.87   1-0.95322 0.87943 0.28678-0.06276 0.09546-0.47186
   0  -4   6 1447.49  227.50   1 0.42821-0.35448-0.84361 0.61964-0.32394 0.70027
   0   4  -5 1790.49  178.62   1-0.64452 0.58680 0.67087-0.43925 0.36677-0.68023
   0  -4   5 1578.58   68.66   1-0.90709 0.96531 0.00623-0.23802 0.42087-0.10725
   0   4  -5 1906.26  128.75   1-0.95497 0.89725 0.26843-0.03658 0.12633-0.44000
   0  -4   5 1882.17  245.58   1 0.37287-0.31520-0.82275 0.59091-0.42900 0.74260
   0   4  -5 1606.05   94.61   1 0.13021-0.18796-0.64815 0.87990-0.75028 0.43639
   0   4  -424782.41  369.69   1-0.73992 0.69817 0.54233-0.30284 0.39797-0.64871
   0  -4   423633.89  353.11   1-0.90587 0.94794 0.02853-0.26817 0.42259-0.17169
   0   4  -423403.24  362.30   1 0.06429-0.10607-0.58254 0.82215-0.81025 0.55928
   0   4  -3 7495.64  158.80   1-0.80220 0.77657 0.42905-0.18175 0.41518-0.60324
   0  -4   3 7455.52  154.25   1-0.90578 0.93171 0.02984-0.27733 0.42268-0.23451
   0   4  -3 8212.29  213.92   1-0.95504 0.92946 0.23515 0.01237 0.18050-0.36870
   0  -4   3 7405.56  178.02   1-0.89374 0.91936 0.04989-0.29738 0.44579-0.25754
   0   4  -3 7267.14  156.08   1-0.03368 0.00797-0.47560 0.72300-0.87901 0.69079
   0   4  -220144.82  307.03   1-0.84141 0.83189 0.33537-0.08027 0.42373-0.54910
   0  -4   219353.57  296.63   1-0.90673 0.91652 0.01366-0.26899 0.42147-0.29602
   0   4  -220261.01  325.73   1-0.95404 0.94452 0.22201 0.03335 0.20127-0.32674
   0  -4   219421.53  296.04   1-0.88537 0.89492 0.03598-0.29133 0.46348-0.33798
   0   4  -219447.70  292.01   1-0.16650 0.15689-0.30790 0.56319-0.93673 0.81129
   0   4  -1 1998.54  101.01   1-0.86534 0.87202 0.26281 0.00018 0.42673-0.48946
   0  -4   1 1906.29   87.06   1-0.90789 0.90153-0.01736-0.24581 0.41883-0.35610
   0   4  -1 1851.32   94.89   1-0.95313 0.95968 0.21388 0.04932 0.21397-0.27670
   0  -4   1 1705.93   76.94   1-0.86297 0.85650 0.00240-0.26569 0.50524-0.44248
   0   4  -1 1599.85   65.92   1-0.32055 0.32701-0.07801 0.34115-0.94401 0.88129
   0   4   0  170.05   65.84   1-0.87914 0.90188 0.21018 0.06063 0.42770-0.42770
   0   4   0  216.18   41.39   1-0.95339 0.97601 0.21603 0.05501 0.21062-0.21062
   0  -4   0  301.84   39.25   1-0.80557 0.78303-0.06954-0.20160 0.58840-0.58840
   0   4   0  512.78   63.38   1-0.45834 0.48076 0.17435 0.09664-0.87150 0.87150
   0   4   170495.14  910.19   1-0.88658 0.92539 0.17627 0.10237 0.42766-0.36492
   0  -4  -168964.68  888.61   1-0.90574 0.86709-0.11534-0.16353 0.40781-0.47054
   0   4   170720.74  859.80   1-0.95541 0.99410 0.24448 0.03440 0.16555-0.10281
   0  -4  -171233.05  864.84   1-0.62670 0.58806-0.22993-0.04903 0.74456-0.80732
   0   4   169356.02  881.13   1-0.54874 0.58742 0.39161-0.11267-0.73859 0.80139
   0   4   245173.72  569.58   1-0.21238 0.26713 0.56500-0.27850-0.79728 0.92253
   0   4   245539.49  642.47   1-0.59290 0.64765 0.54781-0.26101-0.59022 0.71583
   0   4   318124.12  317.95   1-0.89029 0.96123 0.15713 0.13715 0.42741-0.23921
   0  -4  -317827.56  307.17   1-0.88886 0.81775-0.24769-0.04680 0.38544-0.57365
   0   4   317192.04  300.16   1-0.60712 0.67790 0.65212-0.35815-0.45402 0.64200
   0   4   4 8134.63  206.96   1-0.88815 0.97515 0.16841 0.13370 0.42757-0.17664
   0  -4  -4 8126.46  204.88   1-0.87116 0.78395-0.32331 0.02097 0.36952-0.62046
   0  -4  -4 7918.38  241.99   1-0.57062 0.48364 0.46073-0.76316-0.67978 0.42857
   0   4   515730.64  432.10   1-0.88334 0.98640 0.19167 0.11826 0.42774-0.11408
   0  -4  -512845.80  351.59   1-0.84585 0.74253-0.40280 0.09263 0.34968-0.66337
   0  -4  -514478.84  347.39   1-0.07715-0.02572 0.54091-0.85108-0.83753 0.52439
   0  -4  -515203.19  444.99   1-0.58310 0.47999 0.50595-0.81619-0.63561 0.32159
   0   4   612772.71  394.65   1-0.87532 0.99445 0.22585 0.09190 0.42754-0.05115
   0  -4  -613620.95  374.96   1-0.41754 0.29864 0.57969-0.89786-0.69971 0.32349
   0   4   614111.75  389.42   1-0.65850 0.77764-0.20570 0.52403 0.72391-0.34735
   0  -4  -614482.44  484.95   1-0.58988 0.47065 0.53406-0.85212-0.60565 0.22883
   0   4   7  181.37   77.21   1-0.86319 0.99838 0.27019 0.05539 0.42649 0.01263
   0  -4  -7   94.68   29.85   1-0.52860 0.39365 0.57413-0.90017-0.62526 0.18633
   0   4   7  105.93   36.39   1-0.67478 0.81002-0.19272 0.51892 0.71240-0.27308
   0  -4  -7  280.42  194.32   1-0.59350 0.45816 0.55069-0.87657-0.58692 0.14730
   0   4   8 7730.00  227.84   1-0.84565 0.99691 0.32424 0.00916 0.42394 0.07791
   0  -4  -8 6852.90  179.79   1-0.57035 0.41891 0.56994-0.90357-0.59148 0.08977
   0   4   8 7070.86  184.03   1-0.66606 0.81740-0.19972 0.53380 0.71865-0.21657
   0  -4  -8 7314.80  336.82   1-0.59526 0.44379 0.55932-0.89302-0.57689 0.07447
   0   4   9   96.20   35.17   1-0.82063 0.98836 0.38804-0.04704 0.41951 0.14464
   0  -4  -9   10.97   19.06   1-0.58285 0.41531 0.56805-0.90952-0.58103 0.01661
   0  -4  -9  320.99  134.76   1-0.59581 0.42822 0.56211-0.90363-0.57361 0.00838
   0   4  10  207.84   56.74   1-0.78604 0.96989 0.46170-0.11290 0.41105 0.21579
   0  -4 -10   64.20   30.94   1-0.57757 0.39393 0.56887-0.91819-0.58548-0.04165
   0  -4 -10  398.72  198.79   1-0.59548 0.41178 0.56044-0.90977-0.57558-0.05243
   0  -4 -11  420.01  172.06   1-0.59443 0.39461 0.55519-0.91234-0.58172-0.10910
   0  -4 -12 4132.79  248.69   1-0.59272 0.37678 0.54698-0.91194-0.59117-0.16245
   0   5 -13  633.03  206.23   1-0.89932 0.71877 0.41322-0.17678-0.14304-0.67239
   0   5 -12  444.85  167.77   1-0.91236 0.74786 0.39535-0.15103-0.10627-0.64644
   0   5 -11  410.16  131.97   1-0.92338 0.77494 0.37734-0.12516-0.07047-0.61951
   0  -5  11  525.50  161.91   1 0.54600-0.39739-0.83761 0.58523-0.01647 0.70680
   0   5 -10  684.79  147.78   1-0.93253 0.80015 0.35929-0.09925-0.03573-0.59153
   0  -5  10  553.11   93.73   1 0.52649-0.39396-0.84637 0.58614-0.08040 0.70797
   0  -5   9 7815.16  196.69   1-0.85622 0.97270-0.37289 0.10467 0.35754 0.20708
   0  -5   9 8718.38  218.74   1 0.04433 0.07220-0.99148 0.72276-0.12242 0.68730
   0   5  -9 8575.62  314.31   1-0.93993 0.82360 0.34133-0.07342-0.00214-0.56238
   0  -5   9 8788.82  295.04   1 0.50246-0.38603-0.85153 0.58345-0.14971 0.71453
   0   5  -852731.50 1310.94   1-0.29684 0.19652 0.92623-0.65036 0.23232-0.73375
   0  -5   852223.71 1298.46   1-0.89213 0.99251-0.23010-0.04594 0.38876 0.11313
   0   5  -857764.23 1513.71   1-0.94571 0.84543 0.32359-0.04781 0.03012-0.53192
   0  -5   856596.74 1452.90   1 0.47236-0.37216-0.85189 0.57586-0.22615 0.72792
   0   5  -7 4748.82  187.01   1-0.47739 0.39321 0.82401-0.54038 0.30509-0.74388
   0  -5   7 4430.94  168.85   1-0.90392 0.98880-0.13870-0.14514 0.40458 0.03448
   0   5  -7 5183.55  267.57   1-0.94983 0.86563 0.30672-0.02279 0.06103-0.50016
   0  -5   7 5318.73  417.74   1 0.43466-0.35053-0.84535 0.56145-0.31054 0.74959
   0   5  -6  404.65   64.88   1-0.60764 0.53952 0.71103-0.41955 0.35383-0.72998
   0  -5   6  318.82   43.21   1-0.90759 0.97633-0.07848-0.21321 0.41244-0.03609
   0   5  -6  726.59  169.69   1-0.95277 0.88463 0.29006 0.00171 0.08987-0.46627
   0  -5   6  686.40  116.51   1 0.38632-0.31825-0.82871 0.53694-0.40495 0.78128
   0   5  -5 5304.89  181.18   1-0.70070 0.64868 0.60032-0.30104 0.38552-0.69898
   0  -5   5 4946.06  162.29   1-0.90818 0.96078-0.04201-0.25753 0.41644-0.10282
   0  -5   5 5216.64  184.04   1 0.32378-0.27165-0.79672 0.49716-0.51028 0.82403
   0   5  -4 1350.55   84.32   1-0.76578 0.72971 0.49913-0.19196 0.40551-0.65625
   0  -5   4 1447.63   75.72   1-0.90804 0.94448-0.02461-0.28278 0.41815-0.16726
   0   5  -4 1269.97  108.59   1-0.95535 0.91935 0.26036 0.04708 0.13967-0.39061
   0   5  -4 1287.96   73.12   1-0.04055 0.00439-0.46761 0.77492-0.88300 0.63203
   0   5  -3 9540.09  199.83   1-0.81013 0.79017 0.41195-0.09698 0.41710-0.60515
   0  -5   3 9126.17  185.07   1-0.90801 0.92831-0.02323-0.29201 0.41828-0.23011
   0   5  -3 9635.37  235.66   1-0.95548 0.93555 0.24874 0.06654 0.15866-0.34685
   0  -5   3 8976.48  203.84   1-0.87447 0.89453 0.01921-0.33458 0.48469-0.29641
   0  -5   3 9869.12  199.68   1 0.13430-0.11440-0.65193 0.33674-0.74628 0.93462
   0   5  -3 9266.03  189.26   1-0.13638 0.11636-0.34793 0.66315-0.92754 0.73938
   0  -5   238755.51  559.75   1-0.90816 0.91232-0.03566-0.28743 0.41708-0.29163
   0   5  -241164.84  596.20   1-0.95531 0.95145 0.24098 0.08214 0.17117-0.29663
   0  -5   240939.25  587.57   1-0.86160 0.86559 0.00048-0.32370 0.50757-0.38205
   0  -5   239892.91  567.49   1 0.00388 0.00014-0.51817 0.19528-0.85526 0.98074
   0   5  -239736.46  563.76   1-0.25149 0.24752-0.18591 0.50902-0.94983 0.82439
   0   5  -110056.50  220.50   1-0.85886 0.87122 0.28443 0.04626 0.42595-0.48869
   0  -5   1 9997.33  206.99   1-0.90804 0.89605-0.06016-0.27078 0.41452-0.35180
   0   5  -110031.31  199.38   1-0.95526 0.96747 0.23971 0.09125 0.17321-0.23594
   0  -5   1 9383.22  180.22   1-0.83340 0.82130-0.03672-0.29435 0.55144-0.48868
   0  -5   110058.65  212.13   1-0.14047 0.12843-0.34258 0.01177-0.92892 0.99164
   0   5  -1 9431.44  184.03   1-0.37150 0.38345 0.00911 0.32189-0.92838 0.86564
   0   5   0  -41.04   62.36   1-0.87071 0.89913 0.24356 0.09496 0.42723-0.42723
   0   5   0   94.58   49.03   1-0.95549 0.98376 0.25032 0.08848 0.15610-0.15610
   0  -5   0  111.43   44.99   1-0.77080 0.74263-0.10656-0.23236 0.62809-0.62809
   0  -5   0  345.68   85.69   1-0.27679 0.24865-0.14747-0.19114-0.94954 0.94954
   0   5   0  184.61   80.41   1-0.47512 0.50315 0.20985 0.12889-0.85452 0.85452
   0   5   1  103.16   67.63   1-0.87751 0.92200 0.21697 0.12937 0.42764-0.36491
   0  -5  -1   -8.36   46.47   1-0.90384 0.85956-0.13953-0.20710 0.40446-0.46718
   0   5   1  188.87   65.95   1-0.95327 0.99762 0.28637 0.06027 0.09615-0.03342
   0  -5  -1  140.26   55.94   1-0.61316 0.56889-0.23983-0.10691 0.75267-0.81543
   0  -5  -1  227.24  100.02   1-0.38565 0.34154 0.03431-0.38080-0.92200 0.85926
   0   5   1   70.75   61.26   1-0.54688 0.59120 0.38632-0.03960-0.74274 0.80554
   0   5   288884.39 1520.54   1-0.90903 0.96929 0.40021-0.04576-0.11614 0.24160
   0   5   322101.40  452.88   1-0.88101 0.95763 0.20212 0.15987 0.42773-0.23954
   0  -5  -322001.88  470.78   1-0.50996 0.43339 0.29050-0.65285-0.80965 0.62124
   0   5   4 8319.57  268.28   1-0.87878 0.97146 0.21169 0.15812 0.42769-0.17676
   0  -5  -4 8783.04  311.03   1-0.54001 0.44732 0.36723-0.73740-0.75730 0.50609
   0   5   5  381.09   79.15   1-0.87392 0.98267 0.23136 0.14628 0.42746-0.11380
   0  -5  -5  785.60  129.85   1-0.55836 0.44954 0.42000-0.79798-0.71541 0.40140
   0   5   6 4758.24  201.96   1-0.86604 0.99086 0.26037 0.12509 0.42680-0.05040
   0  -5  -6 4929.07  286.29   1-0.56908 0.44423 0.45554-0.84139-0.68455 0.30774
   0   5   7  189.53   71.79   1-0.85449 0.99537 0.29819 0.09510 0.42534 0.01377
   0  -5  -7  348.25  200.17   1-0.57582 0.43484 0.47875-0.87242-0.66273 0.22312
   0   5   821892.37  665.88   1-0.83803 0.99532 0.34450 0.05636 0.42310 0.07837
   0  -5  -823658.93  763.73   1-0.57970 0.42260 0.49292-0.89440-0.64882 0.14640
   0   5   9  901.96   93.37   1-0.81586 0.98927 0.39908 0.00958 0.41843 0.14572
   0  -5  -9  932.95  146.30   1-0.58164 0.40843 0.50029-0.90960-0.64139 0.07617
   0   5  10  827.12  114.46   1-0.78583 0.97536 0.46210-0.04562 0.41100 0.21584
   0  -5 -10  910.93  217.49   1-0.58219 0.39286 0.50240-0.91952-0.63924 0.01122
   0  -5 -11  813.96  223.01   1-0.58164 0.37619 0.50028-0.92522-0.64140-0.04941
   0  -5 -12  167.31  123.10   1-0.58016 0.35859 0.49464-0.92739-0.64710-0.10652
   0   6 -13  222.50  147.59   1-0.90167 0.72675 0.41022-0.10603-0.13677-0.67866
   0   6 -12  437.58  153.85   1-0.91378 0.75491 0.39320-0.08114-0.10193-0.65077
   0  -6  12  216.76   79.04   1 0.54940-0.39038-0.83554 0.52326-0.00440 0.75749
   0   6 -11  297.69  128.53   1-0.92401 0.78120 0.37620-0.05628-0.06825-0.62172
   0  -6  11  350.98  129.41   1 0.53063-0.38769-0.84490 0.52478-0.06749 0.75782
   0  -6  10   73.09   38.86   1 0.02080 0.10616-0.99351 0.66482-0.11176 0.73941
   0   6 -10  112.28  117.15   1-0.93250 0.80575 0.35936-0.03157-0.03585-0.59141
   0  -6  10   79.23   72.06   1 0.50782-0.38096-0.85081 0.52284-0.13498 0.76255
   0   6  -9   69.61   29.68   1-0.26310 0.15238 0.93978-0.60406 0.21811-0.78223
   0   6  -9  312.49  127.71   1-0.93939 0.82868 0.34281-0.00715-0.00487-0.55966
   0  -6   9   22.59   31.67   1 0.47975-0.36915-0.85233 0.51637-0.20821 0.77270
   0   6  -8 8424.02  222.78   1-0.43581 0.34123 0.85244-0.50896 0.28878-0.79026
   0  -6   8 7058.36  180.03   1-0.89229 0.98697-0.22925-0.11454 0.38892 0.11297
   0   6  -8 7576.25  280.95   1-0.94479 0.85015 0.32673 0.01678 0.02446-0.52627
   0  -6   8 9433.98  286.21   1 0.44552-0.35099-0.84790 0.50407-0.28735 0.78912
   0   6  -7 2528.91  208.60   1-0.56293 0.48441 0.75440-0.40307 0.33760-0.77645
   0  -6   7 1794.75  108.82   1-0.90169 0.98095-0.16106-0.19054 0.40126 0.03780
   0   6  -7 2488.11  191.50   1-0.94870 0.87015 0.31184 0.03984 0.05203-0.49116
   0  -6   7 2356.95  315.79   1 0.40304-0.32457-0.83536 0.48367-0.37379 0.81284
   0   6  -6 6348.55  256.65   1-0.65688 0.59446 0.65639-0.29726 0.37100-0.74715
   0  -6   6 5347.21  203.91   1-0.90582 0.96893-0.11418-0.24526 0.40797-0.03162
   0  -6   6 6874.33  485.67   1 0.35028-0.28772-0.81141 0.45194-0.46787 0.84436
   0   6  -531682.32  890.56   1-0.72557 0.67906 0.56445-0.19741 0.39360-0.70703
   0   6  -532555.42  946.57   1-0.95349 0.90707 0.28465 0.08272 0.09908-0.41275
   0  -6   531875.19  937.10   1 0.28348-0.23696-0.77137 0.40405-0.56975 0.88350
   0   6  -4 7429.78  241.08   1-0.77494 0.74455 0.48264-0.10779 0.40806-0.65880
   0   6  -4 6928.85  262.07   1-0.95458 0.92424 0.27391 0.10130 0.11719-0.36812
   0  -6   4 6908.72  220.71   1 0.19998-0.16966-0.70923 0.33414-0.67600 0.92712
   0   6  -3  799.29   89.60   1-0.80987 0.79559 0.41253-0.02987 0.41704-0.60509
   0   6  -3  563.59   98.30   1-0.95510 0.94082 0.26626 0.11678 0.12993-0.31813
   0  -6   3  812.58   82.55   1 0.09853-0.08429-0.61799 0.23505-0.77998 0.96832
   0   6  -3  687.22   78.23   1-0.21841 0.20400-0.23557 0.61851-0.94699 0.75883
   0   6  -2 3057.81  135.37   1-0.83407 0.83591 0.35488 0.03557 0.42233-0.54770
   0   6  -2 2966.42  121.90   1-0.95524 0.95703 0.26326 0.12762 0.13490-0.26037
   0  -6   2 2694.77  103.02   1-0.83435 0.83269-0.03554-0.35546 0.55008-0.42456
   0  -6   2 3010.81  120.85   1-0.01717 0.01558-0.49455 0.10396-0.86897 0.99445
   0   6  -2 2779.59  111.83   1-0.31538 0.31705-0.08641 0.47725-0.94501 0.81957
   0   6  -1 1052.07   88.18   1-0.85059 0.86863 0.30995 0.08845 0.42475-0.48748
   0   6  -1  917.84   73.02   1-0.95502 0.97288 0.26758 0.13115 0.12775-0.19049
   0  -6   1 1102.32   66.29   1-0.80015 0.78242-0.07557-0.32329 0.59500-0.53224
   0  -6   1 1228.49  104.12   1-0.13897 0.12131-0.34454-0.05397-0.92842 0.99114
   0   6  -1  990.04   81.47   1-0.41039 0.42795 0.07984 0.31891-0.90840 0.84566
   0   6   0 5921.38  188.02   1-0.86119 0.89530 0.27686 0.12937 0.42625-0.42625
   0   6   0 5619.47  151.31   1-0.95354 0.98747 0.28427 0.12229 0.09973-0.09973
   0  -6   0 5362.71  136.87   1-0.73149 0.69769-0.14392-0.26271 0.66648-0.66648
   0  -6   0 5280.51  170.33   1-0.25307 0.21930-0.18354-0.22280-0.94987 0.94987
   0   6   0 5027.16  156.54   1-0.49069 0.52452 0.24557 0.16111-0.83601 0.83601
   0   6   1 4174.82  171.10   1-0.86750 0.91767 0.25525 0.15880 0.42695-0.36421
   0   6   1 4130.02  109.19   1-0.94552 0.99536 0.32427 0.09004 0.02889 0.03383
   0  -6  -1 4436.02  114.59   1-0.58244 0.53254-0.26143-0.15308 0.76968-0.83244
   0  -6  -1 4665.08  178.36   1-0.34878 0.29895-0.03096-0.38314-0.93669 0.87396
   0   6   1 4337.51  152.05   1-0.54921 0.59917 0.39296 0.02153-0.73752 0.80032
   0   6   2  441.66   71.98   1-0.87048 0.93672 0.24442 0.17746 0.42721-0.30175
   0   6   2  501.62   55.64   1 0.18534-0.11940 0.46326-0.04138-0.86662 0.99198
   0   6   2  752.30   56.42   1-0.89186 0.95775 0.42225-0.00006-0.16211 0.28757
   0  -6  -2  691.69  109.94   1-0.42047 0.35467 0.09897-0.52095-0.90189 0.77641
   0   6   3  251.13   66.74   1-0.87070 0.95300 0.24360 0.18610 0.42723-0.23903
   0  -6  -3  431.09  100.77   1-0.47145 0.38957 0.20195-0.63167-0.85845 0.67023
   0   6   4 3052.42  247.73   1-0.86838 0.96675 0.25210 0.18542 0.42703-0.17610
   0  -6  -4 2697.68  221.21   1-0.50542 0.40708 0.27965-0.71760-0.81629 0.56508
   0   6   5  749.21   83.64   1-0.86345 0.97788 0.26930 0.17605 0.42652-0.11286
   0  -6  -5 1091.66  147.48   1-0.52845 0.41399 0.33655-0.78231-0.77940 0.46538
   0   6   6 3178.84  233.49   1-0.85563 0.98613 0.29466 0.15851 0.42551-0.04911
   0  -6  -6 3757.02  248.78   1-0.54365 0.41306 0.37726-0.83084-0.74974 0.37292
   0   6   7 1212.79  117.63   1-0.84440 0.99096 0.32778 0.13321 0.42372 0.01540
   0  -6  -7  965.32  142.27   1-0.55355 0.40684 0.40559-0.86699-0.72736 0.28774
   0   6   8 4759.86  206.13   1-0.82875 0.99173 0.36837 0.10016 0.42125 0.08021
   0  -6  -8 4556.91  250.15   1-0.55981 0.39698 0.42444-0.89366-0.71165 0.20922
   0   6   9  867.44  128.28   1-0.80814 0.98723 0.41631 0.06003 0.41663 0.14752
   0  -6  -9  904.45  177.30   1-0.56304 0.38420 0.43595-0.91304-0.70208 0.13686
   0   6  10  345.49   96.44   1-0.78085 0.97605 0.47163 0.01252 0.40967 0.21717
   0  -6 -10  104.43  103.38   1-0.56481 0.36986 0.44160-0.92651-0.69711 0.06908
   0  -6 -11 2128.39  218.73   1-0.56509 0.35401 0.44249-0.93522-0.69632 0.00549
   0   7 -13   91.59   99.43   1-0.90198 0.73269 0.40982-0.03789-0.13593-0.67950
   0  -7  13  162.83   80.89   1 0.55488-0.38543-0.83177 0.45960 0.01572 0.80012
   0   7 -12  151.88  109.24   1-0.91339 0.76016 0.39379-0.01399-0.10312-0.64958
   0  -7  12  121.03   71.33   1 0.53720-0.38384-0.84217 0.46216-0.04633 0.79941
   0   7 -11 2176.97  254.42   1-0.92304 0.78586 0.37795 0.00971-0.07166-0.61831
   0  -7  11 1710.76  327.60   1 0.51591-0.37863-0.84928 0.46142-0.11199 0.80232
   0   7 -10 1150.28   92.00   1-0.20956 0.08843 0.95810-0.56252 0.19523-0.82203
   0   7 -10 1752.50  195.26   1-0.93107 0.80994 0.36243 0.03309-0.04169-0.58556
   0  -7  10 1423.95  295.03   1 0.49028-0.36909-0.85237 0.45666-0.18188 0.80946
   0   7  -9  519.50  127.79   1-0.38253 0.27756 0.88439-0.48105 0.26742-0.83159
   0   7  -9  948.43  192.41   1-0.93761 0.83254 0.34741 0.05598-0.01341-0.55112
   0  -7   9  836.72  130.68   1 0.45908-0.35415-0.85035 0.44660-0.25716 0.82165
   0   7  -8  834.94  144.31   1-0.51113 0.42225 0.79848-0.38734 0.31807-0.81955
   0   7  -8 1064.15  131.40   1-0.94279 0.85378 0.33310 0.07815 0.01292-0.51472
   0  -7   8 1259.08  148.86   1 0.42155-0.33268-0.84165 0.43003-0.33751 0.83927
   0   7  -7   71.31   37.62   1-0.60796 0.53514 0.71070-0.29171 0.35394-0.79279
   0   7  -7   35.74  127.87   1-0.94676 0.87380 0.31978 0.09934 0.03693-0.47601
   0  -7   7   33.56   70.27   1 0.37584-0.30304-0.82411 0.40463-0.42376 0.86280
   0   7  -6 7734.74  400.27   1-0.68098 0.62426 0.62653-0.19974 0.37908-0.75524
   0   7  -6 7994.45  313.27   1-0.94950 0.89267 0.30828 0.11901 0.05830-0.43470
   0  -7   6 8639.85  520.32   1 0.32048-0.26353-0.79477 0.36755-0.51538 0.89188
   0   7  -5 1266.82  130.93   1-0.73557 0.69474 0.54916-0.11444 0.39666-0.71009
   0   7  -5 1457.74  183.67   1-0.95149 0.91073 0.29815 0.13698 0.07595-0.38961
   0  -7   5 1426.78  208.99   1 0.25270-0.21181-0.74981 0.31474-0.61149 0.92524
   0   7  -4 2919.49  201.97   1-0.77583 0.75111 0.48100-0.03847 0.40830-0.65904
   0   7  -4 2773.74  203.33   1-0.95270 0.92801 0.29056 0.15241 0.08900-0.33994
   0  -7   4 3117.31  257.35   1 0.17146-0.14681-0.68518 0.24234-0.70790 0.95901
   0   7  -3  257.17   63.80   1-0.80514 0.79653 0.42281 0.02752 0.41590-0.60396
   0   7  -3   81.89   96.97   1-0.95325 0.94463 0.28655 0.16426 0.09585-0.28405
   0  -7   3   84.78   60.16   1 0.07833-0.06947-0.59677 0.14627-0.79857 0.98680
   0   7  -2  631.29   85.22   1-0.82608 0.83360 0.37495 0.08318 0.42069-0.54606
   0   7  -2  697.00   92.04   1-0.95310 0.96055 0.28770 0.17094 0.09389-0.21935
   0  -7   2  716.16   78.75   1-0.02528 0.01808-0.48528 0.02699-0.87399 0.99947
   0   7  -1  259.67   99.10   1-0.84066 0.86429 0.33740 0.12854 0.42359-0.48628
   0   7  -1  258.51  101.14   1-0.95175 0.97527 0.29660 0.16988 0.07862-0.14135
   0  -7   1  115.61   70.10   1-0.76301 0.73964-0.11436-0.35228 0.63618-0.57342
   0  -7   1   -4.28   64.29   1-0.13026 0.10699-0.35590-0.11033-0.92539 0.98811
   0   7   0  312.63   63.20   1-0.85055 0.89035 0.31005 0.16388 0.42475-0.42475
   0   7   0   89.90   52.76   1-0.94723 0.98681 0.31786 0.15646 0.04137-0.04137
   0  -7   0  130.92   61.33   1-0.68827 0.64884-0.18164-0.29277 0.70233-0.70233
   0  -7   0  102.87   68.67   1-0.22945 0.19014-0.21961-0.25441-0.94821 0.94821
   0   7   1 1008.14  132.79   1-0.85645 0.91231 0.29208 0.18967 0.42563-0.36289
   0   7   1  763.72   55.52   1 0.54293-0.48734 0.28812 0.19365-0.78879 0.85146
   0   7   1  772.28   69.81   1-0.93198 0.98745 0.36049 0.12156-0.03800 0.10073
   0  -7  -1  836.77  101.65   1-0.31378 0.25832-0.08902-0.39281-0.94531 0.88259
   0   7   2  435.33   82.41   1-0.85924 0.93117 0.28321 0.20637 0.42600-0.30054
   0   7   2  435.04   57.64   1 0.19613-0.12457 0.45924 0.03031-0.86638 0.99174
   0   7   2  505.64   45.80   1-0.86438 0.93599 0.45003 0.03995-0.22429 0.34973
   0  -7  -2  481.19   89.07   1-0.38114 0.30973 0.02621-0.51593-0.92414 0.79866
   0   7   3 2578.42  237.70   1-0.85933 0.94732 0.28291 0.21449 0.42602-0.23782
   0  -7  -3 2196.04  226.87   1-0.43236 0.34488 0.12202-0.61949-0.89340 0.70518
   0   7   4  479.85   93.44   1-0.85690 0.96095 0.29070 0.21453 0.42569-0.17476
   0  -7  -4  481.95  107.68   1-0.46964 0.36608 0.19809-0.70330-0.86034 0.60938
   0   7   5 1820.10  177.70   1-0.85188 0.97200 0.30611 0.20694 0.42495-0.11129
   0  -7  -5 1692.37  208.19   1-0.49548 0.37538 0.25649-0.77004-0.82988 0.51586
   0   7   6 2497.85  209.88   1-0.84404 0.98023 0.32876 0.19211 0.42366-0.04726
   0  -7  -6 2300.81  220.86   1-0.51403 0.37781 0.30036-0.82172-0.80345 0.42664
   0   7   7   30.25   48.08   1-0.83274 0.98528 0.35831 0.17010 0.42207 0.01671
   0  -7  -7  165.20  114.89   1-0.52685 0.37449 0.33241-0.86159-0.78225 0.34263
   0   7   8  150.98   69.27   1-0.81781 0.98646 0.39460 0.14162 0.41888 0.08259
   0  -7  -8  515.48  194.45   1-0.53548 0.36700 0.35500-0.89200-0.76630 0.26388
   0   7   9  680.43  120.28   1-0.79816 0.98293 0.43747 0.10655 0.41418 0.14997
   0  -7  -9  875.71  199.24   1-0.54102 0.35641 0.36998-0.91479-0.75525 0.19002
   0   7  10 1425.29  112.95   1-0.77258 0.97346 0.48694 0.06489 0.40741 0.21942
   0  -7 -10 1865.71  189.42   1-0.54419 0.34346 0.37876-0.93139-0.74859 0.12056
   0  -7 -11 1305.12  225.85   1-0.54549 0.32864 0.38240-0.94285-0.74578 0.05495
   0   8 -12  152.40  121.78   1-0.91137 0.76377 0.39681 0.05072-0.10922-0.64348
   0  -8  12  289.50  112.99   1 0.52585-0.37816-0.84657 0.39882-0.08233 0.83542
   0   8 -11  891.05  222.97   1-0.92060 0.78905 0.38221 0.07319-0.08003-0.60994
   0  -8  11  855.44  231.60   1 0.50246-0.37084-0.85153 0.39593-0.14973 0.84006
   0   8 -10 5272.01  374.17   1-0.92829 0.81280 0.36810 0.09517-0.05255-0.57470
   0  -8  10 4666.66  417.68   1 0.47430-0.35897-0.85203 0.38836-0.22150 0.84871
   0   8  -9  647.68  149.04   1-0.45160 0.35232 0.84203-0.37105 0.29501-0.85917
   0  -8   9  715.16  121.70   1 0.44101-0.34174-0.84690 0.37536-0.29708 0.86157
   0   8  -8  977.15  225.79   1-0.55350 0.47032 0.76293-0.28415 0.33402-0.83549
   0   8  -8 1115.23  165.55   1-0.93963 0.85624 0.34217 0.13683-0.00369-0.49811
   0  -8   8 1104.05  183.14   1 0.40124-0.31803-0.83468 0.35527-0.37722 0.87899
   0   8  -7 1489.81  279.95   1-0.63162 0.56450 0.68541-0.19876 0.36229-0.80114
   0   8  -7 1234.95  152.10   1-0.94351 0.87618 0.33089 0.15598 0.01695-0.45603
   0  -8   7 1604.09  265.29   1 0.35412-0.28676-0.81340 0.32626-0.46148 0.90073
   0   8  -6 5930.37  315.71   1-0.69161 0.64059 0.61261-0.11817 0.38257-0.75873
   0   8  -6 6113.66  292.65   1-0.94637 0.89510 0.32122 0.17351 0.03435-0.41071
   0  -8   6 6890.75  393.44   1 0.29752-0.24620-0.78059 0.28561-0.54968 0.92617
   0   8  -516050.95  391.41   1-0.73734 0.70219 0.54639-0.04399 0.39720-0.71062
   0   8  -515717.27  420.01   1-0.94815 0.91304 0.31418 0.18871 0.04790-0.36157
   0  -8   515444.18  432.93   1 0.23065-0.19559-0.73361 0.23087-0.63922 0.95312
   0   8  -453118.36 1371.29   1-0.77179 0.75275 0.48838 0.02182 0.40719-0.65793
   0   8  -455633.98 1444.03   1-0.94922 0.93019 0.30954 0.20119 0.05609-0.30702
   0  -8   452238.58 1334.43   1 0.15337-0.13439-0.66926 0.15867-0.72702 0.97814
   0   8  -3 2943.76  243.57   1-0.79745 0.79452 0.43894 0.07907 0.41400-0.60205
   0   8  -3 3095.53  261.46   1-0.94938 0.94641 0.30882 0.20975 0.05735-0.24555
   0  -8   3 3022.14  245.28   1 0.06780-0.06457-0.58612 0.06793-0.80737 0.99559
   0   8  -2  145.35   77.52   1-0.81621 0.82940 0.39828 0.12754 0.41851-0.54388
   0   8  -2  240.67   80.87   1-0.94829 0.96139 0.31359 0.21282 0.04895-0.17442
   0  -8   2  297.52   66.22   1-0.02472 0.01189-0.48593-0.04004-0.87364 0.99912
   0   8  -1 8156.26  324.40   1-0.82956 0.85886 0.36635 0.16727 0.42142-0.48411
   0   8  -1 8546.97  330.42   1-0.94505 0.97405 0.32587 0.20820 0.02602-0.08874
   0  -8   1 7490.66  275.47   1-0.72125 0.69229-0.15319-0.38113 0.67551-0.61275
   0  -8   1 8495.63  321.80   1-0.11681 0.08792-0.37323-0.16072-0.92035 0.98307
   0   8   0 3985.51  199.26   1-0.83860 0.88402 0.34296 0.19847 0.42321-0.42321
   0   8   0 4285.54  186.39   1-0.93629 0.98134 0.35067 0.19126-0.01948 0.01948
   0  -8   0 3500.35  266.15   1-0.64029 0.59523-0.21975-0.32244 0.73602-0.73602
   0  -8   0 3913.47  195.76   1-0.20420 0.15928-0.25580-0.28594-0.94491 0.94491
   0   8   113848.90  426.33   1-0.84433 0.90588 0.32795 0.22151 0.42371-0.36098
   0   8   111496.04  304.51   1 0.49227-0.43103 0.31922 0.23026-0.80979 0.87246
   0   8   112510.46  341.49   1-0.91232 0.97342 0.39540 0.15439-0.10638 0.16911
   0  -8  -112693.97  396.07   1-0.28016 0.21908-0.14226-0.40729-0.94935 0.88662
   0   8   2 4825.62  209.48   1-0.84692 0.92453 0.32062 0.23666 0.42415-0.29869
   0   8   2 4565.10  130.03   1 0.16706-0.08987 0.46991 0.08731-0.86675 0.99211
   0   8   2 5162.54  150.98   1-0.82766 0.90492 0.47881 0.07892-0.29274 0.41818
   0  -8  -2 5072.89  207.86   1-0.34383 0.26669-0.03935-0.51796-0.93820 0.81276
   0   8   3 7134.75  255.93   1-0.84687 0.94054 0.32078 0.24433 0.42414-0.23595
   0  -8  -3 6287.18  247.04   1-0.39369 0.30060 0.04890-0.61411-0.91793 0.72972
   0   8   4  777.67  120.45   1-0.84429 0.95403 0.32807 0.24486 0.42370-0.17277
   0  -8  -4  693.85  150.20   1-0.43228 0.32311 0.12186-0.69482-0.89346 0.64250
   0   8   5 1513.98  107.62   1-0.83894 0.96493 0.34206 0.23841 0.42327-0.10985
   0  -8  -5 1759.87  151.42   1-0.46116 0.33591 0.18022-0.76092-0.86881 0.55512
   0   8   617338.05  579.82   1-0.83104 0.97314 0.36264 0.22563 0.42172-0.04562
   0  -8  -618404.47  612.12   1-0.48240 0.34107 0.22570-0.81414-0.84637 0.46993
   0   8   7 6141.15  364.96   1-0.82001 0.97823 0.38948 0.20661 0.41937 0.01941
   0  -8  -7 5619.62  364.45   1-0.49699 0.33900 0.25996-0.85692-0.82789 0.38827
   0  -8  -8 1021.61  220.65   1-0.50781 0.33369 0.28532-0.89010-0.81284 0.31042
   0   8   9  936.41  202.72   1-0.78626 0.97670 0.46128 0.15042 0.41111 0.15304
   0  -8  -9  657.88  195.57   1-0.51516 0.32491 0.30310-0.91569-0.80170 0.23648
   0   8  10 1536.81  141.32   1-0.76177 0.96832 0.50614 0.11337 0.40437 0.22246
   0  -8 -10 1716.67  216.73   1-0.51978 0.31341 0.31453-0.93494-0.79428 0.16625
   0   9 -11 2583.44  186.26   1-0.91669 0.79077 0.38866 0.13448-0.09283-0.59715
   0  -9  11 2523.75  433.59   1 0.49075-0.36480-0.85235 0.32901-0.18068 0.87101
   0   9 -10 5949.21  361.42   1-0.92413 0.81426 0.37599 0.15501-0.06785-0.55940
   0  -9  10 5457.59  464.07   1 0.46090-0.35123-0.85061 0.31915-0.25300 0.88021
   0   9  -9  110.85   49.57   1-0.49236 0.39878 0.81297-0.27434 0.31088-0.87504
   0   9  -9  293.86  128.75   1-0.93023 0.83642 0.36418 0.17469-0.04504-0.51949
   0  -9   9  175.00   78.42   1 0.42603-0.33243-0.84299 0.30365-0.32841 0.89290
   0   9  -8   68.45   56.20   1-0.57676 0.49924 0.74155-0.19505 0.34268-0.84422
   0   9  -8  429.62  191.08   1-0.93511 0.85735 0.35348 0.19326-0.02475-0.47705
   0  -9   8  291.58  104.58   1 0.38498-0.30745-0.82814 0.28094-0.40737 0.90914
   0   9  -7  180.44  104.70   1-0.64272 0.58130 0.67293-0.11863 0.36614-0.80499
   0   9  -7  145.71  120.93   1-0.93886 0.87716 0.34420 0.21041-0.00744-0.43163
   0  -9   7  164.59   73.06   1 0.33723-0.27548-0.80438 0.24949-0.48911 0.92836
   0   9  -6 2585.67  384.32   1-0.69407 0.64875 0.60932-0.04722 0.38337-0.75953
   0   9  -6 2754.66  175.97   1-0.94156 0.89592 0.33676 0.22571 0.00623-0.38259
   0  -9   6 3356.23  440.61   1 0.28110-0.23540-0.76977 0.20703-0.57309 0.94958
   0   9  -5  146.73   73.92   1-0.73387 0.70439 0.55181 0.01826 0.39614-0.70957
   0   9  -5  342.11  148.91   1-0.94324 0.91365 0.33172 0.23862 0.01543-0.32906
   0  -9   5  359.91   76.33   1 0.21641-0.18702-0.72249 0.15200-0.65662 0.97052
   0   9  -4  892.86  141.23   1-0.94385 0.93032 0.32981 0.24840 0.01890-0.26981
   0  -9   4  777.13  114.43   1 0.14366-0.13036-0.66051 0.08217-0.73693 0.98805
   0   9  -3  182.76  114.05   1-0.78751 0.79026 0.45884 0.12684 0.41144-0.59949
   0   9  -3  109.73  102.45   1-0.94313 0.94565 0.33206 0.25401 0.01481-0.20299
   0  -9   3  139.91   57.88   1 0.06523-0.06761-0.58350-0.00238-0.80948 0.99770
   0   9  -2 4984.34  210.00   1-0.80472 0.82358 0.42370 0.16979 0.41580-0.54117
   0   9  -2 5503.31  207.48   1-0.94042 0.95900 0.33999 0.25396 0.00032-0.12578
   0  -9   2 4915.93  176.17   1-0.01800-0.00044-0.49360-0.10007-0.86949 0.99498
   0   9  -1  254.90  117.45   1-0.81715 0.85213 0.39612 0.20518 0.41873-0.48141
   0   9  -1  508.99   98.21   1-0.93407 0.96870 0.35586 0.24594-0.02924-0.03348
   0  -9   1  305.48   92.18   1-0.09994 0.06544-0.39458-0.20709-0.91340 0.97612
   0   9   0 9476.01  297.01   1-0.82567 0.87677 0.37596 0.23315 0.42060-0.42060
   0   9   0 9028.04  240.15   1-0.91989 0.97057 0.38341 0.22626-0.08241 0.08241
   0  -9   0 7558.09  195.99   1-0.58699 0.53629-0.25830-0.35166 0.76727-0.76727
   0  -9   0 8825.53  266.67   1-0.17814 0.12760-0.29205-0.31740-0.93966 0.93966
   0   9   1  278.17  113.77   1-0.83091 0.89811 0.36298 0.25394 0.42170-0.35901
   0   9   1   58.83   25.87   1 0.43286-0.36598 0.35272 0.26445-0.82958 0.89225
   0   9   1  245.27   60.41   1-0.88561 0.95235 0.42927 0.18827-0.17721 0.23994
   0  -9  -1  191.56  103.16   1-0.24726 0.18055-0.19221-0.42507-0.94969 0.88696
   0   9   2 5670.79  232.84   1-0.83328 0.91661 0.35691 0.26781 0.42218-0.29681
   0   9   2 4766.48  192.84   1 0.11140-0.02834 0.48909 0.13577-0.86508 0.99033
   0   9   2 5163.63  137.67   1-0.77802 0.86092 0.50804 0.11744-0.36954 0.49498
   0  -9  -2 5080.96  207.96   1-0.30697 0.22421-0.09999-0.52505-0.94644 0.82100
   0   9   314424.58  510.41   1-0.83306 0.93249 0.35749 0.27504 0.42213-0.23408
   0  -9  -314240.74  493.70   1-0.35596 0.25714-0.01868-0.61411-0.93431 0.74614
   0   9   4 5972.92  296.30   1-0.83032 0.94587 0.36444 0.27590 0.42158-0.17084
   0  -9  -4 7046.23  328.95   1-0.39444 0.27966 0.05026-0.69097-0.91754 0.66658
   0   9   5 1698.77  151.82   1-0.82504 0.95670 0.37750 0.27065 0.42047-0.10705
   0  -9  -5 1129.20  159.31   1-0.42479 0.29393 0.10727-0.75572-0.89891 0.58521
   0   9   6  493.49  140.77   1-0.81701 0.96479 0.39644 0.25952 0.41870-0.04259
   0  -9  -6  615.99  159.27   1-0.44797 0.30103 0.15310-0.80929-0.88084 0.50440
   0   9   7  300.89  106.93   1-0.80594 0.96983 0.42108 0.24269 0.41610 0.02269
   0  -9  -7  159.70   95.89   1-0.46536 0.30234 0.18901-0.85294-0.86470 0.42552
   0   9   8  226.90  100.73   1-0.79135 0.97135 0.45127 0.22030 0.41244 0.08903
   0  -9  -8  378.61  165.23   1-0.47812 0.29902 0.21634-0.88800-0.85123 0.34931
   0   9   9 1000.73  117.67   1-0.77258 0.96870 0.48694 0.19244 0.40741 0.15674
   0  -9  -9 1570.18  202.60   1-0.48634 0.29046 0.23580-0.91618-0.84134 0.27611
   0  10 -11  563.43  224.90   1-0.91124 0.79095 0.39701 0.19387-0.10963-0.58034
   0 -10  11  157.77   64.28   1 0.48087-0.36080-0.85237 0.26098-0.20544 0.89538
   0  10 -10    0.28  117.00   1-0.91845 0.81421 0.38581 0.21294-0.08716-0.54009
   0 -10  10  395.90  140.35   1 0.45017-0.34617-0.84883 0.24957-0.27715 0.90436
   0  10  -9  455.12  136.67   1-0.51570 0.42782 0.79484-0.18856 0.31981-0.88397
   0  10  -9  419.40  136.97   1-0.92434 0.83616 0.37560 0.23101-0.06709-0.49744
   0 -10   9  450.53  139.69   1 0.41441-0.32647-0.83936 0.23223-0.35174 0.91623
   0  10  -8  947.26  218.34   1-0.58823 0.51641 0.73052-0.11636 0.34685-0.84839
   0  10  -8 1231.27  243.76   1-0.92901 0.85689 0.36666 0.24782-0.04979-0.45201
   0 -10   8  769.25  164.58   1 0.37290-0.30103-0.82277 0.20777-0.42893 0.93070
   0  10  -7 3615.20  314.18   1-0.64569 0.58997 0.66952-0.04755 0.36717-0.80601
   0  10  -7 4058.80  264.05   1-0.93252 0.87645 0.35933 0.26302-0.03579-0.40328
   0 -10   7 3605.15  308.43   1 0.32540-0.26927-0.79766 0.17501-0.50777 0.94702
   0  10  -6 6988.54  406.18   1-0.69103 0.65141 0.61338 0.01637 0.38238-0.75854
   0  10  -6 7171.04  431.62   1-0.93488 0.89486 0.35401 0.27620-0.02575-0.35059
   0 -10   6 6580.53  498.22   1 0.27062-0.23055-0.76258 0.13209-0.58755 0.96405
   0  10  -5  131.37   79.18   1-0.72666 0.70286 0.56282 0.07493 0.39394-0.70736
   0  10  -5  506.18  137.79   1-0.93604 0.91208 0.35128 0.28680-0.02063-0.29299
   0 -10   5  175.71   62.77   1 0.20879-0.18507-0.71639 0.07816-0.66571 0.97961
   0  10  -4  871.36  123.16   1-0.75436 0.74668 0.51877 0.12679 0.40224-0.65298
   0  10  -4 1088.84  145.72   1-0.93579 0.92789 0.35186 0.29409-0.02172-0.22918
   0 -10   4  856.72  112.84   1 0.14070-0.13306-0.65781 0.01172-0.73992 0.99103
   0  10  -3 2163.40  185.92   1-0.77566 0.78409 0.48131 0.17205 0.40826-0.59631
   0  10  -3 2178.94  172.45   1-0.93367 0.94182 0.35677 0.29705-0.03095-0.15722
   0 -10   3 1863.15  197.91   1 0.06873-0.07674-0.58707-0.06650-0.80660 0.99483
   0  10  -2  535.74  105.76   1-0.79172 0.81626 0.45054 0.21063 0.41253-0.53790
   0  10  -2  410.00   80.85   1-0.92863 0.95284 0.36743 0.29426-0.05125-0.07419
   0 -10   2  304.88   62.64   1-0.00669-0.01737-0.50638-0.15498-0.86228 0.98776
   0  10  -118532.30  630.11   1-0.80344 0.84410 0.42642 0.24256 0.41549-0.47817
   0  10  -117836.26  561.43   1-0.91836 0.95862 0.38595 0.28360-0.08744 0.02472
   0 -10   118134.28  583.40   1-0.08043 0.04032-0.41876-0.25062-0.90452 0.96724
   0  10   028517.66  898.53   1-0.81153 0.86830 0.40885 0.26794 0.41743-0.41743
   0  10   026553.58  785.07   1-0.89738 0.95369 0.41565 0.26177-0.14812 0.14812
   0 -10   027230.23  844.87   1-0.15122 0.09507-0.32838-0.34880-0.93236 0.93236
   0  10   1 1580.80  190.13   1-0.81649 0.88937 0.39765 0.28695 0.41858-0.35589
   0  10   1 1614.12  126.44   1-0.84976 0.92226 0.46243 0.22293-0.25307 0.31579
   0 -10  -1 1844.15  228.01   1-0.21547 0.14329-0.23977-0.44519-0.94661 0.88389
   0  10   2  574.70  108.57   1-0.81867 0.90766 0.39262 0.29978 0.41907-0.29370
   0  10   2  237.35   35.80   1-0.71008 0.79893 0.53698 0.15588-0.45544 0.58086
   0 -10  -2  425.04  115.86   1-0.27069 0.18229-0.15685-0.53591-0.94980 0.82435
   0  10   3  910.62  153.70   1-0.81826 0.92337 0.39356 0.30666 0.41898-0.23092
   0 -10  -3  526.99  157.15   1-0.31798 0.21353-0.08220-0.61832-0.94452 0.75636
   0  10   4 4495.32  232.44   1-0.81535 0.93658 0.40025 0.30778 0.41832-0.16758
   0 -10  -4 3844.67  205.12   1-0.35678 0.23628-0.01728-0.69100-0.93402 0.68313
   0  10   5  511.71  124.59   1-0.80988 0.94722 0.41249 0.30334 0.41704-0.10362
   0 -10  -5  668.41  155.24   1-0.38740 0.25094 0.03747-0.75367-0.92114 0.60745
   0  10   6  568.66  137.06   1-0.80170 0.95515 0.43011 0.29353 0.41506-0.03895
   0 -10  -6  364.29  157.44   1-0.41193 0.25939 0.08274-0.80668-0.90744 0.53101
   0  10   7    6.02   66.59   1-0.79050 0.96007 0.45296 0.27849 0.41222 0.02656
   0 -10  -7  651.27  218.00   1-0.43089 0.26227 0.11913-0.85081-0.89450 0.45532
   0  10   8  199.51  102.47   1-0.77587 0.96155 0.48093 0.25833 0.40831 0.09315
   0 -10  -8  160.03  114.54   1-0.44523 0.26053 0.14758-0.88699-0.88316 0.38125
   0  11 -10 2081.75  225.56   1-0.91106 0.81246 0.39726 0.26923-0.11014-0.51711
   0 -11  10 1384.76  480.11   1 0.44229-0.34395-0.84719 0.18014-0.29433 0.92154
   0  11  -9  814.84  214.48   1-0.52747 0.44529 0.78525-0.11132 0.32427-0.88843
   0  11  -9 1532.74  180.04   1-0.91670 0.83415 0.38864 0.28572-0.09279-0.47173
   0 -11   9  957.59  230.50   1 0.40623-0.32396-0.83653 0.16161-0.36767 0.93216
   0  11  -8   67.48   50.05   1-0.59158 0.52545 0.72723-0.04542 0.34806-0.84960
   0  11  -8  170.04  109.33   1-0.92106 0.85457 0.38141 0.30081-0.07847-0.42333
   0 -11   8  339.82   96.24   1 0.36531-0.29876-0.81897 0.13640-0.44253 0.94452
   0  11  -7  227.31   75.61   1-0.64295 0.59293 0.67267 0.01694 0.36622-0.80507
   0  11  -7  299.79  162.21   1-0.92416 0.87372 0.37593 0.31416-0.06773-0.37134
   0 -11   7  190.88   96.91   1 0.31832-0.26782-0.79349 0.10308-0.51868 0.95793
   0  11  -6 1135.33  291.49   1-0.68395 0.65003 0.62269 0.07472 0.38006-0.75622
   0  11  -6 1698.70  329.86   1-0.92595 0.89156 0.37263 0.32533-0.06130-0.31505
   0 -11   6 1430.97  319.25   1 0.26546-0.23101-0.75896 0.06071-0.59455 0.97105
   0  11  -5  398.80  116.91   1-0.71651 0.69870 0.57799 0.12723 0.39054-0.70400
   0  11  -5  451.77  141.26   1-0.92626 0.90793 0.37204 0.33378-0.06016-0.25346
   0 -11   5  230.58   99.82   1 0.20677-0.18872-0.71476 0.00878-0.66809 0.98199
   0  11  -4  885.16  149.34   1-0.74217 0.74016 0.53875 0.17449 0.39865-0.64939
   0  11  -4 1118.03  143.67   1-0.92473 0.92245 0.37490 0.33879-0.06572-0.18518
   0 -11   4  909.50  106.43   1 0.14321-0.14124-0.66010-0.05373-0.73739 0.98851
   0  11  -311757.16  646.77   1-0.76209 0.77620 0.50558 0.21547 0.40447-0.59252
   0  11  -311846.43  632.20   1-0.92062 0.93440 0.38217 0.33939-0.07997-0.10820
   0 -11   310194.92  550.26   1 0.07702-0.09065-0.59546-0.12581-0.79968 0.98790
   0  11  -2 3657.58  260.94   1-0.77725 0.80747 0.47836 0.25049 0.40869-0.53406
   0  11  -2 3418.99  225.36   1-0.91245 0.94229 0.39520 0.33422-0.10598-0.01946
   0 -11   2 3042.42  203.52   1 0.00822-0.03791-0.52296-0.20610-0.85231 0.97779
   0  11  -1  137.11   96.94   1-0.78841 0.83475 0.45707 0.27959 0.41167-0.47436
   0  11  -1  144.63   54.75   1-0.89715 0.94304 0.41593 0.32136-0.14871 0.08599
   0 -11   1    9.71   62.47   1-0.05977 0.01402-0.44489-0.29196-0.89358 0.95632
   0  11   026924.58 1386.16   1-0.79613 0.85858 0.44164 0.30283 0.41366-0.41366
   0  11   022491.79 1127.27   1-0.86721 0.92930 0.44746 0.29777-0.21844 0.21844
   0 -11   024784.71 1259.85   1-0.12340 0.06163-0.36478-0.38012-0.92287 0.92287
   0  11   1 3298.97  238.93   1-0.80083 0.87940 0.43192 0.32036 0.41484-0.35216
   0 -11  -1 3542.66  238.07   1-0.18277 0.10497-0.28570-0.46699-0.94072 0.87800
   0 -11  -2 1603.79  144.59   1-0.23463 0.14061-0.21087-0.54962-0.94893 0.82349
   0  11   3  276.77  124.83   1-0.80221 0.91300 0.42903 0.33887 0.41518-0.22713
   0 -11  -3  165.14   81.90   1-0.28007 0.17000-0.14240-0.62585-0.94935 0.76119
   0  11   4  529.73  140.61   1-0.79910 0.92600 0.43553 0.34017 0.41441-0.16367
   0 -11  -4  465.85  128.41   1-0.31827 0.19214-0.08173-0.69428-0.94446 0.69358
   0  11   5  788.83  201.96   1-0.79342 0.93644 0.44712 0.33639 0.41297-0.09955
   0 -11  -5 1022.49  289.01   1-0.34969 0.20751-0.02940-0.75436-0.93640 0.62278
   0  11   6 2473.18  211.70   1-0.78502 0.94415 0.46366 0.32766 0.41078-0.03467
   0 -11  -6 3075.49  239.02   1-0.37456 0.21641 0.01450-0.80619-0.92708 0.55065
   0  12  -8   97.80   75.36   1-0.58898 0.52856 0.72979 0.01968 0.34713-0.84866
   0  12  -8  351.62  178.22   1-0.91093 0.85007 0.39745 0.35252-0.11053-0.39127
   0 -12   8   37.32   48.43   1 0.36122-0.30030-0.81697 0.06665-0.44951 0.95151
   0  12  -7  124.71   51.64   1-0.63587 0.59155 0.68068 0.07659 0.36377-0.80262
   0  12  -7  200.24  136.51   1-0.91342 0.86862 0.39374 0.36409-0.10303-0.33604
   0 -12   7  236.75  102.39   1 0.31561-0.27073-0.79186 0.03370-0.52281 0.96206
   0  12  -6  215.23  105.47   1-0.67365 0.64543 0.63586 0.12921 0.37665-0.75280
   0  12  -6  317.38  127.41   1-0.91435 0.88560 0.39232 0.37339-0.10016-0.27618
   0 -12   6  228.33  104.39   1 0.26499-0.23616-0.75863-0.00736-0.59518 0.97168
   0  12  -5  348.38  103.00   1-0.70394 0.69182 0.59584 0.17703 0.38656-0.70002
   0  12  -5  222.77   92.81   1-0.91344 0.90074 0.39372 0.37985-0.10298-0.21064
   0 -12   5  158.24   69.64   1 0.20953-0.19715-0.71700-0.05673-0.66483 0.97872
   0  12  -4  371.25   96.57   1-0.72802 0.73169 0.56076 0.22015 0.39436-0.64510
   0  12  -4  333.91  102.03   1-0.91011 0.91347 0.39865 0.38279-0.11296-0.13794
   0 -12   4  530.98  129.18   1 0.15026-0.15396-0.66647-0.11511-0.73023 0.98134
   0  12  -327470.00 1098.98   1-0.74688 0.76666 0.53115 0.25758 0.40005-0.58810
   0  12  -329620.73 6827.75   1-0.90334 0.92276 0.40802 0.38128-0.13220-0.05597
   0 -12   328083.77 1091.00   1 0.08825-0.10804-0.60789-0.18153-0.78909 0.97743
   0  12  -2 1022.70  182.04   1-0.76134 0.79724 0.50688 0.28965 0.40425-0.52962
   0  12  -2  632.76  119.09   1-0.89113 0.92659 0.42309 0.37408-0.16392 0.03847
   0 -12   2  947.94  163.91   1 0.02611-0.06142-0.54244-0.25432-0.83968 0.96516
   0  12  -1  313.07  134.62   1-0.77203 0.82404 0.48796 0.31639 0.40726-0.46994
   0  12  -1  235.05   79.79   1-0.86906 0.92075 0.44574 0.35937-0.21455 0.15183
   0 -12   1   36.54   57.06   1-0.03617-0.01519-0.47271-0.33184-0.88047 0.94321
   0  12   0   96.63   82.42   1-0.77942 0.84755 0.47431 0.33784 0.40928-0.40928
   0 -12   0  371.40  107.98   1-0.09460 0.02722-0.40126-0.41136-0.91106 0.91106
   0  12   1  710.60  176.75   1-0.78388 0.86812 0.46585 0.35410 0.41048-0.34779
   0 -12  -1  755.14  159.82   1-0.14972 0.06631-0.33037-0.49003-0.93189 0.86917
   0  12   2   93.26   90.51   1-0.78564 0.88600 0.46247 0.36530 0.41094-0.28558
   0 -12  -2  112.24   72.99   1-0.19934 0.09990-0.26264-0.56556-0.94407 0.81863
   0  12   3   93.82   89.96   1-0.78484 0.90130 0.46402 0.37155 0.41073-0.22268
   0 -12  -3  265.32   92.89   1-0.24204 0.12633-0.19997-0.63600-0.94943 0.76126
   0  12   4  289.90  119.54   1-0.78150 0.91408 0.47039 0.37299 0.40984-0.15910
   0 -12  -4  402.73  136.09   1-0.27934 0.14759-0.14352-0.70021-0.94940 0.69851
   0  12   5  758.91  245.71   1-0.77558 0.92428 0.48145 0.36974 0.40824-0.09481
   0 -12  -5  711.12  230.67   1-0.31067 0.16286-0.09403-0.75745-0.94585 0.63224
   0  13  -6  384.80  219.94   1-0.66061 0.63809 0.65192 0.18081 0.37227-0.74842
   0  13  -6  379.62  151.67   1-0.89962 0.87650 0.41284 0.42061-0.14222-0.23412
   0 -13   6  368.66  136.78   1 0.26869-0.24549-0.76123-0.07252-0.59018 0.96668
   0  13  -5  505.07  160.80   1-0.68917 0.68275 0.61585 0.22468 0.38178-0.69524
   0  13  -5  604.43  155.05   1-0.89704 0.88997 0.41606 0.42525-0.14900-0.16462
   0 -13   5  364.47   92.30   1 0.21644-0.20973-0.72251-0.11896-0.65659 0.97049
   0  13  -4 2646.61  341.19   1-0.71203 0.72172 0.58444 0.26389 0.38913-0.63990
   0  13  -4 1874.54  172.38   1-0.89133 0.90032 0.42285 0.42632-0.16341-0.08749
   0 -13   4 2412.04  182.48   1 0.16115-0.17053-0.67617-0.17316-0.71890 0.97001
   0  13  -3 2110.48  185.60   1-0.73006 0.75552 0.55766 0.29874 0.39498-0.58304
   0  13  -3 1807.17  138.94   1-0.88088 0.90611 0.43410 0.42302-0.18866 0.00050
   0 -13   3 2248.92  155.20   1 0.10376-0.12922-0.62307-0.23410-0.77524 0.96358
   0  13  -228718.91  500.03   1-0.74395 0.78552 0.53590 0.32832 0.39918-0.52455
   0 -13   228809.81 7385.98   1 0.04656-0.08748-0.56416-0.30029-0.82434 0.94982
   0  13  -1 3238.93  214.02   1-0.75424 0.81193 0.51898 0.35304 0.40221-0.46489
   0 -13   1 3405.80  163.53   1-0.01081-0.04618-0.50175-0.37049-0.86494 0.92768
   0  13   0  357.91  136.61   1-0.76134 0.83515 0.50687 0.37296 0.40425-0.40425
   0 -13   0  322.22   99.09   1-0.06586-0.00718-0.43758-0.44245-0.89676 0.89676
   0  13   1  642.40  161.26   1-0.76556 0.85548 0.49950 0.38813 0.40545-0.34277
   0 -13  -1  362.56  106.11   1-0.11611 0.02708-0.37412-0.51400-0.92008 0.85735
   0 -13  -2  753.09  233.56   1-0.16288 0.05782-0.31278-0.58314-0.93575 0.81031
  -1  13   2  990.02  150.73   1-0.82582 0.80159 0.37559 0.51986 0.42064-0.29527
   1 -13  -2 1176.94  167.22   1-0.14936 0.17465-0.33085-0.56507-0.93178 0.80634
  -1  13   1  276.16  148.46   1-0.82408 0.78373 0.37981 0.50783 0.42026-0.35758
   1 -13  -1  499.83  138.31   1-0.10559 0.14691-0.38747-0.50065-0.91581 0.85308
  -1  13   0 1178.77  384.02   1-0.82018 0.76371 0.38909 0.49074 0.41941-0.41941
   1 -13   0 1021.05  189.99   1-0.05907 0.11634-0.44573-0.43431-0.89321 0.89321
  -1  13  -1  206.73  124.79   1-0.81387 0.74130 0.40359 0.46843 0.41798-0.48066
   1 -13   1  126.74  107.87   1-0.00855 0.08188-0.50429-0.36795-0.86348 0.92622
  -1  13  -2 2319.82  169.38   1-0.80482 0.71613 0.42348 0.44073 0.41582-0.54119
  -1  13  -2 2236.60  134.68   1-0.93759 0.84835 0.34746 0.51745-0.01350-0.11194
   1 -13   2 1645.40  123.85   1 0.04390 0.04549-0.56137-0.30308-0.82639 0.95187
  -1  13  -3  337.74  112.34   1-0.79253 0.68773 0.44891 0.40750 0.41274-0.60080
  -1  13  -3  188.80  102.04   1-0.94037 0.83508 0.34013 0.51691 0.00006-0.18823
   1 -13   3  202.51   87.67   1 0.09623 0.00866-0.61575-0.24143-0.78204 0.97037
  -1  13  -4  483.01  125.10   1-0.77636 0.65544 0.48002 0.36858 0.40845-0.65919
  -1  13  -4  351.18  117.54   1-0.94136 0.82001 0.33734 0.51184 0.00518-0.25609
   1 -13   4  298.53  134.34   1 0.14909-0.02811-0.66542-0.18391-0.73142 0.98254
  -1  13  -5  898.41  125.09   1-0.75546 0.61843 0.51692 0.32387 0.40256-0.71598
  -1  13  -5  950.90  140.08   1-0.94111 0.80370 0.33807 0.50324 0.00384-0.31748
   1 -13   5  744.80  230.96   1 0.20055-0.06348-0.70970-0.13177-0.67534 0.98924
  -1  12   5  371.25  157.02   1-0.83751 0.85594 0.34588 0.50531 0.42300-0.10958
   1 -12  -5  169.47   95.59   1-0.28909 0.27161-0.12835-0.72314-0.94865 0.63504
  -1  12   4  255.78  132.26   1-0.84143 0.84375 0.33530 0.50808 0.42373-0.17299
   1 -12  -4  272.03  127.17   1-0.25791 0.25649-0.17626-0.66747-0.94995 0.69906
  -1  12   3  491.90  156.49   1-0.84363 0.82978 0.32993 0.50600 0.42359-0.23539
   1 -12  -3  135.58   87.47   1-0.22227 0.23715-0.23000-0.60598-0.94746 0.75929
  -1  12   2  -13.49   73.35   1-0.84380 0.81389 0.32944 0.49867 0.42362-0.29815
   1 -12  -2  318.65  127.85   1-0.18072 0.21163-0.28850-0.53969-0.94026 0.81482
  -1  12   1   73.00   76.15   1-0.84190 0.79588 0.33401 0.48595 0.42382-0.36113
   1 -12  -1  104.01   75.55   1-0.13421 0.18115-0.35077-0.46964-0.92679 0.86407
  -1  12   0 4265.31  255.22   1-0.83809 0.77595 0.34433 0.46782 0.42311-0.42311
  -1  12   0 4021.83  202.78   1-0.94177 0.87901 0.33616 0.47674 0.00733-0.00733
   1 -12   0 4656.56  265.08   1-0.08333 0.14631-0.41520-0.39741-0.90590 0.90590
  -1  12  -117093.88  720.88   1-0.83194 0.75368 0.36036 0.44398 0.42191-0.48459
  -1  12  -115558.86  630.80   1-0.94695 0.86813 0.31908 0.48595 0.03817-0.10090
   1 -12   117239.47  711.51   1-0.02995 0.10891-0.47991-0.32464-0.87680 0.93954
  -1  12  -2 7303.05  371.81   1-0.82303 0.72866 0.38233 0.41421 0.42003-0.54540
  -1  12  -2 7396.62  341.37   1-0.94905 0.85451 0.31030 0.48715 0.05475-0.18021
   1 -12   2 6735.21  329.71   1 0.02658 0.06843-0.54294-0.25381-0.83934 0.96482
  -1  12  -3 3712.07  229.39   1-0.81082 0.70034 0.41043 0.37829 0.41726-0.60532
  -1  12  -3 3792.74  238.33   1-0.94987 0.83926 0.30655 0.48307 0.06134-0.24954
   1 -12   3 4198.92  240.19   1 0.08297 0.02759-0.60265-0.18678-0.79367 0.98201
  -1  12  -4 4756.70  271.57   1-0.79454 0.66795 0.44486 0.33606 0.41326-0.66400
  -1  12  -4 4986.50  277.23   1-0.94978 0.82310 0.30697 0.47481 0.06059-0.31152
   1 -12   4 4790.72  267.77   1 0.13963-0.01298-0.65683-0.12474-0.74098 0.99210
  -1  12  -5  267.09   93.87   1-0.77323 0.63052 0.48577 0.28734 0.40759-0.72101
  -1  12  -5  250.08  130.57   1-0.94898 0.80623 0.31062 0.46332 0.05418-0.36785
   1 -12   5  577.47  161.85   1 0.19444-0.05170-0.70466-0.06906-0.68237 0.99627
  -1  12  -6  103.95   57.27   1-0.74559 0.58677 0.53323 0.23207 0.39967-0.77577
  -1  12  -6  194.69  101.92   1-0.94769 0.78860 0.31623 0.44947 0.04325-0.41960
   1 -12   6  233.05   90.14   1 0.24656-0.08735-0.74529-0.02070-0.61946 0.99596
  -1  12  -7 1375.67  277.67   1-0.70995 0.53543 0.58741 0.16986 0.38847-0.82731
  -1  12  -7 1394.68  179.10   1-0.94547 0.77033 0.32443 0.43341 0.02861-0.46769
   1 -12   7 1217.21  451.75   1 0.29500-0.11974-0.77896 0.02080-0.55333 0.99258
  -1  12  -8  405.54  169.22   1-0.66402 0.47340 0.64779 0.10168 0.37342-0.87495
  -1  12  -8  392.12  140.76   1-0.94242 0.75122 0.33424 0.41573 0.01085-0.51266
   1 -12   8  527.33  206.30   1 0.33954-0.14823-0.80566 0.05534-0.48540 0.98740
  -1  11   7  164.00   88.49   1-0.84118 0.88616 0.33600 0.46312 0.42369 0.01510
   1 -11  -7  724.19  238.06   1-0.37137 0.32752 0.00886-0.80829-0.92844 0.48926
  -1  11   6  302.47  125.53   1-0.84895 0.87762 0.31476 0.47693 0.42449-0.04809
   1 -11  -6  349.02  141.69   1-0.35037 0.32246-0.02825-0.76326-0.93618 0.55985
  -1  11   5 3409.66  212.00   1-0.85444 0.86704 0.29833 0.48554 0.42534-0.11167
   1 -11  -5 4128.88  255.88   1-0.32399 0.31213-0.07238-0.71139-0.94328 0.62967
  -1  11   4  905.59  189.96   1-0.85804 0.85457 0.28708 0.48897 0.42584-0.17491
   1 -11  -4  930.81  199.40   1-0.29215 0.29635-0.12354-0.65246-0.94835 0.69747
  -1  11   3  195.51   87.50   1-0.85987 0.84034 0.28117 0.48705 0.42608-0.23789
   1 -11  -3  318.04   98.09   1-0.25444 0.27470-0.18148-0.58676-0.94990 0.76173
  -1  11   2 1182.59  193.61   1-0.85998 0.82438 0.28082 0.47958 0.42610-0.30063
   1 -11  -2  835.33  154.64   1-0.21142 0.24794-0.24556-0.51491-0.94604 0.82059
  -1  11   1 4432.30  294.53   1-0.85829 0.80663 0.28626 0.46632 0.42588-0.36315
  -1  11   1 5451.74  307.60   1-0.94888 0.89689 0.31107 0.44214 0.05339 0.00933
   1 -11  -1 5572.28  342.61   1-0.16187 0.21442-0.31414-0.43854-0.93547 0.87275
  -1  11   0 1289.15  186.25   1-0.85463 0.78691 0.29774 0.44701 0.42537-0.42537
  -1  11   0 1444.01  122.91   1-0.95295 0.88489 0.28878 0.45659 0.09205-0.09205
   1 -11   0 1464.60  168.91   1-0.10718 0.17576-0.38547-0.35942-0.91647 0.91647
  -1  11  -1 1889.37  220.36   1-0.84869 0.76490 0.31554 0.42139 0.42445-0.48718
  -1  11  -1 1460.04  147.58   1-0.95432 0.87019 0.27692 0.46062 0.11215-0.17488
   1 -11   1 2086.80  207.90   1-0.04939 0.13396-0.45723-0.27962-0.88797 0.95071
  -1  11  -2 1278.15  143.86   1-0.83984 0.73980 0.33963 0.38922 0.42344-0.54881
  -1  11  -2  913.01  111.29   1-0.95472 0.85453 0.27209 0.45760 0.12023-0.24570
   1 -11   2 1091.20  121.17   1 0.01181 0.08882-0.52691-0.20215-0.84983 0.97531
  -1  11  -3 1425.58  168.42   1-0.82775 0.71159 0.37087 0.35018 0.42104-0.60910
  -1  11  -3 1667.58  164.83   1-0.95471 0.83844 0.27231 0.44955 0.11987-0.30807
   1 -11   3 1512.25  167.62   1 0.07371 0.04298-0.59212-0.12915-0.80246 0.99069
  -1  11  -4  125.34   70.44   1-0.81136 0.67909 0.40922 0.30402 0.41739-0.66813
  -1  11  -4  389.36  179.30   1-0.95438 0.82204 0.27628 0.43774 0.11322-0.36416
   1 -11   4   94.07   65.32   1 0.13364-0.00132-0.65133-0.06250-0.74692 0.99804
  -1  11  -5 1114.61  181.09   1-0.78951 0.64113 0.45491 0.25052 0.41196-0.72538
  -1  11  -5  931.22  189.14   1-0.95367 0.80527 0.28311 0.42307 0.10170-0.41537
   1 -11   5 1154.84  198.94   1 0.19200-0.04359-0.70264-0.00334-0.68514 0.99904
  -1  11  -6 2813.48  186.82   1-0.76065 0.59615 0.50807 0.18956 0.40406-0.78016
  -1  11  -6 2837.21  232.28   1-0.95246 0.78799 0.29215 0.40618 0.08627-0.46267
   1 -11   6 3043.27  422.90   1 0.24692-0.08209-0.74556 0.04731-0.61900 0.99550
  -1  11  -7  333.86  114.06   1-0.72272 0.54250 0.56888 0.12073 0.39248-0.83132
  -1  11  -7   57.76  110.71   1-0.95060 0.77006 0.30295 0.38755 0.06762-0.50675
   1 -11   7  195.98   73.94   1 0.29741-0.11653-0.78052 0.09011-0.54984 0.98908
  -1  11  -8  206.58   94.25   1-0.67294 0.47662 0.63675 0.04505 0.37641-0.87795
  -1  11  -8  299.55  136.27   1-0.94792 0.75131 0.31512 0.36754 0.04625-0.54811
   1 -11   8  262.59  123.00   1 0.34333-0.14640-0.80772 0.12516-0.47927 0.98127
  -1  11  -9  216.80  166.43   1-0.94447 0.73159 0.32780 0.34656 0.02254-0.58707
   1 -11   9  219.90  111.59   1 0.38423-0.17162-0.82782 0.15290-0.40873 0.97322
  -1  10   8 5220.54  314.87   1-0.84804 0.90316 0.31740 0.42224 0.42434 0.07751
   1 -10  -8 5395.59  338.71   1-0.42136 0.36704 0.10068-0.84010-0.90128 0.39936
  -1  10   7 1315.05  137.92   1-0.85744 0.89649 0.28896 0.44285 0.42576 0.01336
   1 -10  -7 1310.25  172.49   1-0.40498 0.36674 0.06972-0.80140-0.91165 0.47248
  -1  10   6 1073.75  214.08   1-0.86446 0.88745 0.26584 0.45815 0.42663-0.05024
   1 -10  -6 1098.41  238.41   1-0.38403 0.36187 0.03140-0.75534-0.92278 0.54634
  -1  10   5 6353.31  306.60   1-0.86947 0.87639 0.24813 0.46804 0.42713-0.11346
   1 -10  -5 5675.11  290.19   1-0.35824 0.35202-0.01475-0.70128-0.93351 0.61989
  -1  10   4 4243.16  283.07   1-0.87272 0.86357 0.23600 0.47234 0.42738-0.17645
   1 -10  -4 3832.60  268.80   1-0.32593 0.33576-0.06919-0.63909-0.94285 0.69196
  -1  10   3  365.63   98.59   1-0.87435 0.84914 0.22968 0.47084 0.42749-0.23929
   1 -10  -3  524.51  139.17   1-0.28692 0.31280-0.13174-0.56878-0.94885 0.76068
  -1  10   2 4951.58  272.47   1-0.87442 0.83314 0.22940 0.46329 0.42749-0.30203
  -1  10   2 4173.94  167.12   1-0.95358 0.91201 0.28390 0.40939 0.10036 0.02509
   1 -10  -2 4622.40  235.82   1-0.24087 0.28281-0.20168-0.49108-0.94936 0.82392
  -1  10   112653.77  479.96   1-0.87285 0.81551 0.23548 0.44939 0.42739-0.36466
  -1  10   112995.24  440.46   1-0.95548 0.89784 0.25392 0.43153 0.15024-0.08750
   1 -10  -113061.32  492.46   1-0.18863 0.24680-0.27759-0.40738-0.94199 0.87927
  -1  10   0 7388.61  329.61   1-0.86944 0.79603 0.24824 0.42881 0.42712-0.42712
  -1  10   0 6820.30  261.67   1-0.95523 0.88151 0.23890 0.43871 0.17450-0.17450
   1 -10   0 7863.80  338.10   1-0.12953 0.20374-0.35685-0.32033-0.92513 0.92513
  -1  10  -144436.56 1335.26   1-0.86382 0.77435 0.26803 0.40119 0.42656-0.48929
  -1  10  -145108.17 1322.38   1-0.95492 0.86514 0.23305 0.43672 0.18383-0.24657
   1 -10   142785.66 1274.06   1-0.06660 0.15680-0.43669-0.23246-0.89713 0.95988
  -1  10  -2 6244.90  279.06   1-0.85544 0.74991 0.29523 0.36617 0.42548-0.55095
  -1  10  -2 5932.91  268.61   1-0.95494 0.84909 0.23337 0.42857 0.18334-0.30880
   1 -10   2 6414.77  285.99   1 0.00002 0.10623-0.51388-0.14748-0.85785 0.98334
  -1  10  -3  143.46   73.30   1-0.84352 0.72192 0.33022 0.32336 0.42357-0.61177
  -1  10  -3   65.83   67.81   1-0.95519 0.83327 0.23805 0.41605 0.17587-0.36407
   1 -10   3   75.68   65.56   1 0.06713 0.05518-0.58544-0.06813-0.80792 0.99614
  -1  10  -4 1274.23  131.29   1-0.82689 0.68894 0.37298 0.27258 0.42086-0.67160
  -1  10  -4 1612.38  141.00   1-0.95544 0.81745 0.24594 0.40032 0.16319-0.41412
   1 -10   4 1409.09  129.78   1 0.13168 0.00631-0.64951 0.00342-0.74885 0.99997
  -1  10  -5 2203.83  144.66   1-0.80435 0.65029 0.42449 0.21326 0.41571-0.72913
  -1  10  -5 2204.35  158.13   1-0.95545 0.80139 0.25624 0.38218 0.14644-0.46011
   1 -10   5 2157.43  129.81   1 0.19377-0.03969-0.70410 0.06586-0.68314 0.99703
  -1  10  -6 7049.80  402.53   1-0.77385 0.60367 0.48464 0.14531 0.40776-0.78387
  -1  10  -6 7044.50  421.29   1-0.95497 0.78485 0.26839 0.36219 0.12641-0.50281
   1 -10   6 6529.39  796.74   1 0.25142-0.08097-0.74887 0.11838-0.61316 0.98966
  -1  10  -7   44.55   51.34   1-0.73281 0.54652 0.55344 0.06869 0.39582-0.83462
  -1  10  -7  181.70  151.96   1-0.95381 0.76761 0.28195 0.34079 0.10366-0.54279
   1 -10   7  136.53   89.01   1 0.30375-0.11724-0.78455 0.16190-0.54056 0.97981
  -1  10  -8  118.57   58.55   1-0.67761 0.47559 0.63085-0.01669 0.37797-0.87950
  -1  10  -8  224.64  149.61   1-0.95175 0.74949 0.29661 0.31829 0.07861-0.58047
   1 -10   8  163.99   60.87   1 0.35070-0.14815-0.81163 0.19682-0.46718 0.96917
  -1  10  -9  291.93  128.68   1-0.94864 0.73030 0.31211 0.29495 0.05156-0.61615
   1 -10   9  216.12  100.66   1 0.39201-0.17374-0.83107 0.22394-0.39450 0.95898
  -1  10 -10 1955.34  214.81   1-0.94451 0.70994 0.32769 0.27106 0.02274-0.65000
   1 -10  10 1098.49  312.82   1 0.42880-0.19446-0.84378 0.24451-0.32273 0.94994
  -1   9   9  352.73   97.51   1-0.85171 0.91720 0.30662 0.37313 0.42493 0.13966
   1  -9  -9  -48.68  102.00   1-0.46415 0.39936 0.18648-0.86588-0.86590 0.30124
  -1   9   8  184.89  102.05   1-0.86320 0.91262 0.27015 0.40178 0.42649 0.07536
   1  -9  -8  129.80  104.90   1-0.45273 0.40402 0.16279-0.83446-0.87665 0.37474
  -1   9   7 1734.62  329.55   1-0.87184 0.90521 0.23931 0.42479 0.42732 0.01180
   1  -9  -7 2954.28  252.51   1-0.43738 0.40474 0.13189-0.79582-0.88955 0.45037
  -1   9   6  428.47  129.99   1-0.87819 0.89548 0.21417 0.44211 0.42767-0.05127
   1  -9  -6  273.06  167.09   1-0.41727 0.40072 0.09286-0.74904-0.90402 0.52758
  -1   9   5 5694.65  274.36   1-0.88264 0.88387 0.19487 0.45359 0.42774-0.11408
   1  -9  -5 5391.24  284.41   1-0.39145 0.39097 0.04481-0.69326-0.91910 0.60541
  -1   9   4   74.35   82.64   1-0.88548 0.87065 0.18161 0.45903 0.42770-0.17677
  -1   9   4   -2.52    5.41   1-0.92837 0.91293 0.36795 0.27319-0.05227 0.30317
   1  -9  -4  244.52  102.02   1-0.35937 0.37483-0.01280-0.62775-0.93310 0.68221
  -1   9   3 1217.86  125.83   1-0.88691 0.85601 0.17466 0.45815 0.42764-0.23944
  -1   9   3 1195.93   69.73   1-0.95548 0.92432 0.25361 0.37976 0.15074 0.03745
   1  -9  -3 1229.75  162.54   1-0.31917 0.35068-0.08026-0.55253-0.94429 0.75612
  -1   9   2 1030.83  159.05   1-0.88697 0.84000 0.17436 0.45063 0.42764-0.30217
  -1   9   2  486.95  102.42   1 0.06314-0.11030 0.50416 0.12069-0.86129 0.98654
  -1   9   2  867.68  102.62   1-0.95283 0.90560 0.21154 0.41398 0.21758-0.09211
   1  -9  -2 1272.58  163.32   1-0.27066 0.31823-0.15689-0.46814-0.94980 0.82435
  -1   9   1 9520.61  325.83   1-0.88559 0.82256 0.18108 0.43609 0.42769-0.36496
  -1   9   110160.86  287.01   1-0.94985 0.88655 0.19295 0.42474 0.24606-0.18333
   1  -9  -1 9826.68  329.44   1-0.21454 0.27833-0.24110-0.37615-0.94648 0.88376
  -1   9   0 4959.48  226.48   1-0.88255 0.80346 0.19525 0.41409 0.42774-0.42774
  -1   9   0 5185.64  183.76   1-0.94859 0.86923 0.18664 0.42321 0.25558-0.25558
   1  -9   0 4884.85  214.27   1-0.15027 0.23009-0.32964-0.27982-0.93206 0.93206
  -1   9  -1  133.05   85.90   1-0.87742 0.78226 0.21735 0.38417 0.42764-0.49037
  -1   9  -1  590.25  115.47   1-0.94885 0.85341 0.18786 0.41415 0.25374-0.31647
   1  -9   1  487.19  116.41   1-0.08038 0.17623-0.41883-0.18283-0.90449 0.96721
  -1   9  -2 1144.97  153.18   1-0.86954 0.75831 0.24789 0.34580 0.42713-0.55260
  -1   9  -2 1532.44  179.26   1-0.95006 0.83856 0.19409 0.40008 0.24432-0.36979
   1  -9   2 1103.99  148.32   1-0.00822 0.12010-0.50465-0.08901-0.86327 0.98876
  -1   9  -3  853.32  117.24   1-0.85794 0.73065 0.28738 0.29849 0.42583-0.61403
  -1   9  -3  701.37  118.70   1-0.95173 0.82415 0.20383 0.38250 0.22947-0.41767
   1  -9   3  744.04  111.12   1 0.06487 0.06307-0.58313-0.00275-0.80978 0.99800
  -1   9  -4  909.47  126.61   1-0.84119 0.69757 0.33595 0.24193 0.42369-0.67443
  -1   9  -4 1286.48  194.20   1-0.95340 0.80976 0.21609 0.36240 0.21052-0.46146
   1  -9   4  835.73  121.34   1 0.13447 0.00919-0.65209 0.07375-0.74611 0.99723
  -1   9  -5 3050.08  169.09   1-0.81776 0.65802 0.39472 0.17535 0.41887-0.73229
  -1   9  -5 2523.34  238.90   1-0.95473 0.79502 0.23021 0.34045 0.18835-0.50202
   1  -9   5 3055.56  182.26   1 0.20037-0.04062-0.70956 0.13907-0.67555 0.98944
  -1   9  -6 1317.08  126.65   1-0.78501 0.60916 0.46368 0.09858 0.41078-0.78689
  -1   9  -6 1475.68  176.69   1-0.95544 0.77966 0.24570 0.31711 0.16357-0.53996
   1  -9   6 1338.00  206.91   1 0.26057-0.08450-0.75549 0.19275-0.60110 0.97760
  -1   9  -7  335.66   80.60   1-0.73956 0.54759 0.54290 0.01155 0.39787-0.83666
  -1   9  -7   33.97  122.97   1-0.95528 0.76343 0.26223 0.29274 0.13659-0.57573
   1  -9   7  393.96  101.14   1 0.31434-0.12222-0.79109 0.23620-0.52473 0.96398
  -1   9  -8 6005.16  241.74   1-0.67650 0.46878 0.63226-0.08576 0.37760-0.87913
  -1   9  -8 6312.17  326.88   1-0.95407 0.74615 0.27953 0.26761 0.10775-0.60962
   1  -9   8 5140.22  787.12   1 0.36185-0.15367-0.81728 0.27023-0.44845 0.95045
  -1   9  -9 3593.18  279.15   1-0.95162 0.72763 0.29738 0.24192 0.07728-0.64188
   1  -9   9 3285.18  484.72   1 0.40307-0.17912-0.83537 0.29603-0.37374 0.93822
  -1   9 -10  578.03  186.57   1-0.94779 0.70774 0.31562 0.21584 0.04536-0.67269
   1  -9  10  492.67  140.77   1 0.43932-0.19930-0.84650 0.31503-0.30070 0.92791
  -1   9 -11  642.91  224.37   1-0.94265 0.68639 0.33356 0.18958 0.01209-0.70208
   1  -9  11  831.25  191.50   1 0.47076-0.21469-0.85175 0.32815-0.22997 0.91990
  -1   8  10  125.51   78.71   1-0.85184 0.92771 0.30622 0.31366 0.42495 0.20237
   1  -8 -10  195.28  112.26   1-0.49873 0.42286 0.26398-0.88439-0.82557 0.19754
  -1   8   9   60.31   54.54   1-0.86607 0.92588 0.26027 0.35178 0.42680 0.13778
   1  -8  -9  193.38  112.63   1-0.49179 0.43205 0.24807-0.86067-0.83462 0.26939
  -1   8   8  238.21   96.94   1-0.87667 0.92041 0.22041 0.38381 0.42761 0.07424
   1  -8  -8  327.63  180.62   1-0.48242 0.43931 0.22576-0.82967-0.84634 0.34442
  -1   8   7  155.67   75.64   1-0.88443 0.91210 0.18662 0.40979 0.42772 0.01140
   1  -8  -7  409.59  141.67   1-0.46841 0.44138 0.19548-0.79165-0.86161 0.42243
  -1   8   6 5934.81  260.39   1-0.88995 0.90156 0.15897 0.42961 0.42744-0.05104
   1  -8  -6 5620.92  292.44   1-0.44952 0.43858 0.15626-0.74470-0.87949 0.50305
  -1   8   5 4188.43  226.03   1-0.89371 0.88926 0.13763 0.44312 0.42699-0.11332
   1  -8  -5 3913.00  242.92   1-0.42455 0.42969 0.10683-0.68752-0.89907 0.58537
  -1   8   4  291.14   92.60   1-0.89607 0.87555 0.12287 0.45006 0.42656-0.17563
  -1   8   4  237.80   28.52   1-0.61221 0.59161 0.56288 0.01024-0.55529 0.80615
  -1   8   4  381.01   45.64   1-0.95314 0.93239 0.21390 0.35954 0.21392 0.03700
   1  -8  -4  338.99  117.30   1-0.39213 0.41335 0.04606-0.61902-0.91875 0.66779
  -1   8   3  246.73   92.79   1-0.89723 0.86065 0.11502 0.45008 0.42629-0.23810
  -1   8   3  187.10   32.92   1-0.21615 0.17936 0.56552-0.00041-0.79590 0.98378
  -1   8   3  154.02   62.45   1-0.93962 0.90276 0.15216 0.41355 0.30652-0.11827
   1  -8  -3  195.51  117.12   1-0.35137 0.38851-0.02655-0.53852-0.93585 0.74769
  -1   8   2 5750.90  251.47   1-0.89731 0.84466 0.11451 0.44277 0.42628-0.30081
  -1   8   2 4905.49  153.93   1 0.08552-0.13834 0.49734 0.05984-0.86332 0.98857
  -1   8   2 5788.56  202.60   1-0.93262 0.87969 0.13147 0.42639 0.33604-0.21055
   1  -8  -2 5534.82  253.67   1-0.30025 0.35344-0.11072-0.44659-0.94741 0.82196
  -1   8   113907.92  442.48   1-0.89622 0.82751 0.12183 0.42763 0.42653-0.36379
  -1   8   111692.54  321.72   1 0.29740-0.36655 0.41797 0.13134-0.85839 0.92107
  -1   8   113718.64  391.21   1-0.93097 0.86197 0.12706 0.42293 0.34224-0.27949
   1  -8  -113204.56  407.79   1-0.23897 0.30822-0.20449-0.34506-0.94924 0.88652
  -1   8   0  107.71   74.20   1-0.89373 0.80895 0.13757 0.40407 0.42699-0.42699
  -1   8   0   39.83   24.13   1 0.44311-0.52826 0.34716 0.19444-0.82651 0.82651
  -1   8   0  157.15   77.58   1-0.93259 0.84752 0.13140 0.41074 0.33614-0.33614
   1  -8   0  135.90   85.00   1-0.16917 0.25460-0.30428-0.23746-0.93743 0.93743
  -1   8  -1  598.90  105.95   1-0.88931 0.78847 0.16236 0.37146 0.42749-0.49022
  -1   8  -1  124.81   85.76   1-0.93601 0.83487 0.14107 0.39321 0.32243-0.38518
   1  -8   1  524.54  118.18   1-0.09188 0.19335-0.40463-0.12931-0.90984 0.97256
  -1   8  -2  418.29   92.37   1-0.88218 0.76528 0.19690 0.32908 0.42774-0.55321
  -1   8  -2  518.67   99.60   1-0.94025 0.82303 0.15422 0.37220 0.30354-0.42904
   1  -8   2  507.84  103.36   1-0.01207 0.12957-0.50032-0.02566-0.86575 0.99123
  -1   8  -3 4916.07  211.40   1-0.87114 0.73817 0.24195 0.27621 0.42727-0.61546
  -1   8  -3 6359.12  271.94   1-0.94461 0.81132 0.16974 0.34882 0.28087-0.46911
   1  -8   3 6234.31  241.07   1 0.06790 0.06566-0.58622 0.06803-0.80729 0.99551
  -1   8  -4  -18.61   61.76   1-0.85448 0.70544 0.29822 0.21212 0.42534-0.67627
  -1   8  -4  260.16  132.99   1-0.94865 0.79935 0.18690 0.32383 0.25519-0.50612
   1  -8   4  254.80  105.68   1 0.14295 0.00638-0.65986 0.14927-0.73765 0.98877
  -1   8  -5  921.56  107.49   1-0.82973 0.66432 0.36593 0.13646 0.42146-0.73488
  -1   8  -5  668.63  161.49   1-0.95194 0.78657 0.20522 0.29767 0.22733-0.54100
   1  -8   5 1082.50  119.12   1 0.21259-0.04717-0.71945 0.21671-0.66119 0.97509
  -1   8  -6 2864.38  147.63   1-0.79379 0.61226 0.44638 0.04820 0.41307-0.78917
  -1   8  -6 3236.89  211.38   1-0.95426 0.77282 0.22436 0.27069 0.19758-0.57398
   1  -8   6 2941.86  271.85   1 0.27491-0.09322-0.76555 0.27057-0.58167 0.95817
  -1   8  -7  108.84   40.78   1-0.74180 0.54415 0.53934-0.05256 0.39854-0.83733
  -1   8  -7   -5.24  118.89   1-0.95540 0.75790 0.24406 0.24315 0.16622-0.60535
   1  -8   7  315.13   83.56   1 0.32951-0.13176-0.80004 0.31290-0.50135 0.94059
  -1   8  -8 1478.99  177.97   1-0.66666 0.45324 0.64455-0.16571 0.37431-0.87584
   1  -8   8 1477.19  238.20   1 0.37651-0.16296-0.82441 0.34500-0.42257 0.92434
  -1   8  -910010.60  368.37   1-0.55704 0.32752 0.75972-0.28868 0.33543-0.89965
  -1   8  -910564.36  462.53   1-0.95352 0.72387 0.28442 0.18711 0.09947-0.66406
   1  -8   910462.10  849.19   1 0.41738-0.18777-0.84034 0.36879-0.34585 0.91034
  -1   8 -10 1282.31  273.55   1-0.95022 0.70451 0.30483 0.15887 0.06434-0.69167
   1  -8  10 1284.72  282.05   1 0.45251-0.20683-0.84927 0.38559-0.27197 0.89918
  -1   8 -11  870.87  249.04   1-0.94540 0.68351 0.32469 0.13071 0.02814-0.71813
   1  -8  11  930.82  276.11   1 0.48263-0.22089-0.85242 0.39661-0.20108 0.89101
  -1   8 -12  554.94  217.80   1-0.93854 0.66060 0.34504 0.10249-0.00900-0.74370
   1  -8  12  118.57   68.77   1 0.50867-0.23062-0.85068 0.40292-0.13260 0.88569
  -1   7  11 1511.10  135.96   1-0.84730 0.93355 0.31955 0.24044 0.42422 0.26583
   1  -7 -11 1545.39  187.79   1-0.52692 0.44057 0.33261-0.89306-0.78212 0.09128
  -1   7  10 1049.97  221.86   1-0.86555 0.93574 0.26208 0.29009 0.42675 0.20057
   1  -7 -10 1110.49  256.72   1-0.52364 0.45341 0.32422-0.87685-0.78783 0.15980
  -1   7   9  537.48  111.03   1-0.87884 0.93296 0.21143 0.33291 0.42769 0.13689
   1  -7  -9  723.12  183.92   1-0.51802 0.46392 0.31016-0.85497-0.79714 0.23192
  -1   7   8 1251.42  123.91   1-0.88834 0.92640 0.16740 0.36912 0.42756 0.07429
   1  -7  -8 1009.44  163.26   1-0.50948 0.47151 0.28934-0.82634-0.81036 0.30794
  -1   7   721510.70  724.67   1-0.89497 0.91696 0.12992 0.39877 0.42678 0.01234
   1  -7  -720522.33  712.76   1-0.49720 0.47534 0.26043-0.78961-0.82762 0.38800
  -1   7   6 2121.92  134.56   1-0.89943 0.90535 0.09910 0.42178 0.42567-0.04928
   1  -7  -6 2322.35  211.95   1-0.48064 0.47529 0.22183-0.74252-0.84839 0.47195
  -1   7   5   74.02   72.62   1-0.90187 0.89160 0.07477 0.43877 0.42547-0.11185
  -1   7   5   50.88   18.56   1-0.92123 0.91059 0.38112 0.13241-0.07788 0.39151
  -1   7   5    0.83    5.65   1-0.92560 0.91523 0.11354 0.40012 0.36106-0.04731
   1  -7  -5  227.29  125.28   1-0.45703 0.46777 0.17164-0.68459-0.87272 0.55903
  -1   7   413382.13  428.12   1-0.90355 0.87713 0.05795 0.44774 0.42452-0.17363
  -1   7   412346.90  319.71   1-0.60108 0.57482 0.56496-0.05955-0.56525 0.81610
  -1   7   412585.95  328.42   1-0.89085 0.86441 0.04499 0.46082 0.45206-0.20106
   1  -7  -413042.09  419.61   1-0.42524 0.45206 0.10814-0.61335-0.89859 0.64763
  -1   7   3 8627.38  351.95   1-0.90436 0.86180 0.04874 0.44910 0.42396-0.23578
  -1   7   3 7679.21  259.64   1-0.22355 0.18109 0.56650-0.06907-0.79315 0.98103
  -1   7   3 8200.71  286.08   1-0.88459 0.84198 0.03496 0.46310 0.46504-0.27676
   1  -7  -3 7394.11  319.16   1-0.38327 0.42617 0.03003-0.52749-0.92314 0.73492
  -1   7   2  891.28  127.35   1-0.90445 0.84574 0.04768 0.44232 0.42389-0.29844
  -1   7   2  516.22   80.70   1 0.08986-0.14834 0.49599-0.00646-0.86366 0.98891
  -1   7   2  799.26   85.37   1-0.88874 0.83016 0.04149 0.44860 0.45651-0.33101
   1  -7  -2  521.44   98.42   1-0.32987 0.38869-0.06268-0.42690-0.94194 0.81649
  -1   7   174849.21 5201.12   1-0.90378 0.82892 0.05544 0.42671 0.42437-0.36165
  -1   7   166610.90 1799.76   1 0.31352-0.38829 0.41079 0.07084-0.85612 0.91880
  -1   7   175144.26 5209.14   1-0.89670 0.82205 0.05501 0.42721 0.43920-0.37645
   1  -7  -172814.96 2002.91   1-0.26333 0.33820-0.16808-0.31375-0.94995 0.88722
  -1   7   028117.76  818.36   1-0.90208 0.81108 0.07280 0.40150 0.42536-0.42536
  -1   7   025468.97  713.20   1 0.46531-0.55611 0.33479 0.13910-0.81938 0.81938
  -1   7   027278.33  776.31   1-0.90629 0.81557 0.07253 0.40183 0.41636-0.41636
   1  -7   027690.26  808.45   1-0.18584 0.27689-0.28145-0.19257-0.94140 0.94140
  -1   7  -1 9983.53  341.59   1-0.89914 0.79262 0.10126 0.36485 0.42576-0.48850
  -1   7  -110489.58  342.63   1-0.91620 0.80941 0.09240 0.37410 0.38989-0.45264
   1  -7   1 9678.63  326.67   1-0.09937 0.20645-0.39530-0.07093-0.91316 0.97588
  -1   7  -219781.07  594.34   1-0.89320 0.77061 0.14070 0.31758 0.42706-0.55253
  -1   7  -219653.34  593.54   1-0.92567 0.80280 0.11371 0.34494 0.36082-0.48632
   1  -7   219350.01  580.31   1-0.01027 0.13339-0.50235 0.04406-0.86460 0.99008
  -1   7  -3 9845.00  338.82   1-0.88310 0.74444 0.19276 0.25770 0.42774-0.61594
  -1   7  -310018.06  348.57   1-0.93422 0.79528 0.13590 0.31489 0.32978-0.51803
   1  -7   310293.29  347.24   1 0.07758 0.06159-0.59602 0.14552-0.79921 0.98743
  -1   7  -411950.24  431.37   1-0.86656 0.71184 0.25857 0.18407 0.42685-0.67778
  -1   7  -411960.94  467.90   1-0.94155 0.78654 0.15860 0.28433 0.29718-0.54817
   1  -7   412767.90  461.70   1 0.15832-0.00332-0.67367 0.23082-0.72187 0.97298
  -1   7  -516480.32  463.41   1-0.84020 0.66910 0.33867 0.09604 0.42351-0.73693
  -1   7  -518447.74  587.97   1-0.94750 0.77648 0.18155 0.25357 0.26320-0.57686
   1  -7   516044.88  530.01   1 0.23130-0.06021-0.73411 0.29912-0.63841 0.95231
  -1   7  -6 6877.14  196.18   1-0.79946 0.61226 0.43477-0.00786 0.41450-0.79061
  -1   7  -6 7835.51  332.25   1-0.95185 0.76476 0.20465 0.22264 0.22821-0.60461
   1  -7   6 6713.60  234.23   1 0.29496-0.10764-0.77893 0.35171-0.55340 0.92989
  -1   7  -7 4260.91  148.24   1-0.73711 0.53379 0.54676-0.12765 0.39713-0.83592
  -1   7  -7 3875.39  207.20   1-0.95455 0.75139 0.22774 0.19171 0.19226-0.63139
   1  -7   7 4360.25  278.10   1 0.34947-0.14610-0.81099 0.39161-0.46920 0.90845
  -1   7  -8 6694.68  251.64   1-0.64173 0.42261 0.67405-0.26287 0.36581-0.86734
  -1   7  -8 7322.24  338.88   1-0.95549 0.73626 0.25073 0.16088 0.15542-0.65728
   1  -7   8 7538.11  542.44   1 0.39547-0.17626-0.83246 0.42084-0.38807 0.88984
  -1   7  -9  630.28  108.14   1-0.49295 0.25779 0.81253-0.40920 0.31110-0.87526
  -1   7  -9 1065.83  164.36   1-0.95461 0.71931 0.27357 0.13021 0.11777-0.68236
   1  -7   9 1426.98  242.58   1 0.43481-0.19954-0.84539 0.44164-0.31023 0.87471
  -1   7 -10 4905.00  369.86   1-0.95182 0.70046 0.29618 0.09975 0.07935-0.70668
   1  -7  10 5090.70  412.66   1 0.46815-0.21681-0.85150 0.45562-0.23615 0.86336
  -1   7 -11  884.18  219.83   1-0.94724 0.67973 0.31797 0.06968 0.04015-0.73014
   1  -7  11  804.25  261.99   1 0.49666-0.22903-0.85206 0.46420-0.16527 0.85560
  -1   7 -12  542.72  147.60   1-0.94041 0.65684 0.34002 0.03977 0.00026-0.75297
   1  -7  12  802.83  158.65   1 0.52059-0.23688-0.84813 0.46811-0.09823 0.85132
   1  -6 -12  638.95  242.54   1-0.54869 0.45185 0.39148-0.89196-0.73869-0.01493
  -1   6  11 2906.54  154.66   1-0.86028 0.94085 0.27983 0.21246 0.42614 0.26391
   1  -6 -11 3741.71  283.35   1-0.54817 0.46746 0.38998-0.88265-0.73987 0.04904
  -1   6  10  133.16   74.42   1-0.87780 0.94230 0.21578 0.26868 0.42766 0.19966
   1  -6 -10  282.62  139.11   1-0.54600 0.48141 0.38384-0.86869-0.74467 0.11664
  -1   6   9 3692.68  237.35   1-0.88989 0.93833 0.15928 0.31736 0.42744 0.13714
   1  -6  -9 3848.17  292.88   1-0.54181 0.49334 0.37215-0.84918-0.75361 0.18839
  -1   6   8  880.09  111.15   1-0.89795 0.93032 0.11000 0.35882 0.42611 0.07574
   1  -6  -8  609.16  130.53   1-0.53499 0.50265 0.35370-0.82292-0.76724 0.26482
  -1   6   7   93.75   64.99   1-0.90263 0.91902 0.06754 0.39394 0.42508 0.01398
  -1   6   7  103.11   19.90   1-0.90071 0.91677 0.06240 0.39928 0.42991 0.00940
   1  -6  -7  138.52  135.38   1-0.52470 0.50848 0.32692-0.78832-0.78600 0.34638
  -1   6   6  256.06  104.73   1-0.90559 0.90584 0.03260 0.42104 0.42288-0.04653
  -1   6   6  237.74   29.21   1-0.95530 0.95538 0.24064 0.21296 0.17172 0.20467
  -1   6   6  282.11   34.10   1-0.60730 0.60735-0.24404 0.69791 0.75606-0.37950
   1  -6  -6  329.42  194.05   1-0.50966 0.50958 0.28978-0.74336-0.81010 0.43328
  -1   6   5 3189.69  268.50   1-0.90714 0.89124 0.00511 0.44067 0.42078-0.10716
  -1   6   5 2863.45  207.71   1-0.87997 0.86369 0.43525 0.01053-0.19027 0.50390
  -1   6   5 2766.15  200.95   1-0.67749 0.66145-0.19052 0.63652 0.71042-0.39662
   1  -6  -5 2684.65  245.55   1-0.48813 0.50417 0.23981-0.68557-0.83917 0.52516
  -1   6   4  489.31   87.03   1-0.90782 0.87578-0.01451 0.45245 0.41909-0.16819
  -1   6   4  498.09   43.19   1-0.61879 0.58686 0.56157-0.12388-0.54929 0.80014
  -1   6   4  539.39   53.68   1-0.73266 0.70052-0.14285 0.58098 0.66542-0.41438
   1  -6  -4  393.68  106.86   1-0.45823 0.49066 0.17413-0.61159-0.87160 0.62064
  -1   6   311920.00  369.22   1-0.90805 0.85986-0.02573 0.45583 0.41805-0.22987
  -1   6   310945.44  283.44   1-0.25789 0.20977 0.57062-0.14087-0.77966 0.96754
  -1   6   310609.14  283.31   1-0.77733 0.72908-0.09989 0.53018 0.62110-0.43282
   1  -6  -311323.96  355.34   1-0.41605 0.46455 0.09053-0.52025-0.90482 0.71660
  -1   6   216117.23  460.56   1-0.90808 0.84374-0.02784 0.45009 0.41784-0.29240
  -1   6   214123.26  360.33   1 0.07237-0.13652 0.50138-0.07954-0.86218 0.98743
  -1   6   215614.23  404.64   1-0.81300 0.74868-0.06109 0.48352 0.57904-0.45352
   1  -6  -215632.08  459.05   1-0.35980 0.42426-0.01206-0.40980-0.93294 0.80750
  -1   6   125935.97  683.61   1-0.90795 0.82746-0.01994 0.43434 0.41859-0.35587
  -1   6   124603.32  611.68   1 0.31469-0.39510 0.41026 0.00370-0.85594 0.91863
  -1   6   125961.29  655.41   1-0.84266 0.76225-0.02501 0.43959 0.53786-0.47510
   1  -6  -125945.94  683.06   1-0.28695 0.36745-0.13170-0.28241-0.94884 0.88612
  -1   6   013022.85  311.64   1-0.90739 0.81075-0.00092 0.40747 0.42028-0.42028
  -1   6   012589.29  261.94   1 0.47740-0.57384 0.32789 0.07830-0.81521 0.81521
  -1   6   012805.61  282.45   1-0.86757 0.77108 0.00900 0.39772 0.49723-0.49723
   1  -6   013481.81  316.47   1-0.19969 0.29635-0.26216-0.14415-0.94413 0.94413
  -1   6  -1 8196.29  239.22   1-0.90573 0.79295 0.03053 0.36816 0.42273-0.48545
  -1   6  -1 7901.07  223.11   1-0.88870 0.77626 0.04141 0.35733 0.45660-0.51935
   1  -6   1 7904.83  205.97   1-0.58034 0.69299-0.26286-0.13590 0.77077-0.70801
   1  -6   1 7883.21  232.36   1-0.10146 0.21415-0.39268-0.00583-0.91406 0.97678
  -1   6  -217514.23  476.92   1-0.90175 0.77282 0.07594 0.31490 0.42553-0.55098
  -1   6  -219305.76  534.71   1-0.90626 0.77774 0.07247 0.31841 0.41645-0.54195
   1  -6   219094.62  524.08   1-0.00096 0.12969-0.51279 0.12220-0.85851 0.98399
  -1   6  -3  306.34   90.41   1-0.89369 0.74935 0.13779 0.24497 0.42699-0.61519
  -1   6  -3  325.04   96.84   1-0.92081 0.77622 0.10242 0.28060 0.37632-0.56456
   1  -6   3  290.42  101.78   1 0.09490 0.04968-0.61445 0.23150-0.78322 0.97156
  -1   6  -4   89.74   52.59   1-0.87763 0.71722 0.21648 0.15845 0.42765-0.67858
   1  -6   4   75.97   41.16   1-0.83356 0.99416-0.43475 0.05963 0.34082-0.08983
  -1   6  -4  279.29  118.68   1-0.93260 0.77195 0.13143 0.24373 0.33610-0.58709
   1  -6   4  100.68   66.37   1 0.18202-0.02134-0.69423 0.31914-0.69635 0.94746
  -1   6  -5  623.09   74.17   1-0.84903 0.67256 0.31453 0.05257 0.42450-0.73817
   1  -6   5  560.04   69.22   1-0.81767 0.99437-0.47193 0.10466 0.32967-0.01594
  -1   6  -5  665.91  138.51   1-0.94184 0.76511 0.15960 0.20770 0.29572-0.60946
   1  -6   5  732.66  112.22   1 0.25745-0.08055-0.75325 0.38593-0.60525 0.91900
  -1   6  -6 1383.29   98.06   1-0.80045 0.60756 0.43273-0.07350 0.41475-0.79086
   1  -6   6 1240.07   88.68   1-0.79103 0.98384-0.52634 0.16692 0.31180 0.06467
  -1   6  -6 1864.26  203.43   1-0.94866 0.75591 0.18695 0.17257 0.25511-0.63150
   1  -6   6 1643.10  180.62   1 0.32109-0.12815-0.79514 0.43567-0.51443 0.89093
  -1   6  -7  397.90   65.14   1-0.71976 0.51105 0.57324-0.22191 0.39156-0.83040
   1  -6   7  167.09   50.53   1-0.74675 0.95565-0.60158 0.25002 0.28364 0.15558
  -1   6  -7  838.31  185.07   1-0.95311 0.74429 0.21366 0.13802 0.21429-0.65342
   1  -6   7  163.40  151.15   1 0.37388-0.16507-0.82322 0.47153-0.42721 0.86625
  -1   6  -8  279.98   59.60   1-0.58546 0.36064 0.73321-0.38969 0.34585-0.84739
   1  -6   8  186.15   44.27   1-0.66936 0.89455-0.70397 0.36026 0.23740 0.26454
  -1   6  -8  168.60  139.15   1-0.95526 0.73038 0.23973 0.10412 0.17318-0.67505
   1  -6   8  386.80  110.74   1 0.41815-0.19328-0.84058 0.49676-0.34432 0.84609
  -1   6  -9 1087.30  125.17   1-0.34424 0.10338 0.90448-0.56880 0.25178-0.81594
  -1   6  -9 1679.36  231.31   1-0.95515 0.71420 0.26517 0.07084 0.13174-0.69634
   1  -6   9 1492.94  249.22   1 0.45504-0.21410-0.84971 0.51375-0.26630 0.83078
  -1   6 -10  220.07  121.21   1-0.95278 0.69576 0.29002 0.03815 0.08992-0.71725
   1  -6  10  140.13   95.54   1 0.48611-0.22890-0.85242 0.52445-0.19251 0.82009
  -1   6 -11  550.51  168.62   1-0.94812 0.67503 0.31430 0.00603 0.04769-0.73776
   1  -6  11   71.66   39.22   1 0.51194-0.23864-0.85011 0.52998-0.12340 0.81373
  -1   6 -12  727.66  215.82   1-0.94132 0.65212 0.33746-0.02540 0.00497-0.75768
   1  -6  12  750.35  196.02   1 0.53360-0.24422-0.84373 0.53146-0.05802 0.81110
  -1   6 -13 2655.91  261.64   1-0.93193 0.62668 0.36060-0.05641-0.03820-0.77723
   1  -6  13 3075.57  283.77   1 0.55175-0.24629-0.83399 0.52956 0.00411 0.81172
   1  -5 -12 4081.92  293.28   1-0.56595 0.47488 0.44526-0.87801-0.69385-0.05977
  -1   5  11   73.99   50.25   1-0.87195 0.94683 0.23891 0.18567 0.42733 0.26272
   1  -5 -11  752.09  214.86   1-0.56620 0.49125 0.44607-0.87101-0.69312 0.00230
  -1   5  10  781.10   79.76   1-0.88852 0.94734 0.16649 0.25027 0.42755 0.19977
   1  -5 -10  936.35  194.28   1-0.56511 0.50627 0.44254-0.85966-0.69627 0.06825
  -1   5   9  222.16   42.02   1-0.89897 0.94173 0.10253 0.30640 0.42582 0.13877
   1  -5  -9  209.16   35.38   1-0.13262 0.09014 0.55210-0.96152-0.82315 0.25951
   1  -5  -9  391.58  181.44   1-0.56234 0.51962 0.43374-0.84304-0.70401 0.13879
  -1   5   8 2740.24  147.09   1-0.90457 0.93148 0.04626 0.35531 0.42380 0.07798
   1  -5  -8 2465.95  159.82   1-0.06748 0.04100 0.53825-0.93986-0.84007 0.33907
  -1   5   8 2233.58   82.16   1-0.91860 0.94515 0.09754 0.30417 0.38295 0.11902
   1  -5  -8 2515.56  192.37   1-0.55780 0.53110 0.41828-0.81972-0.71686 0.21443
  -1   5   7 8066.38  233.34   1-0.90743 0.91819-0.00193 0.39567 0.42019 0.01887
   1  -5  -7 8338.80  183.77   1 0.03219-0.04262 0.51312-0.90682-0.85770 0.41933
  -1   5   7 8031.11  181.04   1-0.94990 0.96040 0.19325 0.20043 0.24561 0.19351
   1  -5  -7 7768.41  315.92   1-0.54978 0.53920 0.39459-0.78821-0.73623 0.29661
  -1   5   6 4625.69  207.02   1-0.90818 0.90280-0.04228 0.42817 0.41641-0.04007
   1  -5  -6 4794.43  188.55   1 0.16433-0.15870 0.47089-0.85677-0.86674 0.49066
  -1   5   6 4873.97  175.52   1-0.94878 0.94320 0.31152 0.07432 0.05261 0.32378
   1  -5  -6 4633.19  270.15   1-0.53739 0.54294 0.36012-0.74592-0.76257 0.38575
  -1   5   5  826.26   93.47   1-0.90772 0.88619-0.07451 0.45255 0.41290-0.09928
   1  -5  -5 1150.54  120.87   1 0.31986-0.29814 0.40791-0.78588-0.85515 0.54175
  -1   5   5 1231.68   87.96   1-0.87108 0.84926 0.44384-0.06573-0.21026 0.52386
   1  -5  -5 1327.10  139.54   1-0.51862 0.54029 0.31164-0.68962-0.79618 0.48217
  -1   5   427360.54  716.65   1-0.90676 0.86909-0.09815 0.46834 0.41004-0.15915
   1  -5  -427768.56  674.48   1 0.47462-0.43688 0.32949-0.69951-0.81618 0.56551
  -1   5   425286.82  617.65   1-0.65675 0.61915 0.55290-0.18293-0.51280 0.76365
   1  -5  -427764.56  733.60   1-0.49050 0.52831 0.24515-0.61532-0.83624 0.58502
  -1   5   335038.36  683.02   1-0.90593 0.85211-0.11252 0.47486 0.40819-0.22002
  -1   5   333121.67  591.63   1-0.32084 0.26705 0.57618-0.21411-0.75171 0.93959
  -1   5   334170.35  613.87   1-0.59883 0.54496-0.25004 0.61253 0.76083-0.57255
   1  -5  -333207.48  660.89   1-0.44948 0.50359 0.15617-0.51814-0.87952 0.69131
  -1   5   2 1029.53  100.74   1-0.90565 0.83569-0.11666 0.47115 0.40764-0.28219
  -1   5   2  768.42  104.28   1 0.02713-0.09694 0.51454-0.16036-0.85703 0.98228
  -1   5   2 1317.86   76.13   1-0.69307 0.62309-0.17762 0.53224 0.69863-0.57311
   1  -5  -2  842.87   90.35   1-0.39004 0.46023 0.04224-0.39647-0.91982 0.79434
  -1   5   1 1575.07  101.21   1-0.90613 0.82002-0.10935 0.45599 0.40860-0.34588
  -1   5   1 1487.52  188.62   1 0.29621-0.38224 0.41849-0.07220-0.85855 0.92123
  -1   5   1 1617.50   84.76   1-0.76270 0.67667-0.11467 0.46145 0.63649-0.57373
   1  -5  -1 1830.77  115.35   1-0.30987 0.39600-0.09533-0.25104-0.94598 0.88326
  -1   5   010650.19  235.86   1-0.90719 0.80493-0.08900 0.42779 0.41118-0.41118
   1  -5   0 9959.20  208.14   1-0.83331 0.93521-0.43536 0.09657 0.34064-0.34064
  -1   5   010279.36  185.74   1 0.47658-0.57866 0.32836 0.01013-0.81550 0.81550
  -1   5   010692.66  217.97   1-0.81369 0.71157-0.06030 0.39923 0.57815-0.57815
   1  -5   010335.80  223.46   1-0.20966 0.31193-0.24807-0.09051-0.94578 0.94578
  -1   5  -111602.97  237.06   1-0.90813 0.78972-0.05362 0.38456 0.41523-0.47795
   1  -5   110964.85  218.50   1-0.83716 0.95512-0.42578 0.09487 0.34332-0.28058
  -1   5  -111603.74  233.80   1-0.85218 0.73398-0.01248 0.34356 0.52309-0.58585
   1  -5   111576.04  226.58   1-0.58824 0.70653-0.25743-0.07356 0.76660-0.70384
   1  -5   111905.75  249.89   1-0.09589 0.21420-0.39965 0.06884-0.91163 0.97435
  -1   5  -2 6715.10  166.71   1-0.90738 0.77283-0.00078 0.32387 0.42029-0.54574
   1  -5   2 5958.33  152.13   1-0.83636 0.97046-0.42772 0.10464 0.34284-0.21734
  -1   5  -2 6270.81  182.67   1-0.88186 0.74770 0.03037 0.29274 0.47052-0.59602
   1  -5   2 6654.80  175.08   1-0.65793 0.79231-0.20615-0.11697 0.72430-0.59878
   1  -5   2 5564.12  172.62   1 0.01867 0.11568-0.53440 0.21150-0.84502 0.97050
  -1   5  -3268075.414479.11   1-0.90212 0.75142 0.07243 0.24280 0.42534-0.61351
   1  -5   3260187.714052.03   1-0.83016 0.98035-0.44307 0.12785 0.33840-0.15016
  -1   5  -3278417.815043.77   1-0.90469 0.75446 0.06950 0.24575 0.42035-0.60859
  -1   5  -434996.39  868.45   1-0.88778 0.72169 0.17028 0.13695 0.42760-0.67853
   1  -5   435344.72  877.15   1-0.81657 0.98287-0.47435 0.16698 0.32892-0.07793
   1  -5   436265.83  918.88   1 0.21561-0.04927-0.72186 0.41451-0.65759 0.90870
  -1   5  -5  532.81   62.90   1-0.85564 0.67349 0.29462 0.00478 0.42551-0.73918
   1  -5   5  590.06   68.50   1-0.79192 0.97432-0.52465 0.22514 0.31238 0.00134
  -1   5  -5  290.97  127.44   1-0.93555 0.75318 0.13972 0.15981 0.32435-0.63810
   1  -5   5  718.19  141.63   1 0.29158-0.10906-0.77673 0.47718-0.55826 0.87201
  -1   5  -613227.90  385.16   1-0.79267 0.59411 0.44863-0.15707 0.41278-0.78889
   1  -5   611694.23  343.19   1-0.74896 0.94745-0.59818 0.30652 0.28501 0.09146
  -1   5  -612620.50  441.82   1-0.94515 0.74670 0.17183 0.11984 0.27777-0.65426
   1  -5   612289.66  407.54   1 0.35340-0.15483-0.81302 0.52131-0.46270 0.83920
  -1   5  -7 6910.54  198.12   1-0.67369 0.45927 0.63581-0.35214 0.37666-0.81551
   1  -5   7 6814.61  197.99   1-0.67123 0.88598-0.70183 0.41802 0.23848 0.20072
  -1   5  -7 8087.78  357.42   1-0.95149 0.73702 0.20232 0.08161 0.23179-0.67092
   1  -5   7 7398.93  461.34   1 0.40321-0.18873-0.83542 0.55152-0.37347 0.81252
  -1   5  -8   44.07   24.08   1-0.43865 0.20819 0.85060-0.57477 0.28990-0.79138
   1  -5   8  107.75   35.16   1-0.51140 0.74215-0.84625 0.56979 0.14938 0.35290
  -1   5  -8   70.24  121.93   1-0.95483 0.72429 0.23157 0.04451 0.18618-0.68805
   1  -5   8  207.07  148.67   1 0.44405-0.21351-0.84758 0.57155-0.29052 0.79229
  -1   5  -9  251.73  173.94   1-0.95537 0.70876 0.25969 0.00856 0.14079-0.70539
   1  -5   9  110.21  104.59   1 0.47753-0.23092-0.85223 0.58407-0.21367 0.77815
  -1   5 -10  155.11  108.01   1-0.95322 0.69055 0.28678-0.02636 0.09547-0.72280
   1  -5  10  115.44   73.95   1 0.50535-0.24247-0.85117 0.59094-0.14183 0.76940
  -1   5 -11 1029.58  196.72   1-0.94844 0.66970 0.31294-0.06036 0.05010-0.74017
   1  -5  11 1358.70  230.68   1 0.52823-0.24927-0.84577 0.59339-0.07500 0.76533
  -1   5 -12  868.08  221.78   1-0.94124 0.64641 0.33769-0.09338 0.00454-0.75725
   1  -5  12 1397.04  166.91   1 0.54724-0.25220-0.83688 0.59234-0.01210 0.76519
  -1   5 -13 7874.63  519.95   1-0.93119 0.62030 0.36218-0.12574-0.04122-0.77421
   1  -4 -1311164.18  620.47   1-0.57898 0.47742 0.49026-0.86304-0.65146-0.16496
   1  -4 -12  442.99  193.63   1-0.58076 0.49531 0.49690-0.86187-0.64482-0.10880
  -1   4  11  250.77   74.07   1-0.88232 0.95152 0.19628 0.16060 0.42774 0.26231
   1  -4 -11  147.33   45.92   1-0.41731 0.34851 0.57969-0.93724-0.69985 0.01011
   1  -4 -11  219.92  131.32   1-0.58163 0.51230 0.50023-0.85738-0.64145-0.04936
  -1   4  10 1442.00   90.90   1-0.89754 0.95067 0.11290 0.23615 0.42622 0.20110
   1  -4 -10 1608.07   86.85   1-0.41425 0.36150 0.57970-0.92937-0.70166 0.07462
   1  -4 -10 1355.52  164.72   1-0.58147 0.52826 0.49963-0.84896-0.64207 0.01404
  -1   4   9  131.69   59.35   1-0.90514 0.94257 0.03898 0.30268 0.42332 0.14119
   1  -4  -9  130.64   46.48   1-0.39615 0.35944 0.57959-0.92138-0.71213 0.14780
  -1   4   9  130.53   40.55   1-0.91548 0.95246 0.09089 0.25092 0.39194 0.17279
   1  -4  -9  116.88  136.29   1-0.58004 0.54295 0.49420-0.83571-0.64754 0.08232
  -1   4   8  691.60   91.55   1-0.90805 0.92934-0.02576 0.35959 0.41804 0.08374
   1  -4  -8  573.97   59.44   1-0.35909 0.33831 0.57824-0.91209-0.73258 0.23156
  -1   4   8  660.23   68.72   1-0.94190 0.96281 0.15983 0.17412 0.29540 0.20658
   1  -4  -8 1249.94  187.92   1-0.57690 0.55593 0.48265-0.81635-0.65895 0.15653
  -1   4   7 5240.97  224.19   1-0.90747 0.91261-0.08194 0.40792 0.41203 0.02703
   1  -4  -7 5219.22  195.16   1-0.29409 0.28936 0.57414-0.90009-0.76411 0.32572
  -1   4   7 4967.55  188.24   1-0.95526 0.96010 0.23978 0.08613 0.17310 0.26602
   1  -4  -7 5800.88  288.42   1-0.57132 0.56647 0.46309-0.78896-0.67759 0.23797
  -1   4   6 1805.81  143.98   1-0.90469 0.89368-0.12959 0.44771 0.40587-0.02952
   1  -4  -6 1639.74  106.12   1-0.19255 0.20386 0.56215-0.88022-0.80430 0.42853
  -1   4   6 1514.57  107.97   1-0.94264 0.93116 0.33357-0.01540 0.01207 0.36428
   1  -4  -6 1833.55  198.10   1-0.56202 0.57329 0.43273-0.75080-0.70488 0.32807
  -1   4   5 2722.70  185.52   1-0.90085 0.87369-0.16844 0.47872 0.40011-0.08650
   1  -4  -5 2832.16  167.69   1-0.04761 0.07494 0.53370-0.84392-0.84433 0.53120
  -1   4   5 2756.62  166.49   1-0.87593 0.84846 0.43913-0.12877-0.19974 0.51334
   1  -4  -5 2792.51  230.80   1-0.54730 0.57461 0.38749-0.69770-0.74182 0.42781
  -1   4   455440.44 1012.35   1-0.89745 0.85432-0.19715 0.49948 0.39459-0.14364
   1  -4  -458537.03 1021.83   1 0.13836-0.09494 0.47995-0.78232-0.86631 0.61559
  -1   4   454501.64  953.23   1-0.70703 0.66377 0.53803-0.23577-0.45894 0.70979
   1  -4  -458750.09 1083.34   1-0.52275 0.56619 0.32198-0.62437-0.78933 0.53812
   1  -4  -3153383.0 1944.97   1 0.33863-0.27912 0.39925-0.69370-0.85201 0.66397
  -1   4   3152220.1 1931.67   1-0.41079 0.35122 0.57970-0.28516-0.70369 0.89180
   1  -4  -3152984.1 1996.89   1-0.48333 0.54290 0.22911-0.52368-0.84492 0.65651
  -1   4   2 1524.68  102.90   1-0.89309 0.81775-0.22463 0.51129 0.38976-0.26429
   1  -4  -2 1406.28   74.68   1-0.79150 0.86690-0.52544 0.23871 0.31211-0.43760
   1  -4  -2 1457.53   57.17   1 0.51523-0.43967 0.30543-0.59200-0.80077 0.67544
  -1   4   2 1473.67   68.31   1-0.05346-0.02200 0.53506-0.24856-0.84311 0.96836
   1  -4  -2 1552.67   92.21   1-0.42210 0.49790 0.10210-0.38858-0.90077 0.77529
  -1   4   136847.40  523.75   1-0.89394 0.80249-0.21962 0.49845 0.39067-0.32793
   1  -4  -138169.75  533.23   1-0.80541 0.89690-0.49803 0.21915 0.32134-0.38409
  -1   4   136425.17  476.72   1 0.25023-0.34189 0.43800-0.15939-0.86344 0.92612
  -1   4   138427.00  506.91   1-0.64589 0.55418-0.21548 0.49445 0.73238-0.66962
   1  -4  -138191.20  534.75   1-0.33211 0.42387-0.05896-0.21969-0.94139 0.87867
  -1   4   0 2936.10  114.87   1-0.89715 0.78959-0.19923 0.47022 0.39424-0.39424
   1  -4   0 3068.06  100.63   1-0.81398 0.92157-0.47999 0.20896 0.32715-0.32715
  -1   4   0 2998.39   83.91   1 0.45789-0.56561 0.33897-0.06817-0.82184 0.82184
  -1   4   0 3258.21  122.26   1-0.73906 0.63125-0.13693 0.40803 0.65956-0.65956
   1  -4   0 3240.67  137.42   1-0.21385 0.32174-0.24210-0.02877-0.94638 0.94638
  -1   4  -162218.38  812.06   1-0.90169 0.77765-0.16103 0.42421 0.40126-0.46399
   1  -4   161900.99  804.60   1-0.81692 0.94060-0.47359 0.21042 0.32916-0.26641
  -1   4  -164121.32  835.66   1-0.80513 0.68130-0.07003 0.33332 0.58893-0.65169
   1  -4   162413.47  806.70   1-0.58439 0.70830-0.26009-0.00312 0.76865-0.70589
   1  -4   163880.08  834.93   1-0.07942 0.20333-0.42114 0.15815-0.90351 0.96625
  -1   4  -219471.04  316.01   1-0.90670 0.76651-0.09944 0.35478 0.40988-0.53533
   1  -4   218829.83  301.31   1-0.81329 0.95308-0.48148 0.22616 0.32667-0.20118
   1  -4   219335.14  331.63   1-0.66063 0.80065-0.20402-0.05132 0.72244-0.59692
   1  -4   219435.09  327.96   1 0.05286 0.08711-0.57075 0.31555-0.81941 0.94490
  -1   4  -3135400.9 1749.48   1-0.90769 0.75136-0.00973 0.25722 0.41951-0.60769
   1  -4   3138391.1 1785.19   1-0.80107 0.95696-0.50682 0.25935 0.31843-0.13019
   1  -4   3126280.1 1658.32   1-0.70615 0.86226-0.16647-0.08100 0.68821-0.49993
   1  -4   3137122.8 1794.80   1 0.16719-0.01125-0.68146 0.43402-0.71249 0.90083
  -1   4  -417102.43  334.21   1-0.89708 0.72530 0.11608 0.12344 0.42633-0.67726
   1  -4   417560.59  344.45   1-0.77607 0.94805-0.55357 0.31396 0.30210-0.05111
  -1   4  -417313.45  390.86   1-0.91117 0.73922 0.08205 0.15758 0.40377-0.65476
   1  -4   416929.67  492.51   1 0.26058-0.08849-0.75550 0.51585-0.60109 0.85209
  -1   4  -5   81.34   35.33   1-0.85878 0.67094 0.28469-0.05299 0.42594-0.73961
   1  -4   5  189.56   56.35   1-0.72962 0.91770-0.62693 0.39517 0.27313 0.04059
  -1   4  -5  134.10  106.93   1-0.92923 0.74121 0.12253 0.10923 0.34858-0.66232
   1  -4   5  122.93   69.86   1 0.33397-0.14583-0.80257 0.57076-0.49430 0.80805
  -1   4  -6 4744.52  152.09   1-0.76232 0.55808 0.50518-0.28131 0.40453-0.78064
   1  -4   6 4473.08  148.63   1-0.64123 0.84554-0.73475 0.51085 0.22127 0.15519
  -1   4  -6 5004.50  228.40   1-0.94189 0.73780 0.15978 0.06413 0.29547-0.67196
   1  -4   6 4949.29  273.97   1 0.39104-0.18697-0.83068 0.60670-0.39629 0.77262
  -1   4  -7  192.86   31.16   1-0.52412 0.30405 0.78801-0.57202 0.32300-0.76179
   1  -4   7  214.44   31.71   1-0.44710 0.66741-0.88698 0.67051 0.11553 0.32397
  -1   4  -7  174.58  161.04   1-0.95011 0.72998 0.19432 0.02184 0.24398-0.68311
   1  -4   7  370.69   96.52   1 0.43627-0.21614-0.84576 0.62965-0.30715 0.74619
  -1   4  -8  225.42  127.71   1-0.95448 0.71828 0.22687-0.01853 0.19363-0.69549
   1  -4   8  156.52   63.73   1 0.47234-0.23614-0.85189 0.64365-0.22620 0.72797
  -1   4  -9 2052.02  232.79   1-0.95542 0.70316 0.25765-0.05716 0.14412-0.70872
   1  -4   9 1688.57  268.56   1 0.50165-0.24919-0.85162 0.65128-0.15193 0.71674
  -1   4 -10  292.34  155.78   1-0.95320 0.68487 0.28693-0.09428 0.09520-0.72253
   1  -4  10    1.06   76.36   1 0.52539-0.25685-0.84672 0.65423-0.08376 0.71133
  -1   4 -11  602.58  193.39   1-0.94797 0.66357 0.31489-0.13008 0.04664-0.73671
   1  -4  11  191.90   93.16   1 0.54489-0.26027-0.83825 0.65361-0.02033 0.71066
  -1   4 -12  801.15  181.96   1-0.94001 0.63954 0.34113-0.16456-0.00178-0.75093
  -1   4 -13 2421.73  239.68   1-0.92893 0.61241 0.36684-0.19814-0.05013-0.76530
   1  -3 -13 3627.44  266.67   1-0.59060 0.49466 0.53725-0.84224-0.60211-0.21431
   1  -3 -12  182.72   54.84   1-0.55184 0.47265 0.57151-0.86921-0.60731-0.14512
   1  -3 -12  296.93  128.65   1-0.59253 0.51271 0.54607-0.84324-0.59220-0.16142
  -1   3  11 2697.74  177.44   1-0.89140 0.95491 0.15102 0.13815 0.42729 0.26276
   1  -3 -11 2626.89  184.67   1-0.56561 0.50246 0.56970-0.85952-0.59625-0.09348
   1  -3 -11 2867.17  252.48   1-0.59377 0.53008 0.55201-0.84136-0.58541-0.10541
  -1   3  10 2714.54  127.32   1-0.90403 0.95198 0.05263 0.22912 0.42420 0.20303
   1  -3 -10 2040.90  114.43   1-0.57133 0.52423 0.56888-0.85083-0.59156-0.03547
   1  -3 -10 2872.87  246.81   1-0.59429 0.54671 0.55453-0.83607-0.58249-0.04553
  -1   3   9 6861.29  209.08   1-0.90815 0.93995-0.03396 0.30788 0.41725 0.14726
   1  -3  -9 6416.24  196.33   1-0.56723 0.53618 0.56947-0.84354-0.59492 0.03059
   1  -3  -9 7281.08  294.12   1-0.59395 0.56249 0.55285-0.82657-0.58444 0.01921
  -1   3   817581.77  481.66   1-0.90607 0.92172-0.11037 0.37644 0.40847 0.09331
   1  -3  -817353.07  466.58   1-0.55022 0.53522 0.57171-0.83791-0.60859 0.10696
  -1   3   817128.62  463.17   1-0.94942 0.96468 0.19073 0.07526 0.24942 0.25244
   1  -3  -818143.53  564.96   1-0.59246 0.57712 0.54576-0.81166-0.59256 0.09014
  -1   3   7 1389.60  120.65   1-0.90026 0.89976-0.17633 0.43443 0.39802 0.04112
   1  -3  -7  945.96   91.93   1-0.56352 0.56416-0.80668 0.54837 0.17804-0.61725
   1  -3  -7 1327.35  106.34   1-0.51502 0.51606 0.57541-0.83372-0.63533 0.19641
  -1   3   7 1153.92   95.88   1-0.95537 0.95456 0.25948-0.00132 0.14112 0.29800
   1  -3  -7 1197.14  123.00   1-0.58927 0.59005 0.53139-0.78948-0.60858 0.16896
  -1   3   6 1693.69  124.65   1-0.89143 0.87482-0.23403 0.48429 0.38803-0.01161
   1  -3  -6 1868.77  135.36   1-0.61543 0.63217-0.76059 0.51014 0.20671-0.58318
   1  -3  -6 1872.18  128.13   1-0.45289 0.46997 0.57908-0.82952-0.67790 0.30168
  -1   3   6 1955.62  133.46   1-0.94119 0.92407 0.33783-0.08740 0.00428 0.37207
   1  -3  -6 1580.20  158.32   1-0.58333 0.60023 0.50684-0.75711-0.63469 0.25787
  -1   3   511130.79  256.03   1-0.88149 0.84877-0.28234 0.52476 0.37849-0.06480
   1  -3  -510455.79  237.15   1-0.65938 0.69223-0.71522 0.47263 0.23165-0.54537
   1  -3  -511578.54  239.83   1-0.35103 0.38406 0.57789-0.82039-0.73675 0.42361
  -1   3   511211.78  232.82   1-0.88801 0.85484 0.42663-0.18406-0.17150 0.48513
  -1   3   4 1809.48   94.27   1-0.87185 0.82303-0.32076 0.55535 0.37010-0.11915
   1  -3  -4 1785.13   93.68   1-0.69587 0.74482-0.67215 0.43742 0.25290-0.50387
   1  -3  -4 1966.52   72.19   1-0.19285 0.24192 0.56220-0.79680-0.80419 0.55368
  -1   3   4 2111.76   70.80   1-0.76174 0.71257 0.51590-0.28116-0.39191 0.64278
   1  -3  -4 1715.04  111.48   1-0.55364 0.60272 0.40585-0.64046-0.72715 0.47594
  -1   3   4 1656.50   90.21   1-0.60604 0.55699 0.63793-0.40373-0.47512 0.72577
   1  -3  -3  397.47   44.57   1 0.02293 0.04215 0.51570-0.74243-0.85645 0.66858
  -1   3   3  359.04   39.08   1-0.52022 0.45499 0.57494-0.34813-0.63151 0.81962
   1  -3  -3  254.16   92.60   1-0.51853 0.58374 0.31143-0.53822-0.79632 0.60791
  -1   3   3  353.53   58.18   1-0.58992 0.52467 0.53424-0.30742-0.60545 0.79385
   1  -3  -220790.99  324.84   1-0.74767 0.82875-0.60017 0.38119 0.28421-0.40970
   1  -3  -220461.18  279.69   1 0.26520-0.18399 0.43180-0.65066-0.86209 0.73673
  -1   3   220925.97  285.69   1-0.17461 0.09345 0.55937-0.34055-0.81031 0.93556
   1  -3  -220232.59  328.40   1-0.45650 0.53790 0.17054-0.38927-0.87322 0.74774
  -1   3   221090.12  322.61   1-0.54626 0.46492 0.38455-0.16558-0.74412 0.86972
   1  -3  -1 7000.25  151.02   1-0.76300 0.86018-0.57576 0.36464 0.29379-0.35654
   1  -3  -1 7386.20  131.27   1 0.48045-0.38316 0.32613-0.53711-0.81412 0.75145
  -1   3   1 7710.16  141.57   1 0.16473-0.26202 0.47074-0.25980-0.86675 0.92943
   1  -3  -1 7976.04  185.44   1-0.35371 0.45110-0.02254-0.18839-0.93507 0.87235
  -1   3   025944.88  379.40   1-0.86398 0.75073-0.34825 0.55149 0.36365-0.36365
  -1   3   024733.28  338.89   1 0.41258-0.52595 0.36349-0.16039-0.83525 0.83525
  -1   3   024921.13  361.56   1-0.63710 0.52365-0.22216 0.42548 0.73806-0.73806
   1  -3   026093.51  385.34   1-0.20847 0.32197-0.24976 0.04660-0.94559 0.94559
  -1   3  -1235293.8 2831.46   1-0.87498 0.74562-0.30896 0.50436 0.37275-0.43549
   1  -3   1228267.2 2743.24   1-0.76973 0.89910-0.56451 0.36909 0.29805-0.23530
  -1   3  -1228335.3 2751.38   1-0.74411 0.61456-0.13220 0.32765 0.65484-0.71760
   1  -3   1235658.8 2839.61   1-0.04370 0.17323-0.46392 0.26862-0.88479 0.94753
  -1   3  -2218097.8 2621.14   1-0.89042 0.74496-0.23949 0.42707 0.38701-0.51248
   1  -3   2218581.8 2625.24   1-0.75712 0.90260-0.58531 0.39775 0.29010-0.16460
  -1   3  -2224056.5 2714.95   1-0.81661 0.67106-0.05691 0.24456 0.57437-0.69989
   1  -3   2220923.1 2671.47   1-0.65178 0.79742-0.21094 0.02336 0.72847-0.60295
   1  -3   2226832.0 2744.14   1 0.10702 0.03849-0.62622 0.43867-0.77226 0.89781
  -1   3  -310746.54  177.98   1-0.90474 0.74279-0.12891 0.30864 0.40596-0.59413
   1  -3   310664.08  180.71   1-0.72722 0.88879-0.63034 0.45063 0.27168-0.08344
  -1   3  -310660.23  247.81   1-0.86588 0.70426 0.00656 0.17323 0.50019-0.68847
   1  -3   310934.75  213.13   1-0.70257 0.86432-0.16955-0.01014 0.69111-0.50283
   1  -3   310347.40  208.80   1 0.22732-0.06572-0.73104 0.55135-0.64334 0.83167
  -1   3  -4 8652.07  149.49   1-0.90492 0.72681 0.04184 0.13003 0.42351-0.67440
   1  -3   4 8603.62  151.14   1-0.66720 0.84498-0.70644 0.53458 0.23615 0.01481
  -1   3  -4 9372.00  224.63   1-0.90006 0.72246 0.06099 0.11086 0.43146-0.68246
   1  -3   4 8438.08  190.33   1-0.73124 0.90909-0.14415-0.02767 0.66670-0.41566
   1  -3   4 8445.98  237.94   1 0.31725-0.13954-0.79285 0.62096-0.52031 0.77131
  -1   3  -5  114.40   23.77   1-0.85304 0.65951 0.30261-0.13861 0.42513-0.73879
   1  -3   5  128.63   39.55   1-0.54751 0.74130-0.81959 0.65528 0.16878 0.14514
  -1   3  -5   18.36  101.28   1-0.92361 0.72994 0.10885 0.05515 0.36753-0.68127
   1  -3   5  189.89   75.89   1 0.38345-0.18978-0.82748 0.66344-0.41015 0.72375
  -1   3  -6 5791.32  150.42   1-0.61274 0.40303 0.70572-0.54957 0.35565-0.73180
   1  -3   6 6165.34  157.84   1-0.24903 0.45894-0.96835 0.81223 0.01649 0.36006
  -1   3  -6 7090.52  287.23   1-0.93946 0.72972 0.15167 0.00447 0.30723-0.68372
   1  -3   6 5855.74  247.86   1 0.43339-0.22365-0.84502 0.68884-0.31321 0.68954
  -1   3  -7 8105.64  323.93   1-0.94937 0.72359 0.19047-0.04206 0.24980-0.68894
   1  -3   7 8825.19  304.41   1 0.47171-0.24590-0.85183 0.70352-0.22772 0.66676
  -1   3  -8  261.75  110.44   1-0.95443 0.71258 0.22635-0.08578 0.19445-0.69631
   1  -3   8  438.11   82.64   1 0.50192-0.25989-0.85159 0.71115-0.15117 0.65323
  -1   3  -9   86.04  122.17   1-0.95537 0.69745 0.25975-0.12702 0.14068-0.70528
   1  -3   9  147.51  103.55   1 0.52592-0.26780-0.84655 0.71395-0.08213 0.64694
  -1   3 -10 1906.48  174.86   1-0.95262 0.67864 0.29110-0.16620 0.08808-0.71541
   1  -3  10 1872.33  235.15   1 0.54534-0.27114-0.83799 0.71325-0.01876 0.64633
  -1   3 -11 7979.18  465.43   1-0.94666 0.65662 0.32016-0.20346 0.03626-0.72625
  -1   3 -12 8609.09  423.04   1-0.93728 0.63118 0.34824-0.23942-0.01495-0.73775
  -1   3 -13  999.22  204.47   1-0.92469 0.60253 0.37497-0.27401-0.06586-0.74957
   1  -2 -13  199.83   79.66   1-0.62814 0.53785 0.55962-0.79704-0.54060-0.27466
   1  -2 -13  232.87  130.39   1-0.59934 0.50903 0.58136-0.81856-0.55027-0.26615
   1  -2 -12  374.76  110.81   1-0.64937 0.57517 0.55475-0.78432-0.52015-0.23240
   1  -2 -12  444.98  177.34   1-0.60114 0.52695 0.59229-0.82168-0.53647-0.21715
  -1   2  11 9741.52  310.90   1-0.89912 0.95694 0.10145 0.12001 0.42577 0.26428
   1  -2 -1110563.88  364.10   1-0.66548 0.60738 0.55062-0.77234-0.50393-0.18591
   1  -2 -1111636.73  452.41   1-0.60243 0.54436 0.60081-0.82238-0.52544-0.16538
  -1   2  10 4772.01  173.37   1-0.90790 0.95022-0.01757 0.23158 0.41881 0.20842
   1  -2 -10 5359.95  216.51   1-0.67602 0.63402 0.54770-0.76158-0.49295-0.13417
   1  -2 -10 5292.67  267.55   1-0.60323 0.56128 0.60651-0.82026-0.51792-0.11010
  -1   2   972576.57 1369.19   1-0.90529 0.93147-0.12176 0.32791 0.40695 0.15756
   1  -2  -963573.44 1199.32   1-0.29944 0.27369-0.95321 0.74678 0.04129-0.60613
   1  -2  -973162.81 1396.56   1-0.68003 0.65413 0.54654-0.75258-0.48871-0.07570
   1  -2  -971147.32 1412.00   1-0.60281 0.57751 0.60913-0.81492-0.51533-0.04862
  -1   2   818344.04  606.50   1-0.89506 0.90497-0.21282 0.41100 0.39188 0.11000
   1  -2  -818272.92  606.52   1-0.37952 0.36986-0.92164 0.72333 0.08079-0.58308
   1  -2  -819011.81  636.86   1-0.67571 0.66591 0.54778-0.74598-0.49328-0.00842
  -1   2   818019.75  603.15   1-0.95194 0.96154 0.20524-0.00700 0.22731 0.27455
   1  -2  -818725.80  667.81   1-0.60324 0.59353 0.60654-0.80466-0.51787 0.01545
  -1   2   7 8856.15  286.40   1-0.87868 0.87249-0.29417 0.48452 0.37598 0.06317
   1  -2  -7 8108.56  259.13   1-0.44873 0.45515-0.88605 0.69557 0.11638-0.55588
   1  -2  -7 8523.17  278.19   1-0.65986 0.66615 0.55210-0.74245-0.50966 0.07066
  -1   2   7 8437.51  273.84   1-0.95516 0.94869 0.26509-0.07469 0.13187 0.30725
   1  -2  -7 9261.93  363.07   1-0.60205 0.60846 0.59825-0.78855-0.52878 0.08916
  -1   2   6  224.69   81.11   1-0.85864 0.83634-0.36543 0.54794 0.35942 0.01699
   1  -2  -6  122.27   75.66   1-0.50822 0.53073-0.84846 0.66581 0.14769-0.52441
   1  -2  -6  108.99   68.51   1-0.62672 0.64911 0.55992-0.74243-0.54193 0.16565
  -1   2   6  177.65   39.04   1-0.94318 0.92043 0.33192-0.14923 0.01507 0.36127
   1  -2  -6   96.84  120.30   1-0.59931 0.62183 0.58115-0.76363-0.55053 0.17371
  -1   2   540855.21  584.62   1-0.83672 0.79825-0.42681 0.60160 0.34309-0.02936
   1  -2  -538212.05  544.49   1-0.55850 0.59702-0.81076 0.63593 0.17530-0.48903
   1  -2  -539128.38  544.73   1-0.56638 0.60517 0.56959-0.74443-0.59562 0.28210
  -1   2   540629.27  563.48   1-0.90379 0.86498 0.40743-0.23261-0.13098 0.44461
   1  -2  -537246.24  578.79   1-0.59345 0.63210 0.55046-0.72513-0.58718 0.27317
  -1   2   4127740.3 1573.75   1-0.81486 0.76029-0.47809 0.64502 0.32775-0.07676
   1  -2  -4123293.4 1515.54   1-0.59998 0.65460-0.77509 0.60812 0.19810-0.44908
   1  -2  -4129500.2 1574.39   1-0.46053 0.51537 0.57881-0.74577-0.67296 0.42214
  -1   2   4126582.3 1538.45   1-0.81391 0.75910 0.48783-0.32085-0.31552 0.56640
  -1   2   4122852.6 1523.64   1-0.60810 0.55336 0.68492-0.51833-0.40135 0.65200
   1  -2  -3 1932.19   63.22   1-0.28601 0.35679 0.57342-0.73246-0.76770 0.57982
  -1   2   3 1912.74   61.10   1-0.63365 0.56296 0.55842-0.39945-0.53539 0.72353
  -1   2   3 1784.38   88.20   1-0.60002 0.52914 0.58540-0.42637-0.54521 0.73362
   1  -2  -2 1692.76   76.54   1-0.65562 0.74245-0.71936 0.56811 0.22949-0.35497
  -1   2   2 1958.43   66.54   1-0.33514 0.24832 0.57707-0.42593-0.74475 0.87000
  -1   2   2 2112.84  106.51   1-0.55939 0.47242 0.42313-0.27194-0.71276 0.83836
  -1   2   141474.23  550.52   1-0.77124 0.66838-0.56192 0.70529 0.29902-0.23627
   1  -2  -144368.08  559.94   1 0.25279-0.14987 0.43695-0.58022-0.86322 0.80054
  -1   2   074442.52  931.71   1-0.77310 0.65414-0.55872 0.69424 0.30020-0.30020
   1  -2   072334.24  892.44   1 0.49671-0.37769 0.31659-0.45199-0.80811 0.80811
  -1   2   072738.99  904.55   1-0.28675 0.16768-0.13201 0.26746-0.94886 0.94886
  -1   2  -2382179.5 4806.97   1 0.05277-0.20398-0.57065 0.69046-0.81949 0.69401
  -1   2  -320456.64  275.51   1-0.86627 0.69900-0.34055 0.45254 0.36549-0.55370
   1  -2   319468.42  262.89   1-0.50786 0.67513-0.84871 0.73656 0.14749 0.04086
  -1   2  -320801.50  337.93   1-0.84453 0.67727-0.02259 0.13461 0.53503-0.72331
  -1   2  -320093.98  305.33   1 0.14981-0.31708-0.66606 0.77801-0.73069 0.54235
  -1   2  -4 6705.10  110.02   1-0.90693 0.72319-0.09485 0.19897 0.41046-0.66135
   1  -2   4 6327.29  106.99   1-0.30916 0.49256-0.94988 0.84580 0.04612 0.20491
  -1   2  -4 7052.11  194.11   1-0.89000 0.70675 0.04356 0.06052 0.45387-0.70486
   1  -2   4 6648.48  160.86   1 0.38367-0.20040-0.82758 0.72346-0.40974 0.66063
  -1   2  -4 6901.85  153.16   1 0.20977-0.39313-0.71719 0.82129-0.66455 0.41343
  -1   2  -518967.58  327.31   1-0.23195 0.03260 0.95091-0.85460 0.20485-0.51825
  -1   2  -519719.90  340.57   1-0.76721 0.56773 0.49660-0.40028 0.40591-0.71934
  -1   2  -517506.03  392.14   1-0.91962 0.72030 0.09979-0.00355 0.37990-0.69364
   1  -2   521302.61  444.70   1 0.43811-0.23877-0.84621 0.74996-0.30327 0.61688
  -1   2  -6 1145.15  108.22   1-0.93851 0.72312 0.14864-0.06027 0.31158-0.68807
   1  -2   6 1799.31  309.42   1 0.47765-0.26224-0.85224 0.76385-0.21337 0.58970
  -1   2  -7  546.99  105.53   1-0.94963 0.71820 0.19183-0.11118 0.24776-0.68689
   1  -2   7  842.00  112.27   1 0.50762-0.27600-0.85084 0.77029-0.13555 0.57485
  -1   2  -8  331.13  115.92   1-0.95479 0.70728 0.23098-0.15816 0.18713-0.68900
   1  -2   8  165.81   69.91   1 0.53083-0.28313-0.84483 0.77212-0.06684 0.56890
  -1   2  -9  319.08  105.51   1-0.95507 0.69149 0.26683-0.20185 0.12900-0.69360
   1  -2   9  380.50   92.47   1 0.54930-0.28552-0.83560 0.77074-0.00476 0.56957
  -1   2 -10 5607.09  264.50   1-0.95115 0.67151 0.30001-0.24288 0.07272-0.70005
  -1   2 -11 4641.47  309.03   1-0.94365 0.64798 0.33045-0.28150 0.01773-0.70772
  -1   2 -12 4180.06  253.97   1-0.93241 0.62068 0.35957-0.31848-0.03625-0.71645
  -1   2 -13  262.76  101.23   1-0.91769 0.58991 0.38704-0.35383-0.08962-0.72581
  -1   2 -13 1032.26  321.67   1-0.59269 0.26481 0.77918-0.74552-0.20392-0.61161
   1  -1 -14  339.34   83.76   1-0.67266 0.57193 0.54865-0.72619-0.49649-0.38149
   1  -1 -14  347.16  127.76   1-0.60337 0.50257 0.60754-0.78477-0.51654-0.36268
   1  -1 -13  364.41  101.45   1-0.69724 0.61261 0.54126-0.71096-0.46997-0.34529
   1  -1 -13  328.56  139.82   1-0.60450 0.52086 0.62271-0.79226-0.49678-0.31781
   1  -1 -12 1151.60  168.97   1-0.71791 0.64938 0.53421-0.69607-0.44632-0.30623
   1  -1 -12  608.62  154.89   1-0.60582 0.53819 0.63555-0.79725-0.47858-0.27335
  -1   1  11 3151.46   82.84   1-0.90474 0.95759 0.04407 0.11001 0.42366 0.26630
   1  -1 -11 3219.56  148.21   1-0.73469 0.68225 0.52787-0.68188-0.42611-0.26373
   1  -1 -11 3626.89  210.99   1-0.60673 0.55511 0.64642-0.80029-0.46260-0.22667
  -1   1  10 7024.07  192.83   1-0.90640 0.94310-0.10478 0.25103 0.40920 0.21803
   1  -1 -10 6336.19  183.85   1-0.00348-0.03277-0.99491 0.84926-0.10069-0.52695
   1  -1 -10 6784.94  227.67   1-0.74737 0.71104 0.52267-0.66883-0.41016-0.21696
   1  -1 -10 7054.89  302.56   1-0.60730 0.57168 0.65509-0.80112-0.44948-0.17713
  -1   1   972671.77 1800.48   1-0.89184 0.91217-0.23174 0.37001 0.38846 0.17616
   1  -1  -971259.29 1765.93   1-0.10521 0.08504-0.99300 0.85514-0.05352-0.51136
   1  -1  -973232.77 1841.72   1-0.75548 0.73524 0.51915-0.65747-0.39965-0.16476
  -1   1   8 5797.28  218.48   1-0.86520 0.86941-0.34419 0.47462 0.36463 0.13726
   1  -1  -8 5170.16  172.77   1-0.19238 0.18838-0.98125 0.85048-0.01097-0.49110
   1  -1  -8 5644.66  219.30   1-0.75803 0.75389 0.51801-0.64848-0.39629-0.10541
  -1   1   719204.65  493.05   1-0.82996 0.81800-0.44353 0.56627 0.33826 0.10096
   1  -1  -719231.90  490.26   1-0.26674 0.27883-0.96343 0.84053 0.02516-0.46447
   1  -1  -719661.35  520.87   1-0.75322 0.76518 0.52014-0.64277-0.40260-0.03638
  -1   1   718406.58  484.22   1-0.95530 0.94317 0.26176-0.13913 0.13737 0.30175
  -1   1   643685.40  792.09   1-0.78847 0.76041-0.53115 0.64603 0.31012 0.06635
   1  -1  -641762.98  753.50   1-0.32959 0.35778-0.94243 0.82741 0.05631-0.43287
   1  -1  -642935.20  788.61   1-0.73771 0.76577 0.52667-0.64145-0.42235 0.04608
  -1   1   642984.98  785.05   1-0.94691 0.91853 0.31924-0.20430 0.03789 0.33845
  -1   1   4 7566.31  154.23   1-0.69434 0.63405-0.67408 0.77328 0.25199-0.00101
   1  -1  -4 7339.10  150.25   1-0.42133 0.48165-0.90113 0.80197 0.10218-0.35333
   1  -1  -4 7335.96  146.90   1-0.64297 0.70323 0.55628-0.65538-0.52642 0.27557
  -1   1   4 7486.87  149.02   1-0.85933 0.79888 0.45447-0.35524-0.23449 0.48537
  -1   1   4 6790.42  147.82   1-0.60257 0.54206 0.74467-0.64561-0.28697 0.53790
  -1   1   355195.49  694.92   1-0.73719 0.66084 0.52688-0.43563-0.42301 0.61115
  -1   1   355800.96  714.55   1-0.60770 0.53127 0.66314-0.57201-0.43695 0.62494
   1  -1  -214576.56  237.65   1-0.45942 0.55191-0.87980 0.79631 0.12195-0.24753
   1  -1  -214288.18  214.63   1-0.32581 0.41830 0.57650-0.65997-0.74931 0.62406
  -1   1   214640.14  243.35   1-0.58231 0.48968 0.50287-0.41944-0.63877 0.76437
  -1   1   1  192.71   71.28   1-0.56040 0.45181-0.80922 0.88485 0.17634-0.11359
   1  -1  -1  281.13   97.90   1-0.45024 0.55882-0.88518 0.80952 0.11716-0.17995
   1  -1  -1  271.22   52.54   1-0.02363 0.13214 0.52790-0.60348-0.84897 0.78635
  -1   1   1  140.42   49.94   1-0.46573 0.35703 0.18980-0.11431-0.86432 0.92706
  -1   1   0262414.6 3300.41   1-0.53280 0.40813-0.83081 0.89863 0.16084-0.16084
  -1   1   0258416.3 3074.41   1-0.21291 0.08817-0.24344 0.31116-0.94625 0.94625
  -1   1  -1470300.8 5887.88   1 0.03742-0.17819-0.55453 0.61443-0.83131 0.76857
  -1   1  -233504.71  426.84   1-0.54457 0.38774-0.82187 0.87403 0.16719-0.29276
   1  -1   233045.07  419.05   1-0.17319 0.33008-0.98468 0.93264-0.02017 0.14569
  -1   1  -234785.25  475.31   1-0.72486 0.56794-0.14995 0.20198 0.67237-0.79789
  -1   1  -232856.00  435.94   1 0.18556-0.34242-0.69723 0.74928-0.69240 0.56684
  -1   1  -381800.69  985.17   1-0.61273 0.43972-0.76318 0.80737 0.20520-0.39343
   1  -1   380782.37  970.75   1 0.10531 0.06766-0.98310 0.93870-0.14971 0.33800
  -1   1  -381904.60 1034.29   1-0.82318 0.65029-0.04916 0.09338 0.56563-0.75391
  -1   1  -378401.08  987.07   1 0.26287-0.43577-0.75713 0.80135-0.59803 0.40978
  -1   1  -4 6699.31   98.47   1-0.57519 0.38628 0.74304-0.70659 0.34210-0.59287
  -1   1  -4 6937.58  101.49   1-0.76786 0.57881-0.56766 0.60400 0.29687-0.54785
   1  -1   4 6897.03  165.41   1-0.69478 0.88389-0.17619 0.13990 0.69730-0.44626
   1  -1   4 6879.17  209.38   1 0.45497-0.26604-0.84970 0.81337-0.26645 0.51734
  -1   1  -4 6050.63  153.26   1 0.30329-0.49224-0.78426 0.82064-0.54124 0.29024
  -1   1  -5153417.3 2671.83   1-0.91836 0.71339 0.09703-0.06856 0.38365-0.69739
   1  -1   5132303.6 2303.99   1-0.71649 0.92170-0.15743 0.12901 0.67959-0.36580
   1  -1   5150017.5 2638.44   1 0.49312-0.28801-0.85226 0.82376-0.17453 0.48832
  -1   1  -623951.16  640.29   1-0.93966 0.71862 0.15230-0.13169 0.30632-0.68281
   1  -1   623297.01  613.15   1 0.52051-0.29931-0.84815 0.82749-0.09848 0.47503
  -1   1  -713182.72  427.85   1-0.95108 0.71399 0.19983-0.18694 0.23560-0.67473
   1  -1   713278.76  422.87   1 0.54122-0.30394-0.84023 0.82742-0.03291 0.47221
  -1   1  -8  852.51  108.74   1-0.95534 0.70218 0.24200-0.23695 0.16953-0.67140
   1  -1   8  523.44   82.19   1 0.55744-0.30408-0.82982 0.82485 0.02546 0.47659
  -1   1  -9   54.07   95.29   1-0.95402 0.68479 0.27995-0.28274 0.10704-0.67164
  -1   1 -10  381.84  146.94   1-0.94805 0.66275 0.31458-0.32521 0.04719-0.67452
  -1   1 -11  612.45  109.57   1-0.93817 0.63686 0.34600-0.36479-0.01077-0.67920
  -1   1 -11  826.25  151.13   1-0.58822 0.28681 0.78948-0.80789-0.17524-0.51482
  -1   1 -12  247.26   81.70   1-0.92427 0.60691 0.37573-0.40239-0.06734-0.68536
  -1   1 -12  161.59  113.05   1-0.59494 0.27748 0.77311-0.79935-0.21984-0.53294
  -1   1 -13  254.03  110.87   1-0.90664 0.57323 0.40355-0.43808-0.12299-0.69244
  -1   1 -13  186.43  121.09   1-0.60018 0.26665 0.75546-0.78953-0.26278-0.55274
   1   0 -14   40.38   51.35   1-0.72394 0.62888 0.53200-0.64183-0.43916-0.43881
   1   0 -14  328.46  132.11   1-0.60655 0.51260 0.64403-0.75381-0.46616-0.41109
   1   0 -13 3686.41  215.32   1-0.74679 0.66782 0.52292-0.62490-0.41091-0.40435
   1   0 -13 4022.87  319.90   1-0.60756 0.52961 0.66001-0.76195-0.44186-0.37273
   1   0 -12   78.50   66.67   1-0.76622 0.70392 0.51381-0.60826-0.38587-0.36675
   1   0 -12  106.30  106.26   1-0.60804 0.54610 0.67449-0.76859-0.41872-0.33321
  -1   0  11 6716.28  225.56   1-0.90810 0.95531-0.02886 0.11520 0.41775 0.27221
   1   0 -11 7247.52  306.30   1-0.78267 0.73642 0.50566-0.59224-0.36293-0.32697
   1   0 -11 7800.23  364.31   1-0.60808 0.56215 0.68743-0.77369-0.39706-0.29221
  -1   0  1023724.31  537.18   1-0.25349 0.28427 0.94335-0.86534 0.21403 0.41275
  -1   0  1025912.47  586.55   1-0.89387 0.92461-0.22002 0.29838 0.39060 0.23676
   1   0 -1026708.85  662.75   1-0.79591 0.76572 0.49851-0.57722-0.34350-0.28368
   1   0 -1027345.90  724.87   1-0.60778 0.57786 0.69871-0.77713-0.37733-0.24927
  -1   0   9  419.38   43.91   1-0.85454 0.86917-0.37793 0.44846 0.35625 0.20837
   1   0  -9  422.56   82.95   1-0.80571 0.79156 0.49285-0.56369-0.32851-0.23595
   1   0  -9  722.40  131.45   1-0.60728 0.59336 0.70814-0.77871-0.36019-0.20376
  -1   0   816364.60  469.58   1-0.79829 0.79674-0.51234 0.57518 0.31658 0.18538
   1   0  -815062.14  429.57   1 0.06557-0.06398-0.98908 0.92677-0.13198-0.37013
   1   0  -816444.89  510.31   1-0.81155 0.81345 0.48931-0.55227-0.31931-0.18244
   1   0  -816024.00  522.39   1-0.60672 0.60881 0.71535-0.77808-0.34662-0.15467
  -1   0   7 3754.17  227.51   1-0.72892 0.71127-0.62792 0.68290 0.27271 0.16650
   1   0  -7 3776.53  225.58   1-0.00470 0.02239-0.99496 0.94044-0.10013-0.33921
   1   0  -7 3322.08  217.33   1-0.81243 0.83038 0.48876-0.54385-0.31789-0.12113
   1   0  -7 3577.88  255.84   1-0.60630 0.62440 0.71972-0.77461-0.33820-0.10043
  -1   0   6  432.55   50.71   1-0.64879 0.61504-0.72676 0.77392 0.22557 0.15088
   1   0  -6  374.16   35.56   1-0.06014 0.09392-0.99539 0.94866-0.07458-0.30200
   1   0  -6  406.01   63.61   1-0.80648 0.84048 0.49239-0.53961-0.32731-0.04899
  -1   0   6  491.32   73.21   1-0.95080 0.91695 0.30191-0.25488 0.06942 0.30696
  -1   0   5  192.95   49.54   1-0.55948 0.50963-0.80997 0.84927 0.17584 0.13787
   1   0  -5  105.97   28.18   1-0.10010 0.14997-0.99340 0.95446-0.05592-0.25789
   1   0  -5  286.31   94.09   1-0.78998 0.84003 0.50178-0.54114-0.35231 0.03871
  -1   0   5  222.58   46.00   1-0.93378 0.88372 0.35653-0.31719-0.03049 0.34412
  -1   0   4 7385.87  162.16   1-0.46327 0.39730-0.87749 0.90883 0.12397 0.12717
   1   0  -4 6688.99  128.82   1-0.12283 0.18885-0.99144 0.95995-0.04410-0.20693
   1   0  -4 6850.48  164.39   1-0.75558 0.82149 0.51910-0.55048-0.39952 0.14867
  -1   0   4 6944.78  145.67   1-0.89576 0.82964 0.41762-0.38616-0.15229 0.40319
  -1   0   3  870.51   67.82   1-0.36185 0.27979-0.92946 0.95296 0.07183 0.11652
   1   0  -3  879.55   74.28   1-0.68715 0.76917 0.54442-0.56795-0.48106 0.29292
  -1   0   3  727.75   53.78   1-0.82017 0.73803 0.48382-0.46021-0.30531 0.49346
   1   0  -219750.11  289.61   1-0.09915 0.19732-0.99347 0.97789-0.05636-0.06916
   1   0  -219334.94  276.99   1-0.55251 0.65075 0.57143-0.58718-0.60678 0.48137
  -1   0   219934.52  283.96   1-0.67475 0.57664 0.54806-0.53237-0.49429 0.61972
  -1   0   219423.92  272.65   1-0.60708 0.50896 0.65159-0.63590-0.45483 0.58015
  -1   0   148768.62  614.66   1-0.15776 0.04348-0.98709 0.99496-0.02753 0.09029
   1   0  -148214.19  605.44   1-0.03947 0.15372-0.99567 0.98788-0.08415 0.02139
  -1   0   145815.16  573.86   1-0.41830 0.30402 0.57969-0.57181-0.69926 0.76196
  -1   0   147473.34  580.94   1-0.50459 0.39021 0.27769-0.26987-0.81747 0.88028
  -1   0   0  755.46   44.77   1-0.06517-0.06517-0.99525 0.99525-0.07224 0.07224
   1   0   0 1209.47  160.22   1 0.06511 0.06511 0.50358-0.50358-0.86149 0.86149
  -1   0   0  969.27   86.23   1-0.06511-0.06511 0.53772-0.53772-0.84060 0.84060
   1   0   0  959.49   41.38   1 0.06516 0.06516-0.58343 0.58343-0.80954 0.80954
  -1   0   0  969.40   39.08   1-0.06516-0.06516-0.43843 0.43843-0.89639 0.89639
  -1   0  -123674.75  309.96   1-0.22389 0.07755 0.95357-0.96137 0.20140-0.26408
  -1   0  -124806.11  326.39   1 0.01221-0.15866-0.99409 0.98630-0.10786 0.04509
   1   0   124207.65  322.52   1 0.42382-0.27743 0.35756-0.34968-0.83217 0.89484
  -1   0  -123400.12  315.32   1 0.25920-0.40553 0.43430-0.44222-0.86266 0.79998
   1   0   124601.89  349.48   1 0.33864-0.19221-0.80516 0.81300-0.48685 0.54960
  -1   0  -124019.36  315.77   1 0.22784-0.37428-0.73144 0.72359-0.64270 0.57992
  -1   0  -217780.08  237.02   1-0.43501 0.27263 0.85296-0.86856 0.28846-0.41383
  -1   0  -218563.20  257.88   1 0.06655-0.22909-0.98895 0.97337-0.13242 0.00689
  -1   0  -218421.93  262.42   1 0.46859-0.63106 0.33293-0.34869-0.81827 0.69293
  -1   0  -219056.19  289.84   1-0.66609 0.50354-0.19970 0.18396 0.71863-0.84415
   1   0   218398.62  272.48   1 0.44131-0.27884-0.84697 0.86270-0.29643 0.42188
  -1   0  -218002.46  269.85   1 0.33160-0.49408-0.80123 0.78554-0.49805 0.37255
  -1   0  -363516.66  772.25   1-0.66927 0.49077 0.64132-0.66473 0.37519-0.56326
  -1   0  -363593.16  775.15   1 0.08903-0.26767-0.98578 0.96242-0.14247-0.04582
   1   0   363649.39  803.02   1-0.58522 0.76387-0.25952 0.28313 0.76821-0.57993
   1   0   363191.45  869.37   1 0.49132-0.31272-0.85233 0.87588-0.17920 0.36747
  -1   0  -363476.31  806.80   1 0.37216-0.55070-0.82242 0.79882-0.43024 0.24207
  -1   0  -432442.26  424.38   1-0.85738 0.66286 0.28916-0.32045 0.42575-0.67669
  -1   0  -433107.64  435.27   1 0.06811-0.26285-0.98875 0.95760-0.13312-0.11793
  -1   0  -433738.16  494.07   1-0.87935 0.68475 0.02669-0.05810 0.47541-0.72645
   1   0   432960.05  475.20   1-0.64683 0.84158-0.21476 0.24625 0.73176-0.48072
   1   0   433629.66  493.14   1 0.52151-0.32682-0.84788 0.87926-0.09548 0.34651
  -1   0  -432705.48  475.16   1 0.38881-0.58341-0.82975 0.79829-0.40040 0.14952
  -1   0  -5 8244.42  153.63   1-0.89965 0.68877-0.18115 0.14197 0.39725-0.71093
  -1   0  -5 8594.24  162.70   1-0.02026-0.19057-0.99545 0.95651-0.09300-0.22081
  -1   0  -5 8871.24  225.81   1-0.92110 0.71049 0.10310-0.14240 0.37540-0.68914
   1   0   5 8397.98  205.81   1-0.67833 0.88918-0.18983 0.22919 0.70980-0.39600
  -1   0  -620389.51  548.15   1-0.94334 0.71666 0.16497-0.21213 0.28788-0.66437
   1   0   619539.12  514.46   1-0.69230 0.91925-0.17827 0.22551 0.69923-0.32268
  -1   0  -7  385.03  121.85   1-0.95345 0.71070 0.21648-0.27136 0.20991-0.64904
  -1   0  -8  644.06   90.69   1-0.95532 0.69651 0.26111-0.32382 0.13845-0.64031
  -1   0  -9  407.32  130.99   1-0.95106 0.67618 0.30051-0.37106 0.07186-0.63646
  -1   0 -10 1241.78  153.32   1-0.94204 0.65116 0.33537-0.41404 0.00878-0.63604
  -1   0 -10  953.08  149.47   1-0.59327 0.30229 0.77767-0.85599-0.20793-0.41939
  -1   0 -11  944.16  123.59   1-0.92850 0.62157 0.36769-0.45422-0.05176-0.63822
  -1   0 -11  646.26  187.13   1-0.59846 0.29142 0.76194-0.84808-0.24755-0.44251
  -1   0 -12  198.17   69.08   1-0.91093 0.58794 0.39745-0.49185-0.11053-0.64217
  -1   0 -12   89.84  114.55   1-0.60249 0.27938 0.74511-0.83908-0.28603-0.46676
  -1   0 -13   82.46   78.82   1-0.88941 0.55037 0.42505-0.52732-0.16812-0.64731
  -1   0 -13  148.31  112.62   1-0.60545 0.26722 0.72716-0.82910-0.32350-0.49110
   1   1 -14  312.44  116.76   1-0.76126 0.67251 0.51611-0.55856-0.39254-0.48552
   1   1 -14  231.98  124.66   1-0.60807 0.51981 0.67651-0.71867-0.41542-0.46184
   1   1 -13 6482.62  326.54   1-0.78239 0.70969 0.50581-0.54038-0.36333-0.45201
   1   1 -13 6679.58  356.33   1-0.60796 0.53570 0.69352-0.72784-0.38652-0.42807
   1   1 -12 1882.64  174.54   1-0.80070 0.74405 0.49578-0.52249-0.33623-0.41639
   1   1 -12 1292.54  196.04   1-0.60720 0.55095 0.70926-0.73575-0.35810-0.39384
  -1  -1  1175113.93 6404.41   1-0.90398 0.94557-0.13797 0.15656 0.40468 0.28527
   1   1 -1184350.99 7215.98   1-0.81631 0.77571 0.48631-0.50515-0.31163-0.37827
   1   1 -1174838.14 2339.33   1-0.60586 0.56562 0.72377-0.74241-0.33027-0.35900
  -1  -1  10   33.09   18.41   1-0.52094 0.54604 0.79060-0.78024 0.32180 0.30504
  -1  -1  10  161.00   43.00   1-0.85263 0.87767-0.38359 0.39420 0.35478 0.27257
   1   1 -10  252.85   95.29   1-0.82923 0.80468 0.47773-0.48869-0.29005-0.33713
   1   1 -10  -89.18  105.18   1-0.60401 0.57977 0.73703-0.74784-0.30321-0.32340
  -1  -1   916027.55  414.06   1-0.42645 0.43545 0.85841-0.85585 0.28506 0.27909
  -1  -1   918683.09  484.70   1-0.76875 0.77762-0.56616 0.56909 0.29743 0.26728
   1   1  -917723.88  519.43   1-0.83938 0.83087 0.47045-0.47354-0.27223-0.29223
   1   1  -917321.60  546.81   1-0.60163 0.59313 0.74922-0.75196-0.27695-0.28764
  -1  -1   8  998.72  149.46   1-0.35263 0.34554 0.90027-0.90552 0.25523 0.24624
  -1  -1   8 1175.94   95.08   1-0.66451 0.65730-0.70949 0.70460 0.23460 0.26735
   1   1  -8 1329.81  150.51   1-0.84647 0.85402 0.46504-0.46025-0.25925-0.24249
   1   1  -8 1499.30  186.66   1-0.59902 0.60658 0.75993-0.75484-0.25233-0.24952
  -1  -1   7   73.29   19.89   1-0.29620 0.27297 0.92650-0.93955 0.23205 0.20670
  -1  -1   7  121.35   59.70   1-0.54478 0.52141-0.82171 0.80872 0.16730 0.27219
   1   1  -7   68.55   84.65   1-0.84997 0.87356 0.46227-0.44961-0.25269-0.18634
   1   1  -7  199.28   96.11   1-0.59627 0.61989 0.76917-0.75625-0.22983-0.20929
  -1  -1   6 1267.94   63.08   1-0.25789 0.21856 0.94173-0.96258 0.21590 0.16017
  -1  -1   6 1156.31   67.77   1-0.41264 0.37319-0.90563 0.88480 0.09771 0.27899
  -1  -1   6 1000.74   90.92   1-0.95397 0.91446 0.28047-0.30120 0.10616 0.27023
   1   1  -6 1013.24  100.53   1 0.48851-0.44901-0.85240 0.87306-0.18641-0.19012
   1   1  -6  970.88   75.42   1-0.59366 0.63334 0.77665-0.75590-0.21063-0.16576
  -1  -1   562448.23  820.91   1-0.23818 0.18275 0.94879-0.97744 0.20751 0.10588
  -1  -1   564263.83  850.44   1-0.27208 0.21647-0.96187 0.93345 0.02778 0.28600
   1   1  -564671.05  895.68   1-0.84071 0.89640 0.46945-0.44106-0.26983-0.04376
  -1  -1   559163.42  812.09   1-0.94485 0.88916 0.32653-0.35494 0.02483 0.28879
   1   1  -561075.84  821.63   1 0.50178-0.44619-0.85160 0.88011-0.15157-0.16221
   1   1  -561590.36  840.58   1-0.59166 0.64740 0.78174-0.75316-0.19699-0.11666
  -1  -1   4 6583.66  131.69   1-0.23907 0.16754 0.94848-0.98493 0.20789 0.04282
  -1  -1   4 6347.23  142.99   1-0.12831 0.05662-0.99086 0.95457-0.04151 0.29255
   1   1  -4 6388.18  149.20   1-0.82135 0.89309 0.48306-0.44679-0.30337 0.05249
   1   1  -4 6213.94  123.68   1 0.51511-0.44343-0.84946 0.88581-0.11430-0.13672
   1   1  -4 6367.86  140.86   1-0.59120 0.66299 0.78285-0.74645-0.19394-0.05699
  -1  -1   3141843.6 1710.23   1-0.26318 0.17555 0.93975-0.98400 0.21814-0.03010
  -1  -1   3145508.3 1757.72   1 0.01330-0.10103-0.99402 0.94962-0.10835 0.29665
   1   1  -3143451.4 1747.78   1-0.78099 0.86879 0.50653-0.46239-0.36532 0.17717
   1   1  -3143625.0 1725.43   1 0.52936-0.44160-0.84537 0.88957-0.07147-0.11679
   1   1  -3141996.1 1711.63   1-0.59428 0.68214 0.77496-0.73072-0.21505 0.02685
  -1  -1   2326048.1 4101.36   1-0.79894 0.69509 0.49680-0.54881-0.33893 0.46437
   1   1  -1  -85.66   15.61   1-0.44367 0.56358 0.14445-0.08443-0.88446 0.82172
   1   1   017346.92  247.17   1-0.36122 0.49710 0.89585-0.82821 0.25875-0.25875
  -1  -1   017478.58  244.78   1-0.49029 0.35441 0.81452-0.88217 0.31008-0.31008
   1   1   018360.59  252.08   1-0.19534 0.33125 0.56257-0.49489-0.80333 0.80333
  -1  -1   018036.73  250.14   1-0.37326 0.23726 0.57908-0.64681-0.72479 0.72479
   1   1   018294.27  229.86   1 0.50854-0.37253-0.85070 0.91844-0.13296 0.13296
  -1  -1  -126405.41  347.92   1-0.60687 0.45488 0.71182-0.78728 0.35356-0.41625
   1   1   127041.91  350.78   1 0.24509-0.09313 0.44010-0.36450-0.86384 0.92653
   1   1   127330.51  350.91   1 0.54035-0.38824-0.84067 0.91626-0.03586 0.09862
   1   1   258172.07  722.63   1-0.48383 0.65191 0.81932-0.73607 0.30759-0.18222
  -1  -1  -256718.46  704.53   1-0.72483 0.55666 0.56556-0.64886 0.39337-0.51874
  -1  -1  -256203.09  694.28   1 0.27880-0.44684 0.42604-0.50955-0.86066 0.73530
  -1  -1  -258769.15  731.28   1-0.59554 0.42736-0.25235 0.16884 0.76265-0.88817
   1   1   260156.14  753.25   1 0.55431-0.38613-0.83219 0.91562 0.01359 0.11192
   1   1   3 2660.19   74.39   1-0.50892 0.69309 0.80022-0.70917 0.31723-0.12917
  -1  -1  -3 2595.29   69.63   1-0.82568 0.64140 0.37594-0.46704 0.42061-0.60866
  -1  -1  -3 2570.93   72.87   1 0.45990-0.64411 0.33784-0.42918-0.82118 0.63317
  -1  -1  -3 2677.11   82.37   1-0.78912 0.60496-0.08754-0.00380 0.60796-0.79624
   1   1   4 5933.39  113.06   1-0.51082 0.71109 0.79872-0.69987 0.31795-0.06721
  -1  -1  -4 5848.81  108.13   1-0.89158 0.69137 0.15005-0.24905 0.42727-0.67820
  -1  -1  -4 6098.35  137.37   1-0.88375 0.68356 0.03338-0.13259 0.46675-0.71774
   1   1   574985.04 1298.26   1-0.48893 0.70530 0.81554-0.70889 0.30955 0.00386
  -1  -1  -576325.86 1321.45   1-0.90679 0.69002-0.09770-0.00930 0.41010-0.72372
  -1  -1  -577770.31 1370.83   1-0.92910 0.71283 0.12219-0.22926 0.34905-0.66279
   1   1   574616.33 1311.60   1-0.61113 0.82762-0.24128 0.34842 0.75384-0.44005
   1   1   6 6846.17  182.48   1-0.43940 0.67187 0.85011-0.73566 0.29020 0.08590
  -1  -1  -6 6903.07  184.11   1-0.86311 0.63043-0.35113 0.23636 0.36295-0.73937
  -1  -1  -6 6845.85  228.46   1-0.94927 0.71694 0.18995-0.30475 0.25059-0.62699
   1   1   6 6496.16  205.88   1-0.63615 0.86874-0.22287 0.33788 0.73866-0.36210
   1   1   7   15.39   14.56   1-0.35087 0.59943 0.90117-0.77891 0.25451 0.18428
  -1  -1  -7  135.42   42.26   1-0.74706 0.49833-0.60110 0.47837 0.28383-0.72306
  -1  -1  -7   88.72   71.12   1-0.95542 0.70702 0.24472-0.36736 0.16515-0.60428
   1   1   7  206.60   62.42   1-0.64516 0.89384-0.21604 0.33892 0.73286-0.29354
  -1  -1  -7  -66.67  103.32   1-0.59081 0.34236 0.78377-0.90632-0.19142-0.24770
  -1  -1  -8 4755.24  130.76   1-0.52227 0.25763-0.83853 0.70805 0.15519-0.65748
  -1  -1  -8 4821.08  206.38   1-0.95269 0.68822 0.29062-0.42109 0.08891-0.59077
  -1  -1  -8 6215.73  336.81   1-0.59552 0.33101 0.77143-0.90182-0.22412-0.27773
  -1  -1  -911537.27  335.58   1-0.94388 0.66342 0.32972-0.46826 0.01906-0.58360
  -1  -1  -912353.32  433.50   1-0.59950 0.31893 0.75811-0.89633-0.25660-0.30798
  -1  -1 -10 5338.91  234.22   1-0.92988 0.63337 0.36489-0.51130-0.04640-0.58085
  -1  -1 -10 5452.00  302.71   1-0.60275 0.30612 0.74377-0.88982-0.28894-0.33838
  -1  -1 -11 3817.55  201.34   1-0.91152 0.59895 0.39659-0.55087-0.10879-0.58119
  -1  -1 -11 3821.62  335.38   1-0.60529 0.29339 0.72837-0.88223-0.32107-0.36820
  -1  -1 -12 1038.96  225.62   1-0.88902 0.56039 0.42550-0.58764-0.16908-0.58362
  -1  -1 -12  498.30  187.01   1-0.60701 0.27910 0.71186-0.87357-0.35323-0.39870
  -1  -1 -13  442.67  139.33   1-0.60794 0.26402 0.69418-0.86373-0.38536-0.42924
   1   2 -14  422.73  124.50   1-0.78870 0.70559 0.50248-0.47717-0.35420-0.52386
   1   2 -14  242.99  126.63   1-0.60745 0.52488 0.70539-0.67995-0.36525-0.51201
   1   2 -13 2685.70  204.59   1-0.80818 0.74112 0.49136-0.45819-0.32464-0.49070
   1   2 -13 2422.45  231.30   1-0.60594 0.53938 0.72307-0.68979-0.33164-0.48296
   1   2 -1211753.99  651.12   1-0.82514 0.77413 0.48053-0.43948-0.29703-0.45559
   1   2 -1211414.19  644.03   1-0.60357 0.55301 0.73961-0.69848-0.29775-0.45418
  -1  -2  11 2674.39   95.21   1-0.87088 0.90632-0.32433 0.27503 0.36928 0.32081
   1   2 -11 2724.82  199.23   1-0.83968 0.80472 0.47022-0.42130-0.27168-0.41822
   1   2 -11 2853.59  189.82   1-0.60023 0.56525 0.75525-0.70592-0.26327-0.42679
  -1  -2  10   31.74   22.47   1-0.71813 0.73765 0.57548-0.63276 0.39129 0.23555
  -1  -2  10  158.62   48.52   1-0.74960 0.76887-0.59718 0.54021 0.28541 0.34205
   1   2 -10  307.83  138.13   1-0.85188 0.83297 0.46072-0.40393-0.24905-0.37813
   1   2 -10  173.65  113.85   1-0.59609 0.57717 0.76972-0.71257-0.22844-0.39888
  -1  -2   9  565.98   96.08   1-0.64517 0.64851 0.67011-0.73520 0.36699 0.19723
  -1  -2   9  765.51   68.81   1-0.60553 0.60876-0.76996 0.70517 0.20119 0.36350
   1   2  -9  888.34  140.41   1-0.86169 0.85884 0.45242-0.38776-0.22975-0.33471
   1   2  -9  749.33  142.70   1-0.59104 0.58817 0.78323-0.71825-0.19290-0.37169
  -1  -2   8 8785.57  275.34   1-0.58930 0.57653 0.72947-0.80237 0.34724 0.15428
  -1  -2   8 9538.55  290.55   1-0.44859 0.43566-0.88613 0.81314 0.11630 0.38598
   1   2  -8 9577.56  347.56   1-0.86900 0.88219 0.44580-0.37327-0.21469-0.28705
  -1  -2   719657.04  492.46   1-0.54949 0.52060 0.76647-0.84716 0.33253 0.10626
  -1  -2   720367.20  514.77   1-0.28405 0.25495-0.95821 0.87775 0.03368 0.40563
   1   2  -720994.42  578.09   1-0.87345 0.90269 0.44156-0.36116-0.20516-0.23387
  -1  -2   645346.72  805.73   1-0.52535 0.48036 0.78699-0.87548 0.32347 0.05263
  -1  -2   646607.54  832.34   1-0.11956 0.07438-0.99177 0.90344-0.04564 0.42220
   1   2  -645173.77  826.96   1 0.41606-0.37078-0.83991 0.92829-0.34847-0.02785
  -1  -2   5 8972.94  294.90   1-0.51731 0.45622 0.79354-0.88983 0.32042-0.00700
  -1  -2   5 8953.02  170.41   1 0.03890-0.10011-0.99201 0.89543-0.11997 0.43379
   1   2  -5 9702.93  212.56   1-0.87048 0.93182 0.44441-0.34826-0.21155-0.10204
   1   2  -5 9624.88  181.64   1 0.41313-0.35179-0.83894 0.93519-0.35424 0.04064
   1   2  -4161680.9 1954.56   1-0.18538 0.26261 0.96513-0.86103 0.18478-0.43550
  -1  -2   4157320.3 1904.02   1-0.52572 0.44853 0.78669-0.89079 0.32361-0.07287
   1   2  -4163699.8 2010.09   1-0.85892 0.93631 0.45483-0.35081-0.23531-0.01556
  -1  -2   4160452.0 1939.41   1 0.54477-0.62211-0.83832 0.73423-0.02076 0.27179
   1   2  -4163249.4 1970.16   1 0.39873-0.32132-0.83373 0.93785-0.38196 0.13108
  -1  -2   3658223.0 8251.62   1-0.92075 0.82731 0.38195-0.49383-0.07953 0.26771
   1   2  -264521.31  819.33   1-0.42370 0.53309 0.86013-0.74043 0.28397-0.40934
  -1  -2   264541.25  807.93   1-0.59052 0.48113 0.72827-0.84798 0.34768-0.22230
  -1  -2   266365.29  836.80   1-0.88134 0.77185 0.43363-0.55338-0.18761 0.31305
  -1  -2   264866.15  782.57   1 0.46765-0.57719-0.85145 0.73159-0.23733 0.36277
   1   2  -264497.85  778.53   1 0.20564-0.09611-0.71385 0.83365-0.66941 0.54385
   1   2  -1165688.5 2000.88   1-0.51017 0.63566 0.79923-0.67174 0.31770-0.38039
  -1  -2   1162165.1 1951.65   1-0.80688 0.68134 0.49215-0.61978-0.32669 0.38941
   1   2  -1163579.8 1934.62   1-0.44049 0.56600 0.13808-0.01032-0.88707 0.82433
   1   2   028216.22  390.65   1-0.57490 0.71649 0.74331-0.60800 0.34200-0.34200
  -1  -2   027944.20  382.78   1-0.70434 0.56275 0.59528-0.73060 0.38669-0.38669
   1   2   028566.47  371.36   1-0.41876 0.56040 0.57969-0.44424-0.69899 0.69899
  -1  -2   028265.00  356.83   1-0.56800 0.42625 0.45196-0.58754-0.68782 0.68782
   1   2   028392.24  353.73   1-0.59717 0.73884 0.76633-0.63086-0.23688 0.23688
   1   2   1  598.08   98.29   1-0.61982 0.77751 0.69824-0.55512 0.35815-0.29546
  -1  -2  -1  445.38   42.25   1-0.76767 0.60994 0.49578-0.63895 0.40604-0.46873
   1   2   1  676.86  102.97   1 0.03011 0.12747 0.51371-0.37045-0.85743 0.92005
  -1  -2  -1  493.50   31.03   1-0.40130 0.24361 0.57964-0.72297-0.70919 0.64649
  -1  -2  -1  559.92   59.63   1-0.60809 0.45056 0.67827-0.82133-0.41251 0.34985
   1   2   2 1348.22  192.54   1-0.64736 0.82116 0.66759-0.51667 0.36774-0.24236
  -1  -2  -2 1076.63   57.43   1-0.82629 0.65244 0.37445-0.52542 0.42074-0.54610
   1   2   2 1140.94   43.89   1 0.50802-0.33426 0.30981-0.15865-0.80369 0.92902
  -1  -2  -2 1177.38  130.87   1-0.05648-0.11715 0.53576-0.68692-0.84247 0.71722
  -1  -2  -2 1112.42   54.50   1 0.54508-0.71893-0.83815 0.68697-0.01969-0.10581
  -1  -2  -2  984.80   75.40   1-0.60495 0.43142 0.73085-0.88176-0.31602 0.19070
   1   2   346748.18  635.21   1-0.65974 0.84964 0.65297-0.49425 0.37197-0.18389
  -1  -2  -344035.79  596.34   1-0.87350 0.68367 0.23300-0.39188 0.42743-0.61563
  -1  -2  -343586.19  582.70   1 0.22758-0.41733 0.44711-0.60622-0.86503 0.67699
  -1  -2  -346285.82  613.35   1-0.78555 0.59576-0.09132-0.06780 0.61201-0.80029
  -1  -2  -344345.85  607.36   1 0.52809-0.71802-0.84582 0.68680-0.07544-0.11282
   1   2   444607.24  609.84   1-0.65842 0.86443 0.65455-0.48802 0.37152-0.12076
  -1  -2  -441283.86  564.45   1-0.90182 0.69557 0.07529-0.24220 0.42549-0.67639
  -1  -2  -442283.28  562.81   1 0.39726-0.60319 0.37141-0.53833-0.83918 0.58851
  -1  -2  -444291.20  598.32   1-0.89972 0.69388 0.06039-0.22736 0.43225-0.68324
  -1  -2  -441048.96  592.39   1 0.51268-0.71870-0.84996 0.68309-0.12127-0.12975
   1   2   5 1835.09  141.95   1-0.64380 0.86591 0.67169-0.49736 0.36652-0.05306
  -1  -2  -5 1687.07   65.57   1-0.90701 0.68462-0.09306-0.08169 0.41068-0.72430
  -1  -2  -5 1801.59   70.55   1 0.49070-0.71272 0.32014-0.49494-0.81037 0.49703
  -1  -2  -5 2069.19   87.04   1-0.94250 0.72059 0.16193-0.33676 0.29233-0.60607
  -1  -2  -5 1706.39  151.30   1-0.60151 0.37954 0.74976-0.92439-0.27573-0.03793
   1   2   656120.58 1522.35   1-0.61493 0.85314 0.70343-0.52130 0.35642 0.01972
  -1  -2  -653720.77 1454.42   1-0.88500 0.64663-0.26652 0.08401 0.38173-0.75815
  -1  -2  -651899.16 1404.98   1 0.53936-0.77747 0.29040-0.47308-0.79041 0.41440
  -1  -2  -655284.51 1503.40   1-0.95497 0.71698 0.23376-0.41632 0.18271-0.55910
  -1  -2  -654304.51 1508.79   1-0.60262 0.36459 0.74445-0.92691-0.28746-0.08893
   1   2   7 1104.08  176.50   1-0.56897 0.82328 0.74885-0.55892 0.33982 0.09901
  -1  -2  -7  780.01   72.31   1-0.83017 0.57575-0.44304 0.25254 0.33841-0.77763
  -1  -2  -7 1049.93  112.24   1-0.95292 0.69887 0.28901-0.47941 0.09166-0.53079
  -1  -2  -7 1070.69  193.24   1-0.60406 0.35049 0.73670-0.92682-0.30390-0.13472
   1   2   834773.62  666.47   1-0.49972 0.77009 0.80737-0.60967 0.31371 0.18776
  -1  -2  -834504.30  659.25   1-0.73694 0.46643-0.61631 0.41796 0.27760-0.77958
  -1  -2  -837075.27  740.87   1-0.94277 0.67274 0.33317-0.53159 0.01280-0.51461
  -1  -2  -836752.63  820.13   1-0.60546 0.33589 0.72705-0.92501-0.32372-0.17757
   1   2   9   31.63   14.57   1-0.39259 0.67906 0.87872-0.67321 0.27149 0.29266
  -1  -2  -9  282.84  105.09   1-0.92673 0.64064 0.37114-0.57743-0.05842-0.50610
  -1  -2  -9  121.19  110.42   1-0.60668 0.32110 0.71578-0.92157-0.34581-0.21814
  -1  -2 -10  459.46   82.28   1-0.90610 0.60396 0.40430-0.61846-0.12453-0.50272
  -1  -2 -10  440.95  186.15   1-0.60758 0.30599 0.70303-0.91667-0.36956-0.25705
  -1  -2 -11  574.79  109.52   1-0.88160 0.56347 0.43336-0.65544-0.18701-0.50289
  -1  -2 -11  241.34  125.20   1-0.60806 0.29046 0.68889-0.91037-0.39456-0.29471
  -1  -2 -12   89.13  125.62   1-0.60802 0.27441 0.67338-0.90270-0.42055-0.33139
  -1  -2 -13  231.05  133.47   1-0.60738 0.25777 0.65650-0.89366-0.44730-0.36729
   1   3 -14 3069.55  249.17   1-0.80859 0.73113 0.49112-0.39806-0.32400-0.55406
   1   3 -14 1501.63  181.84   1-0.60498 0.52810 0.73066-0.63761-0.31641-0.56085
   1   3 -13  905.20  199.23   1-0.82656 0.76515 0.47956-0.37864-0.29461-0.52073
   1   3 -13  376.68  115.78   1-0.60172 0.54027 0.74877-0.64738-0.27794-0.53758
   1   3 -12  239.79  117.43   1-0.59738 0.55198 0.76564-0.65642-0.23857-0.51422
  -1  -3  11   60.48   19.64   1-0.75386 0.78355-0.59050 0.47363 0.28806 0.40214
   1   3 -11  367.29  102.86   1-0.85568 0.82636 0.45758-0.34091-0.24170-0.44820
   1   3 -11  156.36  105.03   1-0.59179 0.56245 0.78142-0.66436-0.19786-0.49219
  -1  -3  10  971.56   93.20   1-0.82360 0.83744 0.38096-0.50592 0.42016 0.20668
  -1  -3  10 1388.08  130.20   1-0.56399 0.57765-0.80630 0.68160 0.17829 0.44914
   1   3 -10 1010.00  144.67   1-0.86700 0.85374 0.44765-0.32311-0.21887-0.40831
  -1  -3   9 6670.20  193.87   1-0.77509 0.77282 0.48236-0.61513 0.40810 0.15605
  -1  -3   9 7035.40  211.09   1-0.37665 0.37416-0.92294 0.78997 0.07933 0.48574
   1   3  -9 7179.58  300.23   1-0.87620 0.87899 0.43886-0.30645-0.19915-0.36531
  -1  -3   8 9506.37  322.55   1-0.73697 0.71859 0.54697-0.68755 0.39709 0.10438
  -1  -3   8 9642.08  336.53   1-0.19341 0.17474-0.98106 0.84068-0.01047 0.51254
   1   3  -8 9350.79  369.68   1-0.88321 0.90204 0.43166-0.29138-0.18331-0.31844
  -1  -3   749190.05 1191.66   1-0.70998 0.67541 0.58735-0.73571 0.38848 0.05035
  -1  -3   751687.55 1255.84   1-0.02130-0.01337-0.99548 0.84671-0.09252 0.53188
   1   3  -753753.26 1349.49   1-0.88768 0.92253 0.42699-0.27883-0.17229-0.26678
  -1  -3   751027.61 1259.47   1 0.55296-0.58771-0.83316 0.68487 0.00855 0.43074
  -1  -3   625653.57  519.69   1-0.69405 0.64337 0.60935-0.76551 0.38337-0.00721
   1   3  -627107.04  556.47   1-0.88944 0.94034 0.42502-0.26899-0.16805-0.20829
  -1  -3   626661.70  512.46   1 0.53507-0.58591-0.84312 0.68698-0.05329 0.42983
   1   3  -625191.31  486.00   1 0.32345-0.27251-0.79653 0.95273-0.51079 0.13429
   1   3  -511497.59  203.39   1-0.27591 0.34274 0.93482-0.77086 0.22352-0.53692
  -1  -3   511654.56  202.37   1-0.68938 0.62260 0.61558-0.77954 0.38184-0.06838
  -1  -3   511623.85  247.56   1 0.51003-0.57696-0.85045 0.68647-0.12878 0.44257
   1   3  -510982.55  203.92   1 0.29635-0.22936-0.77984 0.94388-0.55137 0.23763
   1   3  -4 5875.38  137.05   1-0.39499 0.47788 0.87734-0.70560 0.27246-0.52320
  -1  -3   4 5904.84  134.83   1-0.69564 0.61276 0.60720-0.77897 0.38388-0.13312
   1   3  -4 6594.91  199.58   1-0.87977 0.96281 0.43524-0.26348-0.19116-0.05970
  -1  -3   4 6135.71  160.91   1-0.95228 0.86933 0.29333-0.46526 0.08426 0.16667
  -1  -3   4 5723.23  127.65   1 0.47091-0.55398-0.85177 0.67985-0.22962 0.48050
   1   3  -4 5945.97  121.49   1 0.24146-0.15841-0.74149 0.91338-0.62600 0.37500
  -1  -3   338084.31  509.66   1-0.71200 0.61301 0.58449-0.76406 0.38912-0.20104
  -1  -3   337679.73  515.87   1-0.94437 0.84531 0.32813-0.50775 0.02194 0.16622
  -1  -3   339929.95  511.93   1 0.39963-0.49877-0.83407 0.65430-0.38026 0.56843
   1   3  -339283.37  500.45   1 0.12603-0.02691-0.64426 0.82395-0.75435 0.56601
   1   3  -2   98.98   52.72   1-0.56952 0.68461 0.74834-0.56097 0.34003-0.46541
  -1  -3   2  141.53   64.03   1-0.73691 0.62185 0.54706-0.73449 0.39707-0.27170
  -1  -3   2    3.38   20.28   1 0.23793-0.35314-0.73917 0.55162-0.63008 0.75564
   1   3  -2   83.32   19.93   1-0.11735 0.23248-0.37254 0.56011-0.92056 0.79512
  -1  -3   1391735.2 4920.77   1-0.90184 0.77067 0.40999-0.60535-0.13629 0.19902
   1   3   020598.02  317.23   1-0.66963 0.81693 0.64087-0.43790 0.37531-0.37531
  -1  -3   019326.92  294.94   1-0.80292 0.65562 0.42753-0.63057 0.41536-0.41536
   1   3   019458.49  270.08   1-0.57098 0.71828 0.56893-0.36575-0.59184 0.59184
  -1  -3   019382.50  268.28   1-0.85095 0.70372 0.46147-0.66472-0.25081 0.25081
  -1  -3   019260.21  264.16   1-0.46031 0.31311 0.17845-0.38170-0.86963 0.86963
   1   3   019163.65  258.43   1-0.60086 0.74824 0.59052-0.38715-0.53874 0.53874
   1   3   1 2622.35  136.23   1-0.69764 0.86104 0.60449-0.39372 0.38453-0.32184
  -1  -3  -1 2548.92   93.96   1-0.83769 0.67429 0.34539-0.55624 0.42304-0.48572
   1   3   1 2715.11   66.59   1-0.18551 0.34880 0.56109-0.35016-0.80669 0.86932
  -1  -3  -1 2773.20   65.14   1-0.74747 0.58407 0.52263-0.73363-0.41004 0.34732
  -1  -3  -1 2611.09   84.88   1-0.57202 0.40852 0.46547-0.67665-0.67537 0.61257
   1   3   1 2356.06   78.07   1-0.60411 0.76732 0.73645-0.52578-0.30443 0.36709
   1   3   2  898.46  141.66   1-0.71395 0.89345 0.58169-0.36311 0.38974-0.26435
  -1  -3  -2  569.55   53.49   1-0.86921 0.68977 0.24907-0.46783 0.42710-0.55257
   1   3   2  718.30   34.96   1 0.40253-0.22312 0.36871-0.14984-0.83786 0.96320
  -1  -3  -2  662.57   33.68   1-0.53211 0.35272 0.57377-0.79270-0.62260 0.49719
  -1  -3  -2  626.55   57.97   1-0.60005 0.42043 0.58555-0.80455-0.54503 0.41943
   1   3   343781.16  616.28   1-0.72016 0.91576 0.57266-0.34628 0.39168-0.20361
  -1  -3  -340593.92  569.81   1-0.89328 0.69777 0.14025-0.36684 0.42705-0.61525
  -1  -3  -342469.82  551.34   1-0.20445 0.00908 0.56389-0.79060-0.80013 0.61225
  -1  -3  -343028.30  561.74   1-0.80636 0.61093-0.06865-0.15826 0.58741-0.77569
  -1  -3  -344212.92  634.58   1-0.60620 0.41097 0.63977-0.86613-0.47244 0.28446
   1   3   436592.63  677.05   1-0.71721 0.92891 0.57698-0.34279 0.39076-0.13999
  -1  -3  -435320.53  649.14   1-0.90638 0.69451 0.02009-0.25476 0.42196-0.67286
  -1  -3  -435969.12  631.09   1 0.08750-0.29891 0.49672-0.73136-0.86348 0.61298
  -1  -3  -436215.94  640.08   1-0.93146 0.71997 0.12834-0.36309 0.34044-0.59144
  -1  -3  -433847.44  627.58   1 0.54892-0.76061-0.83584 0.60123-0.00612-0.24490
  -1  -3  -437675.28  715.01   1-0.60779 0.39655 0.66545-0.89965-0.43330 0.18266
   1   3   514977.21  395.56   1-0.70531 0.93312 0.59393-0.35194 0.38700-0.07354
  -1  -3  -513723.94  364.43   1-0.90622 0.67820-0.10784-0.13467 0.40880-0.72242
  -1  -3  -514170.58  361.32   1-0.95519 0.72762 0.23805-0.48053 0.17587-0.48953
  -1  -3  -514311.50  427.12   1-0.60808 0.38083 0.67704-0.91908-0.41454 0.10123
   1   3   6 2475.64  160.55   1-0.68393 0.92785 0.62271-0.37292 0.38006-0.00391
  -1  -3  -6 2414.54  154.20   1-0.89018 0.64611-0.24081-0.00944 0.38676-0.76318
  -1  -3  -6 2388.52  142.95   1 0.36969-0.61331 0.38436-0.63490-0.84592 0.46984
  -1  -3  -6 2650.72  169.12   1-0.94973 0.70609 0.30724-0.55756 0.06013-0.43653
  -1  -3  -6 2164.06  183.38   1-0.60811 0.36485 0.68060-0.93049-0.40862 0.03265
   1   3   7 1972.26  187.81   1-0.65164 0.91165 0.66260-0.40501 0.36921 0.06962
  -1  -3  -7 1746.61  107.44   1-0.85436 0.59418-0.37848 0.12038 0.35610-0.79526
  -1  -3  -7 1989.32  108.14   1 0.42080-0.68064 0.35916-0.61743-0.83301 0.39434
  -1  -3  -7 1760.15  115.83   1-0.93404 0.67443 0.35594-0.61424-0.02939-0.40969
  -1  -3  -7 1994.96  206.60   1-0.60810 0.34884 0.67905-0.93678-0.41121-0.02742
   1   3   827747.51  635.97   1-0.60569 0.88180 0.71304-0.44765 0.35313 0.14839
  -1  -3  -826257.18  606.56   1-0.79546 0.51926-0.51786 0.25176 0.31471-0.81669
  -1  -3  -825145.03  573.64   1 0.44507-0.72099 0.34608-0.61223-0.82591 0.32456
  -1  -3  -828507.76  662.69   1-0.91269 0.63703 0.39484-0.66100-0.10525-0.39655
  -1  -3  -829689.15  760.75   1-0.60803 0.33276 0.67390-0.93947-0.41969-0.08159
   1   3   926930.43  839.14   1-0.54101 0.83317 0.77383-0.50068 0.32936 0.23479
  -1  -3  -928203.39  888.15   1-0.88738 0.59566 0.42733-0.70136-0.17302-0.39150
  -1  -3  -929167.99  978.20   1-0.60781 0.31654 0.66600-0.93941-0.43242-0.13152
  -1  -3 -10 6575.62  354.02   1-0.85874 0.55101 0.45498-0.73694-0.23567-0.39152
  -1  -3 -10 7829.09  501.19   1-0.60734 0.30006 0.65585-0.93710-0.44830-0.17830
  -1  -3 -11 2171.53  214.25   1-0.60652 0.28324 0.64374-0.93283-0.46659-0.22268
  -1  -3 -12  344.42  200.00   1-0.60527 0.26597 0.62985-0.92678-0.48675-0.26518
   1   4 -14 4164.79  317.46   1-0.82271 0.75089 0.48216-0.32135-0.30110-0.57696
   1   4 -14 3576.81  262.85   1-0.60088 0.52901 0.75253-0.59123-0.26950-0.60876
   1   4 -13 1146.21  292.14   1-0.83935 0.78358 0.47047-0.30179-0.27229-0.54305
   1   4 -13 1055.68  267.07   1-0.59586 0.54004 0.77044-0.60131-0.22665-0.58887
   1   4 -12 1220.14  199.83   1-0.85382 0.81410 0.45913-0.28258-0.24531-0.50731
   1   4 -12 1218.65  189.00   1-0.58934 0.54958 0.78709-0.61013-0.18210-0.57069
  -1  -4  11  266.06   43.10   1-0.55128 0.57531-0.81664 0.63150 0.17082 0.51982
   1   4 -11  502.91  148.48   1-0.86624 0.84258 0.44834-0.26392-0.22044-0.46946
  -1  -4  10 1167.45   55.25   1-0.87189 0.87954 0.23916-0.43174 0.42732 0.20000
  -1  -4  10 1624.44   72.34   1-0.33554 0.34339-0.94015 0.74774 0.05929 0.56829
   1   4 -10 1540.02  144.20   1-0.87669 0.86907 0.43837-0.24608-0.19806-0.42912
  -1  -4   9 1515.74  110.16   1-0.84267 0.83426 0.33257-0.53298 0.42342 0.14117
  -1  -4   9 1752.38  133.74   1-0.14238 0.13413-0.98919 0.78891-0.03485 0.59968
   1   4  -9 1718.56  212.80   1-0.88506 0.89343 0.42987-0.22970-0.17851-0.38601
  -1  -4   8 2486.65  187.03   1-0.81806 0.79400 0.39402-0.60228 0.41893 0.08253
  -1  -4   8 2743.17  218.45   1 0.03057-0.05482-0.99275 0.78401-0.11620 0.61832
   1   4  -8 3014.83  285.59   1-0.89157 0.91600 0.42258-0.21454-0.16282-0.33898
  -1  -4   8 3044.46  244.61   1 0.54298-0.56731-0.83931 0.63112-0.02692 0.52898
   1   4  -739197.39 1075.75   1-0.18378 0.22410 0.96557-0.74956 0.18408-0.62284
  -1  -4   737087.77 1018.93   1-0.80006 0.75988 0.43354-0.64960 0.41465 0.02413
   1   4  -740909.90 1166.03   1-0.89594 0.93642 0.41741-0.20150-0.15184-0.28724
  -1  -4   739792.07 1106.44   1 0.52193-0.56235-0.84776 0.63173-0.09424 0.53354
   1   4  -618415.67  507.16   1-0.31555 0.37197 0.91802-0.69420 0.24012-0.61620
  -1  -4   618626.25  479.17   1-0.78923 0.73294 0.45547-0.67935 0.41189-0.03578
   1   4  -620501.38  578.47   1-0.89781 0.95434 0.41511-0.19134-0.14699-0.22935
  -1  -4   618861.25  509.56   1 0.49349-0.54999-0.85225 0.62837-0.17359 0.55013
   1   4  -618064.27  470.14   1 0.21676-0.16023-0.72277 0.94667-0.65620 0.27953
   1   4  -577210.40 1367.71   1-0.42638 0.49887 0.85845-0.62686 0.28504-0.59846
  -1  -4   575927.64 1340.44   1-0.78570 0.71330 0.46235-0.69403 0.41096-0.09754
   1   4  -578635.56 1421.54   1-0.89648 0.96907 0.41675-0.18511-0.15044-0.16318
  -1  -4   579403.32 1402.95   1 0.45247-0.52514-0.84926 0.61742-0.27206 0.58566
   1   4  -575134.62 1322.57   1 0.16527-0.09265-0.67979 0.91153-0.71454 0.40064
   1   4  -428570.27  430.68   1-0.51673 0.60532 0.79401-0.55462 0.32020-0.57094
  -1  -4   428406.23  426.45   1-0.78918 0.70067 0.45556-0.69504 0.41188-0.16114
   1   4  -427647.40  449.60   1-0.89050 0.97914 0.42382-0.18431-0.16547-0.08543
  -1  -4   427105.47  426.61   1-0.95549 0.86688 0.24985-0.48954 0.15685 0.09407
  -1  -4   429433.25  423.25   1 0.38923-0.47797-0.82993 0.59022-0.39962 0.65051
   1   4  -427445.51  394.03   1 0.07897 0.00956-0.59742 0.83703-0.79802 0.54706
  -1  -4   3118337.5 1544.54   1-0.79894 0.69431 0.43586-0.68315 0.41437-0.22632
   1   4  -3118584.9 1558.86   1-0.87684 0.98157 0.43822-0.19083-0.19773 0.00957
  -1  -4   3119040.5 1530.15   1 0.28305-0.38777-0.77108 0.52359-0.57035 0.75860
   1   4  -3119899.4 1535.61   1-0.06639 0.17100-0.43695 0.68435-0.89703 0.70880
   1   4  -2 5062.37  191.22   1-0.64359 0.76438 0.67193-0.41690 0.36645-0.49183
  -1  -4   2 5279.39  144.01   1-0.81384 0.69309 0.40368-0.65878 0.41797-0.29260
   1   4  -2 5158.55  135.05   1-0.84872 0.96950 0.46327-0.20801-0.25505 0.12961
  -1  -4   2 5068.44  136.45   1-0.95130 0.83056 0.29918-0.55455 0.07416 0.05129
  -1  -4   2 5283.21  110.68   1 0.09789-0.21876-0.61737 0.36207-0.78055 0.90611
   1   4  -2 4946.92  102.82   1-0.27580 0.39654-0.14900 0.40438-0.94959 0.82415
   1   4  -131320.42  464.34   1-0.68462 0.82151 0.62182-0.35899 0.38028-0.44298
   1   4  -130326.91  417.00   1-0.79023 0.92706 0.50165-0.23852-0.35194 0.28922
  -1  -4   130644.35  422.85   1-0.94558 0.80877 0.32406-0.58716 0.02927 0.03344
  -1  -4   130479.92  398.41   1-0.16266 0.02588-0.31308 0.04999-0.93569 0.99841
   1   4  -130564.90  400.45   1-0.48012 0.61705 0.22202 0.04128-0.84864 0.78583
   1   4   024280.00  407.07   1-0.71371 0.86670 0.58204-0.31140 0.38966-0.38966
  -1  -4   022978.47  359.63   1-0.85285 0.69985 0.30318-0.57400 0.42510-0.42510
   1   4   024265.94  347.35   1-0.66088 0.81384 0.55184-0.28096-0.50863 0.50863
  -1  -4   022354.14  321.38   1-0.93665 0.78379 0.34979-0.62076-0.01783 0.01783
  -1  -4   023712.63  344.20   1-0.38932 0.23651 0.04094-0.31194-0.92019 0.92019
   1   4   023758.82  344.11   1-0.58364 0.73665 0.50808-0.23692-0.63341 0.63341
   1   4   1 3514.04  135.36   1-0.73282 0.90190 0.55343-0.27490 0.39583-0.33314
  -1  -4  -1 3182.33  101.00   1-0.87280 0.70374 0.23566-0.51431 0.42739-0.49012
   1   4   1 3313.50   76.02   1-0.35519 0.52414 0.57808-0.29947-0.73461 0.79723
  -1  -4  -1 3633.46   80.01   1-0.92323 0.75431 0.37762-0.65645-0.07102 0.00829
  -1  -4  -1 3019.66   95.24   1-0.51148 0.34230 0.29416-0.57309-0.80737 0.74457
   1   4   1 3160.47   93.22   1-0.60775 0.77665 0.66431-0.38602-0.43512 0.49778
   1   4   2  392.27   73.95   1-0.74347 0.92867 0.53666-0.25033 0.39904-0.27367
  -1  -4  -2   96.46   39.89   1-0.89021 0.70508 0.15756-0.44403 0.42741-0.55288
   1   4   2   93.82   20.48   1 0.28229-0.09736 0.42454-0.13801-0.86027 0.98563
  -1  -4  -2   84.54   26.90   1-0.90051 0.71554 0.41171-0.69841-0.13987 0.01442
   1   4   2   85.67   68.57   1-0.60252 0.78759 0.74495-0.45835-0.28636 0.41183
   1   4   319776.22  405.94   1-0.74672 0.94804 0.53140-0.23726 0.40000-0.21195
  -1  -4  -318602.78  374.99   1-0.90247 0.70112 0.06907-0.36365 0.42516-0.61333
  -1  -4  -319390.66  337.02   1-0.83870 0.63768 0.47095-0.76556-0.27344 0.08528
  -1  -4  -318990.14  330.46   1-0.89710 0.69603 0.05596-0.35067 0.43826-0.62654
  -1  -4  -320491.29  422.98   1-0.58685 0.38548 0.52107-0.81568-0.61974 0.43133
   1   4   318749.93  382.21   1-0.58816 0.78929 0.78961-0.49518-0.17486 0.36306
   1   4   4  275.55   79.00   1-0.74314 0.96056 0.53720-0.23525 0.39894-0.14820
  -1  -4  -4  208.76   60.14   1-0.90807 0.69057-0.02713-0.27529 0.41791-0.66881
  -1  -4  -4   47.33   10.17   1-0.58318 0.36582 0.56800-0.87025-0.58074 0.32989
  -1  -4  -4  133.00   24.16   1-0.94159 0.72444 0.33665-0.63905 0.00750-0.25843
  -1  -4  -4  314.76  124.96   1-0.59675 0.37927 0.56701-0.86944-0.56778 0.31657
  -1  -4  -5  173.85   61.38   1-0.90461 0.67097-0.13052-0.17975 0.40574-0.71936
  -1  -4  -5   69.86   20.80   1-0.21742-0.01569 0.56569-0.87586-0.79543 0.48229
  -1  -4  -5  109.63   26.20   1-0.90759 0.67445 0.40225-0.71255-0.12030-0.19332
  -1  -4  -5   27.47   92.44   1-0.60124 0.36763 0.59291-0.90316-0.53568 0.22167
   1   4   625589.45  871.07   1-0.71525 0.96486 0.57982-0.26237 0.39014-0.01399
  -1  -4  -625023.28  793.00   1 0.02115-0.27031 0.51619-0.83431-0.85621 0.48046
  -1  -4  -624936.36  791.91   1-0.87967 0.63049 0.43555-0.75372-0.19094-0.18541
  -1  -4  -626029.46  885.65   1-0.60326 0.35354 0.60668-0.92474-0.51769 0.14087
   1   4   719251.33  443.75   1-0.68960 0.95532 0.61528-0.29003 0.38192 0.05692
  -1  -4  -717666.38  343.93   1 0.15400-0.41932 0.47454-0.80067-0.86665 0.42788
  -1  -4  -718499.51  365.83   1-0.85292 0.58770 0.45987-0.78596-0.24704-0.19198
  -1  -4  -719086.97  481.77   1-0.60331 0.33837 0.61295-0.93828-0.51019 0.07155
   1   4   8 3651.71  145.69   1-0.65416 0.93598 0.65962-0.32657 0.37007 0.13145
  -1  -4  -8 3357.43  121.68   1-0.82348 0.54221 0.48164-0.81561-0.29980-0.20194
  -1  -4  -8 3276.00  233.22   1-0.60337 0.32241 0.61338-0.94656-0.50960 0.00831
   1   4   9 5125.85  223.48   1-0.60613 0.90406 0.71258-0.37172 0.35329 0.21093
  -1  -4  -9 5157.17  178.08   1-0.79080 0.49347 0.50134-0.84318-0.35112-0.21335
  -1  -4  -9 5780.29  312.28   1-0.60289 0.30593 0.60974-0.95076-0.51450-0.04944
  -1  -4 -10  102.34  120.95   1-0.60266 0.28846 0.60241-0.95175-0.52334-0.10468
  -1  -4 -11  302.06  133.67   1-0.60123 0.27091 0.59287-0.95002-0.53573-0.15509
  -1  -4 -12  815.01  156.03   1-0.59928 0.25285 0.58101-0.94598-0.55070-0.20292
   1   5 -14  368.87  160.54   1-0.83230 0.76613 0.47558-0.24703-0.28475-0.59330
   1   5 -14  594.10  230.61   1-0.59571 0.52947 0.77088-0.54184-0.22553-0.65272
   1   5 -13 3517.93  236.15   1-0.84777 0.79765 0.46401-0.22759-0.25682-0.55852
   1   5 -13 3636.35  238.97   1-0.58876 0.53858 0.78834-0.55148-0.17851-0.63701
   1   5 -12  285.51  116.75   1-0.86120 0.82713 0.45285-0.20855-0.23075-0.52187
  -1  -5  11 1673.45  115.24   1-0.32802 0.34628-0.94303 0.69071 0.05552 0.63482
   1   5 -11 1809.41  215.24   1-0.87269 0.85467 0.44230-0.19013-0.20681-0.48309
  -1  -5  10 2887.76  131.32   1-0.12570 0.12787-0.99114 0.73094-0.04275 0.67034
   1   5 -10 3564.94  266.34   1-0.88232 0.88034 0.43260-0.17256-0.18536-0.44182
  -1  -5  10 3352.55  200.66   1 0.55638-0.55421-0.83065 0.57042 0.02138 0.60619
  -1  -5   9   70.30   32.78   1-0.87732 0.86322 0.21777-0.48588 0.42764 0.13695
  -1  -5   9  129.96   65.92   1 0.04742-0.06124-0.99117 0.72245-0.12381 0.68870
   1   5  -9  127.16  114.67   1-0.89000 0.90400 0.42438-0.15647-0.16668-0.39784
  -1  -5   9  145.36   69.42   1 0.53917-0.55308-0.84125 0.57317-0.03980 0.60461
   1   5  -8 8705.53  262.03   1-0.19715 0.22707 0.96180-0.68593 0.18988-0.69132
  -1  -5   8 7757.92  234.53   1-0.86214 0.83198 0.27370-0.54964 0.42637 0.07549
   1   5  -8 8946.95  327.30   1-0.89593 0.92599 0.41741-0.14163-0.15184-0.34995
  -1  -5   8 9109.06  294.38   1 0.51731-0.54731-0.84896 0.57304-0.10791 0.60997
   1   5  -7 3950.36  168.28   1-0.32389 0.36990 0.91419-0.63052 0.24359-0.68234
  -1  -5   7 3482.97  261.39   1-0.85044 0.80421 0.31040-0.59416 0.42473 0.01439
   1   5  -7 4131.93  243.23   1-0.89987 0.94598 0.41253-0.12888-0.14158-0.29749
  -1  -5   7 4060.38  427.70   1 0.48883-0.53491-0.85240 0.56863-0.18561 0.62491
   1   5  -6 8403.75  298.56   1-0.42987 0.49196 0.85625-0.56481 0.28642-0.66253
  -1  -5   6 6993.89  227.86   1-0.84310 0.78080 0.33140-0.62299 0.42349-0.04710
   1   5  -6 8364.03  306.20   1-0.90150 0.96367 0.41043-0.11892-0.13721-0.23914
  -1  -5   6 8069.35  271.61   1 0.45016-0.51243-0.84883 0.55707-0.27718 0.65351
   1   5  -5  360.68   60.86   1-0.51647 0.59467 0.79421-0.49497 0.32010-0.63353
  -1  -5   5  263.00   45.78   1-0.84022 0.76213 0.33862-0.63798 0.42351-0.11009
   1   5  -5  528.33   95.33   1-0.90023 0.97845 0.41207-0.11269-0.14062-0.17300
  -1  -5   5  369.76   73.90   1 0.39609-0.47443-0.83270 0.53307-0.38692 0.70053
   1   5  -5  523.35   57.57   1 0.03849 0.03960-0.55566 0.85518-0.83051 0.51680
   1   5  -4 2981.44  330.42   1-0.58586 0.68014 0.73283-0.42575 0.34599-0.59676
  -1  -5   4 2305.58   97.19   1-0.84216 0.74774 0.33397-0.64121 0.42333-0.17239
   1   5  -4 2655.94  140.17   1-0.89481 0.98909 0.41876-0.11151-0.15470-0.09620
  -1  -5   4 2491.06  166.68   1 0.31721-0.41150-0.79283 0.48542-0.52037 0.77137
   1   5  -4 2512.65   95.08   1-0.06282 0.15699-0.44124 0.74855-0.89518 0.64422
   1   5  -387073.67 1549.31   1-0.88274 0.99312 0.43215-0.11701-0.18438-0.00377
  -1  -5   381297.06 1439.78   1-0.95398 0.84365 0.22141-0.53670 0.20222-0.01402
  -1  -5   389906.63 1565.76   1 0.19826-0.30871-0.70782 0.39262-0.67799 0.86633
   1   5  -385909.90 1496.59   1-0.20102 0.31135-0.26028 0.57550-0.94437 0.75620
   1   5  -232108.12  498.48   1-0.68198 0.80847 0.62525-0.30256 0.37941-0.50480
   1   5  -233871.53  501.62   1-0.85864 0.98507 0.45507-0.13206-0.23586 0.11042
  -1  -5   233130.83  485.58   1-0.95497 0.82857 0.23381-0.55695 0.18262-0.05716
  -1  -5   232680.51  454.91   1 0.03088-0.15718-0.54756 0.22467-0.83619 0.96167
   1   5  -233689.64  470.24   1-0.36080 0.48717-0.01033 0.33345-0.93258 0.80713
   1   5  -1  136.87   76.19   1-0.71279 0.85538 0.58335-0.25286 0.38937-0.45206
   1   5  -1  108.44   76.22   1-0.81031 0.95278 0.49007-0.15919-0.32127 0.25855
  -1  -5   1  -15.52   48.53   1-0.95532 0.81286 0.24143-0.57240 0.17045-0.10771
  -1  -5   1   12.42   34.38   1-0.16647 0.02407-0.30794-0.02285-0.93672 0.99944
   1   5  -1   57.01   39.85   1-0.49650 0.63907 0.25883 0.07225-0.82854 0.76574
   1   5   0 6626.40  203.10   1-0.73454 0.89319 0.55076-0.21236 0.39635-0.39635
   1   5   0 6260.72  131.45   1-0.70743 0.86606 0.53789-0.19930-0.45848 0.45848
  -1  -5   0 5818.69  139.61   1-0.95529 0.79676 0.24050-0.57931 0.17194-0.17194
  -1  -5   0 6246.02  142.86   1-0.33877 0.18030-0.04785-0.29077-0.93964 0.93964
   1   5   0 5790.05  147.13   1-0.57495 0.73359 0.47568-0.13673-0.66569 0.66569
   1   5   110220.72  260.31   1-0.74864 0.92340 0.52827-0.18206 0.40057-0.33788
   1   5   1 9766.96  193.66   1-0.46512 0.63978 0.57862-0.23211-0.66996 0.73266
  -1  -5  -1 9598.71  192.13   1-0.95391 0.77930 0.22070-0.56735 0.20332-0.26605
  -1  -5  -1 9737.39  225.20   1-0.45336 0.27886 0.16408-0.51057-0.87609 0.81335
   1   5   110065.15  230.50   1-0.60402 0.77861 0.61860-0.27270-0.50247 0.56513
   1   5   3 4715.18  292.40   1-0.75781 0.96480 0.51293-0.15111 0.40324-0.21519
  -1  -5  -3 4146.06  278.39   1-0.55345 0.34638 0.40528-0.76764-0.72762 0.53921
   1   5   3 3943.37  239.53   1-0.59877 0.80554 0.76085-0.39868-0.25014 0.43834
   1   5   4 1919.34  150.30   1-0.75394 0.97705 0.51948-0.14985 0.40212-0.15138
  -1  -5  -4 2431.93  200.99   1-0.57201 0.34890 0.46544-0.83566-0.67539 0.42418
   1   5   518705.80  635.10   1-0.74455 0.98377 0.53492-0.15748 0.39936-0.08593
  -1  -5  -519135.55  674.51   1-0.58248 0.34325 0.50351-0.88155-0.63810 0.32409
   1   5   6 3065.59  217.99   1-0.72931 0.98464 0.55880-0.17356 0.39475-0.01865
  -1  -5  -6 4049.24  244.40   1-0.58824 0.33289 0.52694-0.91279-0.61343 0.23661
   1   5   713011.64  349.76   1-0.70743 0.97885 0.59096-0.19805 0.38767 0.05116
  -1  -5  -712548.11  395.11   1-0.59129 0.31982 0.54036-0.93403-0.59864 0.15902
   1   5   8 5409.35  216.57   1-0.67784 0.96535 0.63056-0.22985 0.37804 0.12348
  -1  -5  -8 6286.34  307.32   1-0.59265 0.30506 0.54666-0.94815-0.59153 0.08911
   1   5   9  229.29   79.13   1-0.63859 0.94222 0.67761-0.26910 0.36472 0.19950
  -1  -5  -9  500.07  214.07   1-0.59286 0.28915 0.54764-0.95694-0.59041 0.02519
  -1  -5 -10  181.78  144.51   1-0.59218 0.27236 0.54447-0.96159-0.59402-0.03400
  -1  -5 -11  128.58  106.45   1-0.59074 0.25480 0.53790-0.96284-0.60138-0.08943
   1   6 -13 2935.96  205.57   1-0.85270 0.80822 0.46005-0.15588-0.24748-0.56786
   1   6 -12  163.96   94.17   1-0.86521 0.83678 0.44928-0.13723-0.22258-0.53004
   1   6 -11 1666.87  180.43   1-0.87588 0.86350 0.43918-0.11927-0.19987-0.49003
  -1  -6  11 1413.27  187.69   1 0.55718-0.54459-0.83003 0.50990 0.02443 0.66589
  -1  -6  10   58.66   39.06   1 0.03777-0.04115-0.99212 0.66342-0.11945 0.74710
   1   6 -10   83.32  114.71   1-0.88466 0.88824 0.43030-0.10251-0.17946-0.44779
  -1  -6  10   95.87   64.00   1 0.54003-0.54353-0.84083 0.51286-0.03691 0.66448
   1   6  -910133.33  328.71   1-0.18679 0.20630 0.96474-0.62902 0.18539-0.74951
   1   6  -9 9433.12  394.14   1-0.89178 0.91142 0.42233-0.08668-0.16230-0.40223
  -1  -6   910907.64  374.87   1 0.51864-0.53822-0.84863 0.51282-0.10400 0.66882
   1   6  -8 3002.37  269.81   1-0.31143 0.34704 0.91987-0.57635 0.23841-0.73985
   1   6  -8 3183.32  286.31   1-0.89712 0.93281 0.41597-0.07244-0.14879-0.35301
  -1  -6   8 4100.13  325.97   1 0.49156-0.52722-0.85233 0.50866-0.17859 0.68065
   1   6  -7  962.03  122.26   1-0.41544 0.46714 0.86523-0.51394 0.28067-0.71946
  -1  -6   7  585.15  142.23   1 0.45631-0.50818-0.84992 0.49823-0.26345 0.70250
   1   6  -6  129.02   45.22   1-0.50085 0.56865 0.80650-0.44742 0.31414-0.69025
   1   6  -6  184.67  112.34   1-0.90171 0.96951 0.41016-0.05091-0.13665-0.23970
  -1  -6   6   77.07   54.70   1 0.40997-0.47791-0.83785 0.47829-0.36044 0.73677
   1   6  -5 1303.17  201.44   1-0.57002 0.65390 0.74788-0.38094 0.34021-0.65367
   1   6  -5 1324.78  161.58   1-0.90009 0.98394 0.41224-0.04512-0.14098-0.17264
  -1  -6   5 1198.42  147.05   1 0.34760-0.43147-0.81000 0.44269-0.47228 0.78603
   1   6  -5  969.96   82.92   1-0.07554 0.15927-0.42587 0.79308-0.90162 0.58791
   1   6  -4 1241.10  228.83   1-0.62526 0.72524 0.69238-0.31765 0.36006-0.61083
   1   6  -4 1226.20  123.52   1-0.89454 0.99445 0.41909-0.04410-0.15539-0.09550
  -1  -6   4 1225.69  205.67   1 0.26126-0.36117-0.75598 0.38082-0.60019 0.85119
   1   6  -4 1009.53   84.60   1-0.17486 0.27477-0.29654 0.67169-0.93887 0.68798
   1   6  -376158.44 4127.82   1-0.66848 0.78457 0.64230-0.25976 0.37492-0.56300
   1   6  -372687.82 1774.14   1-0.88276 0.99877 0.43214-0.04925-0.18435-0.00380
  -1  -6   375950.86 4102.22   1 0.14447-0.26059-0.66124 0.27830-0.73612 0.92446
   1   6  -371225.40 1715.90   1-0.29332 0.40927-0.12169 0.50477-0.94823 0.76006
   1   6  -2 5098.44  211.00   1-0.70153 0.83371 0.59918-0.20884 0.38578-0.51117
   1   6  -2 4847.76  293.48   1-0.86014 0.99221 0.45378-0.06302-0.23288 0.10744
  -1  -6   2 4510.54  273.68   1-0.94490 0.81289 0.17086-0.56175 0.27921-0.15371
  -1  -6   2 4951.95  157.67   1-0.00053-0.13137-0.51326 0.12267-0.85823 0.98371
   1   6  -2 4874.93  163.52   1-0.41404 0.54590 0.08672 0.30429-0.90611 0.78063
   1   6  -1 2904.14  210.68   1-0.72601 0.87422 0.56379-0.16552 0.39374-0.45642
   1   6  -1 2862.09  184.90   1-0.81652 0.96464 0.48618-0.08755-0.31129 0.24857
  -1  -6   1 2755.01  182.14   1-0.94306 0.79498 0.16394-0.56269 0.28938-0.22663
  -1  -6   1 3046.87  195.14   1-0.15729 0.00928-0.32028-0.07823-0.93417 0.99689
   1   6  -1 2804.80  179.79   1-0.51186 0.66007 0.29507 0.10378-0.80679 0.74399
   1   6   058959.59 1464.50   1-0.74323 0.90756 0.53705-0.13097 0.39896-0.39896
   1   6   059412.54 1435.48   1-0.72765 0.89195 0.53061-0.12429-0.43471 0.43471
  -1  -6   055311.22 1336.01   1-0.93616 0.77201 0.14149-0.54810 0.32183-0.32183
  -1  -6   059059.59 1434.95   1-0.29659 0.13249-0.11653-0.28981-0.94786 0.94786
   1   6   056716.00 1377.10   1-0.57270 0.73696 0.46782-0.06108-0.67316 0.67316
   1   6   1  315.13   56.30   1-0.75426 0.93470 0.51894-0.10505 0.40221-0.33953
   1   6   1  798.65   60.25   1-0.52450 0.70482 0.57453-0.16029-0.62833 0.69103
  -1  -6  -1  428.16   75.70   1-0.40061 0.22051 0.06161-0.47585-0.91417 0.85143
   1   6   1  409.23   64.06   1-0.60139 0.78177 0.59391-0.17935-0.53440 0.59720
   1   6   237640.71 1070.16   1-0.75987 0.95643 0.50941-0.08771 0.40383-0.27846
  -1  -6  -235165.66  942.85   1-0.78032 0.58398-0.09637-0.32601 0.61790-0.74342
  -1  -6  -234238.24  959.47   1-0.47006 0.27388 0.19898-0.62096-0.85990 0.73442
   1   6   233230.80  926.46   1-0.60810 0.80440 0.68011-0.25876-0.40944 0.53476
   1   6   323766.02  697.89   1-0.76054 0.97321 0.50825-0.07875 0.40402-0.21597
  -1  -6  -323702.32  696.60   1-0.51283 0.30012 0.29743-0.72756-0.80531 0.61690
   1   6   4 2931.77  180.98   1-0.75650 0.98528 0.51516-0.07785 0.40286-0.15212
  -1  -6  -4 2794.46  251.70   1-0.53957 0.31074 0.36604-0.80399-0.75820 0.50698
   1   6   5   28.50   63.46   1-0.74771 0.99261 0.52979-0.08467 0.40029-0.08687
  -1  -6  -5  221.13  143.26   1-0.55601 0.31105 0.41290-0.85867-0.72135 0.40733
   1   6   6 1007.62  123.23   1-0.73388 0.99489 0.55178-0.09885 0.39615-0.02004
  -1  -6  -6 1018.91  151.68   1-0.56561 0.30463 0.44416-0.89780-0.69483 0.31802
   1   6   7 1450.73  259.61   1-0.71438 0.99150 0.58107-0.12050 0.38987 0.04896
  -1  -6  -7 1127.84  148.06   1-0.57169 0.29460 0.46435-0.92581-0.67641 0.23679
   1   6   8  569.28  203.06   1-0.68837 0.98159 0.61690-0.14853 0.38152 0.12001
  -1  -6  -8  632.69  172.77   1-0.57512 0.28190 0.47626-0.94554-0.66513 0.16271
   1   6   9  116.23   55.56   1-0.65441 0.96373 0.65933-0.18315 0.37016 0.19406
  -1  -6  -9  220.19  151.40   1-0.57668 0.26735 0.48185-0.95895-0.65972 0.09450
  -1  -6 -10  685.01  222.08   1-0.57685 0.25140 0.48247-0.96738-0.65913 0.03110
  -1  -6 -11 5450.82  403.66   1-0.57589 0.23432 0.47901-0.97174-0.66248-0.02834
   1   7 -13 1788.94  227.21   1-0.85470 0.81586 0.45840-0.08648-0.24361-0.57173
   1   7 -12  582.74  210.25   1-0.86642 0.84363 0.44819-0.06839-0.22009-0.53253
   1   7 -11 5978.27  399.93   1-0.87635 0.86961 0.43871-0.05105-0.19883-0.49107
  -1  -7  11 5025.74  324.71   1 0.54428-0.53735-0.83860 0.45073-0.02246 0.71279
   1   7 -10 1458.88  118.72   1-0.15820 0.16731 0.97214-0.57656 0.17293-0.79973
   1   7 -10 1324.24  197.20   1-0.88446 0.89367 0.43051-0.03498-0.17992-0.44734
  -1  -7  10 1778.08  160.21   1 0.52403-0.53319-0.84714 0.45143-0.08790 0.71547
   1   7  -9  710.47   85.15   1-0.28356 0.30877 0.93175-0.52838 0.22675-0.79086
   1   7  -9  739.43  134.88   1-0.89095 0.91622 0.42330-0.01990-0.16435-0.40017
  -1  -7   9  784.48  138.99   1 0.49893-0.52418-0.85188 0.44832-0.15922 0.72404
   1   7  -8 1936.12  136.84   1-0.38798 0.42928 0.88134-0.47020 0.26963-0.77111
   1   7  -8 1665.80  137.93   1-0.89567 0.93699 0.41773-0.00647-0.15252-0.34928
  -1  -7   8 1880.07  260.96   1 0.46720-0.50867-0.85140 0.43978-0.23838 0.74015
   1   7  -7  910.18  171.69   1-0.47412 0.53152 0.82637-0.40744 0.30382-0.74261
   1   7  -7  990.58  138.07   1-0.89847 0.95585 0.41429 0.00484-0.14526-0.29381
  -1  -7   7  952.30  138.10   1 0.42718-0.48472-0.84332 0.42383-0.32607 0.76511
   1   7  -6   -6.63   48.97   1-0.54462 0.61812 0.77072-0.34398 0.33071-0.70682
   1   7  -6  233.90  179.86   1-0.89905 0.97247 0.41357 0.01342-0.14375-0.23259
  -1  -7   6   92.40   34.49   1 0.37556-0.44917-0.82399 0.39664-0.42424 0.80057
   1   7  -5  175.73   56.26   1-0.60159 0.69117 0.71722-0.28263 0.35167-0.66513
   1   7  -5  344.85   74.59   1-0.89680 0.98628 0.41636 0.01850-0.14962-0.16400
  -1  -7   5   55.69   56.72   1 0.30886-0.39835-0.78774 0.35267-0.53297 0.84671
   1   7  -4  295.55   71.31   1-0.64711 0.75279 0.66788-0.22549 0.36766-0.61843
   1   7  -4  103.32   69.94   1-0.89060 0.99614 0.42370 0.01902-0.16522-0.08568
  -1  -7   4  117.64   45.45   1 0.22187-0.32759-0.72680 0.28396-0.65002 0.90113
   1   7  -4  108.24   46.58   1-0.26174 0.36726-0.17048 0.61352-0.94996 0.69907
   1   7  -313060.46  416.62   1-0.68280 0.80459 0.62418-0.17398 0.37969-0.56776
   1   7  -313548.36  436.06   1-0.87822 0.99988 0.43684 0.01379-0.19467 0.00651
  -1  -7   313546.71  408.71   1 0.11313-0.23493-0.63207 0.18138-0.76659 0.95493
   1   7  -312581.54  379.35   1-0.36037 0.48195-0.01107 0.46188-0.93274 0.74457
   1   7  -212343.75  401.56   1-0.71017 0.84806 0.58709-0.12909 0.38854-0.51393
   1   7  -213188.08  410.66   1-0.85545 0.99316 0.45778 0.00072-0.24215 0.11671
  -1  -7   211798.30  355.13   1-0.01201-0.12551-0.50039 0.04210-0.86571 0.99119
   1   7  -211399.95  343.02   1-0.45288 0.59034 0.16310 0.29566-0.87652 0.75104
   1   7  -112173.40  396.20   1-0.73048 0.88437 0.55701-0.09106 0.39511-0.45780
   1   7  -113412.34  409.68   1-0.81320 0.96697 0.48827-0.02190-0.31665 0.25393
  -1  -7   111272.50  343.76   1-0.91580 0.76208 0.09156-0.55808 0.39103-0.32828
  -1  -7   112022.17  362.39   1-0.14169-0.01192-0.34097-0.12526-0.92933 0.99205
   1   7  -111667.01  360.59   1-0.52630 0.68015 0.33102 0.13562-0.78321 0.72041
   1   7   025286.95  751.67   1-0.74474 0.91474 0.53462-0.06086 0.39941-0.39941
   1   7   025435.48  709.90   1-0.73065 0.90061 0.52946-0.05542-0.43106 0.43106
  -1  -7   023667.44  661.09   1-0.89552 0.72572 0.05296-0.52734 0.44184-0.44184
  -1  -7   024726.37  705.41   1-0.25894 0.08921-0.17471-0.29936-0.94995 0.94995
   1   7   023440.40  666.82   1-0.57427 0.74416 0.47327 0.00125-0.66799 0.66799
   1   7   1 4149.55  202.55   1-0.75375 0.93987 0.51980-0.03823 0.40206-0.33938
   1   7   1 4375.77  161.53   1-0.54847 0.73444 0.57193-0.08996-0.60997 0.67268
  -1  -7  -1 4278.87  159.23   1-0.84065 0.65483-0.02759-0.45476 0.54087-0.60363
  -1  -7  -1 4102.46  195.24   1-0.35359 0.16781-0.02275-0.45908-0.93512 0.87239
   1   7   2   -3.85    6.05   1-0.01050 0.21246 0.52458-0.03506-0.85129 0.97654
   1   7   328208.31  772.40   1-0.75808 0.97643 0.51247-0.01529 0.40332-0.21526
  -1  -7  -327131.32  733.65   1-0.47015 0.25228 0.19916-0.69663-0.85982 0.67160
   1   7   415973.82  400.38   1-0.75390 0.98836 0.51954-0.01455 0.40211-0.15137
  -1  -7  -415137.87  384.00   1-0.50177 0.26729 0.27105-0.77678-0.82143 0.57022
   1   7   5 1151.98  106.81   1-0.74548 0.99606 0.53341-0.02061 0.39963-0.08621
  -1  -7  -5 1308.03  155.17   1-0.52334 0.27274 0.32349-0.83704-0.78832 0.47431
   1   7   6  168.28   62.95   1-0.73256 0.99925 0.55382-0.03321 0.39575-0.01964
  -1  -7  -6  264.11  106.33   1-0.53763 0.27090 0.36077-0.88213-0.76209 0.38527
   1   7   7 1333.95  285.73   1-0.71460 0.99742 0.58075-0.05253 0.38994 0.04889
  -1  -7  -7 1048.18  168.70   1-0.54694 0.26409 0.38648-0.91566-0.74261 0.30299
   1   7   8  314.43   99.37   1-0.69092 0.98984 0.61353-0.07751 0.38235 0.11918
  -1  -7  -8  390.38  124.61   1-0.55277 0.25379 0.40329-0.94028-0.72924 0.22682
   1   7   9 1972.78  414.26   1-0.66036 0.97538 0.65222-0.10840 0.37218 0.19204
  -1  -7  -9 2539.56  236.30   1-0.55608 0.24097 0.41310-0.95791-0.72119 0.15596
  -1  -7 -10 3909.43  303.76   1-0.55747 0.22624 0.41730-0.96993-0.71768 0.08965
   1   8 -12   37.11   96.86   1-0.86516 0.84802 0.44933-0.00178-0.22268-0.52994
  -1  -8  12   67.26   57.10   1 0.55089-0.53354-0.83457 0.38682 0.00096 0.75212
   1   8 -11 1246.85  245.37   1-0.87443 0.87334 0.44061 0.01480-0.20303-0.48687
  -1  -8  11 1183.64  232.05   1 0.53214-0.53088-0.84432 0.38872-0.06269 0.75302
   1   8 -10   83.92   61.88   1-0.24286 0.25767 0.94716-0.48393 0.20951-0.83631
   1   8 -10  459.52  156.05   1-0.88199 0.89695 0.43294 0.03033-0.18611-0.44107
  -1  -8  10   66.89   39.33   1 0.50924-0.52406-0.85059 0.38714-0.13102 0.75860
   1   8  -9 7713.59  415.14   1-0.34964 0.38055 0.90173-0.43069 0.25422-0.81833
   1   8  -9 8230.78  488.19   1-0.88779 0.91868 0.42687 0.04426-0.17204-0.39249
  -1  -8   9 8508.51  631.77   1 0.48085-0.51192-0.85237 0.38083-0.20550 0.76999
   1   8  -8  528.41   90.97   1-0.43828 0.48528 0.85084-0.37206 0.28976-0.79123
   1   8  -8  290.69  115.81   1-0.89186 0.93881 0.42224 0.05676-0.16210-0.33970
   1   8  -7 6452.89  463.45   1-0.51123 0.57433 0.79839-0.31181 0.31811-0.75690
   1   8  -7 6600.76  312.75   1-0.89398 0.95698 0.41976 0.06710-0.15682-0.28226
  -1  -8   7 5420.12  326.96   1 0.40265-0.46586-0.83522 0.34794-0.37452 0.81357
   1   8  -6 4977.26  373.42   1-0.57085 0.65003 0.74710-0.25265 0.34052-0.71667
   1   8  -6 5091.13  229.80   1-0.89378 0.97284 0.41999 0.07474-0.15731-0.21904
  -1  -8   6 4402.43  433.37   1 0.34868-0.42774-0.81057 0.31559-0.47051 0.84701
   1   8  -5 1180.74  191.11   1-0.61924 0.71452 0.69885-0.19660 0.35795-0.67141
   1   8  -5 1591.30  175.28   1-0.89064 0.98575 0.42366 0.07894-0.16512-0.14850
  -1  -8   5 1349.82  215.87   1 0.28057-0.37568-0.76941 0.26658-0.57382 0.88757
   1   8  -4 3044.29  306.86   1-0.65796 0.76935 0.65510-0.14504 0.37137-0.62214
   1   8  -4 2530.28  187.67   1-0.88331 0.99457 0.43155 0.07895-0.18308-0.06779
  -1  -8   4 2880.55  161.34   1 0.19661-0.30800-0.70646 0.19587-0.67988 0.93100
   1   8  -3  573.66  129.28   1-0.68844 0.81592 0.61682-0.09896 0.38154-0.56961
   1   8  -3  188.42   46.70   1-0.86969 0.99700 0.44515 0.07322-0.21323 0.02507
  -1  -8   3  384.98   69.66   1 0.09728-0.22474-0.61677 0.09833-0.78110 0.96944
   1   8  -214612.84  570.43   1-0.71188 0.85547 0.58466-0.05900 0.38908-0.51447
   1   8  -214857.27  431.30   1-0.84557 0.98892 0.46574 0.06050-0.26093 0.13550
  -1  -8   213867.91  388.97   1-0.01171-0.13144-0.50073-0.02524-0.86552 0.99100
   1   8  -1  380.30   63.92   1-0.72931 0.88888 0.55880-0.02517 0.39475-0.45744
   1   8  -1  618.57   73.59   1-0.80238 0.96178 0.49481 0.03930-0.33367 0.27095
  -1  -8   1  280.77   54.96   1-0.87703 0.71774 0.02310-0.55754 0.47987-0.41711
  -1  -8   1  535.38   78.13   1-0.12221-0.03702-0.36631-0.16764-0.92243 0.98515
   1   8   0 1332.78  129.06   1-0.74150 0.91718 0.53981 0.00162 0.39845-0.39845
   1   8   0 1332.98   96.31   1-0.72102 0.89665 0.53309 0.00865-0.44265 0.44265
  -1  -8   0  990.87   81.21   1-0.84059 0.66522-0.02767-0.51462 0.54095-0.54095
  -1  -8   0 1172.33  110.85   1-0.22468 0.04941-0.22653-0.31521-0.94773 0.94773
   1   8   178520.43 1930.86   1-0.54669 0.73832 0.57214-0.02245-0.61136 0.67407
  -1  -8  -176393.33 1879.54   1-0.75338 0.56187-0.12335-0.42671 0.64590-0.70866
  -1  -8  -181949.97 2052.73   1-0.30951 0.11809-0.09591-0.45364-0.94604 0.88332
   1   8   211194.72  319.40   1-0.75250 0.96041 0.52188 0.03517 0.40170-0.27633
  -1  -8  -211240.73  302.60   1-0.37594 0.16855 0.01695-0.57443-0.92648 0.80100
   1   8   3 5808.07  226.49   1-0.75200 0.97603 0.52271 0.04214 0.40155-0.21350
  -1  -8  -3 6397.81  240.26   1-0.42585 0.20238 0.10933-0.67455-0.89816 0.70994
   1   8   4 1267.86  101.95   1-0.74768 0.98782 0.52983 0.04283 0.40029-0.14955
  -1  -8  -4 1648.76  140.61   1-0.46193 0.22238 0.18183-0.75479-0.86807 0.61711
   1   8   5  219.65  109.42   1-0.73947 0.99572 0.54304 0.03743 0.39784-0.08442
  -1  -8  -5  238.56   87.21   1-0.48679 0.23055 0.23680-0.81812-0.84080 0.52679
   1   8   6   63.67   63.09   1-0.72713 0.99949 0.56211 0.02617 0.39408-0.01798
  -1  -8  -6  225.22  146.70   1-0.50474 0.23237 0.27803-0.86718-0.81727 0.44045
   1   8   7  159.35   82.72   1-0.71018 0.99869 0.58708 0.00879 0.38854 0.05029
  -1  -8  -7  369.83  125.17   1-0.51713 0.22863 0.30795-0.90491-0.79858 0.35896
   1   8   8 2093.22  452.03   1-0.68804 0.99266 0.61734-0.01366 0.38141 0.12012
  -1  -8  -8 2891.44  236.60   1-0.52543 0.22081 0.32878-0.93356-0.78474 0.28232
   1   8   9  101.67   69.90   1-0.65974 0.98046 0.65296-0.04148 0.37197 0.19225
  -1  -8  -9  563.80  178.08   1-0.53065 0.20991 0.34226-0.95486-0.77540 0.21018
   1   9 -12 1680.19  238.96   1-0.86164 0.85015 0.45246 0.06282-0.22986-0.52276
  -1  -9  12 1190.35  132.76   1 0.54202-0.53034-0.83981 0.32432-0.03020 0.78329
   1   9 -11 1000.32  265.58   1-0.87029 0.87485 0.44458 0.07857-0.21194-0.47796
  -1  -9  11  737.13  190.97   1 0.52136-0.52577-0.84792 0.32458-0.09593 0.78626
   1   9 -10   64.56   48.60   1-0.30165 0.32215 0.92417-0.39328 0.23433-0.86112
   1   9 -10  174.41  151.28   1-0.87724 0.89784 0.43783 0.09320-0.19686-0.43033
  -1  -9  10  132.67   82.65   1 0.49635-0.51684-0.85208 0.32089-0.16608 0.79366
   1   9  -910610.36  492.90   1-0.39416 0.43076 0.87782-0.33919 0.27213-0.83629
   1   9  -912279.30  490.42   1-0.88244 0.91909 0.43247 0.10642-0.18508-0.37938
  -1  -9   911595.09  408.42   1 0.46570-0.50244-0.85123 0.31189-0.24190 0.80639
   1   9  -8  176.59   88.91   1-0.47065 0.52335 0.82884-0.28242 0.30247-0.80394
   1   9  -8  240.80  115.84   1-0.88578 0.93836 0.42908 0.11766-0.17681-0.32498
  -1  -9   8   60.94   45.56   1 0.42867-0.48148-0.84374 0.29654-0.32299 0.82476
   1   9  -7 2914.39  511.56   1-0.53380 0.60260 0.77996-0.22573 0.32665-0.76544
   1   9  -7 2916.86  166.07   1-0.88710 0.95574 0.42764 0.12697-0.17368-0.26539
  -1  -9   7 3081.65  287.35   1 0.38342-0.45229-0.82747 0.27240-0.41019 0.84924
   1   9  -6 1169.94  221.50   1-0.58551 0.67038 0.73317-0.17107 0.34586-0.72202
   1   9  -6  966.34  145.75   1-0.88596 0.97065 0.42889 0.13358-0.17640-0.19995
  -1  -9   6 1184.31  228.39   1 0.32860-0.41328-0.79951 0.23678-0.50277 0.87927
   1   9  -5 4155.84  442.74   1-0.62762 0.72860 0.68981-0.11990 0.36089-0.67435
   1   9  -5 4936.82  253.06   1-0.88159 0.98244 0.43336 0.13702-0.18703-0.12656
  -1  -9   5 4118.04  291.00   1 0.26174-0.36247-0.75632 0.18574-0.59954 0.91329
   1   9  -4 1881.94  258.82   1-0.66144 0.77853 0.65091-0.07320 0.37255-0.62332
   1   9  -4 1117.65  136.48   1-0.87280 0.98970 0.44219 0.13606-0.20657-0.04429
  -1  -9   4 1259.88  131.24   1 0.18245-0.29951-0.69460 0.11626-0.69586 0.94698
   1   9  -3  219.82  104.13   1-0.68817 0.82135 0.61717-0.03166 0.38145-0.56953
   1   9  -3   54.03   60.68   1-0.85729 0.99024 0.45622 0.12990-0.23854 0.05038
  -1  -9   3   68.55   40.76   1 0.09222-0.22536-0.61182 0.02563-0.78560 0.97393
   1   9  -2 2277.13  272.03   1-0.70879 0.85808 0.58905 0.00426 0.38810-0.51349
   1   9  -2 1865.06  185.25   1-0.83079 0.97979 0.47664 0.11735-0.28737 0.16193
  -1  -9   2 2018.50  103.85   1-0.00377-0.14499-0.50964-0.08403-0.86037 0.98585
   1   9  -1   81.86   86.18   1-0.72412 0.88951 0.56679 0.03432 0.39291-0.45561
   1   9  -1  124.79   43.94   1-0.78480 0.94985 0.50455 0.09732-0.35986 0.29714
  -1  -9   1  116.51   60.40   1-0.10000-0.06485-0.39451-0.20716-0.91343 0.97615
   1   9   0  582.31  104.33   1-0.73482 0.91617 0.55034 0.05877 0.39643-0.39643
   1   9   0  736.68   86.07   1-0.70072 0.88201 0.54013 0.06933-0.46608 0.46608
  -1  -9   0  436.84   65.44   1-0.77546 0.59446-0.10182-0.50826 0.62312-0.62312
  -1  -9   0  718.19  101.24   1-0.19046 0.00958-0.27504-0.33442-0.94237 0.94237
   1   9   136090.10 1025.92   1-0.52368 0.72096 0.57461 0.04280-0.62894 0.69165
  -1  -9  -138995.00 1144.36   1-0.26779 0.07076-0.16127-0.45600-0.94988 0.88715
   1   9   2  390.81  113.36   1-0.74406 0.95764 0.53572 0.08901 0.39921-0.27384
  -1  -9  -2  159.23   64.86   1-0.33189 0.11879-0.05934-0.56570-0.94144 0.81600
   1   9   3 2231.57  150.92   1-0.74314 0.97284 0.53719 0.09535 0.39894-0.21088
  -1  -9  -3 2583.73  181.14   1-0.38152 0.15244 0.02690-0.65987-0.92396 0.73574
   1   9   4 2571.52  144.69   1-0.73867 0.98448 0.54431 0.09603 0.39760-0.14686
  -1  -9  -4 2765.76  164.19   1-0.41978 0.17462 0.09766-0.73836-0.90235 0.65139
   1   9   5  720.82  137.55   1-0.73054 0.99247 0.55693 0.09122 0.39513-0.08171
  -1  -9  -5  509.17  169.96   1-0.44834 0.18710 0.15386-0.80231-0.88051 0.56682
   1   9   6  618.47  191.93   1-0.71851 0.99662 0.57508 0.08065 0.39117-0.01502
  -1  -9  -6 1173.39  218.22   1-0.46933 0.19200 0.19742-0.85360-0.86067 0.48423
   1   9   7 2558.92  442.55   1-0.70224 0.99646 0.59819 0.06534 0.38601 0.05282
  -1  -9  -7 2825.84  211.98   1-0.48362 0.18948 0.22973-0.89447-0.84459 0.40496
   1   9   8 1485.40  288.13   1-0.68114 0.99146 0.62633 0.04500 0.37914 0.12239
  -1  -9  -8 2615.94  239.62   1-0.49424 0.18398 0.25364-0.92620-0.83149 0.32907
   1  10 -11 8970.11  569.30   1-0.86398 0.87418 0.45039 0.14052-0.22510-0.46480
  -1 -10  11 8886.20  537.28   1 0.51241-0.52248-0.85001 0.25893-0.12204 0.81237
   1  10 -10  106.49   64.67   1-0.34158 0.36778 0.90573-0.30719 0.25090-0.87770
   1  10 -10  280.55  142.31   1-0.87029 0.89654 0.44459 0.15419-0.21195-0.41524
  -1 -10  10   91.77   45.43   1 0.48586-0.51202-0.85242 0.25349-0.19314 0.82071
   1  10  -9  426.15  148.38   1-0.42297 0.46527 0.86059-0.25431 0.28368-0.84784
   1  10  -9  641.16  166.24   1-0.87480 0.91710 0.44024 0.16641-0.20222-0.36224
  -1 -10   9  617.58  184.11   1 0.45373-0.49614-0.84948 0.24236-0.26924 0.83373
   1  10  -8 2710.71  398.95   1-0.49037 0.54878 0.81446-0.20038 0.31011-0.81159
   1  10  -8 3482.63  262.43   1-0.87737 0.93572 0.43769 0.17683-0.19655-0.30519
  -1 -10   8 3149.83  354.44   1 0.41548-0.47395-0.83972 0.22472-0.34962 0.85138
   1  10  -7 3792.80  187.37   1-0.54615 0.62066 0.76938-0.14751 0.33128-0.77007
   1  10  -7 3515.41  209.83   1-0.87773 0.95213 0.43733 0.18506-0.19575-0.24327
  -1 -10   7 3720.01  289.90   1 0.37004-0.44429-0.82122 0.19857-0.43434 0.87359
   1  10  -6  331.58   98.64   1-0.59197 0.68254 0.72685-0.09709 0.34820-0.72436
   1  10  -6  313.35  142.65   1-0.87541 0.96586 0.43964 0.19062-0.20089-0.17541
  -1 -10   6  128.14   64.61   1 0.31536-0.40567-0.79171 0.16122-0.52318 0.89968
   1  10  -5   86.25   54.43   1-0.62943 0.73611 0.68782-0.05026 0.36153-0.67499
   1  10  -5  283.24   95.78   1-0.86959 0.97609 0.44525 0.19289-0.21343-0.10015
  -1 -10   5  118.60   55.84   1 0.25102-0.35738-0.74858 0.11024-0.61367 0.92742
   1  10  -4  299.91  109.88   1-0.65963 0.78241 0.65310-0.00773 0.37193-0.62270
   1  10  -4  127.05   65.04   1-0.85889 0.98143 0.45486 0.19114-0.23538-0.01549
  -1 -10   4   -2.08   39.96   1 0.17697-0.29969-0.68992 0.04384-0.70191 0.95302
   1  10  -3 1910.44  337.60   1-0.68358 0.82246 0.62318 0.02998 0.37994-0.56802
   1  10  -3 1863.45  195.55   1-0.84085 0.97944 0.46935 0.18452-0.26958 0.08143
  -1 -10   3 1878.82  191.30   1 0.09499-0.23379-0.61453-0.03940-0.78314 0.97148
   1  10  -210620.08  474.91   1-0.70210 0.85708 0.59839 0.06257 0.38597-0.51135
   1  10  -211158.31  404.11   1-0.81098 0.96563 0.48965 0.17209-0.32021 0.19477
  -1 -10   210406.41  364.23   1 0.00950-0.16389-0.52437-0.13700-0.85143 0.97691
   1  10  -121254.08  743.81   1-0.71586 0.88695 0.57893 0.08983 0.39034-0.45303
   1  10  -118684.62  608.66   1-0.76045 0.93115 0.51648 0.15313-0.39362 0.33090
  -1 -10   119237.81  635.84   1-0.07688-0.09357-0.42424-0.24491-0.90227 0.96501
   1  10   011560.16  746.98   1-0.72540 0.91244 0.56471 0.11208 0.39355-0.39355
   1  10   010790.86  360.93   1-0.67002 0.85698 0.54938 0.12780-0.49923 0.49923
  -1 -10   010811.43  392.45   1-0.15666-0.02983-0.32112-0.35605-0.93398 0.93398
   1  10   1  940.38   45.80   1-0.47940 0.68234 0.57793 0.10720-0.66042 0.72312
  -1 -10  -1  907.09   96.94   1-0.22857 0.02603-0.22090-0.46407-0.94813 0.88541
   1  10   215665.86  829.25   1-0.73324 0.95251 0.55277 0.13964 0.39596-0.27059
  -1 -10  -214436.98  749.85   1-0.28840 0.06968-0.12942-0.56334-0.94872 0.82327
   1  10   3  846.91  162.55   1-0.73197 0.96735 0.55473 0.14548 0.39557-0.20751
  -1 -10  -3  636.39  120.46   1-0.33800 0.10323-0.04914-0.65138-0.93985 0.75169
   1  10   4  307.88  106.29   1-0.72731 0.97880 0.56183 0.14619 0.39414-0.14340
  -1 -10  -4  114.00   81.28   1-0.37673 0.12596 0.01835-0.72681-0.92613 0.67518
   1  10   5  676.11  171.26   1-0.71916 0.98687 0.57413 0.14145 0.39137-0.07791
  -1 -10  -5  276.80  125.21   1-0.40724 0.14040 0.07394-0.79014-0.91031 0.59662
   1  10   6 1529.94  350.53   1-0.70733 0.99114 0.59111 0.13228 0.38764-0.01149
  -1 -10  -6 1983.58  168.63   1-0.43051 0.14759 0.11839-0.84233-0.89478 0.51834
  -1 -10  -7 7802.53  493.29   1-0.44794 0.14893 0.15304-0.88471-0.88086 0.44169
   1  11 -10  883.53  287.08   1-0.36779 0.39969 0.89240-0.22627 0.26143-0.88827
   1  11 -10 1460.88  207.09   1-0.86108 0.89298 0.45296 0.21357-0.23099-0.39619
  -1 -11  10 1419.41  189.97   1 0.47785-0.50986-0.85225 0.18519-0.21287 0.84008
   1  11  -9  822.61  227.46   1-0.86482 0.91276 0.44964 0.22476-0.22339-0.34107
  -1 -11   9  528.15  196.55   1 0.44521-0.49328-0.84783 0.17291-0.28801 0.85250
   1  11  -8  172.88   65.43   1-0.50086 0.56496 0.80650-0.12477 0.31414-0.81562
   1  11  -8  165.03   91.37   1-0.86647 0.93047 0.44813 0.23413-0.21997-0.28177
  -1 -11   8  220.01  102.44   1 0.40659-0.47072-0.83666 0.15387-0.36698 0.86875
   1  11  -7  753.35  182.95   1-0.55103 0.63123 0.76511-0.07558 0.33310-0.77189
   1  11  -7  410.79  118.58   1-0.86571 0.94576 0.44883 0.24131-0.22154-0.21748
  -1 -11   7  354.06  122.46   1 0.36147-0.44135-0.81709 0.12669-0.44909 0.88834
   1  11  -6  169.20   81.32   1-0.59237 0.68865 0.72645-0.02903 0.34835-0.72450
   1  11  -6  139.78   79.38   1-0.86198 0.95807 0.45217 0.24584-0.22918-0.14713
  -1 -11   6  106.25   52.85   1 0.30831-0.40424-0.78740 0.08915-0.53379 0.91029
   1  11  -5  306.80   97.34   1-0.62631 0.73869 0.69124 0.01398 0.36043-0.67389
   1  11  -5  588.08  123.74   1-0.85434 0.96648 0.45870 0.24718-0.24431-0.06928
  -1 -11   5  572.27  111.70   1 0.24716-0.35913-0.74574 0.03964-0.61869 0.93244
   1  11  -4   82.29  101.81   1-0.65376 0.78225 0.66009 0.05292 0.36994-0.62071
   1  11  -4   73.95   53.97   1-0.84123 0.96943 0.46906 0.24469-0.26888 0.01800
  -1 -11   4  122.34   67.67   1 0.17834-0.30673-0.69110-0.02273-0.70040 0.95152
   1  11  -3 4238.58  660.03   1-0.67560 0.82018 0.63340 0.08742 0.37730-0.56537
   1  11  -3 4060.21  256.60   1-0.81997 0.96421 0.48396 0.23766-0.30565 0.11749
  -1 -11   3 4178.33  247.86   1 0.10365-0.24813-0.62297-0.09871-0.77534 0.96368
   1  11  -2 5592.59  591.99   1-0.69250 0.85319 0.61142 0.11720 0.38286-0.50825
   1  11  -2 4906.46  285.00   1-0.78565 0.94594 0.50410 0.22539-0.35864 0.23320
  -1 -11   2 4852.32  281.59   1 0.02682-0.18684-0.54321-0.18585-0.83916 0.96464
   1  11  -114853.59  543.70   1-0.70505 0.88184 0.59430 0.14213 0.38691-0.44960
   1  11  -113008.49  425.56   1-0.72901 0.90554 0.53009 0.20697-0.43305 0.37034
  -1 -11   113642.48  459.27   1-0.05069-0.12538-0.45569-0.28116-0.88869 0.95143
   1  11   017871.06  641.08   1-0.71368 0.90657 0.58209 0.16214 0.38965-0.38965
  -1 -11   018067.87  587.88   1-0.12280-0.06931-0.36555-0.37934-0.92265 0.92265
  -1 -11  -1 1346.74  208.36   1-0.18910-0.01904-0.27694-0.47575-0.94209 0.87937
   1  11   2  309.67  114.90   1-0.72036 0.94546 0.57236 0.18747 0.39174-0.26636
  -1 -11  -2  224.71   85.47   1-0.24568 0.02133-0.19456-0.56592-0.94962 0.82417
   1  11   3  197.76   64.98   1-0.71875 0.95995 0.57473 0.19290 0.39124-0.20316
  -1 -11  -3  378.52  107.02   1-0.29406 0.05365-0.12053-0.64771-0.94815 0.75998
   1  11   4  424.77  179.69   1-0.71387 0.97118 0.58180 0.19364 0.38971-0.13894
  -1 -11  -4  360.42  125.28   1-0.33363 0.07717-0.05644-0.71956-0.94101 0.69012
   1  11   5 1983.10  553.23   1-0.70565 0.97906 0.59346 0.18978 0.38710-0.07364
  -1 -11  -5 2955.81  231.02   1-0.36531 0.09280-0.00251-0.78125-0.93088 0.61727
   1  12  -8  509.25  165.05   1-0.50432 0.57413 0.80382-0.05444 0.31547-0.81695
   1  12  -8  129.86   97.03   1-0.85286 0.92250 0.45992 0.29010-0.24716-0.25459
  -1 -12   8   90.84   81.29   1 0.40191-0.47171-0.83494 0.08436-0.37593 0.87770
   1  12  -7  965.97  316.60   1-0.55017 0.63607 0.76587-0.00869 0.33278-0.77157
   1  12  -7 1444.68  150.98   1-0.85076 0.93645 0.46163 0.29626-0.25118-0.18784
  -1 -12   7 1095.08  276.77   1 0.35781-0.44331-0.81527 0.05711-0.45529 0.89454
   1  12  -6  472.14  235.25   1-0.58806 0.69004 0.73068 0.03439 0.34679-0.72294
   1  12  -6  427.43  139.12   1-0.84531 0.94705 0.46594 0.29982-0.26141-0.11489
  -1 -12   6  343.89  103.62   1 0.30675-0.40830-0.78643 0.02042-0.53611 0.91261
   1  12  -5  682.66  228.18   1-0.61928 0.73736 0.69881 0.07406 0.35796-0.67142
   1  12  -5  760.09  178.52   1-0.83543 0.95322 0.47334 0.30029-0.27926-0.03433
  -1 -12   5  486.65  172.28   1 0.24907-0.36667-0.74715-0.02669-0.61621 0.92996
   1  12  -4  620.35  173.30   1-0.64461 0.77879 0.67076 0.10991 0.36680-0.61757
   1  12  -4  310.51   95.53   1-0.81936 0.95319 0.48436 0.29715-0.30666 0.05578
  -1 -12   4  531.52  127.94   1 0.18526-0.31932-0.69698-0.08460-0.69274 0.94386
   1  12  -3  439.17  147.66   1-0.66479 0.81508 0.64684 0.14164 0.37368-0.56176
  -1 -12   3  268.26   79.47   1 0.11698-0.26713-0.63573-0.15369-0.76298 0.95132
   1  12  -2 3067.66  509.45   1-0.68043 0.84682 0.62724 0.16904 0.37890-0.50429
   1  12  -2 2574.17  146.93   1-0.75426 0.92035 0.51969 0.27724-0.40125 0.27582
  -1 -12   2 2963.76  172.98   1 0.04740-0.21304-0.56505-0.23170-0.82368 0.94917
   1  12  -1 3494.73  259.01   1-0.69201 0.87450 0.61209 0.19200 0.38270-0.44539
  -1 -12   1 2611.83  157.72   1-0.02280-0.15889-0.48812-0.31642-0.87247 0.93521
   1  12   0  179.58   91.87   1-0.69989 0.89848 0.60143 0.21046 0.38526-0.38526
  -1 -12   0  124.48   68.57   1-0.08850-0.10922-0.40883-0.40379-0.90830 0.90830
  -1 -12  -1 1338.54  120.54   1-0.14989-0.06386-0.33014-0.49026-0.93195 0.86922
   1  12   2 1009.65  286.38   1-0.70557 0.93637 0.59357 0.23392 0.38708-0.26169
  -1 -12  -2  990.98  243.38   1-0.20429-0.02550-0.25567-0.57252-0.94493 0.81948
   1  12   3 3991.58  727.08   1-0.70363 0.95053 0.59628 0.23902 0.38646-0.19838
  -1 -12  -3 4449.86  265.80   1-0.25011 0.00407-0.18797-0.64800-0.94979 0.76162
   1  12   4 2468.39  549.62   1-0.69851 0.96152 0.60331 0.23979 0.38481-0.13404
  -1 -12  -4 2906.81  221.04   1-0.28937 0.02728-0.12791-0.71582-0.94863 0.69774
   1  13  -6  486.65  237.66   1-0.57990 0.68757 0.73857 0.09415 0.34382-0.71998
   1  13  -6  928.03  126.77   1-0.82495 0.93233 0.48066 0.35285-0.29734-0.07896
   1  13  -5 1646.60  442.26   1-0.60898 0.73276 0.70964 0.13089 0.35431-0.66777
   1  13  -5 2196.32  188.06   1-0.81234 0.93577 0.48882 0.35256-0.31805 0.00445
   1  13  -4 8060.24  616.45   1-0.63264 0.77252 0.68428 0.16406 0.36265-0.61342
   1  13  -4 7979.85  408.58   1-0.79258 0.93206 0.50037 0.34888-0.34848 0.09760
   1  13  -3  385.07  109.54   1-0.65152 0.80750 0.66274 0.19340 0.36917-0.55725
  -1 -13   3  140.62   69.77   1 0.13418-0.29000-0.65183-0.20535-0.74639 0.93473
   1  13  -2 3521.27  644.76   1-0.66614 0.83822 0.64519 0.21875 0.37413-0.49952
  -1 -13   2 4156.59  244.54   1 0.07079-0.24204-0.58916-0.27529-0.80490 0.93038
   1  13  -1  278.61  137.07   1-0.67691 0.86510 0.63173 0.24001 0.37774-0.44043
  -1 -13   1  346.11   87.52   1 0.00673-0.19405-0.52132-0.35093-0.85333 0.91607
   1  13   0  275.24  110.24   1-0.68417 0.88846 0.62241 0.25713 0.38014-0.38014
  -1 -13   0  444.86  139.97   1-0.05476-0.14861-0.45086-0.42917-0.89090 0.89090
  -1 -13  -1  926.07  117.09   1-0.11051-0.10886-0.38125-0.50687-0.91783 0.85511
  -2  13   2  263.57  152.49   1-0.86589 0.71141 0.26092 0.63490 0.42678-0.30132
   2 -13  -2  200.34  121.36   1-0.12503 0.28067-0.36268-0.53324-0.92348 0.79804
  -2  13   1   80.95   82.48   1-0.86428 0.69374 0.26646 0.62153 0.42661-0.36388
   2 -13  -1   68.63   79.39   1-0.08348 0.25516-0.41503-0.47310-0.90596 0.84324
  -2  13   0  453.56  138.00   1-0.86105 0.67444 0.27731 0.60286 0.42623-0.42623
   2 -13   0  766.31  160.97   1-0.03979 0.22739-0.46850-0.41154-0.88256 0.88256
  -2  13  -1  120.91   83.64   1-0.95549 0.75241 0.25126 0.62180 0.15457-0.21730
   2 -13   1  291.91  124.21   1 0.00720 0.19646-0.52183-0.35041-0.85301 0.91575
  -2  13  -2  597.39  157.61   1-0.84855 0.62981 0.31593 0.54859 0.42442-0.54989
  -2  13  -2  510.50  147.19   1-0.95549 0.73634 0.25013 0.61509 0.15640-0.28187
   2 -13   2  615.03  152.35   1 0.05572 0.16400-0.57371-0.29074-0.81715 0.94263
  -2  13  -3  203.27   93.99   1-0.83824 0.60317 0.34395 0.51246 0.42314-0.61119
  -2  13  -3  432.82  159.71   1-0.95549 0.72027 0.25284 0.60454 0.15199-0.34019
   2 -13   3  266.65  113.20   1 0.10400 0.13125-0.62330-0.23387-0.77502 0.96336
  -2  13  -4  647.37  210.00   1-0.82456 0.57338 0.37866 0.46994 0.42037-0.67110
  -2  13  -4  372.03  171.50   1-0.95540 0.70411 0.25854 0.59100 0.14267-0.39360
   2 -13   4  152.97   84.17   1 0.15289 0.09845-0.66883-0.18050-0.72751 0.97863
  -2  12   5  662.81  212.25   1-0.87725 0.76528 0.21806 0.63352 0.42763-0.11397
   2 -12  -5  794.51  257.52   1-0.25851 0.37136-0.17536-0.67613-0.94995 0.63634
  -2  12   4 2088.46  205.53   1-0.87960 0.75156 0.20823 0.63552 0.42771-0.17678
   2 -12  -4 1389.98  151.67   1-0.22776 0.35696-0.22206-0.62171-0.94805 0.69716
  -2  12   3 7058.49  242.89   1-0.88070 0.73660 0.20345 0.63248 0.42773-0.23953
   2 -12  -3 8339.91  263.93   1-0.19196 0.33719-0.27296-0.56303-0.94267 0.75451
  -2  12   2 2455.50  216.25   1-0.88060 0.72043 0.20392 0.62418 0.42773-0.30226
   2 -12  -2 1965.77  163.44   1-0.15180 0.31306-0.32761-0.50059-0.93253 0.80709
  -2  12   1  368.39  132.76   1-0.87921 0.70298 0.20987 0.61041 0.42770-0.36497
  -2  12   1   68.07   50.75   1-0.95265 0.77605 0.21017 0.61080 0.21971-0.15698
   2 -12  -1  173.27  109.94   1-0.10760 0.28490-0.38493-0.43547-0.91664 0.85392
  -2  12   0    4.42   75.75   1-0.87639 0.68409 0.22156 0.59090 0.42760-0.42760
  -2  12   0  100.20   83.14   1-0.95174 0.75907 0.20389 0.60925 0.22938-0.22938
   2 -12   0   43.51   70.42   1-0.06083 0.25405-0.44362-0.36872-0.89414 0.89414
  -2  12  -1  349.90  115.86   1-0.95166 0.74293 0.20340 0.60189 0.23013-0.29286
   2 -12   1  125.58   75.68   1-0.01049 0.21977-0.50210-0.30244-0.86474 0.92748
  -2  12  -2 7197.63  315.92   1-0.86517 0.64075 0.26340 0.53341 0.42671-0.55217
  -2  12  -2 6814.44  289.43   1-0.95223 0.72742 0.20715 0.59030 0.22436-0.34983
   2 -12   2 7465.72  324.47   1 0.04148 0.18385-0.55883-0.23793-0.82824 0.95372
  -2  12  -3  555.46  147.63   1-0.85576 0.61527 0.29425 0.49474 0.42553-0.61373
  -2  12  -3  448.62  143.78   1-0.95316 0.71229 0.21412 0.57550 0.21358-0.40178
   2 -12   3  300.18  135.70   1 0.09316 0.14776-0.61274-0.17669-0.78477 0.97311
  -2  12  -4  149.82   70.94   1-0.84279 0.58624 0.33224 0.44893 0.42344-0.67437
  -2  12  -4  423.56  141.57   1-0.95419 0.69725 0.22359 0.55819 0.19879-0.44973
   2 -12   4   72.41   71.76   1 0.14520 0.11180-0.66191-0.11967-0.73538 0.98649
  -2  12  -5  131.57   66.12   1-0.82507 0.55210 0.37742 0.39569 0.42047-0.73390
  -2  12  -5  165.89  127.02   1-0.95504 0.68203 0.23503 0.53891 0.18070-0.49436
   2 -12   5  759.98  203.40   1 0.19582 0.07727-0.70580-0.06792-0.68079 0.99469
  -2  12  -6  978.49  188.53   1-0.80131 0.51223 0.43091 0.33439 0.41496-0.79107
  -2  12  -6  355.30  154.73   1-0.95547 0.66640 0.24803 0.51807 0.15980-0.53620
   2 -12   6  280.70   95.76   1 0.24441 0.04517-0.74369-0.02230-0.62223 0.99873
  -2  11   7  459.55  165.18   1-0.88248 0.79695 0.19559 0.60393 0.42774 0.01138
   2 -11  -7  296.61  130.08   1-0.34006 0.42644-0.04568-0.75359-0.93928 0.50023
  -2  11   6 1834.01  191.31   1-0.88689 0.78530 0.17472 0.61698 0.42764-0.05125
   2 -11  -6 1178.82  384.21   1-0.31704 0.41947-0.08372-0.70780-0.94470 0.56837
  -2  11   5 1346.40  136.06   1-0.88996 0.77231 0.15890 0.62497 0.42744-0.11377
   2 -11  -5 1716.18  159.32   1-0.28946 0.40794-0.12776-0.65600-0.94862 0.63501
  -2  11   4  360.82  149.68   1-0.89189 0.75817 0.14829 0.62776 0.42724-0.17631
   2 -11  -4  916.58  208.71   1-0.25699 0.39152-0.17765-0.59835-0.94994 0.69905
  -2  11   3  421.92  111.04   1-0.89280 0.74301 0.14306 0.62517 0.42712-0.23892
   2 -11  -3  311.76  100.43   1-0.22005 0.37089-0.23320-0.53506-0.94720 0.75903
  -2  11   2  274.10  130.81   1-0.89273 0.72688 0.14345 0.61695 0.42713-0.30166
  -2  11   2  326.05  103.84   1-0.94005 0.77380 0.15356 0.60760 0.30449-0.17900
   2 -11  -2  258.33  108.28   1-0.17754 0.34441-0.29288-0.46760-0.93952 0.81407
  -2  11   1  295.34  138.53   1-0.89163 0.70971 0.14975 0.60283 0.42727-0.36453
  -2  11   1  296.04  114.90   1-0.93837 0.75606 0.14821 0.60509 0.31221-0.24946
   2 -11  -1  684.40  134.92   1-0.13038 0.31329-0.35575-0.39694-0.92544 0.86271
  -2  11   0  334.70  142.37   1-0.88933 0.69135 0.16228 0.58247 0.42749-0.42749
  -2  11   0  164.86   77.86   1-0.93872 0.74033 0.14929 0.59615 0.31065-0.31065
   2 -11   0  255.75  116.60   1-0.07928 0.27821-0.42019-0.32471-0.90396 0.90396
  -2  11  -1  754.88  153.37   1-0.88552 0.67147 0.18142 0.55550 0.42770-0.49043
  -2  11  -1  868.45  157.64   1-0.94046 0.72600 0.15492 0.58265 0.30252-0.36526
   2 -11   1  547.74  171.81   1-0.02599 0.24089-0.48447-0.25238-0.87441 0.93715
  -2  11  -2 2486.02  165.49   1-0.87974 0.64963 0.20761 0.52150 0.42771-0.55318
  -2  11  -2 2452.66  180.70   1-0.94305 0.71252 0.16392 0.56580 0.28942-0.41492
   2 -11   2 2480.72  187.84   1 0.02988 0.20108-0.54649-0.18257-0.83692 0.96241
  -2  11  -3  202.42   99.06   1-0.87131 0.62514 0.24131 0.47997 0.42728-0.61548
  -2  11  -3  318.47  114.16   1-0.94604 0.69944 0.17545 0.54641 0.27242-0.46066
   2 -11   3  105.60   83.27   1 0.08531 0.16128-0.60499-0.11669-0.79164 0.97998
  -2  11  -4 4369.99  296.36   1-0.85930 0.59705 0.28304 0.43042 0.42601-0.67694
  -2  11  -4 4167.17  302.16   1-0.94907 0.68647 0.18895 0.52507 0.25210-0.50303
   2 -11   4 4406.23  315.62   1 0.14077 0.12190-0.65788-0.05595-0.73984 0.99096
  -2  11  -5  169.38   85.75   1-0.84239 0.56408 0.33336 0.37227 0.42337-0.73703
  -2  11  -5  -24.83  105.77   1-0.95175 0.67309 0.20398 0.50219 0.22924-0.54290
   2 -11   5   76.59   69.65   1 0.19430 0.08446-0.70455-0.00143-0.68253 0.99642
  -2  11  -6  968.44  215.85   1-0.81873 0.52397 0.39247 0.30515 0.41908-0.79519
  -2  11  -6  995.47  245.59   1-0.95386 0.65912 0.22022 0.47812 0.20407-0.58047
   2 -11   6 1018.32  270.20   1 0.24522 0.04998-0.74430 0.04605-0.62118 0.99768
  -2  11  -7  822.36  200.08   1-0.78601 0.47513 0.46175 0.22806 0.41104-0.84983
  -2  11  -7  745.97  239.88   1-0.95516 0.64436 0.23741 0.45309 0.17690-0.61603
   2 -11   7  768.22  213.21   1 0.29261 0.01864-0.77741 0.08700-0.55678 0.99603
  -2  11  -8  775.42  273.80   1-0.95546 0.62859 0.25533 0.42733 0.14794-0.64980
   2 -11   8  702.60  335.53   1 0.33631-0.00901-0.80388 0.12132-0.49057 0.99257
  -2  10   8  109.76   79.76   1-0.88910 0.81395 0.16349 0.57615 0.42751 0.07434
   2 -10  -8  132.59  105.17   1-0.38917 0.46523 0.04067-0.78008-0.92026 0.41835
  -2  10   7  711.63  201.93   1-0.89403 0.80282 0.13572 0.59609 0.42694 0.01218
   2 -10  -7  474.55  183.62   1-0.37052 0.46266 0.00738-0.73906-0.92879 0.48961
  -2  10   6  480.71  123.08   1-0.89750 0.79022 0.11321 0.61078 0.42623-0.04983
   2 -10  -6  255.25  111.41   1-0.34784 0.45589-0.03255-0.69124-0.93698 0.56065
  -2  10   5 3036.09  265.85   1-0.89982 0.77648 0.09604 0.62012 0.42554-0.11188
   2 -10  -5 3677.15  311.12   1-0.31973 0.44384-0.07934-0.63670-0.94417 0.63056
  -2  10   4 1691.02  172.69   1-0.90124 0.76183 0.08441 0.62393 0.42500-0.17407
   2 -10  -4 1405.42  220.93   1-0.28615 0.42631-0.13294-0.57533-0.94891 0.69802
  -2  10   3 1761.60  190.95   1-0.90149 0.74541 0.07826 0.62286 0.42565-0.23748
  -2  10   3 1515.25  130.56   1-0.91137 0.75554 0.08245 0.61880 0.40324-0.21499
   2 -10  -3 1453.51  174.09   1-0.24680 0.40301-0.19290-0.50762-0.94967 0.76150
  -2  10   2 1349.56  148.29   1-0.90148 0.72925 0.07841 0.61487 0.42565-0.30021
  -2  10   2 1080.95  100.45   1-0.91023 0.73834 0.08018 0.61321 0.40625-0.28075
   2 -10  -2 1053.58  122.12   1-0.20226 0.37475-0.25853-0.43423-0.94458 0.81914
  -2  10   1 6783.79  325.25   1-0.90114 0.71354 0.08523 0.59964 0.42504-0.36231
  -2  10   1 6357.86  258.08   1-0.91243 0.72446 0.08458 0.60095 0.40039-0.33764
   2 -10  -1 6176.73  280.85   1-0.15175 0.34027-0.32768-0.35729-0.93252 0.86979
  -2  10   0 1062.92  114.17   1-0.89949 0.69583 0.09858 0.57847 0.42565-0.42565
  -2  10   0 1169.29  121.66   1-0.91674 0.71270 0.09354 0.58413 0.38837-0.38837
   2 -10   0 1395.48  152.60   1-0.09666 0.30122-0.39868-0.27849-0.91197 0.91197
  -2  10  -1 5590.04  270.24   1-0.89662 0.67689 0.11921 0.55002 0.42644-0.48917
  -2  10  -1 5885.77  290.33   1-0.92228 0.70217 0.10577 0.56405 0.37175-0.43450
   2 -10   1 5919.91  285.62   1-0.03900 0.25952-0.46942-0.19974-0.88211 0.94485
  -2  10  -2  976.06  127.72   1-0.89200 0.65620 0.14767 0.51373 0.42722-0.55269
  -2  10  -2  818.27  105.46   1-0.92839 0.69221 0.12041 0.54154 0.35153-0.47703
   2 -10   2 1224.48  123.21   1 0.02130 0.21527-0.53725-0.12411-0.84315 0.96863
  -2  10  -3  534.25  104.40   1-0.88486 0.63300 0.18459 0.46899 0.42771-0.61591
  -2  10  -3  892.43  166.91   1-0.93456 0.68231 0.13687 0.51722 0.32840-0.51664
   2 -10   3 1038.90  113.44   1 0.08093 0.17134-0.60061-0.05332-0.79543 0.98376
  -2  10  -4 4515.91  291.13   1-0.87410 0.60617 0.23066 0.41510 0.42747-0.67840
  -2  10  -4 4100.89  282.72   1-0.94040 0.67208 0.15472 0.49152 0.30282-0.55381
   2 -10   4 4187.10  297.03   1 0.14006 0.12828-0.65723 0.01114-0.74055 0.99167
  -2  10  -5  440.70  136.40   1-0.85817 0.57418 0.28664 0.35128 0.42586-0.73953
  -2  10  -5  788.42  174.35   1-0.94559 0.66120 0.17361 0.46476 0.27515-0.58889
   2 -10   5  698.39  142.95   1 0.19660 0.08783-0.70645 0.06821-0.67990 0.99379
  -2  10  -6  585.74  115.46   1-0.83480 0.53436 0.35299 0.27695 0.42248-0.79858
  -2  10  -6  509.17  137.30   1-0.94991 0.64952 0.19326 0.43732 0.24559-0.62198
   2 -10   6  616.97  112.96   1 0.24978 0.05104-0.74767 0.11717-0.61530 0.99179
  -2  10  -7  110.40   52.43   1-0.80110 0.48455 0.43136 0.19077 0.41491-0.85370
  -2  10  -7  185.91  108.13   1-0.95309 0.63663 0.21353 0.40921 0.21450-0.65363
   2 -10   7  304.31   79.57   1 0.29874 0.01813-0.78137 0.15872-0.54790 0.98715
  -2  10  -8  196.49  144.31   1-0.95499 0.62247 0.23423 0.38066 0.18196-0.68382
   2 -10   8  421.09  135.89   1 0.34340-0.01047-0.80776 0.19295-0.47915 0.98115
  -2  10  -9  -75.06  109.69   1-0.95546 0.60687 0.25524 0.35182 0.14808-0.71268
   2 -10   9  690.24  181.51   1 0.38336-0.03474-0.82744 0.22031-0.41032 0.97480
  -2   9   9 1265.95  152.88   1-0.89371 0.82895 0.13763 0.54212 0.42699 0.13760
   2  -9  -9 1090.44  220.97   1-0.43282 0.49841 0.12292-0.80232-0.89305 0.32840
  -2   9   8  301.90  113.93   1-0.89904 0.81820 0.10207 0.56986 0.42580 0.07606
   2  -9  -8 1166.13  311.11   1-0.41870 0.50037 0.09559-0.76726-0.90307 0.40116
  -2   9   7 1040.61  202.35   1-0.90219 0.80507 0.07175 0.59301 0.42531 0.01375
   2  -9  -7  836.72  201.14   1-0.40048 0.49823 0.06137-0.72530-0.91424 0.47507
  -2   9   6  318.18  134.00   1-0.90449 0.79122 0.04724 0.60967 0.42386-0.04752
   2  -9  -6  125.89  112.99   1-0.37748 0.49131 0.01968-0.67587-0.92580 0.54937
  -2   9   5 5349.85  257.23   1-0.90588 0.77646 0.02840 0.62066 0.42258-0.10896
  -2   9   5 5414.24  186.35   1-0.85628 0.72681-0.00690 0.65625 0.51645-0.20264
   2  -9  -5 6517.94  335.66   1-0.34940 0.47914-0.02990-0.61841-0.93649 0.62288
  -2   9   4 3287.28  206.85   1-0.90664 0.76108 0.01543 0.62578 0.42160-0.17071
  -2   9   4 3455.58  157.93   1-0.85302 0.70747-0.01134 0.65284 0.52174-0.27070
   2  -9  -4 3454.46  227.35   1-0.31474 0.46053-0.08745-0.55310-0.94513 0.69424
  -2   9   3  710.27  136.49   1-0.90698 0.74527 0.00861 0.62475 0.42106-0.23289
  -2   9   3  498.42   87.25   1-0.85667 0.69503-0.00638 0.64002 0.51582-0.32754
   2  -9  -3  510.70   93.87   1-0.27345 0.43529-0.15261-0.48018-0.94969 0.76153
  -2   9   212649.74  479.36   1-0.90700 0.72914 0.00829 0.61722 0.42104-0.29559
  -2   9   211735.55  391.82   1-0.86437 0.68666 0.00439 0.62139 0.50283-0.37731
   2  -9  -213023.86  475.00   1-0.22598 0.40409-0.22464-0.40039-0.94787 0.82242
  -2   9   1 1885.56  174.76   1-0.90667 0.71267 0.01490 0.60276 0.42156-0.35884
  -2   9   1 1872.25  110.13   1-0.87438 0.68059 0.01908 0.59885 0.48485-0.42209
   2  -9  -1 2385.47  174.39   1-0.17159 0.36573-0.30099-0.31626-0.93805 0.87533
  -2   9   029758.76  761.88   1-0.90584 0.69569 0.02896 0.58086 0.42262-0.42262
  -2   9   029996.54  736.20   1-0.88569 0.67601 0.03650 0.57341 0.46282-0.46282
   2  -9   032391.66  811.92   1-0.11186 0.32203-0.37954-0.22992-0.91838 0.91838
  -2   9  -1 7940.26  316.73   1-0.90416 0.67787 0.05108 0.55089 0.42410-0.48683
  -2   9  -1 8130.98  300.20   1-0.89718 0.67142 0.05586 0.54619 0.43811-0.50086
   2  -9   1 7891.93  298.93   1-0.04909 0.27523-0.45758-0.14388-0.88780 0.95054
  -2   9  -2 3818.77  207.89   1-0.90148 0.66000 0.08234 0.51135 0.42490-0.55037
  -2   9  -2 3956.93  225.01   1-0.90842 0.66659 0.07663 0.51755 0.41095-0.53645
   2  -9   2 3992.12  203.37   1 0.01630 0.22590-0.53181-0.06186-0.84670 0.97218
  -2   9  -3  331.84   99.46   1-0.89606 0.63852 0.12289 0.46298 0.42656-0.61476
  -2   9  -3  387.53   80.86   1-0.91901 0.66111 0.09843 0.48789 0.38174-0.56999
   2  -9   3  366.88  118.80   1 0.08060 0.17733-0.60028 0.01409-0.79571 0.98404
  -2   9  -4 1006.34  130.87   1-0.88704 0.61342 0.17402 0.40403 0.42764-0.67857
  -2   9  -4  967.60  133.99   1-0.92861 0.65464 0.12096 0.45750 0.35077-0.60176
   2  -9   4 1090.64  142.38   1 0.14366 0.13035-0.66051 0.08217-0.73694 0.98805
  -2   9  -5 1826.32  128.05   1-0.87251 0.58283 0.23681 0.33342 0.42737-0.74103
  -2   9  -5 2282.65  201.38   1-0.93700 0.64696 0.14399 0.42662 0.31826-0.63200
   2  -9   5 1886.14  143.32   1 0.20323 0.08687-0.71189 0.14140-0.67223 0.98613
  -2   9  -6 5699.66  331.77   1-0.84972 0.54398 0.31250 0.24990 0.42461-0.80101
  -2   9  -6 6918.74  451.69   1-0.94398 0.63787 0.16735 0.39540 0.28439-0.66088
   2  -9   6 6468.10  639.61   1 0.25849 0.04795-0.75400 0.19126-0.60386 0.98036
  -2   9  -7 1305.35  170.64   1-0.81458 0.49235 0.40199 0.15246 0.41814-0.85693
  -2   9  -7 1608.45  195.30   1-0.94944 0.62733 0.19085 0.36413 0.24924-0.68837
   2  -9   7 1701.52  193.01   1 0.30872 0.01377-0.78765 0.23276-0.53318 0.97243
  -2   9  -8 1385.72  236.89   1-0.76076 0.42242 0.50787 0.03877 0.40409-0.90556
  -2   9  -8 2802.77  264.45   1-0.95321 0.61503 0.21448 0.33265 0.21303-0.71489
   2  -9   8 1670.23  333.34   1 0.35395-0.01540-0.81331 0.26626-0.46178 0.96377
  -2   9  -9 8014.29  332.12   1-0.95519 0.60094 0.23811 0.30118 0.17577-0.74036
   2  -9   9 7078.62  944.48   1 0.39393-0.03964-0.83184 0.29251-0.39095 0.95543
  -2   9 -10  -36.97  109.10   1-0.95530 0.58498 0.26167 0.26978 0.13752-0.76485
   2  -9  10  207.78  113.53   1 0.42972-0.05937-0.84403 0.31256-0.32082 0.94803
  -2   8  10  900.74  185.56   1-0.89657 0.84219 0.11951 0.50036 0.42645 0.20087
   2  -8 -10  836.58  233.04   1-0.47015 0.52527 0.19918-0.81857-0.85981 0.23242
  -2   8   9  520.72  145.05   1-0.90188 0.83142 0.07474 0.53796 0.42546 0.13904
   2  -8  -9  957.41  258.12   1-0.46037 0.53156 0.17856-0.79022-0.86958 0.30492
  -2   8   8  376.32  128.63   1-0.90535 0.81874 0.03611 0.56873 0.42312 0.07866
   2  -8  -8  413.67  170.10   1-0.44706 0.53434 0.15126-0.75518-0.88161 0.37970
  -2   8   7  717.19  107.27   1-0.90722 0.80447 0.00330 0.59370 0.42063 0.01843
   2  -8  -7  910.95  189.38   1-0.42950 0.53286 0.11642-0.71260-0.89552 0.45635
  -2   8   6 2126.83  139.39   1-0.90802 0.78912-0.02363 0.61279 0.41825-0.04190
  -2   8   6 2148.65   79.38   1-0.72680 0.60778-0.14820 0.73763 0.67066-0.29410
   2  -8  -6 2279.65  173.12   1-0.40683 0.52627 0.07318-0.66161-0.91056 0.53412
  -2   8   5  405.49  122.18   1-0.90818 0.77314-0.04457 0.62588 0.41618-0.10256
  -2   8   5  173.82   50.35   1-0.73975 0.60463-0.13628 0.71784 0.65892-0.34512
   2  -8  -5  229.13  120.28   1-0.37812 0.51364 0.02083-0.60153-0.92551 0.61182
  -2   8   4 2859.39  169.93   1-0.90806 0.75687-0.05926 0.63272 0.41462-0.16372
  -2   8   4 2510.11   98.84   1-0.37514 0.22390 0.57914-0.00582-0.72377 0.97459
  -2   8   4 3351.54  137.32   1-0.75814 0.60691-0.11872 0.69240 0.64119-0.39015
   2  -8  -4 2821.56  212.71   1-0.34287 0.49429-0.04096-0.53186-0.93848 0.68759
  -2   8   3 4588.18  201.53   1-0.90790 0.74056-0.06738 0.63299 0.41372-0.22554
  -2   8   3 3304.42  286.88   1-0.16911 0.00207 0.55848 0.00662-0.81209 0.99997
  -2   8   3 4177.27  157.51   1-0.77985 0.61258-0.09729 0.66315 0.61835-0.43007
   2  -8  -3 4733.35  247.07   1-0.29949 0.46696-0.11193-0.45314-0.94750 0.75934
  -2   8   284668.91 1661.27   1-0.90788 0.72439-0.06851 0.62627 0.41359-0.28814
  -2   8   281788.57 1550.24   1-0.80192 0.61858-0.07361 0.63161 0.59286-0.46734
   2  -8  -282998.33 1628.86   1-0.24812 0.43165-0.19093-0.36638-0.94972 0.82428
  -2   8   117462.00  454.15   1-0.90801 0.70838-0.06211 0.61203 0.41431-0.35158
  -2   8   116205.47  383.81   1-0.82392 0.62449-0.04827 0.59842 0.56464-0.50188
   2  -8  -117207.78  441.94   1-0.18972 0.38947-0.27607-0.27346-0.94222 0.87950
  -2   8   0  182.46  123.53   1-0.90817 0.69239-0.04753 0.58960 0.41587-0.41587
  -2   8   0  150.02   76.20   1-0.84509 0.62959-0.02186 0.56415 0.53417-0.53417
   2  -8   0   39.38   87.72   1-0.12445 0.34024-0.36342-0.17832-0.92327 0.92327
  -2   8  -1 4531.40  211.97   1-0.90803 0.67610-0.02397 0.55819 0.41821-0.48094
  -2   8  -1 3968.18  209.61   1-0.86494 0.63336 0.00521 0.52922 0.50183-0.56459
   2  -8   1 4656.47  228.62   1-0.05564 0.28740-0.44982-0.08395-0.89138 0.95412
  -2   8  -2   85.93   70.12   1-0.90694 0.65887 0.00952 0.51684 0.42114-0.54659
  -2   8  -2  254.80  137.62   1-0.88327 0.63579 0.03261 0.49381 0.46772-0.59321
   2  -8   2  318.18  120.55   1 0.01563 0.23219-0.53108 0.00510-0.84717 0.97265
  -2   8  -3 1248.74  135.45   1-0.90390 0.63968 0.05410 0.46441 0.42429-0.61246
  -2   8  -3 1042.08  155.87   1-0.89962 0.63607 0.06020 0.45835 0.43248-0.62073
   2  -8   3 1246.93  141.18   1 0.08513 0.17847-0.60480 0.08636-0.79180 0.98014
  -2   8  -4 6971.16  233.28   1-0.89774 0.61844 0.11153 0.39882 0.42617-0.67710
  -2   8  -4 7193.69  313.40   1-0.91400 0.63438 0.08780 0.42289 0.39608-0.64707
   2  -8   4 8029.47  279.11   1 0.15231 0.12737-0.66831 0.15772-0.72811 0.97923
  -2   8  -5 6000.19  231.89   1-0.88528 0.58992 0.18259 0.31993 0.42770-0.74137
  -2   8  -5 5816.45  283.01   1-0.92632 0.63063 0.11529 0.38754 0.35864-0.67238
   2  -8   5 5967.13  258.33   1 0.21478 0.08099-0.72120 0.21846-0.65858 0.97247
  -2   8  -6  263.46   74.10   1-0.86337 0.55194 0.26956 0.22513 0.42651-0.80291
  -2   8  -6  495.15  177.96   1-0.93653 0.62477 0.14259 0.35239 0.32027-0.69676
   2  -8   6  216.14   77.80   1 0.27179 0.04027-0.76339 0.26841-0.58596 0.96246
  -2   8  -7 3277.64  204.20   1-0.82639 0.49848 0.37420 0.11258 0.42076-0.85955
   2  -8   7 3722.69  506.06   1 0.32281 0.00531-0.79615 0.30901-0.51179 0.95104
  -2   8  -8 3227.45  138.35   1-0.76506 0.42104 0.50040-0.02142 0.40531-0.90678
  -2   8  -8 3767.23  268.98   1-0.95046 0.60663 0.19628 0.28309 0.24100-0.74286
   2  -8   8 2930.63  389.98   1 0.36807-0.02390-0.82029 0.34100-0.43776 0.93975
  -2   8  -9 1250.53  254.22   1-0.95410 0.59420 0.22267 0.24887 0.20024-0.76484
   2  -8   9 1012.25  224.55   1 0.40756-0.04761-0.83700 0.36546-0.36511 0.92960
   2  -8  10  389.27  164.39   1 0.44249-0.06647-0.84724 0.38356-0.29390 0.92111
  -2   8 -11  281.18  134.20   1-0.95455 0.56251 0.27430 0.18156 0.11654-0.80660
   2  -8  11  144.96  117.97   1 0.47297-0.08089-0.85194 0.39613-0.22469 0.91462
  -2   7  11 3802.87  234.40   1-0.89778 0.85377 0.11120 0.44879 0.42615 0.26390
   2  -7 -11 3438.79  267.40   1-0.50036 0.54451 0.26777-0.82821-0.82336 0.13253
  -2   7  10  449.52  125.66   1-0.90374 0.84380 0.05595 0.49684 0.42440 0.20283
   2  -7 -10 1008.70  243.92   1-0.49448 0.55475 0.25419-0.80682-0.83118 0.20315
  -2   7   9  445.32  105.48   1-0.90704 0.83095 0.00744 0.53750 0.42097 0.14353
   2  -7  -9  304.34  131.77   1-0.48576 0.56216 0.23451-0.77932-0.84204 0.27681
  -2   7   8 9815.46  541.90   1-0.90816 0.81592-0.03482 0.57192 0.41716 0.08462
   2  -7  -810548.02  596.95   1-0.47414 0.56703 0.20773-0.74390-0.85558 0.35367
  -2   7   7  444.73  102.74   1-0.90781 0.79944-0.07094 0.60019 0.41331 0.02574
   2  -7  -7  305.78   39.41   1 0.50129-0.39280 0.31386-0.84292-0.80634 0.36766
   2  -7  -7  538.42  172.77   1-0.45752 0.56648 0.17265-0.70108-0.87227 0.43309
  -2   7   6 9980.22  369.06   1-0.90662 0.78210-0.10085 0.62225 0.40970-0.03336
   2  -7  -6 9968.54  306.96   1 0.54364-0.41905 0.28767-0.80886-0.78847 0.41246
  -2   7   6 8198.79  261.69   1-0.75648 0.63169 0.51828 0.00318-0.39889 0.77520
   2  -7  -6 9906.06  406.81   1-0.43548 0.56053 0.12815-0.64884-0.89102 0.51458
  -2   7   5 4317.99  203.78   1-0.90509 0.76442-0.12441 0.63797 0.40658-0.09297
  -2   7   5 3879.49  123.05   1-0.58133 0.44086 0.56829-0.05503-0.58231 0.89588
  -2   7   5 4531.93  146.08   1-0.58835 0.44759-0.25736 0.77114 0.76655-0.45275
   2  -7  -5 5146.18  236.41   1-0.40681 0.54793 0.07313-0.58608-0.91057 0.59688
  -2   7   4 9912.59  353.80   1-0.90368 0.74686-0.14136 0.64706 0.40419-0.15330
  -2   7   4 7802.07  232.95   1-0.37982 0.22293 0.57927-0.07367-0.72123 0.97204
  -2   7   4 9250.68  289.67   1-0.63436 0.47750-0.22422 0.73013 0.73979-0.48876
   2  -7  -4 9481.81  363.23   1-0.37021 0.52742 0.00683-0.51204-0.92892 0.67796
  -2   7   3 3436.72  252.96   1-0.90272 0.72975-0.15131 0.64916 0.40273-0.21456
  -2   7   3 3442.91  223.67   1-0.17498 0.00228 0.55943-0.06200-0.81019 0.99807
  -2   7   3 3866.20  168.95   1-0.67898 0.50602-0.18931 0.68734 0.70932-0.52104
   2  -7  -3 4134.78  206.82   1-0.32500 0.49810-0.07071-0.42663-0.94306 0.75489
  -2   7   217283.28  615.48   1-0.90247 0.71335-0.15375 0.64376 0.40237-0.27692
  -2   7   216350.33  568.92   1-0.72091 0.53185-0.15350 0.64366 0.67581-0.55029
   2  -7  -217063.29  607.80   1-0.26977 0.45892-0.15826-0.33132-0.94982 0.82438
  -2   7   1 4731.95  233.19   1-0.90304 0.69778-0.14804 0.63020 0.40322-0.34049
  -2   7   1 4663.26  212.20   1-0.75995 0.55489-0.11739 0.59975 0.63929-0.57653
   2  -7  -1 4407.32  221.27   1-0.20586 0.41122-0.25346-0.22835-0.94518 0.88246
  -2   7   0 4406.09  225.80   1-0.90438 0.68298-0.13333 0.60764 0.40534-0.40534
  -2   7   0 4455.33  225.82   1-0.79468 0.57354-0.08156 0.55607 0.60152-0.60152
   2  -7   0 5005.05  244.31   1-0.13385 0.35525-0.35123-0.12279-0.92666 0.92666
  -2   7  -1   27.96   67.14   1-0.90618 0.66862-0.10859 0.57505 0.40870-0.47143
  -2   7  -1  155.28   86.79   1-0.82563 0.58841-0.04622 0.51288 0.56231-0.62507
   2  -7   1   25.63   84.38   1-0.05777 0.29515-0.44728-0.01879-0.89252 0.95526
  -2   7  -2 9488.67  367.75   1-0.90777 0.65407-0.07253 0.53114 0.41313-0.53858
  -2   7  -2 8268.02  355.06   1-0.85287 0.59957-0.01155 0.47035 0.52199-0.64751
   2  -7   2 8886.81  352.92   1 0.02033 0.23310-0.53620 0.07791-0.84384 0.96932
  -2   7  -3 4325.29  177.38   1-0.90802 0.63817-0.02355 0.47431 0.41825-0.60642
  -2   7  -3 4815.03  263.79   1-0.87655 0.60717 0.02236 0.42857 0.48078-0.66906
   2  -7   3 3983.73  181.90   1 0.09556 0.17371-0.61509 0.16440-0.78263 0.97097
  -2   7  -421898.52  607.64   1-0.90504 0.61904 0.04030 0.40260 0.42340-0.67430
  -2   7  -421455.81  630.89   1-0.89691 0.61165 0.05539 0.38753 0.43871-0.68970
   2  -7   422417.23  643.40   1 0.16690 0.11846-0.68121 0.23837-0.71280 0.96392
  -2   7  -552773.84 1036.53   1-0.89621 0.59516 0.12195 0.31286 0.42653-0.74019
  -2   7  -558021.81 1204.02   1-0.91396 0.61262 0.08771 0.34736 0.39621-0.70995
   2  -7   558718.28 1186.70   1 0.23193 0.06951-0.73459 0.29960-0.63763 0.95152
  -2   7  -6 4209.08  169.40   1-0.87589 0.55878 0.22356 0.20343 0.42757-0.80397
  -2   7  -6 4972.04  255.69   1-0.92792 0.61051 0.11923 0.30798 0.35317-0.72966
   2  -7   6 4678.96  377.52   1 0.29009 0.02760-0.77576 0.34853-0.56039 0.93688
  -2   7  -717813.84  579.78   1-0.83634 0.50276 0.34896 0.07013 0.42278-0.86157
  -2   7  -717359.38  645.63   1-0.93894 0.60546 0.14998 0.26937 0.30966-0.74890
   2  -7   717482.29  611.96   1 0.34120-0.00746-0.80657 0.38718-0.48272 0.92196
  -2   7  -8 7960.89  413.73   1-0.76239 0.41269 0.50507-0.09377 0.40455-0.90603
  -2   7  -8 8450.18  504.58   1-0.94712 0.59763 0.17989 0.23172 0.26568-0.76755
   2  -7   8 9324.40 1007.02   1 0.38544-0.03588-0.82833 0.41672-0.40655 0.90832
  -2   7  -9 2553.71  228.16   1-0.95251 0.58695 0.20915 0.19462 0.22128-0.78587
   2  -7   9 2362.64  483.62   1 0.42415-0.05854-0.84244 0.43868-0.33224 0.89672
  -2   7 -10  323.51  154.06   1-0.95518 0.57355 0.23771 0.15822 0.17641-0.80374
   2  -7  10  527.06  161.81   1 0.45765-0.07597-0.85013 0.45425-0.26041 0.88762
  -2   7 -11  124.07  131.15   1-0.95513 0.55743 0.26558 0.12251 0.13106-0.82112
   2  -7  11   93.48   64.92   1 0.48681-0.08883-0.85242 0.46456-0.19074 0.88107
  -2   6  12 4287.58  281.04   1-0.89713 0.86351 0.11571 0.38440 0.42632 0.32646
   2  -6 -12 3468.61  324.88   1-0.52519 0.55885 0.32818-0.82866-0.78515 0.03151
  -2   6  11 3358.13  179.95   1-0.90444 0.85503 0.04776 0.44512 0.42389 0.26606
   2  -6 -11 3575.97  284.47   1-0.52251 0.57230 0.32139-0.81405-0.78973 0.09890
  -2   6  10 2725.66  211.66   1-0.90777 0.84220-0.01239 0.49743 0.41928 0.20795
   2  -6 -10 2913.93  243.12   1-0.51766 0.58357 0.30927-0.79412-0.79772 0.16969
  -2   6   9 1331.49  132.18   1-0.90794 0.82623-0.06563 0.54282 0.41391 0.15059
   2  -6  -9  696.51  136.65   1 0.15933-0.07730 0.47266-0.94998-0.86671 0.30259
   2  -6  -9  639.33  156.72   1-0.51013 0.59216 0.29089-0.76792-0.80941 0.24418
  -2   6   8 1067.48  119.88   1-0.90595 0.80809-0.11223 0.58157 0.40823 0.09356
   2  -6  -8  831.40  132.49   1 0.20606-0.10796 0.45548-0.92487-0.86606 0.36462
   2  -6  -8 1550.68  210.55   1-0.49919 0.59735 0.26504-0.73425-0.82495 0.32253
  -2   6   7  813.06  111.31   1-0.90262 0.78861-0.15231 0.61380 0.40258 0.03647
   2  -6  -7  796.01  133.70   1 0.26514-0.15096 0.43183-0.89330-0.86210 0.42333
  -2   6   7  540.81   68.51   1-0.86658 0.75220 0.44804 0.01355-0.21975 0.65879
   2  -6  -7  928.96  202.33   1-0.48387 0.59816 0.23029-0.69169-0.84429 0.40467
  -2   6   6 7391.07  264.35   1-0.89913 0.76927-0.18509 0.63859 0.39660-0.02018
   2  -6  -6 7174.37  187.53   1 0.33358-0.20331 0.40161-0.85516-0.85289 0.47681
  -2   6   6 5638.08  153.46   1-0.75261 0.62258 0.52041-0.06703-0.40339 0.77967
   2  -6  -6 6105.89  264.68   1-0.46338 0.59403 0.18487-0.63781-0.86665 0.49022
  -2   6   5  446.27  143.46   1-0.89519 0.74922-0.21199 0.65766 0.39203-0.07834
   2  -6  -5   98.51   42.91   1 0.40909-0.26277 0.36531-0.81092-0.83617 0.52283
  -2   6   5   37.53   25.81   1-0.59169 0.44555 0.56660-0.12107-0.57346 0.88703
   2  -6  -5  166.09  117.71   1-0.43508 0.58181 0.12736-0.57255-0.89133 0.57764
  -2   6   420092.84  700.83   1-0.89181 0.72974-0.23192 0.66975 0.38842-0.13748
   2  -6  -419406.29  636.43   1 0.48369-0.32129 0.32424-0.76197-0.81295 0.56228
  -2   6   416853.44  556.79   1-0.39925 0.23670 0.57962-0.14176-0.71036 0.96118
   2  -6  -419100.64  673.63   1-0.39773 0.56054 0.05631-0.49377-0.91576 0.66481
  -2   6   355592.53 1552.42   1-0.88948 0.71130-0.24446 0.67445 0.38606-0.19785
   2  -6  -354808.82 1494.29   1 0.55551-0.37702 0.28001-0.70985-0.78294 0.59493
  -2   6   352077.94 1419.05   1-0.19606 0.01769 0.56268-0.13293-0.80308 0.99096
   2  -6  -354962.68 1528.80   1-0.35007 0.52880-0.02876-0.40086-0.93627 0.74811
  -2   6   2  474.36   94.73   1-0.88860 0.69431-0.24900 0.67116 0.38519-0.25972
  -2   6   2  365.99   60.99   1-0.00740-0.18696 0.52379-0.10194-0.85181 0.97706
  -2   6   2  631.85   85.62   1-0.62131 0.42662-0.23389 0.65628 0.74783-0.62231
   2  -6  -2  705.60  128.57   1-0.29026 0.48504-0.12651-0.29535-0.94854 0.82310
  -2   6   1  -48.63   78.39   1-0.88942 0.67903-0.24477 0.65909 0.38600-0.32327
  -2   6   1   51.15   23.65   1 0.15356-0.36422 0.47469-0.06073-0.86664 0.92932
  -2   6   1  126.92   82.90   1-0.68083 0.47004-0.18779 0.60231 0.70795-0.64519
   2  -6  -1   95.15   81.35   1-0.21954 0.43052-0.23394-0.18015-0.94713 0.88441
  -2   6   014396.95  424.24   1-0.89203 0.66553-0.23070 0.63719 0.38865-0.38865
  -2   6   014819.95  423.91   1-0.73312 0.50623-0.14243 0.54907 0.66500-0.66500
   2  -6   015360.80  447.31   1-0.13915 0.36616-0.34432-0.06199-0.92848 0.92848
  -2   6  -111191.31  351.46   1-0.89621 0.65360-0.20545 0.60410 0.39317-0.45590
  -2   6  -112075.04  384.20   1-0.77879 0.53594-0.09839 0.49725 0.61951-0.68227
   2  -6   112143.49  374.32   1-0.05418 0.29718-0.45155 0.05317-0.89059 0.95333
  -2   6  -2  728.66  104.81   1-0.90093 0.64160-0.16771 0.55856 0.40023-0.52568
  -2   6  -2  460.51   96.34   1-0.81746 0.55853-0.05591 0.44693 0.57325-0.69877
   2  -6   2  845.96  102.19   1 0.03187 0.22718-0.54862 0.15803-0.83546 0.96094
  -2   6  -319624.99  585.32   1-0.90581 0.63034-0.11428 0.49728 0.40795-0.59613
  -2   6  -318683.99  588.02   1-0.85021 0.57520-0.01511 0.39827 0.52622-0.71450
   2  -6   320379.70  620.37   1 0.11323 0.16171-0.63217 0.24922-0.76651 0.95484
  -2   6  -424695.41  821.52   1-0.90818 0.61656-0.04268 0.41784 0.41637-0.66727
  -2   6  -423064.55  805.56   1-0.87763 0.58654 0.02402 0.35127 0.47872-0.72976
   2  -6   425453.24  861.94   1 0.18845 0.10258-0.69966 0.32457-0.68916 0.94028
  -2   6  -5 6697.52  223.64   1-0.90417 0.59640 0.05097 0.31632 0.42410-0.73772
  -2   6  -5 7060.47  282.31   1-0.90033 0.59334 0.06147 0.30583 0.43084-0.74458
   2  -6   5 8008.36  395.65   1 0.25541 0.05184-0.75178 0.38447-0.60793 0.92167
  -2   6  -6 9268.18  232.16   1-0.88732 0.56452 0.17259 0.18669 0.42762-0.80402
  -2   6  -6 9661.99  343.31   1-0.91860 0.59555 0.09755 0.26189 0.38293-0.75942
   2  -6   6 9807.55  584.77   1 0.31372 0.00959-0.79071 0.43124-0.52568 0.90218
  -2   6  -7 1019.95   61.37   1-0.84394 0.50508 0.32904 0.02242 0.42364-0.86277
  -2   6  -7 1317.26  165.18   1-0.93291 0.59378 0.13227 0.21931 0.33491-0.77415
   2  -6   7 1285.75  217.18   1 0.36397-0.02460-0.81832 0.46669-0.44482 0.88407
  -2   6  -8 4359.08  148.80   1-0.74517 0.38979 0.53393-0.19031 0.39954-0.90102
  -2   6  -8 4422.59  249.00   1-0.94355 0.58835 0.16572 0.17800 0.28678-0.78876
   2  -6   8 4791.06  513.53   1 0.40668-0.05146-0.83669 0.49286-0.36681 0.86857
  -2   6  -9 2189.81  221.30   1-0.95075 0.57953 0.19789 0.13812 0.23855-0.80315
   2  -6   9 1905.91  228.86   1 0.44349-0.07221-0.84746 0.51150-0.29175 0.85624
  -2   6 -10  220.80  120.80   1-0.95465 0.56737 0.22908 0.09909 0.19014-0.81747
   2  -6  10  209.23  130.31   1 0.47492-0.08758-0.85208 0.52399-0.21999 0.84720
  -2   6 -11  430.89  178.33   1-0.95538 0.55203 0.25925 0.06109 0.14151-0.83158
   2  -6  11  333.47  166.84   1 0.50198-0.09834-0.85158 0.53146-0.15102 0.84135
  -2   6 -12  654.16  237.10   1-0.95300 0.53358 0.28845 0.02404 0.09261-0.84540
   2  -6  12   84.87   72.65   1 0.52484-0.10511-0.84689 0.53462-0.08543 0.83852
  -2   5  12 5795.35  180.23   1-0.90394 0.86504 0.05370 0.37927 0.42427 0.32841
   2  -5 -12 6442.86  268.08   1-0.54437 0.58367 0.37926-0.81196-0.74820-0.00542
  -2   5  11   -5.50   47.81   1-0.90797 0.85292-0.02078 0.44591 0.41851 0.27144
   2  -5 -11  145.27  147.29   1-0.54257 0.59800 0.37427-0.79915-0.75201 0.06118
  -2   5  10 6571.52  370.55   1-0.90727 0.83608-0.08708 0.50436 0.41141 0.21582
   2  -5 -10 6172.87  429.84   1-0.10222 0.17386 0.54567-0.96308-0.83173 0.20549
   2  -5 -10 5810.46  370.92   1-0.53883 0.61038 0.36401-0.78108-0.75970 0.13167
  -2   5   9 6443.76  285.62   1-0.90325 0.81591-0.14587 0.55530 0.40354 0.16097
   2  -5  -9 6002.65  370.76   1-0.06949 0.15718 0.53870-0.94821-0.83962 0.27600
   2  -5  -9 6184.01  346.51   1-0.53262 0.62030 0.34743-0.75668-0.77175 0.20652
  -2   5   8 2369.37  123.75   1-0.89751 0.79417-0.19672 0.59815 0.39466 0.10722
   2  -5  -8 2221.72  199.98   1-0.02142 0.12516 0.52735-0.92895-0.84937 0.34837
  -2   5   8 2118.64   95.45   1-0.92310 0.81902 0.37784 0.02380-0.07145 0.57325
   2  -5  -8 2273.94  159.43   1-0.52320 0.62700 0.32312-0.72455-0.78857 0.28615
  -2   5   756632.54 1130.49   1-0.89004 0.77059-0.24156 0.63515 0.38661 0.05253
   2  -5  -759303.92 1137.45   1 0.04241 0.07737 0.51023-0.90393-0.85899 0.42061
  -2   5   750084.35  958.11   1-0.86230 0.74227 0.45189-0.05804-0.22853 0.66757
   2  -5  -755861.92 1140.39   1-0.50947 0.62939 0.28930-0.68292-0.81039 0.37077
  -2   5   6  218.34  117.88   1-0.88213 0.74658-0.27953 0.66528 0.37907-0.00265
   2  -5  -6  -12.25   29.85   1 0.12113 0.01470 0.48589-0.87169-0.86558 0.48983
   2  -5  -6   19.57  118.19   1-0.48991 0.62596 0.24381-0.62961-0.83698 0.46016
  -2   5   5  359.81  131.08   1-0.87458 0.72291-0.31051 0.68843 0.37241-0.05872
   2  -5  -5  202.71   39.41   1 0.21133-0.05936 0.45346-0.83142-0.86585 0.55245
  -2   5   5  208.75   40.03   1-0.61381 0.46201 0.56257-0.18475-0.55385 0.86741
   2  -5  -5  344.37  114.37   1-0.46295 0.61529 0.18396-0.56141-0.86708 0.55338
  -2   5   4 1414.05  182.18   1-0.86810 0.70033-0.33423 0.70431 0.36699-0.11604
   2  -5  -4 1044.94  152.79   1 0.30912-0.14107 0.41276-0.78281-0.85677 0.60605
  -2   5   4 1117.23   88.63   1-0.43271 0.26451 0.57955-0.20941-0.69055 0.94137
   2  -5  -4 1221.83  135.88   1-0.42514 0.59355 0.10795-0.47766-0.89866 0.64770
  -2   5   3  350.56  101.24   1-0.86338 0.67950-0.35025 0.71250 0.36316-0.17495
   2  -5  -3  253.77   49.45   1 0.40898-0.22485 0.36537-0.72751-0.83620 0.64819
  -2   5   3  225.08   38.05   1-0.23314 0.04911 0.56773-0.20566-0.78950 0.97738
   2  -5  -3  388.66  100.67   1-0.37444 0.55894 0.01430-0.37627-0.92713 0.73892
  -2   5   210726.18  345.22   1-0.86102 0.66104-0.35791 0.71232 0.36129-0.23582
   2  -5  -212836.47  344.16   1 0.50241-0.30220 0.31319-0.66745-0.80590 0.68057
  -2   5   211746.05  355.99   1-0.04041-0.15962 0.53199-0.17782-0.84578 0.97103
   2  -5  -213474.77  409.80   1-0.30945 0.50986-0.09600-0.25813-0.94605 0.82061
  -2   5   114468.31  347.15   1-0.86152 0.64543-0.35630 0.70287 0.36169-0.29895
  -2   5   113794.14  295.72   1 0.12842-0.34471 0.48331-0.13702-0.86597 0.92865
  -2   5   114390.07  326.15   1-0.58670 0.37027-0.25850 0.60525 0.76743-0.70467
   2  -5  -113882.70  332.48   1-0.23005 0.44665-0.21873-0.12764-0.94827 0.88555
  -2   5   0  258.17   72.57   1-0.86522 0.63302-0.34413 0.68287 0.36464-0.36464
  -2   5   0  335.08   70.48   1 0.26584-0.49821 0.43153-0.09316-0.86203 0.86203
  -2   5   0  477.37   78.48   1-0.66058 0.42806-0.20406 0.54293 0.72248-0.72248
   2  -5   0  608.53  101.98   1-0.13890 0.37153-0.34464 0.00605-0.92839 0.92839
  -2   5  -147094.60  886.73   1-0.87215 0.62384-0.31967 0.65057 0.37035-0.43308
  -2   5  -146832.35  883.68   1-0.72365 0.47502-0.15104 0.48204 0.67343-0.73619
   2  -5   146477.98  878.59   1-0.04293 0.29155-0.46482 0.13413-0.88436 0.94710
  -2   5  -2   83.66   68.95   1-0.88190 0.61749-0.28053 0.60360 0.37886-0.50434
   2  -5   2   66.33   56.90   1-0.64202 0.90662-0.73392 0.41081 0.22172-0.09623
  -2   5  -2  269.00  139.02   1-0.77693 0.51237-0.10030 0.42353 0.62153-0.74705
   2  -5   2  242.40  122.65   1 0.05225 0.21243-0.57011 0.24721-0.81990 0.94538
  -2   5  -3137520.6 7422.23   1-0.89329 0.61277-0.22347 0.53870 0.38997-0.57818
   2  -5   3118251.4 6381.94   1-0.61361 0.89431-0.76234 0.44709 0.20569-0.01746
   2  -5   3111788.3 6044.11   1 0.13979 0.14082-0.65698 0.34179-0.74082 0.92916
  -2   5  -4 3809.08  169.21   1-0.90341 0.60616-0.14422 0.45161 0.40378-0.65467
   2  -5   4 3426.24  136.29   1-0.56982 0.86662-0.80147 0.49409 0.18148 0.06949
  -2   5  -4 4199.37  225.20   1-0.85674 0.56002-0.00628 0.31380 0.51570-0.76674
   2  -5   4 3140.32  251.89   1 0.21807 0.07862-0.72381 0.41646-0.65462 0.90574
  -2   5  -5  -14.62   36.51   1-0.90816 0.59476-0.03557 0.33511 0.41709-0.73071
   2  -5   5   50.24   38.64   1-0.50455 0.81735-0.85099 0.55103 0.14573 0.16819
  -2   5  -5    2.58  116.14   1-0.88592 0.57328 0.03686 0.26267 0.46236-0.77610
   2  -5   5  111.45   47.32   1 0.28560 0.02728-0.77279 0.47323-0.56676 0.88051
  -2   5  -614596.82  393.79   1-0.89755 0.56907 0.11281 0.17877 0.42621-0.80261
   2  -5   614056.18  381.41   1-0.40538 0.73427-0.90929 0.61717 0.09399 0.28272
  -2   5  -615480.91  507.24   1-0.90906 0.58036 0.07788 0.21379 0.40930-0.78579
   2  -5   615769.21  473.05   1 0.34279-0.01385-0.80743 0.51572-0.48014 0.85664
  -2   5  -7  559.45   66.25   1-0.84783 0.50328 0.31802-0.03425 0.42430-0.86343
   2  -5   7  384.65   54.45   1-0.24832 0.59336-0.96854 0.68472 0.01614 0.42317
  -2   5  -7  780.18  194.93   1-0.92696 0.58218 0.11685 0.16696 0.35648-0.79572
   2  -5   7  782.85  145.16   1 0.39061-0.04580-0.83050 0.54660-0.39708 0.83613
  -2   5  -8   57.90   18.23   1-0.67769 0.31697 0.63075-0.35488 0.37799-0.87953
  -2   5  -8  176.70  120.78   1-0.94017 0.57932 0.15395 0.12200 0.30392-0.80591
   2  -5   8  141.60   64.00   1 0.43109-0.07021-0.84441 0.56838-0.31799 0.81976
  -2   5  -9  526.42  167.54   1-0.94913 0.57226 0.18925 0.07900 0.25165-0.81625
   2  -5   9  330.93  113.99   1 0.46515-0.08821-0.85117 0.58300-0.24317 0.80766
  -2   5 -10  322.85  162.76   1-0.95415 0.56121 0.22314 0.03727 0.19950-0.82683
   2  -5  10  254.64   76.73   1 0.49408-0.10086-0.85222 0.59199-0.17203 0.79960
  -2   5 -11   88.84  107.39   1-0.95546 0.54645 0.25564-0.00306 0.14741-0.83748
   2  -5  11  283.52  120.08   1 0.51832-0.10900-0.84872 0.59633-0.10496 0.79529
  -2   5 -12  525.19  176.76   1-0.95321 0.52813 0.28687-0.04213 0.09531-0.84811
   2  -5  12  272.22  107.54   1 0.53876-0.11336-0.84144 0.59691-0.04116 0.79425
   2  -4 -13  453.91  154.97   1-0.56087 0.58968 0.42770-0.80043-0.70886-0.10756
  -2   4  12  143.98   63.90   1-0.90780 0.86327-0.01362 0.37884 0.41917 0.33351
  -2   4  11   26.12   47.48   1-0.90686 0.84618-0.09622 0.45359 0.41029 0.27967
   2  -4 -11  301.03   91.43   1-0.29412 0.35545 0.57414-0.93166-0.76410 0.07520
  -2   4  10  110.88   70.41   1-0.90070 0.82388-0.16965 0.51917 0.39993 0.22730
   2  -4 -10   53.59   47.89   1-0.28067 0.35805 0.57293-0.92256-0.77004 0.14376
  -2   4   9 2849.07  155.18   1-0.89144 0.79851-0.23397 0.57549 0.38804 0.17658
   2  -4  -9 2641.15  200.14   1-0.25444 0.34787 0.57024-0.91197-0.78107 0.21743
  -2   4   855287.04 1098.66   1-0.87931 0.77028-0.29158 0.62526 0.37653 0.12535
   2  -4  -856184.15 1081.10   1-0.21341 0.32288 0.56515-0.89899-0.79690 0.29588
  -2   4   770816.91 1796.35   1-0.86589 0.74075-0.34184 0.66769 0.36519 0.07396
   2  -4  -767027.71 1673.22   1-0.15544 0.28096 0.55618-0.88214-0.81638 0.37799
  -2   4   758818.47 1472.86   1-0.86511 0.73944 0.44938-0.12328-0.22280 0.66183
  -2   4   6  181.29  122.33   1-0.85218 0.71093-0.38490 0.70291 0.35444 0.02197
   2  -4  -6   75.61   42.23   1-0.07981 0.22131 0.54096-0.85909-0.83724 0.46150
  -2   4   6   51.02   31.22   1-0.77531 0.63359 0.50940-0.19118-0.37335 0.74967
   2  -4  -6  130.74  119.26   1-0.51589 0.65758 0.30489-0.62291-0.80055 0.42374
  -2   4   5   90.00   83.13   1-0.83912 0.68176-0.42073 0.73090 0.34474-0.03106
   2  -4  -5  146.52   40.26   1 0.01506 0.14248 0.51785-0.82807-0.85533 0.54221
  -2   4   5  156.71   38.61   1-0.64543 0.48797 0.55570-0.24560-0.52402 0.83759
   2  -4  -5  -24.93  112.92   1-0.48991 0.64773 0.24382-0.55402-0.83697 0.52296
  -2   4   4 6268.01  229.83   1-0.82764 0.65411-0.44908 0.75153 0.33662-0.08563
   2  -4  -4 6418.66  194.91   1 0.12472 0.04895 0.48455-0.78692-0.86582 0.61510
  -2   4   4 6120.07  193.84   1-0.47883 0.30497 0.57796-0.27555-0.66081 0.91162
   2  -4  -4 6205.08  246.65   1-0.45257 0.62659 0.16247-0.46443-0.87680 0.62584
  -2   4   315016.15  355.66   1-0.81869 0.62906-0.46965 0.76424 0.33038-0.14214
   2  -4  -314608.02  316.03   1 0.24399-0.05424 0.44054-0.73500-0.86393 0.67589
  -2   4   314360.50  294.16   1-0.28649 0.09680 0.57347-0.27908-0.76749 0.95537
   2  -4  -314771.66  356.83   1-0.39907 0.58918 0.05877-0.35299-0.91503 0.72681
  -2   4   2   91.54   92.09   1-0.81317 0.60743-0.48175 0.76849 0.32659-0.20110
   2  -4  -2  148.68   71.24   1 0.36472-0.15886 0.38765-0.67421-0.84658 0.72124
  -2   4   2   28.60   31.46   1-0.09159-0.11409 0.54347-0.25697-0.83440 0.95965
   2  -4  -2  185.33   94.47   1-0.32710 0.53314-0.06725-0.21915-0.94259 0.81714
  -2   4   114858.47  299.59   1-0.81193 0.59009-0.48440 0.76329 0.32574-0.26300
   2  -4  -116215.45  276.77   1 0.47673-0.25479 0.32828-0.60696-0.81544 0.75278
  -2   4   114840.25  249.98   1 0.08608-0.30782 0.49717-0.21857-0.86337 0.92599
   2  -4  -114751.88  282.27   1-0.23577 0.45786-0.20919-0.06946-0.94902 0.88630
  -2   4   0  562.55   65.78   1-0.81574 0.57780-0.47618 0.74720 0.32835-0.32835
   2  -4   0  749.91   63.41   1-0.60447 0.84253-0.77095 0.49989 0.20060-0.20060
  -2   4   0  774.19  106.84   1 0.23311-0.47111 0.44492-0.17422-0.86469 0.86469
  -2   4   0  806.36   70.98   1-0.57598 0.33782-0.26583 0.53693 0.77303-0.77303
   2  -4   0  794.74   71.26   1-0.13078 0.36902-0.35523 0.08436-0.92558 0.92558
  -2   4   0  807.80   64.93   1-0.33492 0.09677-0.05429 0.32519-0.94067 0.94067
  -2   4  -193800.62 1265.93   1-0.82514 0.57111-0.45497 0.71814 0.33486-0.39761
   2  -4   189079.29 1191.59   1-0.58911 0.84327-0.78489 0.52169 0.19208-0.12933
   2  -4   195627.15 1291.50   1-0.02106 0.27530-0.49012 0.22712-0.87140 0.93414
  -2   4  -2102854.2 1812.51   1-0.84027 0.57016-0.41774 0.67306 0.34558-0.47105
   2  -4   295756.55 1682.14   1-0.56114 0.83141-0.80862 0.55328 0.17674-0.05125
   2  -4   295027.66 1687.35   1 0.08353 0.18667-0.60321 0.34791-0.79319 0.91875
  -2   4  -3159364.5 8614.99   1-0.86041 0.57420-0.35985 0.60734 0.36081-0.54902
   2  -4   3152216.4 2637.62   1-0.51699 0.80327-0.84232 0.59451 0.15236 0.03599
  -2   4  -3168039.9 9097.39   1-0.78858 0.50230-0.08812 0.33570 0.60858-0.79686
   2  -4   3146768.8 2574.05   1 0.17717 0.10911-0.69010 0.44265-0.70169 0.89002
  -2   4  -4 7854.26  233.13   1-0.88330 0.58098-0.27433 0.51397 0.38014-0.63109
   2  -4   4 7035.43  213.81   1-0.44914 0.75151-0.88581 0.64584 0.11659 0.13454
  -2   4  -4 7774.07  277.06   1-0.83466 0.53230-0.03515 0.27488 0.54963-0.80067
   2  -4   4 8287.69  277.78   1 0.25682 0.04564-0.75279 0.51315-0.60608 0.85708
  -2   4  -510383.18  314.82   1-0.90286 0.58384-0.14984 0.38163 0.40295-0.71657
   2  -4   510032.10  304.46   1-0.34664 0.66517-0.93575 0.70397 0.06486 0.24893
  -2   4  -510005.85  367.31   1-0.87125 0.55282 0.01440 0.21747 0.49061-0.80442
   2  -4   510831.46  364.28   1 0.32282-0.00431-0.79616 0.56436-0.51176 0.82551
  -2   4  -6  569.17   62.92   1-0.90544 0.57027 0.03477 0.18916 0.42303-0.79937
   2  -4   6  400.68   51.12   1-0.18858 0.52319-0.98197 0.75806-0.01279 0.38935
  -2   4  -6  463.31  169.37   1-0.89986 0.56551 0.06064 0.16327 0.43192-0.80841
   2  -4   6  509.36  102.97   1 0.37676-0.04234-0.82453 0.60056-0.42213 0.79845
  -2   4  -7  129.69   27.82   1-0.84256 0.49233 0.33289-0.11684 0.42340-0.86253
   2  -4   7  167.82   43.45   1 0.08392 0.26679-0.98656 0.77002-0.14019 0.57954
  -2   4  -7   -0.28  125.41   1-0.92158 0.57115 0.10417 0.11188 0.37394-0.81317
   2  -4   7  139.28   63.65   1 0.42132-0.07084-0.84158 0.62547-0.33797 0.77701
  -2   4  -8  887.60  132.03   1-0.93738 0.57088 0.14514 0.06304 0.31661-0.81860
   2  -4   8 1154.41  192.46   1 0.45806-0.09151-0.85020 0.64196-0.25948 0.76125
  -2   4  -9 3488.27  234.97   1-0.94797 0.56544 0.18368 0.01680 0.26001-0.82461
   2  -4   9 3106.81  338.30   1 0.48871-0.10591-0.85240 0.65206-0.18591 0.75072
  -2   4 -10 1108.79  186.19   1-0.95387 0.55528 0.22035-0.02770 0.20387-0.83120
   2  -4  10 1422.86  306.72   1 0.51407-0.11518-0.84968 0.65719-0.11729 0.74486
  -2   4 -11 4550.54  268.25   1-0.95547 0.54080 0.25521-0.07039 0.14813-0.83819
   2  -4  11 5302.18  280.63   1 0.53526-0.12028-0.84304 0.65839-0.05266 0.74299
  -2   4 -12  432.36  175.02   1-0.95300 0.52227 0.28842-0.11144 0.09266-0.84546
   2  -4  12   95.54   72.86   1 0.55296-0.12190-0.83316 0.65636 0.00855 0.74452
   2  -3 -13  393.04  190.46   1-0.57448 0.60903 0.47400-0.77899-0.66730-0.14912
  -2   3  12  144.53   64.72   1-0.90722 0.85706-0.08836 0.38582 0.41126 0.34142
   2  -3 -12  268.50   81.62   1-0.42526 0.47641 0.57965-0.87735-0.69509-0.05735
   2  -3 -12  149.28  119.65   1-0.57543 0.62611 0.47739-0.77456-0.66405-0.08957
  -2   3  11  167.09   60.92   1-0.89989 0.83347-0.17930 0.46874 0.39755 0.29255
   2  -3 -11  207.12   68.64   1-0.42679 0.49398 0.57963-0.86945-0.69416 0.00442
   2  -3 -11  173.49  105.14   1-0.57528 0.64207 0.47683-0.76619-0.66459-0.02623
  -2   3  10 4684.97  217.22   1-0.88619 0.80367-0.26090 0.54251 0.38286 0.24450
   2  -3 -10 5136.31  213.70   1-0.41919 0.50243 0.57969-0.86163-0.69873 0.07169
   2  -3 -10 5252.04  317.20   1-0.57375 0.65667 0.47148-0.75302-0.66970 0.04168
  -2   3   928143.28  689.52   1-0.86837 0.76975-0.33328 0.60705 0.36721 0.19741
   2  -3  -928464.93  678.37   1-0.40082 0.50010 0.57964-0.85371-0.70947 0.14514
   2  -3  -928778.40  746.37   1-0.57045 0.66948 0.46012-0.73385-0.68034 0.11512
  -2   3   828176.50  760.17   1-0.84785 0.73312-0.39725 0.66318 0.35118 0.15071
   2  -3  -827376.73  724.78   1-0.36940 0.48473 0.57896-0.84516-0.72686 0.22523
   2  -3  -829634.08  829.35   1-0.56464 0.67979 0.44104-0.70694-0.69760 0.19519
  -2   3   7 1002.76  132.78   1-0.82587 0.69494-0.45327 0.71152 0.33537 0.10384
   2  -3  -7  936.96  102.21   1-0.32249 0.45367 0.57629-0.83456-0.75092 0.31253
  -2   3   7  988.11  100.58   1-0.87306 0.74174 0.44194-0.18360-0.20602 0.64505
   2  -3  -7  975.68  143.46   1-0.55555 0.68676 0.41152-0.66958-0.72250 0.28288
  -2   3   6  314.35  118.34   1-0.80358 0.65656-0.50176 0.75216 0.32011 0.05636
   2  -3  -6  344.19   65.53   1-0.25589 0.40312 0.57040-0.82078-0.78048 0.40472
  -2   3   6  154.42   42.05   1-0.79616 0.64880 0.49837-0.24790-0.34312 0.71944
   2  -3  -6  515.32  136.63   1-0.54048 0.68781 0.36851-0.61875-0.75635 0.37953
  -2   3   5 6493.55  236.39   1-0.78212 0.61899-0.54281 0.78535 0.30600 0.00773
   2  -3  -5 6292.82  198.86   1-0.16746 0.33073 0.55821-0.80070-0.81262 0.49948
  -2   3   5 5733.04  182.83   1-0.68396 0.52083 0.54538-0.30300-0.48450 0.79806
   2  -3  -5 5073.91  205.70   1-0.51676 0.68022 0.30705-0.54947-0.79917 0.48515
   2  -3  -428394.54  536.63   1-0.05729 0.23655 0.53594-0.77058-0.84230 0.59180
  -2   3   425941.05  491.76   1-0.53525 0.35573 0.57344-0.33875-0.62021 0.87103
   2  -3  -426328.56  536.24   1-0.48019 0.65982 0.22087-0.45507-0.84889 0.59794
   2  -3  -315564.42  288.70   1-0.51449 0.70991-0.84408 0.61711 0.15103-0.33939
   2  -3  -316525.94  307.96   1 0.07234 0.12297 0.50140-0.72813-0.86218 0.67431
  -2   3   316367.39  269.92   1-0.35520 0.15984 0.57808-0.35137-0.73460 0.92248
   2  -3  -316495.81  303.63   1-0.42381 0.61952 0.10539-0.33186-0.89959 0.71137
  -2   3   315694.30  283.72   1-0.55305 0.35734 0.40411-0.17732-0.72857 0.91698
  -2   3   2 2876.01  154.39   1-0.73450 0.52308-0.61988 0.83886 0.27611-0.15062
   2  -3  -2 2783.49  134.48   1-0.52122 0.73273-0.83929 0.62015 0.15463-0.28020
   2  -3  -2 3493.45  246.51   1 0.21194-0.00047 0.45322-0.67208-0.86583 0.74047
  -2   3   2 2633.88   96.17   1-0.16177-0.04962 0.55726-0.33844-0.81442 0.93967
   2  -3  -2 2884.40  118.29   1-0.34276 0.55442-0.04115-0.17753-0.93852 0.81307
  -2   3   2 2627.59  123.66   1-0.49252 0.28069 0.24972-0.03075-0.83369 0.95930
  -2   3   1 9614.03  226.05   1-0.72848 0.50096-0.62855 0.83967 0.27244-0.20970
   2  -3  -1 9911.34  196.61   1 0.35086-0.12332 0.39347-0.60441-0.84974 0.78706
  -2   3   1 8901.03  177.18   1 0.02246-0.24986 0.51583-0.30490-0.85639 0.91901
   2  -3  -110021.92  226.32   1-0.23543 0.46315-0.20969-0.00123-0.94899 0.88627
  -2   3   1 9140.40  200.32   1-0.40557 0.17771 0.07082 0.14015-0.91131 0.97405
  -2   3   088611.65 1186.93   1-0.72966 0.48603-0.62687 0.83014 0.27316-0.27316
   2  -3   084188.07 1122.54   1-0.50407 0.74775-0.85131 0.64784 0.14548-0.14548
   2  -3   091760.21 1218.51   1 0.47900-0.23533 0.32696-0.53006-0.81464 0.81464
   2  -3   090090.89 1204.57   1-0.11078 0.35464-0.38091 0.17775-0.91794 0.91794
  -2   3   082481.00 1099.24   1-0.29964 0.05587-0.11169 0.31486-0.94748 0.94748
  -2   3  -128159.76  437.62   1-0.73938 0.47966-0.61270 0.80811 0.27910-0.34185
   2  -3   126275.96  400.20   1-0.47558 0.73535-0.86994 0.67430 0.13042-0.06764
  -2   3  -127658.56  438.63   1-0.58915 0.32926-0.25680 0.45225 0.76612-0.82888
   2  -3   127020.91  424.40   1 0.01596 0.24389-0.53145 0.33615-0.84693 0.90967
  -2   3  -125761.75  396.58   1-0.19037-0.06951-0.27517 0.47054-0.94235 0.87963
  -2   3  -232296.80  481.18   1-0.75885 0.48303-0.58254 0.77010 0.29118-0.41667
   2  -3   230377.36  451.28   1-0.42867 0.70452-0.89722 0.70941 0.10597 0.01959
   2  -3   3  237.10   40.81   1-0.35683 0.64876-0.93159 0.75161 0.06930 0.11905
  -2   3  -3  280.11   90.74   1-0.75376 0.46167-0.12297 0.30268 0.64553-0.83380
  -2   3  -4   69.89   34.90   1-0.82845 0.52043-0.44716 0.61902 0.33719-0.58818
   2  -3   4  133.97   58.75   1-0.24944 0.55754-0.96824 0.79638 0.01669 0.23434
  -2   3  -4  804.97  158.43   1-0.81202 0.50404-0.06221 0.23416 0.58029-0.83133
  -2   3  -5 5938.34  190.39   1-0.87381 0.54968-0.31344 0.47750 0.37175-0.68544
   2  -3   5 5597.56  180.99   1-0.08927 0.41346-0.99413 0.82979-0.06099 0.37482
  -2   3  -5 6526.30  283.12   1-0.85714 0.53307-0.00573 0.16982 0.51504-0.82884
  -2   3  -618464.44  592.53   1-0.90738 0.56658-0.08450 0.24069 0.41172-0.78806
  -2   3  -619138.00  676.33   1-0.89166 0.55166 0.04635 0.10978 0.45032-0.82681
  -2   3  -714215.00  482.17   1-0.91733 0.56125 0.09480 0.05348 0.38667-0.82591
  -2   3  -8   96.22  184.68   1-0.93560 0.56346 0.13986 0.00055 0.32415-0.82614
   2  -3   8  118.95   96.99   1 0.48681-0.11442-0.85242 0.71198-0.19075 0.69281
  -2   3  -9  416.50  149.87   1-0.94755 0.55937 0.18178-0.04905 0.26286-0.82746
   2  -3   9  116.50   57.17   1 0.51288-0.12441-0.84992 0.71733-0.12071 0.68553
  -2   3 -10  773.67  164.18   1-0.95396 0.54972 0.22127-0.09637 0.20243-0.82976
   2  -3  10 1054.66  129.93   1 0.53437-0.12981-0.84342 0.71867-0.05555 0.68312
  -2   3 -11 1832.79  194.79   1-0.95540 0.53508 0.25846-0.14140 0.14281-0.83287
   2  -3  11 2145.84  170.49   1 0.55215-0.13151-0.83372 0.71681 0.00558 0.68474
  -2   3 -12   83.61   88.07   1-0.95224 0.51586 0.29360-0.18438 0.08379-0.83659
   2  -2 -14  221.66   93.85   1-0.49580 0.52051 0.57691-0.82264-0.64910-0.22874
   2  -2 -14  152.55  129.34   1-0.58398 0.60805 0.50941-0.75442-0.63203-0.24720
   2  -2 -13  108.50   50.53   1-0.51290 0.55365 0.57559-0.81344-0.63688-0.17826
   2  -2 -13  710.59  196.72   1-0.58611 0.62629 0.51800-0.75520-0.62301-0.19342
  -2   2  12  249.48   76.75   1-0.90033 0.84455-0.17272 0.40242 0.39944 0.35324
   2  -2 -12  241.17   80.39   1-0.52404 0.58083 0.57458-0.80455-0.62867-0.12376
   2  -2 -12  586.28  186.46   1-0.58744 0.64375 0.52356-0.75295-0.61707-0.13655
  -2   2  11  280.55   59.92   1-0.88335 0.81124-0.27412 0.49582 0.38019 0.30991
   2  -2 -11  144.77   64.30   1-0.52871 0.60155 0.57412-0.79621-0.62518-0.06456
   2  -2 -11  289.11  121.81   1-0.58791 0.66034 0.52555-0.74711-0.61493-0.07589
  -2   2  10 4490.04  195.41   1-0.85902 0.77080-0.36426 0.57811 0.35971 0.26764
   2  -2 -10 4585.51  192.58   1-0.52600 0.61489 0.57439-0.78861-0.62721 0.00017
   2  -2 -10 4904.91  254.83   1-0.58735 0.67589 0.52317-0.73692-0.61750-0.01052
  -2   2   959561.42 1162.53   1-0.82990 0.72548-0.44369 0.64989 0.33822 0.22649
   2  -2  -959728.83 1163.81   1-0.51448 0.61942 0.57545-0.78179-0.63572 0.07139
   2  -2  -957829.94 1171.04   1-0.58543 0.69009 0.51523-0.72116-0.62594 0.06071
  -2   2   8  615.32   89.38   1-0.79760 0.67708-0.51370 0.71205 0.31613 0.18584
   2  -2  -8  658.61   87.56   1-0.49209 0.61307 0.57716-0.77563-0.65170 0.15007
   2  -2  -8  934.38  151.57   1-0.58155 0.70234 0.49995-0.69807-0.64174 0.13932
  -2   2   755416.35 1532.71   1-0.76346 0.62684-0.57500 0.76550 0.29408 0.14514
   2  -2  -753810.47 1480.56   1-0.45589 0.59293 0.57898-0.76957-0.67597 0.23704
   2  -2  -755957.08 1558.88   1-0.57465 0.71155 0.47461-0.66491-0.66671 0.22709
  -2   2   6  329.24  135.96   1-0.72877 0.57605-0.62814 0.81078 0.27262 0.10385
   2  -2  -6  143.11   67.96   1-0.40209 0.55517 0.57965-0.76236-0.70874 0.33252
  -2   2   6   89.24   53.53   1-0.82048 0.66747 0.48363-0.30090-0.30481 0.68112
   2  -2  -6   98.66  104.78   1-0.56275 0.71577 0.43504-0.61753-0.70287 0.32606
  -2   2   5 6224.29  210.76   1-0.69483 0.52596-0.67346 0.84828 0.25228 0.06143
   2  -2  -5 5638.30  165.80   1-0.36183 0.53073-0.92947 0.75465 0.07182-0.38576
   2  -2  -5 6531.60  176.17   1-0.32653 0.49547 0.57655-0.75136-0.74897 0.43583
  -2   2   5 5870.43  167.50   1-0.72655 0.55775 0.53103-0.35637-0.43603 0.74960
   2  -2  -5 7233.44  234.53   1-0.54271 0.71181 0.37465-0.54930-0.75172 0.43770
  -2   2   429269.25  464.22   1-0.66297 0.47799-0.71122 0.87819 0.23371 0.01726
   2  -2  -427822.71  429.01   1-0.38161 0.56659-0.92069 0.75371 0.08185-0.33299
  -2   2   427413.77  411.08   1-0.59811 0.41322 0.56549-0.39867-0.56786 0.81871
   2  -2  -427340.22  438.94   1-0.50772 0.69294 0.28511-0.45194-0.81297 0.56176
   2  -2  -320021.83  334.87   1-0.39173 0.59280-0.91595 0.75680 0.08700-0.27536
  -2   2   319822.68  313.43   1-0.43660 0.23538 0.57949-0.42040-0.68815 0.87627
   2  -2  -320179.29  338.34   1-0.44904 0.65035 0.15527-0.31399-0.87991 0.69169
  -2   2   214891.36  295.20   1-0.61156 0.39438-0.76429 0.91553 0.20455-0.07906
   2  -2  -214232.32  246.05   1-0.39086 0.60802-0.91636 0.76505 0.08656-0.21214
   2  -2  -214941.09  247.21   1 0.05385 0.16316 0.50691-0.65807-0.86031 0.73506
  -2   2   214424.52  245.00   1-0.25177 0.03470 0.56994-0.41880-0.78215 0.90741
   2  -2  -214317.04  255.54   1-0.35558 0.57288-0.01933-0.13163-0.93444 0.80899
  -2   2   128727.02  436.06   1-0.59546 0.36217-0.77920 0.92259 0.19559-0.13285
   2  -2  -127137.76  389.59   1 0.21423 0.01894 0.45234-0.59561-0.86573 0.80305
  -2   2   125701.10  366.47   1-0.06446-0.16860 0.53757-0.39432-0.84074 0.90336
  -2   2   0 5678.73  164.14   1-0.58840 0.33900-0.78551 0.92104 0.19169-0.19169
   2  -2   0 5209.30  143.20   1-0.34740 0.59673-0.93548 0.79983 0.06455-0.06455
   2  -2   0 5546.68  135.55   1 0.37043-0.12112 0.38485-0.52025-0.84537 0.84537
  -2   2   0 5667.43  129.66   1 0.10544-0.35456 0.49103-0.35568-0.86473 0.86473
  -2   2  -142692.10  582.67   1-0.59263 0.32713-0.78175 0.90942 0.19403-0.25677
   2  -2   139658.10  533.51   1-0.29743 0.56293-0.95389 0.82619 0.04030 0.02245
   2  -2   140397.77  553.40   1 0.50899-0.24359 0.30923-0.43675-0.80330 0.86597
  -2   2  -139901.01  537.64   1 0.24482-0.51015 0.44021-0.31278-0.86387 0.80119
  -2   2  -2 3613.94  123.47   1-0.61071 0.32911-0.76510 0.88491 0.20407-0.32956
   2  -2   2 3534.77  108.79   1-0.22214 0.50373-0.97500 0.85518 0.00340 0.12211
  -2   2  -2 3555.42  111.79   1 0.35146-0.63287 0.39318-0.27367-0.84963 0.72427
  -2   2  -2 4205.79  141.50   1-0.62495 0.34333-0.23122 0.35102 0.74563-0.87115
  -2   2  -316069.33  263.57   1-0.64546 0.34776-0.73029 0.84225 0.22368-0.41191
   2  -2   316047.18  255.03   1-0.11281 0.41047-0.99236 0.88019-0.04994 0.23824
  -2   2  -315015.02  301.95   1-0.71750 0.41978-0.15653 0.26846 0.67873-0.86701
  -2   2  -410626.72  228.40   1-0.69997 0.38616-0.66697 0.77106 0.25532-0.50629
   2  -2   410709.15  224.90   1 0.04184 0.27191-0.99173 0.88736-0.12129 0.37235
  -2   2  -410349.59  300.79   1-0.78964 0.47601-0.08699 0.19115 0.60737-0.85841
   2  -2   410681.60  271.63   1 0.36193-0.04822-0.81732 0.71318-0.44831 0.69931
  -2   2  -5 1216.26   80.69   1-0.25809-0.07149 0.94166-0.84536 0.21598-0.52938
  -2   2  -5 1411.75   97.12   1-0.77719 0.44739-0.55159 0.64784 0.30282-0.61655
  -2   2  -5 1392.84  155.48   1-0.84436 0.51466-0.02280 0.11911 0.53527-0.84907
   2  -2   5 1766.51  277.36   1 0.41547-0.08579-0.83972 0.74346-0.34964 0.66324
  -2   2  -6 7082.62  258.25   1-0.56337 0.21777 0.75400-0.66549 0.33777-0.71392
  -2   2  -6 7616.88  251.60   1-0.87377 0.52785-0.31357 0.40205 0.37172-0.74814
  -2   2  -6 7497.06  310.03   1-0.88521 0.53956 0.03572 0.05265 0.46380-0.84029
   2  -2   6 7756.07  303.34   1 0.45692-0.11117-0.85002 0.76163-0.26206 0.63839
  -2   2  -719561.94  579.09   1-0.91481 0.55309 0.08948-0.00897 0.39383-0.83306
   2  -2   717094.80  512.24   1 0.48963-0.12766-0.85238 0.77183-0.18357 0.62287
  -2   2  -8 1680.27  244.10   1-0.93526 0.55747 0.13887-0.06622 0.32556-0.82754
   2  -2   8 1521.26  242.58   1 0.51568-0.13762-0.84934 0.77663-0.11267 0.61472
  -2   2  -9 1241.74  160.50   1-0.94809 0.55426 0.18426-0.11929 0.25915-0.82374
   2  -2   9 1272.66  136.96   1 0.53679-0.14266-0.84236 0.77750-0.04766 0.61247
  -2   2 -10  414.44  154.54   1-0.95445 0.54455 0.22657-0.16944 0.19410-0.82143
   2  -2  10  216.67  101.98   1 0.55406-0.14384-0.83237 0.77536 0.01266 0.61491
  -2   2 -11  -16.32   78.98   1-0.95511 0.52914 0.26603-0.21674 0.13032-0.82038
  -2   2 -12  850.92  212.76   1-0.95059 0.50855 0.30299-0.26154 0.06755-0.82034
   2  -1 -14  210.05   87.19   1-0.57007 0.60043 0.56907-0.74707-0.59260-0.28524
   2  -1 -14  127.73  113.61   1-0.59318 0.62287 0.54914-0.72637-0.58870-0.29052
   2  -1 -13  231.09   89.78   1-0.58692 0.63260 0.56739-0.73709-0.57756-0.23771
   2  -1 -13  148.40  102.24   1-0.59531 0.64112 0.55958-0.72899-0.57659-0.23983
  -2   1  12  212.02   70.23   1-0.88468 0.82298-0.26804 0.42982 0.38143 0.37140
   2  -1 -12   42.59   55.91   1-0.59912 0.66089 0.56531-0.72716-0.56698-0.18557
   2  -1 -12  270.02  132.96   1-0.59681 0.65875 0.56734-0.72894-0.56738-0.18624
  -2   1  11 3239.31  123.36   1-0.85345 0.77565-0.38116 0.53511 0.35541 0.33468
   2  -1 -11 3422.68  175.03   1-0.60604 0.68391 0.56405-0.71806-0.56084-0.12899
   2  -1 -11 3621.03  267.34   1-0.59768 0.67573 0.57198-0.72576-0.56179-0.12903
  -2   1  1026017.65  776.62   1-0.81446 0.72046-0.47895 0.62525 0.32747 0.29998
   2  -1 -1024897.96  766.82   1-0.60697 0.70095 0.56388-0.71004-0.56001-0.06712
   2  -1 -1024946.17  803.50   1-0.59783 0.69200 0.57279-0.71875-0.56080-0.06722
  -2   1   913251.56  319.80   1-0.76999 0.65988-0.56407 0.70251 0.29822 0.26649
   2  -1  -913377.05  336.36   1-0.60078 0.71085 0.56501-0.70333-0.56551 0.00109
   2  -1  -912339.83  370.69   1-0.59707 0.70736 0.56870-0.70684-0.56575 0.00053
  -2   1   8  526.74   96.47   1-0.72174 0.59553-0.63802 0.76861 0.26836 0.23360
   2  -1  -8  306.05   66.30   1-0.58572 0.71189 0.56759-0.69806-0.57858 0.07688
   2  -1  -8  480.37  126.45   1-0.59499 0.72140 0.55799-0.68832-0.57846 0.07604
  -2   1   7 7152.97  270.65   1-0.67123 0.52889-0.70182 0.82460 0.23849 0.20071
   2  -1  -7 5968.97  207.15   1-0.14891 0.29138-0.98834 0.86544-0.03175-0.40756
   2  -1  -7 7249.60  257.17   1-0.55928 0.70197 0.57056-0.69342-0.60137 0.16245
   2  -1  -7 6996.18  277.51   1-0.59074 0.73327 0.53789-0.66040-0.60140 0.16178
  -2   1   610579.71  261.88   1-0.61978 0.46134-0.75638 0.87130 0.20916 0.16730
   2  -1  -6 9153.79  216.93   1-0.18243 0.34099-0.98309 0.86806-0.01574-0.36080
   2  -1  -6 8944.47  232.00   1-0.51768 0.67642 0.57517-0.69016-0.63338 0.25716
   2  -1  -6 9960.71  274.98   1-0.58254 0.74119 0.50376-0.61845-0.63785 0.26104
  -2   1   5 3571.83  139.34   1-0.56887 0.39432-0.80226 0.90932 0.18096 0.13275
   2  -1  -5 3125.24  112.01   1-0.20609 0.38074-0.97852 0.87136-0.00436-0.30943
   2  -1  -5 3186.96  130.16   1-0.45609 0.63087 0.57897-0.68608-0.67584 0.36232
  -2   1   5 3345.16  112.97   1-0.77036 0.59565 0.51183-0.40473-0.38022 0.69381
   2  -1  -5 3245.08  154.01   1-0.56671 0.74148 0.44774-0.55462-0.69163 0.37762
  -2   1   5 3351.79  116.90   1-0.60715 0.43259 0.70994-0.60312-0.35683 0.67014
  -2   1   4 8039.37  227.08   1-0.52033 0.32970-0.83993 0.93909 0.15415 0.09698
   2  -1  -4 7789.66  181.37   1-0.21899 0.40973-0.97572 0.87644 0.00187-0.25291
  -2   1   4 7672.03  171.01   1-0.66444 0.47389 0.55089-0.45180-0.50499 0.75584
   2  -1  -4 7376.88  170.92   1-0.53598 0.72684 0.35633-0.45537-0.76534 0.51413
  -2   1   4 7854.71  175.23   1-0.60500 0.41443 0.62728-0.52831-0.49038 0.74103
   2  -1  -318422.02  299.40   1-0.21978 0.42660-0.97554 0.88413 0.00225-0.19053
   2  -1  -319743.21  311.33   1-0.25063 0.45732 0.56981-0.66116-0.78262 0.59473
   2  -1  -319443.34  306.35   1-0.47541 0.68233 0.21046-0.30143-0.85421 0.66599
  -2   1   319421.49  295.77   1-0.58018 0.37317 0.49472-0.40348-0.64702 0.83542
   2  -1  -2  277.67   45.10   1-0.20654 0.42945-0.97842 0.89489-0.00414-0.12137
   2  -1  -2  568.46   99.56   1-0.10124 0.32392 0.54547-0.62895-0.83199 0.70674
   2  -1  -2  314.71   47.76   1-0.36378 0.58671-0.00516-0.07807-0.93146 0.80602
  -2   1   2  481.72   46.27   1-0.50987 0.28676 0.29027-0.20686-0.80979 0.93540
  -2   1   121832.58  349.15   1-0.40350 0.16461-0.91023 0.98589 0.09302-0.03024
   2  -1  -121959.41  329.90   1 0.07213 0.16659 0.50146-0.57704-0.86216 0.79954
   2  -1  -121746.38  312.02   1-0.19333 0.43239-0.27105 0.19554-0.94294 0.88022
  -2   1   121333.66  308.94   1-0.37685 0.13776 0.01856 0.05692-0.92608 0.98882
  -2   1   0  391.65  131.86   1-0.38144 0.12646-0.92076 0.98859 0.08176-0.08176
  -2   1   0  287.98   42.13   1 0.00208-0.25687 0.52131-0.45364-0.85336 0.85335
   2  -1   0  215.77   39.32   1 0.00008 0.25495-0.51394 0.44625-0.85782 0.85782
  -2   1   0  217.20   36.09   1-0.20437-0.05071-0.25556 0.32327-0.94494 0.94494
  -2   1  -1 5026.16  160.68   1-0.37200 0.10094-0.92503 0.98502 0.07697-0.13976
   2  -1   1 4627.34  121.32   1-0.05268 0.32381-0.99555 0.93558-0.07804 0.14080
  -2   1  -1 4838.60  118.02   1 0.15568-0.42665 0.47395-0.41419-0.86667 0.80399
   2  -1   1 4969.72  126.18   1 0.16488 0.10624-0.67945 0.61955-0.71495 0.77773
  -2   1  -1 4742.01  108.74   1-0.04619-0.22490-0.46099 0.52089-0.88619 0.82345
  -2   1  -2 2908.21   94.66   1-0.37835 0.09121-0.92218 0.97434 0.08019-0.20576
   2  -1   2 2783.43   85.58   1 0.05047 0.23675-0.99084 0.93866-0.12519 0.25072
  -2   1  -2 2892.73  244.71   1 0.27742-0.56446 0.42663-0.37479-0.86082 0.73546
   2  -1   2 2925.45  148.70   1 0.28427 0.00295-0.77190 0.71983-0.56863 0.69413
  -2   1  -2 2963.80   96.52   1 0.06968-0.35684-0.58803 0.64014-0.80582 0.68034
  -2   1  -3   -4.51   23.28   1-0.18748-0.11560 0.96455-0.92030 0.18569-0.37373
  -2   1  -3   83.63   48.34   1-0.40443 0.10120-0.90977 0.95410 0.09350-0.28186
  -2   1  -3   46.36   47.59   1 0.36757-0.67078 0.38626-0.34220-0.84598 0.65798
   2  -1   3    5.17   45.06   1 0.36682-0.06354-0.81969 0.77547-0.43992 0.62817
  -2   1  -3  134.00   39.02   1 0.14613-0.44943-0.66274 0.70694-0.73444 0.54610
  -2   1  -4 1059.62   84.13   1-0.36110 0.04205 0.89592-0.85947 0.25870-0.50944
  -2   1  -4 1535.80   82.21   1-0.45570 0.13639-0.88200 0.91849 0.12001-0.37115
  -2   1  -4 1280.66  138.92   1-0.76854 0.44929-0.10884 0.14521 0.63046-0.88150
   2  -1   4 1743.24  177.17   1 0.42466-0.10538-0.84259 0.80626-0.33120 0.58209
  -2   1  -5  454.47   66.07   1-0.56933 0.23413 0.74852-0.71987 0.33996-0.65342
  -2   1  -5  504.65   52.17   1-0.54099 0.20560-0.82462 0.85328 0.16526-0.47919
  -2   1  -5  680.12  112.74   1-0.83399 0.49866-0.03598 0.06450 0.55059-0.86439
   2  -1   5  573.98  103.76   1 0.46689-0.13154-0.85136 0.82291-0.23912 0.55273
  -2   1  -6 1952.51  113.57   1-0.79261 0.44107 0.44876-0.42793 0.41276-0.78887
  -2   1  -6 1908.40  114.78   1-0.67824 0.32656-0.69364 0.71425 0.24256-0.61903
  -2   1  -6 2136.45  174.44   1-0.88142 0.53000 0.02991-0.00925 0.47138-0.84794
   2  -1   6 2319.54  394.05   1 0.49883-0.14728-0.85189 0.83123-0.15950 0.53605
  -2   1  -7 8246.23  309.29   1-0.91469 0.54732 0.08922-0.07647 0.39418-0.83342
   2  -1   7 7992.81  274.48   1 0.52360-0.15596-0.84727 0.83446-0.08921 0.52852
  -2   1  -8  243.88  107.70   1-0.93672 0.55328 0.14316-0.13827 0.31944-0.82143
   2  -1   8  118.28   66.36   1 0.54330-0.15958-0.83913 0.83417-0.02584 0.52790
  -2   1  -9 5973.00  282.09   1-0.94968 0.55019 0.19208-0.19487 0.24737-0.81197
  -2   1 -10 2596.40  222.97   1-0.95515 0.53959 0.23715-0.24778 0.17730-0.80463
  -2   1 -11  196.20   82.01   1-0.95414 0.52252 0.27874-0.29721 0.10908-0.79914
  -2   1 -12  899.24  218.33   1-0.94757 0.49987 0.31671-0.34336 0.04240-0.79512
  -2   1 -12  638.50  212.71   1-0.59003 0.14217 0.78555-0.81180-0.18643-0.56636
   2   0 -14  781.97  159.22   1-0.62690 0.66214 0.55989-0.66971-0.54176-0.33621
   2   0 -14 1237.13  410.21   1-0.60016 0.63548 0.58620-0.69564-0.54421-0.33502
   2   0 -13  689.06  150.33   1-0.64369 0.69503 0.55611-0.65809-0.52572-0.28954
   2   0 -13  376.72  108.43   1-0.60208 0.65352 0.59841-0.70003-0.52858-0.28785
  -2   0  12  628.60   87.04   1-0.85435 0.78696-0.37849 0.47253 0.35610 0.39673
   2   0 -12  816.16  129.11   1-0.65637 0.72381 0.55300-0.64713-0.51318-0.23937
   2   0 -12 1292.80  204.51   1-0.60276 0.67097 0.60878-0.70287-0.51580-0.23613
  -2   0  11 2880.91  141.46   1-0.80448 0.72088-0.49994 0.58633 0.32071 0.36949
   2   0 -11 2634.64  169.91   1-0.66466 0.74820 0.55084-0.63712-0.50476-0.18507
   2   0 -11 3393.03  232.98   1-0.60370 0.68791 0.61601-0.70227-0.50602-0.18325
  -2   0  10 6861.04  216.35   1-0.74631 0.64662-0.60225 0.68079 0.28337 0.34408
   2   0 -10 7327.58  271.54   1-0.66802 0.76766 0.54993-0.62837-0.50130-0.12582
   2   0 -10 7317.41  311.22   1-0.60419 0.70441 0.62007-0.69848-0.50045-0.12616
  -2   0   9 2747.29  177.75   1-0.68239 0.56659-0.68870 0.75944 0.24498 0.31971
   2   0  -9 2716.56  192.92   1-0.66557 0.78130 0.55059-0.62119-0.50383-0.06058
   2   0  -9 2894.73  241.31   1-0.60419 0.72041 0.62005-0.69062-0.50047-0.06347
  -2   0   827487.85  906.48   1-0.61445 0.48255-0.76153 0.82441 0.20617 0.29578
   2   0  -823626.63  774.96   1 0.06601 0.06592-0.98902 0.92671-0.13218-0.36993
   2   0  -826356.98  883.98   1-0.65591 0.78775 0.55312-0.61587-0.51363 0.01193
   2   0  -826692.44  901.02   1-0.60351 0.73574 0.61449-0.67722-0.50810 0.00680
  -2   0   725845.29  670.14   1-0.54459 0.39657-0.82186 0.87669 0.16720 0.27229
   2   0  -724002.54  617.30   1 0.02839 0.11963-0.99293 0.93841-0.11521-0.32414
   2   0  -725109.08  664.50   1-0.63694 0.78487 0.55768-0.61259-0.53224 0.09325
   2   0  -724883.64  666.43   1-0.60237 0.75053 0.60044-0.65516-0.52592 0.08630
  -2   0   678707.78 1403.08   1-0.47362 0.30951-0.87117 0.91816 0.12939 0.24732
   2   0  -676207.08 1353.63   1 0.00138 0.16274-0.99468 0.94795-0.10292-0.27366
   2   0  -677899.45 1398.67   1-0.60548 0.76951 0.56415-0.61122-0.56134 0.18506
   2   0  -678517.91 1411.11   1-0.59805 0.76232 0.57402-0.62092-0.55931 0.18249
  -2   0   582801.91 1117.61   1-0.40354 0.22334-0.91021 0.94938 0.09304 0.22088
   2   0  -579541.17 1068.92   1-0.01426 0.19448-0.99530 0.95635-0.09575-0.21806
   2   0  -579839.28 1085.08   1-0.55683 0.73727 0.57088-0.61026-0.60334 0.28982
  -2   0   575709.67 1025.42   1-0.81265 0.63230 0.48862-0.44927-0.31754 0.63114
   2   0  -582796.12 1112.54   1-0.58800 0.76840 0.52593-0.56502-0.61452 0.30050
  -2   0   576430.50 1021.33   1-0.59602 0.41553 0.76995-0.73079-0.22787 0.54153
  -2   0   4  148.98   81.23   1-0.33588 0.13949-0.94002 0.97151 0.05946 0.19157
   2   0  -4   44.84   88.57   1-0.01740 0.21373-0.99539 0.96423-0.09431-0.15674
   2   0  -4  236.87  101.16   1-0.48483 0.68132 0.57762-0.60913-0.65672 0.40590
  -2   0   4   29.38   47.17   1-0.72933 0.53311 0.52996-0.49858-0.43266 0.68351
   2   0  -4  203.44   72.81   1-0.56379 0.76030 0.43832-0.46958-0.70000 0.44879
  -2   0   4   96.31   73.02   1-0.60727 0.41102 0.70824-0.67687-0.36000 0.61065
   2   0  -343673.43  589.39   1-0.00653 0.21894-0.99503 0.97166-0.09930-0.08899
   2   0  -343613.56  594.43   1-0.38204 0.59457 0.57932-0.60295-0.72001 0.53190
   2   0  -343516.08  566.50   1-0.50382 0.71645 0.27588-0.29933-0.81856 0.63015
  -2   0   343350.94  561.46   1-0.60114 0.38850 0.59227-0.56882-0.53650 0.72491
   2   0  -213537.70  231.29   1 0.02027 0.20824-0.99355 0.97797-0.11152-0.01400
   2   0  -213884.42  238.36   1-0.24255 0.47095 0.56887-0.58465-0.78584 0.66058
  -2   0   213384.46  224.10   1-0.47379 0.24521 0.57822-0.56247-0.66420 0.78961
   2   0  -213906.95  212.62   1-0.36272 0.59127-0.00702-0.00849-0.93187 0.80642
  -2   0   213741.66  206.91   1-0.54006 0.31131 0.36737-0.35173-0.75720 0.88281
  -2   0   188342.30 1112.97   1-0.16802-0.07663-0.98552 0.99339-0.02264 0.08540
  -2   0   185015.23 1063.63   1-0.30616 0.06172 0.57512-0.56723-0.75861 0.82124
   2   0  -189802.71 1095.09   1-0.11734 0.36202-0.37254 0.36475-0.92056 0.85784
  -2   0   188040.14 1073.95   1-0.36871 0.12402 0.00420 0.00353-0.92953 0.99227
  -2   0   0 4135.67  140.09   1-0.13037-0.13037-0.99063 0.99063-0.04054 0.04054
  -2   0   0 4261.59  112.52   1-0.13024-0.13024 0.55166-0.55166-0.82383 0.82383
   2   0   0 4283.91   95.08   1 0.13035 0.13036-0.64828 0.64828-0.75015 0.75015
  -2   0   0 4062.88   88.65   1-0.13035-0.13035-0.35579 0.35579-0.92542 0.92542
  -2   0  -110582.51  183.92   1-0.21747-0.05910 0.95563-0.96343 0.19864-0.26132
  -2   0  -110535.00  209.27   1-0.10558-0.17121-0.99297 0.98518-0.05334-0.00941
   2   0   110230.15  220.87   1 0.29357-0.01677-0.77804 0.78588-0.55539 0.61814
  -2   0  -110254.60  168.57   1 0.05583-0.33255-0.57382 0.56603-0.81706 0.75432
  -2   0  -2 7437.26  140.25   1-0.32717 0.03449 0.91266-0.92826 0.24495-0.37031
  -2   0  -2 7723.20  174.34   1-0.09615-0.19674-0.99368 0.97811-0.05777-0.06775
   2   0   2 7907.61  166.57   1 0.50186-0.20908 0.31352-0.29776-0.80612 0.93146
  -2   0  -2 7584.34  158.64   1 0.17232-0.46499 0.46802-0.48385-0.86675 0.74139
   2   0   2 7868.53  180.14   1 0.38938-0.09656-0.82999 0.84572-0.39936 0.52480
  -2   0  -2 7754.43  154.51   1 0.16789-0.46078-0.68208 0.66638-0.71173 0.58618
  -2   0  -338725.91  528.99   1-0.45712 0.14847 0.83828-0.86168 0.29718-0.48523
  -2   0  -339873.27  552.91   1-0.10497-0.20401-0.99302 0.96966-0.05363-0.13465
  -2   0  -338690.61  545.75   1 0.27885-0.58760 0.42602-0.44977-0.86066 0.67262
  -2   0  -341716.35  610.52   1-0.64340 0.33441-0.21738 0.19377 0.73401-0.92229
   2   0   342418.36  606.16   1 0.44853-0.13965-0.84851 0.87211-0.28078 0.46894
  -2   0  -339451.60  558.58   1 0.23190-0.54087-0.73457 0.71102-0.63767 0.44933
  -2   0  -419663.11  379.61   1-0.60103 0.27623 0.71778-0.74899 0.35147-0.60224
  -2   0  -420657.71  392.34   1-0.13575-0.18934-0.99001 0.95852-0.03799-0.21304
  -2   0  -419805.32  390.89   1 0.35624-0.68107 0.39089-0.42257-0.84869 0.59797
  -2   0  -421638.45  448.98   1-0.75003 0.42494-0.12657 0.09508 0.64917-0.90021
   2   0   419736.52  400.20   1 0.48809-0.16305-0.85241 0.88380-0.18750 0.43853
  -2   0  -537970.61  919.23   1-0.74500 0.40390 0.53420-0.57324 0.39949-0.71291
  -2   0  -540494.71  983.30   1-0.19514-0.14604-0.98072 0.94136-0.00964-0.30415
  -2   0  -540487.20 1019.20   1-0.82736 0.48639-0.04413 0.00486 0.55992-0.87372
   2   0   541698.25 1042.58   1 0.51643-0.17530-0.84916 0.88840-0.11048 0.42426
  -2   0  -6  575.07   53.45   1-0.86480 0.50789 0.26469-0.31163 0.42667-0.80307
  -2   0  -6  604.82   66.74   1-0.29539-0.06187-0.95456 0.90732 0.03929-0.41585
  -2   0  -6  636.21  105.29   1-0.88137 0.52432 0.02984-0.07696 0.47147-0.84803
   2   0   6  691.54   90.19   1 0.53782-0.18061-0.84189 0.88897-0.04428 0.42083
  -2   0  -7 4320.03  121.31   1-0.90404 0.53021-0.13727 0.08233 0.40478-0.84385
  -2   0  -7 4380.87  125.29   1-0.47427 0.10106-0.87076 0.81593 0.12973-0.56924
  -2   0  -7 5126.70  232.70   1-0.91761 0.54459 0.09539-0.15041 0.38586-0.82510
   2   0   7 4650.31  211.76   1 0.55455-0.18126-0.83201 0.88694 0.01448 0.42481
  -2   0  -8 3751.51  191.37   1-0.94021 0.55112 0.15409-0.21697 0.30373-0.80571
  -2   0  -9 5313.11  242.02   1-0.95213 0.54699 0.20651-0.27706 0.22536-0.78995
  -2   0 -10    7.83   64.90   1-0.95548 0.53426 0.25418-0.33257 0.14981-0.77714
  -2   0 -11 6827.92  326.22   1-0.95158 0.51429 0.29764-0.38387 0.07683-0.76690
  -2   0 -11 6767.88  379.02   1-0.59354 0.15611 0.77697-0.86311-0.20979-0.48026
  -2   0 -12  803.17  160.56   1-0.94152 0.48819 0.33690-0.43130 0.00600-0.75871
  -2   0 -12  772.04  195.37   1-0.59907 0.14558 0.75973-0.85370-0.25281-0.49998
   2   1 -14  134.17   75.02   1-0.67069 0.71160 0.54919-0.59130-0.49854-0.37944
   2   1 -14  399.19  143.50   1-0.60429 0.64617 0.62088-0.66304-0.49933-0.37792
   2   1 -13 1823.00  167.26   1-0.68696 0.74397 0.54447-0.57873-0.48126-0.33400
   2   1 -13 1333.05  278.23   1-0.60574 0.66363 0.63466-0.66898-0.47987-0.33473
  -2  -1  12 6024.07  324.70   1-0.80350 0.73032-0.50192 0.52842 0.32006 0.43289
   2   1 -12 6501.85  392.56   1-0.69970 0.77280 0.54047-0.56688-0.46723-0.28532
   2   1 -12 6066.15  389.45   1-0.60674 0.68063 0.64652-0.67300-0.46246-0.28947
  -2  -1  11 1285.34  125.03   1-0.73031 0.64103-0.62593 0.64457 0.27356 0.41664
   2   1 -11 1304.22  162.59   1-0.70868 0.79788 0.53746-0.55603-0.45704-0.23279
   2   1 -11 1594.71  177.90   1-0.60736 0.69726 0.65623-0.67488-0.44772-0.24155
  -2  -1  10 2580.68  127.04   1-0.64968 0.54431-0.72580 0.73663 0.22608 0.40135
   2   1 -10 2583.57  168.74   1-0.71351 0.81881 0.53578-0.54651-0.45146-0.17566
   2   1 -10 2696.72  186.23   1-0.60771 0.71362 0.66343-0.67423-0.43650-0.19011
  -2  -1   9  372.77   53.84   1-0.28856 0.16730 0.92970-0.92715 0.22885 0.33526
  -2  -1   9  643.28   87.85   1-0.56405 0.44258-0.80625 0.80922 0.17833 0.38636
   2   1  -9  694.28  113.81   1-0.71351 0.83491 0.53579-0.53867-0.45147-0.11294
   2   1  -9  548.49  103.69   1-0.60786 0.72977 0.66748-0.67044-0.43007-0.13388
  -2  -1   826173.20  850.35   1-0.24772 0.11036 0.94544-0.95068 0.21158 0.28985
  -2  -1   830083.26  985.15   1-0.47606 0.33847-0.86964 0.86448 0.13067 0.37161
   2   1  -828816.69  965.52   1-0.70757 0.84507 0.53784-0.53288-0.45831-0.04338
   2   1  -828735.66  958.43   1-0.60785 0.74577 0.66728-0.66240-0.43038-0.07090
  -2  -1   7  652.98   66.71   1-0.21762 0.06415 0.95559-0.96863 0.19870 0.24005
  -2  -1   7  661.84  105.12   1-0.38670 0.23303-0.91832 0.90533 0.08444 0.35505
   2   1  -7  635.97   87.92   1-0.69401 0.84761 0.54229-0.52948-0.47355 0.03456
   2   1  -7  860.00  114.74   1-0.60760 0.76152 0.66084-0.64812-0.44056 0.00193
  -2  -1   612358.44  265.71   1-0.19869 0.02912 0.96135-0.98220 0.19054 0.18552
  -2  -1   613857.95  327.06   1-0.29810 0.12821-0.95366 0.93312 0.04063 0.33592
   2   1  -613266.01  324.64   1-0.67019 0.83989 0.54933-0.52868-0.49906 0.12278
   2   1  -612026.03  256.31   1 0.54253-0.37267-0.83955 0.86020-0.02846-0.34807
   2   1  -613691.81  304.35   1-0.60656 0.77650 0.64423-0.62366-0.46587 0.08990
  -2  -1   587952.81 1165.01   1-0.19168 0.00600 0.96337-0.99202 0.18751 0.12588
  -2  -1   589712.83 1202.00   1-0.21261 0.02664-0.97713 0.94871-0.00121 0.31500
   2   1  -586181.00 1170.80   1-0.63210 0.81789 0.55876-0.53026-0.53686 0.22330
   2   1  -592633.36 1224.76   1-0.60278 0.78872 0.60889-0.58048-0.51565 0.20234
  -2  -1   4   94.85   41.20   1-0.19753-0.00424 0.96169-0.99814 0.19004 0.06067
  -2  -1   4  152.30   98.22   1-0.13183-0.07022-0.99046 0.95417-0.03984 0.29088
   2   1  -4   31.99   62.10   1-0.57361 0.77575 0.56855-0.53233-0.58966 0.33885
  -2  -1   4  157.60   51.31   1-0.78916 0.58712 0.50223-0.53850-0.35352 0.60440
   2   1  -4  106.07   51.88   1-0.58969 0.79183 0.53322-0.49669-0.60657 0.35536
  -2  -1   348757.06  641.37   1-0.21730-0.00056 0.95569-0.99994 0.19857-0.01053
  -2  -1   349620.24  665.95   1-0.05760-0.16047-0.99546 0.95106-0.07576 0.26405
   2   1  -350689.75  679.59   1-0.48699 0.70518 0.57749-0.53339-0.65523 0.46712
  -2  -1   346044.35  614.59   1-0.70351 0.48552 0.53921-0.58340-0.46294 0.65108
   2   1  -350426.50  633.17   1-0.53695 0.75522 0.35895-0.31462-0.76343 0.57502
  -2  -1   350262.38  628.71   1-0.60388 0.38593 0.73779-0.78188-0.30161 0.48960
   2   1  -257549.26  753.07   1-0.36290 0.59696 0.57839-0.52650-0.73058 0.60533
  -2  -1   255001.96  718.37   1-0.59032 0.35623 0.56683-0.61886-0.57464 0.70007
   2   1  -257214.68  699.41   1-0.33539 0.56957-0.05351 0.10572-0.94055 0.81511
  -2  -1   255804.50  683.70   1-0.59358 0.35920 0.55106-0.60322-0.58649 0.71210
  -2  -1   1 2216.68   79.08   1-0.30236 0.05229 0.92386-0.98371 0.23463-0.17195
  -2  -1   1 1893.57  116.97   1 0.06395-0.31423-0.98928 0.92930-0.13125 0.19402
   2   1  -1 2481.93  106.11   1-0.19558 0.44569 0.56261-0.50282-0.80325 0.74062
  -2  -1   1 2241.59   89.43   1-0.44909 0.19881 0.57919-0.63904-0.68032 0.74302
   2   1  -1 2403.44   57.38   1 0.08646 0.16374-0.60488 0.66479-0.79160 0.72886
  -2  -1   1 2426.93   57.90   1-0.37676 0.12646 0.01840-0.07841-0.92612 0.98886
  -2  -1   056027.54  720.17   1-0.36844 0.10238 0.89205-0.95970 0.26169-0.26169
  -2  -1   062527.23  814.90   1 0.10816-0.37453-0.98260 0.91483-0.15097 0.15097
   2   1   061560.06  755.53   1 0.34787-0.08149-0.81014 0.87790-0.47184 0.47184
  -2  -1   060695.91  744.82   1-0.01553-0.25073-0.49640 0.42871-0.86795 0.86795
  -2  -1  -1247629.8 2974.63   1-0.44906 0.16690 0.84373-0.91918 0.29401-0.35670
   2   1   1266726.1 3386.12   1 0.23085 0.05135 0.44582-0.37023-0.86483 0.92751
  -2  -1  -1253667.5 3044.83   1-0.12191-0.16024 0.54956-0.62514-0.82650 0.76388
   2   1   1273971.8 3454.08   1 0.44815-0.16573-0.84844 0.92410-0.28161 0.34433
   2   1   238900.93  546.46   1-0.15659 0.45497 0.97253-0.88927 0.17223-0.04687
  -2  -1  -238016.56  530.05   1-0.54149 0.24323 0.77342-0.85667 0.32954-0.45491
   2   1   241505.28  578.53   1 0.43709-0.13867 0.35043-0.26697-0.82833 0.95367
  -2  -1  -238082.56  532.29   1 0.02908-0.32729 0.51399-0.59748-0.85729 0.73204
   2   1   239203.50  575.13   1 0.49584-0.19730-0.85211 0.93555-0.16741 0.29293
  -2  -1  -237278.30  517.43   1 0.27231-0.57079-0.76375 0.68031-0.58525 0.45975
   2   1   312868.93  267.87   1-0.15826 0.47274 0.97212-0.88106 0.17296 0.01507
  -2  -1  -311759.59  242.43   1-0.64082 0.32642 0.67509-0.76616 0.36549-0.55357
  -2  -1  -312444.21  265.65   1 0.15360-0.46798 0.47468-0.56611-0.86664 0.67860
  -2  -1  -312543.85  278.86   1-0.60833 0.29371-0.24329 0.15190 0.75546-0.94374
   2   1   312771.80  271.54   1 0.52445-0.20983-0.84701 0.93830-0.08661 0.27488
  -2  -1  -312459.14  261.60   1 0.31577-0.63030-0.79196 0.70067-0.52256 0.33431
  -2  -1  -4 3590.03  210.61   1-0.73934 0.40868 0.54324-0.64215 0.39780-0.64854
  -2  -1  -4 3142.14  230.01   1 0.24801-0.57847 0.43891-0.53826-0.86362 0.61289
  -2  -1  -4 3942.97  249.04   1-0.73626 0.40553-0.13954 0.04027 0.66215-0.91319
   2   1   4 3289.68  215.90   1 0.54418-0.21347-0.83865 0.93778-0.02280 0.27383
  -2  -1  -510527.66  306.54   1-0.82672 0.47994 0.37340-0.48012 0.42083-0.73425
  -2  -1  -511141.77  331.94   1 0.10651-0.45336-0.98289 0.87618-0.15024-0.16357
  -2  -1  -510525.68  316.23   1 0.31553-0.66207 0.40988-0.51714-0.85582 0.54241
  -2  -1  -511726.18  378.60   1-0.82620 0.47959-0.04554-0.06151 0.56153-0.87533
  -2  -1  -6  168.05   25.31   1-0.88952 0.52693 0.16125-0.27590 0.42747-0.80387
  -2  -1  -6  126.49   38.34   1 0.04533-0.40828-0.99138 0.87689-0.12287-0.25371
  -2  -1  -6  297.77  125.28   1-0.88623 0.52364 0.03737-0.15230 0.46172-0.83821
  -2  -1  -7 2990.32  187.72   1-0.90682 0.52736-0.09706-0.02564 0.41018-0.84925
  -2  -1  -7 3171.31  202.63   1-0.05169-0.32734-0.99557 0.87328-0.07850-0.36085
  -2  -1  -7 3246.36  304.29   1-0.92412 0.54545 0.11002-0.23281 0.36591-0.80515
  -2  -1  -8  288.42   23.80   1-0.84179 0.44662-0.41365 0.28306 0.34678-0.84876
  -2  -1  -8  278.60   35.17   1-0.21463-0.18048-0.97669 0.84592-0.00023-0.50183
  -2  -1  -8  311.56   79.33   1-0.94558 0.55085 0.17359-0.30423 0.27518-0.77717
  -2  -1  -9  718.26  110.99   1-0.95467 0.54387 0.22933-0.36764 0.18974-0.75434
  -2  -1  -9  698.54  145.20   1-0.59320 0.18224 0.77786-0.91608-0.20742-0.35717
  -2  -1 -10  453.52  136.98   1-0.95409 0.52723 0.27924-0.42540 0.10823-0.73556
  -2  -1 -10  784.45  157.33   1-0.59831 0.17129 0.76248-0.90853-0.24624-0.38108
  -2  -1 -11 9299.14  342.03   1-0.94575 0.50285 0.32345-0.47773 0.03036-0.72035
  -2  -1 -12 1997.66  238.59   1-0.60528 0.14722 0.72849-0.89020-0.32082-0.43111
   2   2 -14 1015.09  292.80   1-0.70414 0.75071 0.53900-0.51338-0.46222-0.41575
   2   2 -14 1191.61  152.84   1-0.60711 0.65468 0.65193-0.62649-0.45430-0.42296
   2   2 -13  322.10  135.88   1-0.71974 0.78241 0.53355-0.50009-0.44416-0.37110
   2   2 -13  117.90  103.50   1-0.60785 0.67142 0.66712-0.63384-0.43064-0.38395
  -2  -2  12  145.90   49.41   1-0.72617 0.64730-0.63182 0.59056 0.27104 0.48191
   2   2 -12  122.91   86.78   1-0.73221 0.81099 0.52885-0.48754-0.42915-0.32340
   2   2 -12   56.83  147.01   1-0.60811 0.68769 0.68072-0.63959-0.40843-0.34350
  -2  -2  11  572.08   75.15   1-0.62800 0.53307-0.74826 0.69919 0.21378 0.47640
   2   2 -11  559.74  114.03   1-0.74141 0.83627 0.52516-0.47602-0.41774-0.27210
   2   2 -11  271.08   99.52   1-0.60798 0.70357 0.69261-0.64364-0.38811-0.30116
  -2  -2  10  399.77  109.74   1-0.49590 0.38512 0.81029-0.86758 0.31224 0.31460
  -2  -2  10  929.92  111.75   1-0.52572 0.41466-0.83602 0.77870 0.15704 0.47081
   2   2 -10 1359.35  188.77   1-0.74700 0.85797 0.52283-0.46583-0.41063-0.21649
   2   2 -10  867.57  132.75   1-0.60761 0.71920 0.70260-0.64580-0.37033-0.25628
  -2  -2   9  330.11   69.49   1-0.45256 0.32568 0.84138-0.90647 0.29539 0.26876
  -2  -2   9  685.14   78.08   1-0.42089 0.29374-0.90135 0.83620 0.10196 0.46311
   2   2  -9  607.43  124.36   1-0.74848 0.87554 0.52220-0.45736-0.40874-0.15566
   2   2  -9  461.76   91.18   1-0.60712 0.73473 0.71036-0.64571-0.35605-0.20789
  -2  -2   8   77.43   27.47   1-0.41939 0.27641 0.86281-0.93570 0.28225 0.21922
  -2  -2   8   48.36   82.80   1-0.31601 0.17263-0.94745 0.87487 0.04953 0.45253
   2   2  -8  161.44   85.51   1-0.74496 0.88812 0.52369-0.45101-0.41325-0.08845
   2   2  -8  335.73   94.58   1-0.60673 0.75034 0.71524-0.64274-0.34684-0.15444
  -2  -2   7 1168.18  215.46   1-0.39651 0.23744 0.87647-0.95716 0.27307 0.16571
  -2  -2   7 1821.87  160.75   1-0.21390 0.05444-0.97685 0.89639-0.00058 0.43990
   2   2  -7 1890.96  168.93   1-0.73507 0.89433 0.52772-0.44720-0.42564-0.01335
   2   2  -7 1635.90  152.85   1-0.60666 0.76628 0.71602-0.63569-0.34534-0.09329
  -2  -2   625005.13  479.57   1-0.38427 0.20910 0.88342-0.97191 0.26813 0.10797
  -2  -2   626526.46  677.43   1-0.11608-0.05947-0.99211 0.90378-0.04728 0.42384
   2   2  -626216.30  537.72   1-0.71666 0.89202 0.53467-0.44630-0.44779 0.07151
   2   2  -625131.63  474.10   1 0.47593-0.30031-0.85214 0.94053-0.21755-0.15877
   2   2  -626412.73  674.86   1-0.60714 0.78276 0.71018-0.62200-0.35639-0.01957
  -2  -2   5 4598.02  131.42   1-0.38312 0.19185 0.88406-0.98035 0.26766 0.04575
  -2  -2   5 5578.38  179.54   1-0.02445-0.16710-0.99554 0.89896-0.09107 0.40490
   2   2  -5 5306.05  183.73   1-0.68634 0.87780 0.54466-0.44845-0.48193 0.16837
   2   2  -5 5289.08  219.49   1 0.48490-0.29321-0.85245 0.94871-0.19540-0.11819
   2   2  -5 5103.50  142.65   1-0.60801 0.79964 0.69158-0.59556-0.38991 0.07660
  -2  -2   4  416.15   78.22   1-0.39350 0.18613 0.87820-0.98229 0.27186-0.02112
  -2  -2   4  389.06   80.84   1 0.05944-0.26709-0.98983 0.88545-0.12922 0.38028
  -2  -2   4  255.77   50.18   1-0.84120 0.63352 0.46908-0.57309-0.26893 0.51981
   2   2  -4  327.25   51.16   1 0.49090-0.28321-0.85235 0.95644-0.18028-0.07074
   2   2  -4  480.92   53.84   1-0.60639 0.81402 0.64201-0.53815-0.46915 0.21851
  -2  -2   321203.62  339.52   1-0.78039 0.55665 0.50684-0.61873-0.36619 0.55435
   2   2  -322526.85  306.67   1 0.48813-0.26431-0.85245 0.96443-0.18723-0.00092
   2   2  -323375.02  318.47   1-0.57692 0.80081 0.48273-0.37060-0.65888 0.47047
   2   2  -224930.22  373.86   1-0.19817 0.43785 0.96150-0.84180 0.19032-0.31568
   2   2  -224030.02  361.86   1-0.45869 0.69858 0.57888-0.45918-0.67416 0.54875
  -2  -2   224018.05  358.10   1-0.69814 0.45839 0.54097-0.66072-0.46897 0.59440
   2   2  -116965.56  285.06   1-0.25115 0.50693 0.94421-0.81669 0.21304-0.27572
  -2  -2   115982.57  258.17   1-0.49517 0.23951 0.81084-0.93834 0.31196-0.24928
   2   2  -116155.13  264.96   1-0.30513 0.56090 0.57504-0.44757-0.75909 0.69646
  -2  -2   116404.12  258.76   1-0.59081 0.33497 0.56675-0.69434-0.57421 0.63692
   2   2   053034.62  702.61   1-0.29232 0.56420 0.92814-0.79283 0.23042-0.23042
  -2  -2   049783.11  658.58   1-0.55064 0.27888 0.76545-0.90075 0.33295-0.33295
   2   2   053686.83  697.20   1-0.10215 0.37393 0.54566-0.41031-0.83175 0.83175
  -2  -2   051009.34  662.96   1-0.45803 0.18604 0.57890-0.71436-0.67459 0.67459
  -2  -2   053558.95  654.27   1 0.17148-0.44354-0.68520 0.54970-0.70787 0.70787
   2   2   1 8103.61  182.71   1-0.32132 0.60930 0.91538-0.77227 0.24252-0.17984
  -2  -2  -1 7599.54  155.18   1-0.61405 0.32615 0.70436-0.84748 0.35611-0.41880
   2   2   1 7726.24  176.27   1 0.13569 0.15215 0.48086-0.33759-0.86623 0.92891
  -2  -2  -1 7998.10  152.25   1-0.30776 0.01990 0.57524-0.71849-0.75787 0.69524
  -2  -2  -1 7830.43  136.70   1 0.32125-0.60930-0.79523 0.65187-0.51419 0.45144
   2   2   214110.96  291.89   1-0.33789 0.64197 0.90754-0.75662 0.24938-0.12402
  -2  -2  -213541.52  245.78   1-0.68214 0.37814 0.62504-0.77596 0.37947-0.50485
   2   2   213901.60  233.38   1 0.37297-0.06890 0.38361-0.23244-0.84482 0.97016
  -2  -2  -214015.12  228.21   1-0.15549-0.14841 0.55619-0.70733-0.81637 0.69112
  -2  -2  -213391.72  216.16   1 0.37138-0.67548-0.82185 0.67065-0.43201 0.30651
   2   2   3  139.78   54.21   1-0.34169 0.66187 0.90568-0.74696 0.25095-0.06291
  -2  -2  -3   89.07   28.96   1-0.75061 0.43038 0.52503-0.68381 0.40115-0.58920
  -2  -2  -3   92.41   30.45   1-0.01705-0.30285 0.52625-0.68531-0.85015 0.66228
  -2  -2  -3   69.09   58.61   1-0.57742 0.25716-0.26485 0.10569 0.77229-0.96057
  -2  -2  -3   31.65   34.56   1 0.39095-0.71116-0.83064 0.67145-0.39647 0.20830
   2   2   412644.69  347.45   1-0.33209 0.66837 0.91033-0.74381 0.24698 0.00373
  -2  -2  -412511.17  332.98   1-0.81414 0.47780 0.40299-0.56958 0.41804-0.66878
  -2  -2  -411853.05  314.99   1 0.09587-0.43183 0.49409-0.66106-0.86410 0.61360
  -2  -2  -413426.81  367.24   1-0.72967 0.39331-0.14559-0.02144 0.66811-0.91915
   2   2   514610.87  424.55   1-0.30788 0.66026 0.92144-0.74713 0.23693 0.07646
  -2  -2  -512976.28  378.24   1-0.86683 0.51462 0.25761-0.43214 0.42688-0.74054
  -2  -2  -514030.66  408.52   1 0.18145-0.53362 0.46469-0.63963-0.86667 0.55327
  -2  -2  -514895.04  442.27   1-0.83275 0.48051-0.03753-0.13730 0.55237-0.86617
  -2  -2  -514729.48  472.89   1-0.58903 0.23667 0.78775-0.96238-0.18021-0.13344
   2   2   6   53.64   33.26   1-0.26684 0.63532 0.93836-0.75624 0.21969 0.15638
  -2  -2  -6   42.76   24.30   1-0.90062 0.53235 0.08959-0.27194 0.42525-0.80165
  -2  -2  -6   34.87   22.05   1 0.24171-0.60995 0.44147-0.62433-0.86410 0.48802
  -2  -2  -6   24.13   64.76   1-0.89732 0.52908 0.05612-0.23881 0.43777-0.81426
  -2  -2  -6   33.40   93.65   1-0.59339 0.22497 0.77737-0.95983-0.20873-0.16766
   2   2   7 1262.40   94.35   1-0.20478 0.58937 0.95955-0.76963 0.19318 0.24557
  -2  -2  -7 1089.18   83.59   1-0.90657 0.52148-0.10184-0.08861 0.40957-0.84864
  -2  -2  -7 1664.35  157.85   1-0.93433 0.55002 0.13623-0.32678 0.32932-0.76855
  -2  -2  -7 1186.60  143.58   1-0.59731 0.21283 0.76587-0.95616-0.23801-0.20112
  -2  -2  -8 3068.36  127.35   1 0.11236-0.51316-0.98184 0.78400-0.15284-0.34927
  -2  -2  -8 3185.98  162.70   1-0.95179 0.55140 0.20423-0.40246 0.22886-0.73073
  -2  -2  -8 3354.61  234.11   1-0.60071 0.20017 0.75327-0.95139-0.26781-0.23405
  -2  -2  -9 3594.96  172.52   1-0.95524 0.53879 0.26318-0.46925 0.13504-0.69964
  -2  -2  -9 3478.61  256.50   1-0.60357 0.18784 0.73963-0.94542-0.29772-0.26623
  -2  -2 -10 7478.52  442.35   1-0.94804 0.51551 0.31463-0.52855 0.04711-0.67444
  -2  -2 -10 7268.51  485.07   1-0.60574 0.17401 0.72480-0.93844-0.32821-0.29840
  -2  -2 -11  701.60  202.64   1-0.60723 0.15950 0.70881-0.93029-0.35894-0.33033
  -2  -2 -12  198.72  124.64   1-0.60801 0.14426 0.69160-0.92092-0.38987-0.36206
   2   3 -1416867.66  830.87   1-0.72941 0.78165 0.52993-0.43660-0.43257-0.44541
   2   3 -1416881.63 5117.42   1-0.60810 0.66136 0.67978-0.58673-0.40999-0.46727
   2   3 -13 1102.93  213.54   1-0.74426 0.81260 0.52398-0.42280-0.41413-0.40113
   2   3 -13 1300.78  263.50   1-0.60788 0.67715 0.69611-0.59521-0.38196-0.43264
  -2  -3  12 1449.20  171.35   1-0.62147 0.53698-0.75473 0.64574 0.21010 0.54282
   2   3 -12 2050.81  200.10   1-0.75627 0.84071 0.51879-0.40977-0.39860-0.35395
   2   3 -12 1535.56  220.05   1-0.60707 0.69234 0.71109-0.60236-0.35468-0.39726
  -2  -3  11 5897.32  223.89   1-0.50244 0.40181-0.85242 0.73511 0.14461 0.54603
   2   3 -11 6668.90  289.80   1-0.76521 0.86619 0.51428-0.39762-0.38724-0.30266
   2   3 -11 6261.28  283.11   1-0.60575 0.70703 0.72473-0.60815-0.32837-0.36090
  -2  -3  10  561.38   84.60   1-0.38318 0.26646-0.91996 0.79482 0.08265 0.54521
   2   3 -10  624.32  131.85   1-0.77109 0.88813 0.51147-0.38693-0.37920-0.24798
   2   3 -10  702.86  137.64   1-0.60402 0.72131 0.73696-0.61254-0.30336-0.32325
  -2  -3   9 1553.72  159.56   1-0.26621 0.13325-0.96359 0.83109 0.02490 0.53993
   2   3  -9 1346.90  171.09   1-0.77336 0.90644 0.51037-0.37796-0.37606-0.18840
   2   3  -9  692.91  101.88   1-0.60190 0.73507 0.74796-0.61524-0.27975-0.28484
  -2  -3   8  456.12  132.51   1-0.15437 0.00532-0.98758 0.84721-0.02915 0.53123
   2   3  -8  163.50   88.34   1-0.77130 0.92043 0.51137-0.37109-0.37892-0.12282
   2   3  -8   76.18   82.46   1-0.59978 0.74901 0.75703-0.61648-0.25913-0.24273
  -2  -3   7 7639.89  283.66   1-0.04909-0.11593-0.99560 0.84683-0.07970 0.51905
   2   3  -7 7932.29  286.97   1-0.76377 0.92896 0.51495-0.36680-0.38918-0.04985
   2   3  -7 7971.99  270.33   1-0.59788 0.76317 0.76398-0.61559-0.24263-0.19649
  -2  -3   6 4374.40  389.55   1-0.53743 0.35656 0.77689-0.93303 0.32802 0.04808
  -2  -3   6 5774.86  213.49   1 0.04848-0.22960-0.99106 0.83450-0.12429 0.50088
   2   3  -6 5756.66  212.87   1-0.74911 0.93013 0.52193-0.36584-0.40793 0.03165
   2   3  -6 5175.78  162.98   1 0.37486-0.19358-0.82367 0.97985-0.42548 0.04915
   2   3  -6 5652.67  186.07   1-0.59669 0.77804 0.76786-0.61164-0.23311-0.14328
  -2  -3   5139804.3 2433.91   1-0.53886 0.34189 0.77567-0.93961 0.32855-0.01513
   2   3  -5152480.1 2671.96   1-0.72424 0.92136 0.53189-0.36796-0.43880 0.12524
   2   3  -5146349.3 2519.45   1 0.35192-0.15455-0.81226 0.97631-0.46515 0.15140
   2   3  -5151085.3 2603.50   1-0.59717 0.79458 0.76632-0.60228-0.23690-0.07676
  -2  -3   417084.28  291.83   1-0.54962 0.33655 0.76635-0.93810 0.33257-0.08184
   2   3  -416996.06  244.05   1 0.29077-0.07735-0.77620 0.94809-0.55941 0.30842
   2   3  -417403.24  257.10   1-0.60111 0.81458 0.75155-0.57967-0.27171 0.02077
   2   3  -319562.05  328.50   1-0.28245 0.51172 0.93220-0.75264 0.22628-0.41432
   2   3  -319281.12  258.03   1 0.08614 0.14317-0.60457 0.78428-0.79187 0.60365
   2   3  -319357.35  262.08   1-0.60806 0.83739 0.67579-0.49648-0.41659 0.22861
   2   3  -2  197.77   49.79   1-0.33881 0.58418 0.90709-0.71973 0.24976-0.37512
   2   3  -2  -42.87   51.27   1-0.53041 0.77595 0.57394-0.38652-0.62389 0.49848
  -2  -3   2  212.00   67.03   1-0.78991 0.54448 0.50182-0.68933-0.35242 0.47786
   2   3   012100.81  231.06   1-0.41852 0.69598 0.86334-0.66039 0.28190-0.28190
  -2  -3   011778.82  238.13   1-0.67596 0.39847 0.63295-0.83592 0.37742-0.37742
   2   3   013472.51  230.55   1-0.19901 0.47649 0.56311-0.36007-0.80205 0.80205
  -2  -3   013463.52  232.65   1-0.62340 0.34579 0.56062-0.76378-0.54502 0.54502
  -2  -3   012972.73  188.82   1 0.39676-0.67444-0.83297 0.62959-0.38566 0.38566
  -2  -3   013288.72  195.57   1-0.58281 0.30493 0.50480-0.70817-0.63679 0.63679
   2   3   112353.24  303.12   1-0.44210 0.73566 0.84835-0.63760 0.29127-0.22858
   2   3   111984.71  208.28   1 0.04683 0.24664 0.50895-0.29803-0.85951 0.92214
  -2  -3  -112571.36  209.79   1-0.50643 0.21274 0.57612-0.78718-0.64156 0.57886
  -2  -3  -112509.58  198.89   1 0.44251-0.73625-0.84724 0.63600-0.29386 0.23114
  -2  -3  -112639.43  210.92   1-0.60751 0.31414 0.65895-0.86963-0.44351 0.38085
   2   3   226353.81  513.35   1-0.45523 0.76489 0.83957-0.62102 0.29644-0.17107
  -2  -3  -224609.65  475.19   1-0.76954 0.45975 0.49244-0.71109 0.40657-0.53194
   2   3   227351.36  504.91   1 0.31389-0.00434 0.41062-0.19176-0.85607 0.98143
  -2  -3  -225227.41  466.35   1-0.37357 0.06383 0.57909-0.79803-0.72463 0.59922
  -2  -3  -226842.21  496.83   1 0.45277-0.76258-0.84931 0.63020-0.27138 0.14594
  -2  -3  -227415.62  521.70   1-0.60746 0.29809 0.70535-0.92387-0.36533 0.24000
   2   3   318505.31  520.56   1-0.45801 0.78376 0.83767-0.61132 0.29753-0.10947
  -2  -3  -317618.95  462.74   1-0.81537 0.48947 0.40020-0.62667 0.41832-0.60637
   2   3   318415.67  464.81   1 0.55242-0.22662 0.28202-0.05528-0.78440 0.97241
  -2  -3  -318576.45  469.13   1-0.23680-0.08881 0.56818-0.79489-0.78809 0.60021
  -2  -3  -318632.47  477.28   1 0.45239-0.77827-0.84925 0.62227-0.27222 0.08406
  -2  -3  -319216.38  509.57   1-0.60601 0.28064 0.72245-0.94881-0.33286 0.14488
   2   3   4 1614.29  246.74   1-0.45028 0.79213 0.84292-0.60877 0.29449-0.04375
  -2  -3  -4 1125.43   85.69   1-0.85635 0.51452 0.29241-0.52682 0.42561-0.67654
  -2  -3  -4 1304.39  189.12   1-0.11104-0.23058 0.54744-0.78208-0.82944 0.57894
  -2  -3  -4 1612.54  122.31   1-0.73406 0.39207-0.14157-0.09324 0.66415-0.91519
  -2  -3  -4 1799.27  179.38   1-0.60539 0.26401 0.72763-0.96183-0.32256 0.07191
   2   3   5  799.18  136.86   1-0.43146 0.78941 0.85523-0.61328 0.28705 0.02636
  -2  -3  -5  379.65   54.95   1-0.88791 0.53002 0.16960-0.41184 0.42759-0.74125
  -2  -3  -5  487.62   76.51   1-0.00771-0.34995 0.52387-0.76641-0.85176 0.53863
  -2  -3  -5  714.94   88.43   1-0.85001 0.49214-0.01537-0.22725 0.52652-0.84032
  -2  -3  -5  383.09   88.47   1-0.60552 0.24813 0.72661-0.96865-0.32460 0.01129
   2   3   628985.35  580.60   1-0.40036 0.77441 0.87423-0.62448 0.27463 0.10147
  -2  -3  -625818.42  521.21   1-0.90569 0.53112 0.03123-0.28160 0.42278-0.79912
  -2  -3  -624910.42  511.77   1 0.07067-0.44439 0.50190-0.75235-0.86202 0.48628
  -2  -3  -630438.08  608.19   1-0.91567 0.54178 0.09128-0.34174 0.39141-0.76790
  -2  -3  -629388.02  651.14   1-0.60609 0.23269 0.72177-0.97165-0.33421-0.04175
   2   3   7 1085.42  173.52   1-0.35480 0.74495 0.89917-0.64162 0.25612 0.18266
  -2  -3  -7  970.43  101.70   1-0.90540 0.51468-0.12032-0.13789 0.40714-0.84621
  -2  -3  -7  541.26  136.30   1 0.12563-0.51540 0.48439-0.74275-0.86578 0.42740
  -2  -3  -7 1107.71  123.17   1-0.94697 0.55701 0.17941-0.43774 0.26653-0.70577
  -2  -3  -7 1026.22  151.77   1-0.60682 0.21742 0.71421-0.97193-0.34880-0.08982
   2   3   8  101.22   36.42   1-0.29087 0.69725 0.92875-0.66337 0.22981 0.27161
  -2  -3  -8  131.52   57.13   1-0.95549 0.54945 0.25160-0.51760 0.15402-0.65588
  -2  -3  -8  337.98  151.30   1-0.60750 0.20209 0.70452-0.97009-0.36684-0.13445
  -2  -3  -9 4079.46  238.12   1-0.94859 0.52649 0.31230-0.58614 0.05122-0.61582
  -2  -3  -9 4365.10  313.31   1-0.60797 0.18656 0.69303-0.96644-0.38737-0.17657
  -2  -3 -10  654.52  183.34   1-0.60810 0.17068 0.67992-0.96116-0.40977-0.21684
  -2  -3 -11  313.23  161.58   1-0.60778 0.15435 0.66527-0.95435-0.43360-0.25567
   2   4 -14   85.51   81.15   1-0.74813 0.80603 0.52235-0.36130-0.40919-0.46878
   2   4 -14  236.33  107.31   1-0.60751 0.66646 0.70436-0.54369-0.36714-0.51011
   2   4 -13  117.55   83.69   1-0.76205 0.83658 0.51575-0.34707-0.39149-0.42385
   2   4 -13   14.72   89.06   1-0.60611 0.68107 0.72152-0.55301-0.33469-0.47990
   2   4 -1210612.21  431.61   1-0.77351 0.86409 0.51029-0.33375-0.37586-0.37676
   2   4 -1210086.29  395.88   1-0.60393 0.69490 0.73749-0.56114-0.30224-0.44969
  -2  -4  11 3564.62  161.36   1-0.36487 0.25859-0.92816 0.74302 0.07336 0.61728
   2   4 -11 3800.60  248.59   1-0.78226 0.88889 0.50587-0.32146-0.36352-0.32638
   2   4 -11 3598.12  182.43   1-0.60087 0.70756 0.75257-0.56778-0.26939-0.42067
  -2  -4  10   35.22   54.51   1-0.23786 0.11533-0.97123 0.77882 0.01104 0.61654
   2   4 -10  -46.01  103.98   1-0.78810 0.91078 0.50280-0.31051-0.35507-0.27211
   2   4 -10  140.26   81.10   1-0.59716 0.71991 0.76637-0.57375-0.23677-0.39055
  -2  -4   9  450.23   92.43   1-0.11892-0.01969-0.99183 0.79155-0.04594 0.61078
   2   4  -9  366.20  114.32   1-0.79068 0.92940 0.50141-0.30125-0.35129-0.21317
   2   4  -9   52.89   79.81   1-0.59271 0.73152 0.77913-0.57868-0.20404-0.36055
  -2  -4   8  413.32   84.26   1-0.00893-0.14566-0.99512 0.78638-0.09820 0.60032
   2   4  -8  413.24   96.38   1-0.78938 0.94416 0.50211-0.29408-0.35320-0.14855
  -2  -4   732480.02  920.32   1 0.09186-0.26255-0.98534 0.76881-0.14373 0.58308
   2   4  -733684.62  981.62   1-0.78326 0.95409 0.50536-0.28945-0.36208-0.07694
   2   4  -6 5094.52  183.33   1-0.18229 0.36895 0.96598-0.74216 0.18344-0.55951
   2   4  -6 4813.38  320.82   1-0.77079 0.95766 0.51162-0.28785-0.37962 0.00331
   2   4  -6 5221.76  326.03   1 0.24435-0.05741-0.74366 0.96761-0.62230 0.24580
   2   4  -557727.70 1421.16   1-0.26186 0.46463 0.94025-0.70863 0.21759-0.53098
   2   4  -554549.60 1313.53   1 0.17591 0.02706-0.68902 0.92076-0.70306 0.38917
   2   4  -478817.04 1415.39   1-0.33049 0.54935 0.91109-0.67167 0.24632-0.49704
   2   4  -479018.78 1419.20   1-0.71569 0.93457 0.53501-0.29552-0.44893 0.19808
   2   4  -477815.67 1344.33   1 0.03651 0.18235-0.55356 0.79318-0.83200 0.58103
   2   4  -317977.62  379.53   1-0.38845 0.62332 0.88107-0.63388 0.26982-0.45788
   2   4  -318535.35  389.47   1-0.66290 0.89789 0.55130-0.30396-0.50656 0.31842
  -2  -4   317902.34  374.06   1-0.89313 0.65810 0.42076-0.66813-0.15894 0.34712
  -2  -4   317537.70  311.64   1 0.54671-0.78182-0.83719 0.58978-0.01397 0.20224
   2   4  -318200.26  324.55   1-0.26864 0.50365-0.15999 0.40761-0.94985 0.76169
   2   4  -2112190.7 1974.85   1-0.43565 0.68662 0.85254-0.59755 0.28872-0.41409
   2   4  -2110877.5 1942.46   1-0.58110 0.83230 0.56741-0.31225-0.58339 0.45799
  -2  -4   2106046.6 1856.80   1-0.86158 0.61051 0.45252-0.70777-0.22998 0.35542
  -2  -4   2107170.9 1821.75   1 0.49448-0.74570-0.85223 0.59679-0.17080 0.29624
   2   4  -2107198.2 1822.75   1-0.60808 0.85911 0.67752-0.42276-0.41374 0.28842
   2   4  -143292.24  808.85   1-0.47275 0.73981 0.82735-0.56456 0.30328-0.36597
   2   4  -142649.58  779.29   1-0.45769 0.72494 0.57891-0.31588-0.67480 0.61210
  -2  -4   140978.04  746.75   1-0.81949 0.55237 0.48427-0.74740-0.30643 0.36915
  -2  -4   141031.05  706.66   1-0.11054-0.15659-0.38122 0.11813-0.91785 0.98057
   2   4   0 7982.81  206.40   1-0.50026 0.78343 0.80696-0.53636 0.31392-0.31392
   2   4   0 8294.07  197.65   1-0.27640 0.55955 0.57252-0.30181-0.77188 0.77188
  -2  -4   0 7530.21  177.16   1-0.76398 0.48080 0.51486-0.78586-0.38890 0.38890
  -2  -4   0 7654.32  152.07   1 0.53501-0.81837-0.84315 0.57218-0.05349 0.05349
  -2  -4   0 7764.68  165.02   1-0.47685 0.19330 0.21488-0.48600-0.85230 0.85230
   2   4   1 5081.33  161.34   1-0.51870 0.81796 0.79241-0.51402 0.32095-0.25827
   2   4   1 4507.63  144.60   1-0.02968 0.32882 0.52939-0.25079-0.84785 0.91047
  -2  -4  -1 4467.52  120.47   1-0.69181 0.39244 0.54298-0.82170-0.47597 0.41326
  -2  -4  -1 4553.85  110.86   1 0.52248-0.82193-0.84760 0.56879-0.09257 0.02982
  -2  -4  -1 4587.49  133.95   1-0.56986 0.27023 0.45814-0.73712-0.68217 0.61937
   2   4   2 7084.71  300.90   1-0.52847 0.84383 0.78441-0.49822 0.32465-0.19928
   2   4   2 6595.28  184.71   1 0.26200 0.05317 0.43314-0.14660-0.86240 0.98776
  -2  -4  -2 6502.92  183.82   1-0.60132 0.28585 0.56492-0.85148-0.56504 0.43961
  -2  -4  -2 6093.84  210.72   1 0.51041-0.82595-0.85038 0.56373-0.12771 0.00219
  -2  -4  -2 7230.58  226.87   1-0.59586 0.28012 0.56238-0.84917-0.57329 0.44769
   2   4   319746.33  636.19   1-0.52980 0.86126 0.78331-0.48931 0.32515-0.13709
   2   4   319905.20  551.87   1 0.54056-0.20913 0.28963 0.00480-0.78987 0.97787
  -2  -4  -319273.37  535.93   1-0.49346 0.16203 0.57707-0.87161-0.65074 0.46263
  -2  -4  -318566.08  529.06   1 0.49815-0.82977-0.85195 0.55744-0.16131-0.02696
  -2  -4  -320113.65  591.90   1-0.60326 0.27219 0.61251-0.90647-0.51079 0.32280
   2   4   4  300.21   54.75   1-0.52267 0.87022 0.78919-0.48740 0.32245-0.07172
  -2  -4  -4  217.87   32.45   1-0.37910 0.03162 0.57925-0.88166-0.72162 0.47080
  -2  -4  -4  268.50   47.77   1-0.75550 0.40787-0.12129-0.18128 0.64382-0.89485
  -2  -4  -4  276.39  116.06   1-0.60600 0.25893 0.63747-0.93928-0.47579 0.22515
   2   4   550340.98 1300.95   1-0.50674 0.87040 0.80193-0.49233 0.31640-0.00297
  -2  -4  -547836.26 1187.40   1-0.26931-0.09405 0.57182-0.88199-0.77491 0.46177
  -2  -4  -550263.29 1250.34   1-0.88199 0.51848 0.03082-0.34124 0.47024-0.78404
  -2  -4  -552378.04 1349.89   1-0.60693 0.24385 0.64924-0.95890-0.45837 0.14506
   2   4   6  125.02   36.00   1-0.48126 0.86101 0.82121-0.50381 0.30659 0.06951
  -2  -4  -6  110.80   28.98   1-0.17626-0.20315 0.55964-0.87770-0.80977 0.43400
  -2  -4  -6   13.41   35.57   1-0.94028 0.56074 0.15431-0.47254 0.30341-0.67990
  -2  -4  -6  183.27  101.53   1-0.60718 0.22810 0.65313-0.97062-0.45248 0.07651
   2   4   712073.08  384.74   1-0.44482 0.84067 0.84655-0.52135 0.29234 0.14644
  -2  -4  -712280.08  462.32   1-0.60710 0.21201 0.65180-0.97713-0.45450 0.01587
   2   4   8  925.26  206.14   1-0.39509 0.80704 0.87728-0.54428 0.27250 0.22896
  -2  -4  -8  768.64  139.44   1-0.94555 0.53392 0.32414-0.65805 0.02912-0.53093
  -2  -4  -8  813.76  156.23   1-0.60675 0.19565 0.64671-0.97989-0.46217-0.03911
   2   4   9  100.68   35.87   1-0.32800 0.75618 0.91227-0.57143 0.24529 0.31882
  -2  -4  -9  151.00  149.09   1-0.60611 0.17900 0.63870-0.97972-0.47400-0.08995
  -2  -4 -10 1222.77  157.26   1-0.60511 0.16199 0.62828-0.97714-0.48897-0.13764
  -2  -4 -11  784.47  277.13   1-0.60367 0.14455 0.61574-0.97244-0.50639-0.18288
   2   5 -14  340.88  158.25   1-0.76138 0.82550 0.51606-0.28751-0.39239-0.48567
   2   5 -14  313.70  139.90   1-0.60564 0.67028 0.72566-0.49738-0.32651-0.55075
   2   5 -13  263.35  109.22   1-0.77466 0.85483 0.50973-0.27330-0.37426-0.44108
   2   5 -13  679.20  176.81   1-0.60279 0.68301 0.74354-0.50668-0.28944-0.52608
   2   5 -12 3139.61  273.78   1-0.78548 0.88171 0.50419-0.25989-0.35888-0.39374
   2   5 -12 2891.39  226.99   1-0.59896 0.69524 0.76014-0.51544-0.25184-0.50095
  -2  -5  11  413.18  100.33   1-0.23023 0.11812-0.97310 0.72078 0.00733 0.68302
   2   5 -11  120.60  104.46   1-0.79377 0.90605 0.49971-0.24754-0.34670-0.34320
   2   5 -11  387.25  127.31   1-0.59403 0.70636 0.77566-0.52313-0.21323-0.47683
  -2  -5  10 1800.44  183.72   1-0.10578-0.02228-0.99296 0.73203-0.05325 0.68090
   2   5 -10 1893.81  196.27   1-0.79935 0.92768 0.49656-0.23652-0.33829-0.28889
  -2  -5   9  629.71  103.13   1 0.00837-0.15254-0.99431 0.72560-0.10611 0.67099
   2   5  -9  958.85  142.11   1-0.80191 0.94628 0.49509-0.22718-0.33439-0.23007
  -2  -5   8  871.32  132.93   1 0.11144-0.27170-0.98201 0.70550-0.15243 0.65455
   2   5  -8 1003.64  145.03   1-0.80090 0.96132 0.49567-0.21989-0.33594-0.16581
   2   5  -7  372.76   61.83   1-0.20327 0.37953 0.96000-0.67633 0.19252-0.63128
   2   5  -7  599.77  110.31   1-0.79549 0.97196 0.49875-0.21510-0.34413-0.09489
   2   5  -7  434.77   56.74   1 0.16128 0.01519-0.67628 0.96007-0.71876 0.27931
   2   5  -6 8341.25  283.89   1-0.28369 0.47605 0.93170-0.64023 0.22680-0.60288
   2   5  -6 8490.22  304.57   1-0.78434 0.97686 0.50479-0.21327-0.36053-0.01577
  -2  -5   6 8435.68  261.95   1 0.54495-0.73747-0.83822 0.54660-0.02012 0.39667
   2   5  -6 8168.06  250.63   1 0.09975 0.09280-0.61918 0.91083-0.77888 0.40220
   2   5  -5 7891.65  270.05   1-0.35309 0.56155 0.89998-0.60071 0.25563-0.56903
   2   5  -5 8082.38  291.29   1-0.76530 0.97387 0.51424-0.21485-0.38712 0.07352
  -2  -5   5 8295.85  248.16   1 0.52255-0.73115-0.84758 0.54812-0.09237 0.40616
   2   5  -5 7969.87  239.70   1-0.00171 0.21014-0.51194 0.81146-0.85901 0.54531
   2   5  -427695.61  722.42   1-0.41204 0.63651 0.86729-0.56025 0.27931-0.53005
   2   5  -427986.78  727.79   1-0.73503 0.95958 0.52774-0.22052-0.42569 0.17483
  -2  -5   428078.44  684.43   1 0.48461-0.70935-0.85245 0.54495-0.19614 0.44702
   2   5  -428108.69  685.77   1-0.17042 0.39507-0.30258 0.61001-0.93776 0.68687
   2   5  -3  311.73   69.38   1-0.46068 0.70124 0.83583-0.52099 0.29857-0.48663
   2   5  -3  371.93   88.67   1-0.68786 0.92851 0.54420-0.22914-0.48029 0.29215
  -2  -5   3  419.84   52.96   1 0.40463-0.64544-0.83594 0.52058-0.37075 0.55892
   2   5  -3  406.74   45.70   1-0.40608 0.64663 0.07176 0.24376-0.91101 0.72279
   2   5  -212960.16  374.69   1-0.49982 0.75649 0.80730-0.48466 0.31374-0.43911
   2   5  -213504.95  374.99   1-0.61512 0.87187 0.56231-0.23940-0.55265 0.42722
  -2  -5   212683.14  351.52   1-0.91216 0.65544 0.39564-0.71862-0.10686 0.23231
  -2  -5   213063.42  321.73   1 0.20129-0.45819-0.71030 0.38726-0.67449 0.80005
   2   5  -213207.51  327.14   1-0.58216 0.83905 0.50228-0.17896-0.63937 0.51376
   2   5  -1   98.68   81.78   1-0.53012 0.80289 0.78304-0.45260 0.32527-0.38795
   2   5  -1  117.96   44.34   1-0.50257 0.77548 0.57642-0.24566-0.64432 0.58161
  -2  -5   1  154.90   69.52   1-0.89246 0.61969 0.42154-0.75239-0.16061 0.22334
  -2  -5   1  161.48   29.49   1-0.13773-0.13501-0.34618 0.01537-0.92800 0.99072
   2   5  -1   85.03   20.93   1-0.60623 0.87895 0.72045-0.39024-0.33677 0.27411
   2   5   0   63.77   47.06   1-0.33338 0.62219 0.57697-0.23857-0.74562 0.74562
  -2  -5   0   66.57   36.75   1-0.86753 0.57871 0.44716-0.78591-0.21777 0.21777
  -2  -5   0  127.23   41.96   1-0.38774 0.09894 0.03808-0.37683-0.92098 0.92098
   2   5   110173.08  381.55   1-0.56661 0.87160 0.75103-0.40494 0.33896-0.27627
   2   5   110602.14  292.78   1-0.08998 0.39479 0.54313-0.19686-0.83480 0.89743
  -2  -5  -110129.26  272.53   1-0.83626 0.53139 0.47274-0.81936-0.27780 0.21508
  -2  -5  -110383.20  292.87   1-0.50531 0.19998 0.27938-0.62610-0.81645 0.75365
   2   5   212674.19  452.54   1-0.57376 0.89485 0.74438-0.39049 0.34158-0.21620
   2   5   212777.47  378.38   1 0.22283 0.09797 0.44898-0.09478-0.86530 0.99066
  -2  -5  -211948.33  343.32   1-0.79712 0.47620 0.49783-0.85232-0.34168 0.21624
  -2  -5  -211995.11  349.95   1 0.54732-0.86852-0.83683 0.48244-0.01184-0.11366
  -2  -5  -212730.37  387.38   1-0.55653 0.23508 0.41445-0.76899-0.72006 0.59445
   2   5   352326.22 2306.55   1-0.57387 0.91106 0.74428-0.38258 0.34162-0.15355
  -2  -5  -348486.04 1530.79   1-0.74815 0.41091 0.52234-0.88447-0.40916 0.22102
  -2  -5  -352788.00 2320.89   1-0.57905 0.24156 0.49049-0.85289-0.65124 0.46283
   2   5   432050.54  847.36   1-0.56695 0.92025 0.75072-0.38122 0.33908-0.08831
  -2  -5  -432169.55  800.31   1-0.68857 0.33524 0.54398-0.91396-0.47952 0.22866
  -2  -5  -435530.57  937.36   1-0.59004 0.23644 0.53478-0.90500-0.60485 0.35364
   2   5   549235.89 1063.94   1-0.55278 0.92214 0.76356-0.38632 0.33375-0.02033
  -2  -5  -546753.35  865.86   1-0.61945 0.25002 0.56144-0.93925-0.54868 0.23511
  -2  -5  -547346.86  877.78   1-0.93213 0.56302 0.13015-0.50829 0.33790-0.65164
  -2  -5  -549952.44 1003.93   1-0.59546 0.22573 0.56034-0.93838-0.57570 0.26169
   2   5   6   91.70   49.37   1-0.53077 0.91622 0.78250-0.39746 0.32551 0.05058
  -2  -5  -6   27.69   18.22   1-0.95388 0.56867 0.28128-0.66713 0.10479-0.48118
  -2  -5  -6  198.51  126.18   1-0.59808 0.21224 0.57421-0.96006-0.55907 0.18226
   2   5   7 2849.41  315.86   1-0.49993 0.90148 0.80721-0.41437 0.31379 0.12499
  -2  -5  -7 3083.86  191.49   1-0.59915 0.19719 0.58027-0.97394-0.55162 0.11200
   2   5   8  106.58   45.97   1-0.45865 0.87629 0.83723-0.43658 0.29778 0.20369
  -2  -5  -8  299.74  129.88   1-0.59924 0.18116 0.58076-0.98225-0.55101 0.04859
   2   5   9   76.82   30.63   1-0.40425 0.83799 0.87195-0.46350 0.27619 0.28796
  -2  -5  -9  295.74  156.65   1-0.59859 0.16439 0.57704-0.98634-0.55561-0.00961
  -2  -5 -10  389.40  141.75   1-0.59730 0.14698 0.56995-0.98707-0.56424-0.06378
   2   6 -13 2443.95  236.91   1-0.78282 0.86864 0.50558-0.20141-0.36271-0.45263
   2   6 -13 1953.50  151.20   1-0.59847 0.68432 0.76192-0.45732-0.24759-0.56793
   2   6 -12  197.24  127.76   1-0.79299 0.89486 0.50014-0.18809-0.34786-0.40476
   2   6 -12  279.10  116.11   1-0.59288 0.69480 0.77869-0.46626-0.20521-0.54758
  -2  -6  11   52.84   45.81   1-0.11162-0.00602-0.99246 0.67156-0.05050 0.74092
   2   6 -11  393.29  166.04   1-0.80074 0.91866 0.49576-0.17584-0.33617-0.35373
  -2  -6  1010817.66  369.59   1 0.00648-0.14021-0.99442 0.66573-0.10524 0.73289
   2   6 -1011041.97  449.12   1-0.80592 0.93988 0.49272-0.16494-0.32819-0.29900
  -2  -6   9  215.97   82.91   1 0.11196-0.26180-0.98191 0.64543-0.15266 0.71754
   2   6  -9  344.54  157.83   1-0.80821 0.95823 0.49134-0.15568-0.32459-0.23988
   2   6  -821508.76  540.14   1-0.20544 0.37129 0.95935-0.61583 0.19346-0.69490
  -2  -6   820203.05  494.67   1 0.55299-0.71901-0.83314 0.48947 0.00866 0.49339
   2   6  -728376.33  605.89   1-0.28698 0.46893 0.93036-0.57903 0.22818-0.66694
   2   6  -727242.90  634.29   1-0.80195 0.98407 0.49506-0.14366-0.33433-0.10470
  -2  -6   725935.63  529.71   1 0.53446-0.71656-0.84338 0.49187-0.05526 0.49456
   2   6  -685214.78 2136.73   1-0.35762 0.55559 0.89772-0.53864 0.25727-0.63338
   2   6  -684254.35 2128.56   1-0.79139 0.98955 0.50102-0.14175-0.35024-0.02606
  -2  -6   682900.75 2052.68   1 0.50886-0.70704-0.85065 0.49129-0.13209 0.50863
   2   6  -676141.57 1884.52   1-0.03768 0.23566-0.47096 0.83038-0.88134 0.50490
   2   6  -5  179.67   61.48   1-0.41757 0.63165 0.86392-0.49704 0.28152-0.59495
   2   6  -5  150.60   65.98   1-0.77352 0.98774 0.51029-0.14314-0.37584 0.06225
  -2  -6   5  105.03   31.72   1 0.47026-0.68461-0.85171 0.48428-0.23115 0.54476
   2   6  -5   67.43   34.07   1-0.15185 0.36609-0.32754 0.69489-0.93255 0.61894
   2   6  -4 3102.04  502.01   1-0.46773 0.69790 0.83091-0.45623 0.30133-0.55207
   2   6  -4 2636.57  199.07   1-0.74533 0.97555 0.52353-0.14860-0.41277 0.16192
  -2  -6   4 2735.44  168.07   1 0.40711-0.63752-0.83684 0.46155-0.36598 0.61686
   2   6  -4 2626.66  160.63   1-0.30443 0.53465-0.10406 0.47938-0.94683 0.69594
   2   6  -312699.90  523.42   1-0.50881 0.75508 0.80031-0.41782 0.31718-0.50524
   2   6  -313679.76  434.36   1-0.70166 0.94798 0.53982-0.15704-0.46502 0.27688
  -2  -6   312557.01  352.59   1 0.29462-0.54096-0.77872 0.39571-0.55388 0.74213
   2   6  -312757.28  362.67   1-0.46755 0.71371 0.19364 0.18963-0.86249 0.67427
   2   6  -2 1030.46  148.28   1-0.54154 0.80391 0.77337-0.38309 0.32956-0.45493
   2   6  -2 1157.12  115.53   1-0.63454 0.89695 0.55822-0.16759-0.53454 0.40911
  -2  -6   2  887.72   67.43   1 0.10291-0.36548-0.62225 0.23145-0.77602 0.90158
   2   6  -2  820.60   68.70   1-0.57511 0.83763 0.47623-0.08513-0.66516 0.53955
   2   6  -1 2125.82  219.59   1-0.56657 0.84506 0.75107-0.35292 0.33894-0.40164
   2   6  -1 2028.66  154.22   1-0.53019 0.80875 0.57396-0.17548-0.62405 0.56135
  -2  -6   1 1669.78  124.34   1-0.93661 0.65820 0.34990-0.74849-0.01804 0.08077
  -2  -6   1 1798.58  116.82   1-0.13002-0.14833-0.35622-0.04229-0.92531 0.98803
   2   6  -1 1811.83  116.70   1-0.60733 0.88575 0.65564-0.25781-0.44863 0.38597
   2   6   0 4895.88  171.43   1-0.37111 0.66571 0.57902-0.17266-0.72595 0.72595
  -2  -6   0 5294.20  178.92   1-0.93029 0.63583 0.36406-0.77052-0.04481 0.04481
  -2  -6   0 5218.81  175.97   1-0.32102 0.02659-0.07723-0.32911-0.94391 0.94391
   2   6   0 4495.12  154.92   1-0.60219 0.89682 0.74656-0.34015-0.28284 0.28284
   2   6   1 5553.81  322.74   1-0.59600 0.90670 0.72284-0.30909 0.34966-0.28697
   2   6   1 5324.84  194.62   1-0.13245 0.44297 0.55207-0.13810-0.82320 0.88583
  -2  -6  -1 5029.99  188.15   1-0.92481 0.61430 0.37474-0.78906-0.06540 0.00267
  -2  -6  -1 5046.28  213.01   1-0.43917 0.12869 0.13545-0.54969-0.88813 0.82539
   2   6   223380.83  790.20   1-0.60121 0.92801 0.71760-0.29605 0.35153-0.22615
   2   6   223584.11  755.12   1 0.20180 0.12463 0.45710-0.03521-0.86621 0.99157
  -2  -6  -221879.29  703.58   1-0.92218 0.59561 0.37946-0.80165-0.07464-0.05080
  -2  -6  -223054.80  761.84   1-0.50447 0.17738 0.27740-0.69971-0.81765 0.69204
   2   6   3176646.710321.32   1-0.60039 0.94329 0.71843-0.28907 0.35124-0.16316
  -2  -6  -3168980.4 4118.90   1-0.92667 0.58405 0.37125-0.80131-0.05863-0.12954
  -2  -6  -3168896.0 4117.06   1-0.59488 0.25209-0.25282-0.17743 0.76301-0.95129
  -2  -6  -3179462.710467.07   1-0.54076 0.19755 0.36927-0.79941-0.75578 0.56737
   2   6   4 8708.35  256.19   1-0.59356 0.95256 0.72528-0.28812 0.34878-0.09801
  -2  -6  -4 7035.32  134.79   1-0.92653 0.56783 0.11579-0.55384 0.35795-0.60895
  -2  -6  -4 7835.64  242.43   1-0.56104 0.20170 0.42824-0.86619-0.70840 0.45719
   2   6   5 2352.71  287.36   1-0.58050 0.95561 0.73799-0.29303 0.34405-0.03059
  -2  -6  -5 2564.31  247.07   1-0.57208 0.19673 0.46569-0.91151-0.67516 0.36115
   2   6   6  346.69   92.83   1-0.56078 0.95198 0.75636-0.30359 0.33681 0.03934
  -2  -6  -6  392.41   98.39   1-0.57869 0.18722 0.48918-0.94282-0.65254 0.27572
   2   6   7  757.19  115.23   1-0.53363 0.94088 0.78011-0.31961 0.32659 0.11219
  -2  -6  -7  654.09  139.16   1-0.58229 0.17470 0.50279-0.96425-0.63885 0.19923
   2   6   8  310.78   87.39   1-0.49777 0.92112 0.80886-0.34057 0.31296 0.18851
  -2  -6  -8  546.34  138.00   1-0.58393 0.16022 0.50923-0.97850-0.63221 0.12979
  -2  -6  -9  835.78  228.63   1-0.58418 0.14436 0.51023-0.98732-0.63117 0.06595
  -2  -6 -10 1669.02  219.56   1-0.58335 0.12740 0.50691-0.99182-0.63461 0.00658
   2   7 -13  224.42  135.63   1-0.78721 0.87868 0.50327-0.13135-0.35636-0.45897
   2   7 -13  214.74  139.31   1-0.59353 0.68503 0.77699-0.40466-0.20974-0.60578
   2   7 -12  724.09  203.89   1-0.79671 0.90423 0.49806-0.11827-0.34229-0.41033
  -2  -7  11  709.37  121.85   1-0.01201-0.11129-0.99523 0.60656-0.09679 0.78720
   2   7 -11  774.83  174.27   1-0.80387 0.92744 0.49394-0.10627-0.33136-0.35854
  -2  -7  10  447.62  116.21   1 0.09672-0.23612-0.98455 0.58810-0.14589 0.77354
   2   7 -10  515.01  171.35   1-0.80853 0.94814 0.49115-0.09561-0.32409-0.30309
   2   7  -9 4428.94  200.69   1-0.19260 0.34805 0.96311-0.55973 0.18791-0.75203
   2   7  -9 4504.16  246.23   1-0.81040 0.96606 0.49001-0.08660-0.32113-0.24333
  -2  -7   9 3784.69  159.46   1 0.55176-0.70735-0.83399 0.43043 0.00412 0.56068
   2   7  -8 8418.15  305.83   1-0.27590 0.44745 0.93483-0.52365 0.22352-0.72496
   2   7  -8 7922.56  336.40   1-0.80901 0.98073 0.49086-0.07958-0.32333-0.17842
  -2  -7   8 7906.09  271.15   1 0.53283-0.70451-0.84405 0.43265-0.06049 0.56255
   2   7  -7 2851.78  345.87   1-0.34795 0.53560 0.90258-0.48360 0.25352-0.69228
   2   7  -7 2615.38  180.32   1-0.80363 0.99139 0.49408-0.07493-0.33173-0.10729
  -2  -7   7 2564.28  181.20   1 0.50777-0.69554-0.85082 0.43157-0.13512 0.57442
   2   7  -6   98.02   63.00   1-0.40976 0.61344 0.86866-0.44193 0.27840-0.65451
   2   7  -6  159.58   90.58   1-0.79310 0.99691 0.50008-0.07306-0.34770-0.02860
  -2  -7   6   24.17   29.94   1 0.47279-0.67673-0.85192 0.42457-0.22513 0.60146
   2   7  -6   22.74   32.72   1-0.15776 0.36158-0.31965 0.74693-0.93430 0.55797
   2   7  -5  112.30   57.26   1-0.46176 0.68153 0.83508-0.40055 0.29900-0.61242
   2   7  -5  221.62   79.86   1-0.77560 0.99546 0.50926-0.07437-0.37295 0.05935
  -2  -7   5   41.65   29.34   1 0.42223-0.64225-0.84186 0.40664-0.33612 0.64973
   2   7  -5   10.27   24.11   1-0.26606 0.48585-0.16393 0.59921-0.94991 0.63630
   2   7  -4  687.93  113.11   1-0.50494 0.74081 0.80334-0.36100 0.31571-0.56644
   2   7  -4  861.03  116.96   1-0.74832 0.98420 0.52227-0.07961-0.40894 0.15809
  -2  -7   4  714.62  120.27   1 0.34565-0.58157-0.80897 0.36605-0.47548 0.72648
   2   7  -4  605.98   55.07   1-0.38977 0.62546 0.04176 0.40153-0.91996 0.66900
   2   7  -3  684.52  121.68   1-0.54007 0.79204 0.77463-0.32450 0.32901-0.51706
   2   7  -3  734.00   93.18   1-0.70647 0.95844 0.53822-0.08772-0.45958 0.27144
  -2  -7   3  554.35   56.58   1 0.22762-0.47978-0.73128 0.28058-0.64297 0.83130
   2   7  -3  571.46   59.64   1-0.50308 0.75518 0.27413 0.17687-0.81960 0.63119
   2   7  -2  127.94   77.82   1-0.56783 0.83591 0.74991-0.29191 0.33941-0.46479
   2   7  -2  199.54   74.18   1-0.64256 0.91063 0.55638-0.09804-0.52682 0.40140
  -2  -7   2  160.71   31.67   1 0.06655-0.33441-0.58485 0.12656-0.80840 0.93388
   2   7  -2  233.91   45.60   1-0.57645 0.84460 0.48102-0.02212-0.66054 0.53493
   2   7  -114638.59  524.05   1-0.58893 0.87312 0.72983-0.26403 0.34711-0.40980
   2   7  -114530.99  496.21   1-0.54325 0.82747 0.57254-0.10633-0.61405 0.55134
  -2  -7   113113.35  447.17   1-0.95464 0.67060 0.27323-0.73973 0.11833-0.05560
  -2  -7   114564.35  482.27   1-0.11229-0.17168-0.37899-0.08724-0.91856 0.98128
   2   7  -113867.07  461.95   1-0.60495 0.88905 0.62679-0.16136-0.49107 0.42841
   2   7   0 2265.40  132.49   1-0.39059 0.69085 0.57950-0.10541-0.71527 0.71527
  -2  -7   0 2032.08  121.24   1-0.95473 0.65463 0.27195-0.74628 0.12048-0.12048
  -2  -7   0 2054.89  122.41   1-0.26643-0.03362-0.16336-0.31071-0.94990 0.94990
   2   7   0 2248.27  127.28   1-0.60662 0.90673 0.71646-0.24318-0.34451 0.34451
   2   7   111319.63  364.29   1-0.61309 0.92948 0.70536-0.22395 0.35577-0.29308
   2   7   110986.78  298.91   1-0.15390 0.47008 0.55592-0.07427-0.81686 0.87949
  -2  -7  -110497.86  293.34   1-0.95538 0.63920 0.25922-0.74140 0.14155-0.20428
  -2  -7  -110620.36  314.73   1-0.37718 0.06109 0.01916-0.50115-0.92593 0.86319
   2   7   1 9547.10  279.83   1-0.59607 0.91239 0.76979-0.28782-0.22827 0.29100
   2   7   229188.18  659.30   1-0.61686 0.94935 0.70139-0.21218 0.35710-0.23172
   2   7   227698.30  525.28   1 0.20596 0.12610 0.45552 0.03403-0.86607 0.99143
  -2  -7  -226611.64  509.74   1-0.95397 0.62172 0.22129-0.71130 0.20240-0.32787
  -2  -7  -228039.90  581.74   1-0.44977 0.11760 0.15676-0.64649-0.87927 0.75379
   2   7   3 1144.28  182.26   1-0.61534 0.96393 0.70300-0.20598 0.35657-0.16849
  -2  -7  -3 1071.17  126.71   1-0.49446 0.14561 0.25415-0.75206-0.83121 0.64280
   2   7   4 3883.35  274.76   1-0.60852 0.97322 0.71012-0.20531 0.35414-0.10337
  -2  -7  -4 4282.87  207.65   1-0.52290 0.15792 0.32237-0.82810-0.78907 0.53786
   2   7   5 5716.03  234.28   1-0.59622 0.97702 0.72263-0.21001 0.34974-0.03628
  -2  -7  -5 6342.24  265.41   1-0.54075 0.15965 0.36925-0.88279-0.75580 0.44178
   2   7   6 1573.04  329.83   1-0.57805 0.97496 0.74033-0.21991 0.34315 0.03299
  -2  -7  -6 2109.03  197.19   1-0.55193 0.15470 0.40083-0.92220-0.73122 0.35440
   2   7   7 1955.86  388.35   1-0.55340 0.96636 0.76301-0.23486 0.33398 0.10480
  -2  -7  -7 2544.51  235.78   1-0.55878 0.14543 0.42128-0.95046-0.71433 0.27471
   2   7   8  143.50   67.33   1-0.52122 0.95027 0.79037-0.25443 0.32190 0.17956
  -2  -7  -8  452.52  198.47   1-0.56219 0.13285 0.43326-0.97033-0.70443 0.20201
  -2  -7  -9   79.28   97.25   1-0.56398 0.11853 0.43895-0.98383-0.69945 0.13423
   2   8 -12 3644.39  285.33   1-0.79711 0.91027 0.49784-0.05029-0.34169-0.41093
  -2  -8  11  371.75  108.68   1 0.06768-0.19665-0.98881 0.53238-0.13293 0.82334
   2   8 -11  353.56  125.65   1-0.80364 0.93285 0.49407-0.03866-0.33173-0.35818
   2   8 -1011159.81  636.22   1-0.16709 0.31213 0.96995-0.50672 0.17682-0.80361
   2   8 -1011765.34  701.33   1-0.80769 0.95295 0.49166-0.02837-0.32541-0.30177
  -2  -8  1011747.46  662.32   1 0.55491-0.70009-0.83175 0.36830 0.01583 0.61173
   2   8  -915999.11  829.96   1-0.25302 0.41416 0.94353-0.47249 0.21383-0.77795
   2   8  -917620.56  939.76   1-0.80899 0.97029 0.49087-0.01972-0.32337-0.24109
  -2  -8   915536.83  796.38   1 0.53683-0.69809-0.84234 0.37105-0.04754 0.61235
   2   8  -8 4796.04  640.50   1-0.32738 0.50463 0.91256-0.43373 0.24503-0.74647
   2   8  -8 5954.61  278.52   1-0.80706 0.98442 0.49204-0.01301-0.32640-0.17534
  -2  -8   8 5446.36  203.93   1 0.51363-0.69098-0.84977 0.37063-0.11856 0.62062
   2   8  -7 8751.38  346.82   1-0.39141 0.58468 0.87940-0.39282 0.27101-0.70981
   2   8  -7 9047.85  381.53   1-0.80118 0.99459 0.49551-0.00861-0.33551-0.10351
  -2  -8   7 8813.80  309.68   1 0.48281-0.67635-0.85242 0.36515-0.20064 0.63968
   2   8  -6  630.45  122.68   1-0.44567 0.65504 0.84599-0.35161 0.29268-0.66878
   2   8  -6  912.61  101.71   1-0.79022 0.99967 0.50166-0.00689-0.35197-0.02434
  -2  -8   6  700.35  120.20   1 0.44138-0.65100-0.84699 0.35184-0.29628 0.67260
   2   8  -5 1575.42  255.88   1-0.49123 0.71670 0.81382-0.31164 0.31044-0.62386
   2   8  -5 1810.43  210.17   1-0.77242 0.99793 0.51083-0.00818-0.37737 0.06377
  -2  -8   5 1399.80  238.10   1 0.38359-0.60927-0.82754 0.32453-0.40990 0.72350
   2   8  -5 1284.62  131.56   1-0.35167 0.57710-0.02602 0.52904-0.93575 0.62214
   2   8  -4  227.00   84.84   1-0.52889 0.77046 0.78407-0.27408 0.32480-0.57554
   2   8  -4  242.86   94.70   1-0.74512 0.98667 0.52362-0.01325-0.41304 0.16218
  -2  -8   4  147.59   39.90   1 0.30255-0.54409-0.78380 0.27313-0.54232 0.79332
   2   8  -4  153.00   55.77   1-0.44793 0.68923 0.15303 0.35800-0.88086 0.62991
   2   8  -3 4011.43  486.70   1-0.55935 0.81703 0.75765-0.23979 0.33628-0.52436
   2   8  -3 3986.56  168.64   1-0.70368 0.96132 0.53915-0.02094-0.46274 0.27460
  -2  -8   3 3516.12  111.75   1 0.19105-0.44888-0.70184 0.18340-0.68623 0.87456
   2   8  -3 3002.94  198.54   1-0.52885 0.78658 0.33757 0.18122-0.77869 0.59028
   2   8  -2 8647.08  626.74   1-0.58337 0.85716 0.73524-0.20958 0.34509-0.47047
   2   8  -2 8892.39  253.25   1-0.64096 0.91470 0.55675-0.03069-0.52837 0.40295
  -2  -8   2 8768.51  205.78   1 0.05467-0.32815-0.57263 0.04664-0.81798 0.94347
   2   8  -2 7949.21  193.72   1-0.58104 0.85481 0.49798 0.02869-0.64373 0.51813
   2   8  -110313.65  310.12   1-0.60147 0.89136 0.71734-0.18388 0.35162-0.41432
   2   8  -1 9538.80  243.48   1-0.54378 0.83365 0.57248-0.03854-0.61363 0.55093
  -2  -8   1 9793.16  229.93   1-0.08977-0.19982-0.40726-0.12668-0.90888 0.97160
   2   8  -1 9405.07  228.25   1-0.60397 0.89376 0.61820-0.08515-0.50303 0.44037
   2   8   0 7903.74  220.35   1-0.39369 0.69961 0.57955-0.03774-0.71352 0.71352
  -2  -8   0 7008.19  206.42   1-0.94624 0.64054 0.17630-0.71845 0.27115-0.27115
  -2  -8   0 7899.03  227.05   1-0.22036-0.08525-0.23276-0.30898-0.94723 0.94723
   2   8   0 7106.66  209.89   1-0.60771 0.91351 0.70047-0.15958-0.37419 0.37419
   2   8   147829.25 1131.97   1-0.62164 0.94374 0.69628-0.14722 0.35879-0.29610
   2   8   145917.01 1014.27   1-0.15418 0.47602 0.55597-0.00664-0.81677 0.87940
  -2  -8  -141375.35  919.67   1-0.93440 0.61262 0.13641-0.68642 0.32905-0.39180
  -2  -8  -144561.95 1005.95   1-0.32137-0.00036-0.07667-0.47288-0.94384 0.88112
   2   8   2 1264.55  211.22   1-0.62432 0.96251 0.69340-0.13653 0.35973-0.23435
   2   8   2  698.61   90.44   1 0.24855 0.08914 0.43869 0.11853-0.86357 0.98893
  -2  -8  -2  887.81   86.07   1-0.39448 0.05670 0.05034-0.60782-0.91752 0.79204
   2   8   310156.87  407.61   1-0.62224 0.97653 0.69565-0.13097 0.35900-0.17093
  -2  -8  -3 8830.58  327.25   1-0.44556 0.09170 0.14823-0.71345-0.88289 0.69467
   2   8   4 1160.96  208.20   1-0.61538 0.98578 0.70295-0.13048 0.35658-0.10581
  -2  -8  -4  954.92  100.35   1-0.48026 0.11032 0.22100-0.79396-0.84882 0.59786
   2   8   5 1455.91  302.69   1-0.60358 0.99009 0.71519-0.13491 0.35238-0.03892
  -2  -8  -5 1373.72  189.59   1-0.50274 0.11599 0.27332-0.85465-0.82008 0.50607
   2   8   6 1383.18  328.72   1-0.58649 0.98910 0.73222-0.14414 0.34622 0.02992
  -2  -8  -6 2080.71  206.98   1-0.51841 0.11554 0.31113-0.90027-0.79651 0.41970
   2   8   7 4164.10  202.40   1-0.56355 0.98226 0.75383-0.15795 0.33783 0.10100
  -2  -8  -7 4329.98  251.58   1-0.52874 0.10975 0.33730-0.93426-0.77887 0.33925
   2   8   8 9750.91  495.15   1-0.53396 0.96870 0.77983-0.17624 0.32671 0.17475
  -2  -8  -8 9394.09  493.38   1-0.53527 0.10015 0.35445-0.95922-0.76670 0.26428
   2   9 -12  479.43  166.20   1-0.79448 0.91329 0.49931 0.01597-0.34564-0.40698
  -2  -9  11  428.79  119.00   1 0.12943-0.26406-0.97853 0.45433-0.16037 0.85079
   2   9 -11  963.62  247.39   1-0.80033 0.93519 0.49600 0.02716-0.33680-0.35310
   2   9 -1015924.14  519.44   1-0.21972 0.37046 0.95492-0.42403 0.19961-0.82640
   2   9 -1016600.54 3764.39   1-0.80370 0.95460 0.49404 0.03699-0.33163-0.29555
  -2  -9  1015600.41  497.29   1 0.54435-0.69519-0.83856 0.30737-0.02221 0.64978
   2   9  -911922.47  681.76   1-0.29722 0.46407 0.92607-0.38738 0.23248-0.79659
   2   9  -913368.70 2334.54   1-0.80429 0.97124 0.49369 0.04521-0.33072-0.23374
  -2  -9   911674.85  660.37   1 0.52345-0.69038-0.84732 0.30828-0.08965 0.65446
   2   9  -8   94.73   48.89   1-0.36411 0.54699 0.89434-0.34791 0.25993-0.76141
   2   9  -8  401.37  149.87   1-0.80162 0.98462 0.49526 0.05151-0.33484-0.16691
  -2  -9   8   82.92   53.27   1 0.49685-0.67986-0.85205 0.30516-0.16477 0.66682
   2   9  -7 2732.01  711.27   1-0.42112 0.62010 0.86173-0.30750 0.28294-0.72173
   2   9  -7 2671.97  228.34   1-0.79495 0.99401 0.49905 0.05559-0.34494-0.09409
  -2  -9   7 2729.72  316.21   1 0.46205-0.66126-0.85077 0.29570-0.25035 0.68940
   2   9  -6 1505.79  218.61   1-0.46941 0.68448 0.82973-0.26770 0.30198-0.67809
   2   9  -6 1686.86  169.56   1-0.78316 0.99826 0.50541 0.05710-0.36222-0.01408
  -2  -9   6 1594.50  115.53   1 0.41651-0.63179-0.84006 0.27712-0.34757 0.72390
   2   9  -5 1542.62  200.11   1-0.50982 0.74100 0.79951-0.22968 0.31757-0.63099
   2   9  -5 1396.30  147.41   1-0.76450 0.99565 0.51462 0.05577-0.38820 0.07461
  -2  -9   5 1182.04  170.78   1 0.35622-0.58733-0.81447 0.24388-0.45797 0.77172
   2   9  -4  233.65   56.70   1-0.54315 0.79042 0.77199-0.19436 0.33016-0.58090
   2   9  -4  493.65   82.79   1-0.73636 0.98357 0.52721 0.05087-0.42404 0.17319
  -2  -9   4  149.07   49.99   1 0.27585-0.52300-0.76619 0.18776-0.58038 0.83138
   2   9  -313288.03  468.96   1-0.57001 0.83339 0.74789-0.16237 0.34021-0.52828
   2   9  -314151.18  464.20   1-0.69413 0.95744 0.54225 0.04367-0.47342 0.28528
  -2  -9   313344.12  406.32   1 0.17396-0.43746-0.68734 0.10115-0.70519 0.89352
   2   9  -211017.60  511.48   1-0.59111 0.87059 0.72769-0.13438 0.34790-0.47328
   2   9  -211510.70  387.29   1-0.63081 0.91022 0.55904 0.03473-0.53808 0.41266
  -2  -9   210766.96  337.92   1 0.05695-0.33605-0.57499-0.01868-0.81617 0.94165
   2   9  -1  230.74  108.98   1-0.60689 0.90248 0.71180-0.11068 0.35356-0.41626
   2   9  -1  221.58   48.56   1-0.53303 0.82855 0.57367 0.02798-0.62191 0.55920
  -2  -9   1  246.86   49.92   1-0.06578-0.22938-0.43768-0.16378-0.89671 0.95945
   2   9   0 4109.79  164.58   1-0.38131 0.69288 0.57930 0.03023-0.72041 0.72041
  -2  -9   0 4108.21  167.82   1-0.17677-0.13446-0.29392-0.31553-0.93933 0.93933
   2   9   123472.52  798.90   1-0.62399 0.95178 0.69375-0.07703 0.35962-0.29693
   2   9   121484.62  669.94   1-0.13120 0.45872 0.55184 0.06515-0.82356 0.88618
  -2  -9  -121711.99  702.23   1-0.26898-0.05838-0.15947-0.45781-0.94985 0.88712
   2   9   2 5695.06  688.69   1-0.62580 0.96969 0.69180-0.06727 0.36025-0.23487
  -2  -9  -2 4462.83  185.62   1-0.34140-0.00201-0.04343-0.58160-0.93891 0.81346
   2   9   3 3024.67  544.16   1-0.62325 0.98325 0.69455-0.06222 0.35936-0.17128
  -2  -9  -3 2291.69  179.21   1-0.39446 0.03500 0.05031-0.68328-0.91753 0.72931
   2   9   4  130.31   81.28   1-0.61632 0.99242 0.70196-0.06183 0.35691-0.10615
  -2  -9  -4  285.20   86.52   1-0.43343 0.05788 0.12410-0.76481-0.89259 0.64164
   2   9   5  575.33  185.14   1-0.60484 0.99704 0.71391-0.06598 0.35283-0.03937
  -2  -9  -5  723.92  152.04   1-0.46128 0.06966 0.18047-0.82892-0.86870 0.55500
   2   9   6   82.76   40.18   1-0.58848 0.99678 0.73028-0.07454 0.34694 0.02920
  -2  -9  -6  199.02  117.33   1-0.48098 0.07327 0.22259-0.87878-0.84800 0.47156
   2   9   7 1023.26  334.58   1-0.56675 0.99116 0.75090-0.08736 0.33901 0.09983
  -2  -9  -7 2218.77  195.36   1-0.49368 0.06905 0.25237-0.91711-0.83221 0.39259
   2  10 -11  501.98  159.61   1-0.17654 0.31688 0.96751-0.37677 0.18094-0.87041
   2  10 -11  650.19  214.14   1-0.79411 0.93461 0.49952 0.09139-0.34619-0.34371
   2  10 -10  309.86  107.83   1-0.25820 0.41464 0.94162-0.34308 0.21603-0.84283
   2  10 -10  528.68  181.16   1-0.79670 0.95325 0.49807 0.10071-0.34231-0.28487
  -2 -10  10  204.83   63.10   1 0.53553-0.69203-0.84292 0.24399-0.05180 0.67937
   2  10  -9 1636.22  267.79   1-0.32851 0.50106 0.91203-0.30568 0.24550-0.80962
   2  10  -9 1442.76  182.66   1-0.79645 0.96904 0.49821 0.10843-0.34269-0.22177
  -2 -10   9 1013.03  298.58   1 0.51248-0.68508-0.85000 0.24322-0.12184 0.68666
   2  10  -8   34.22   36.35   1-0.38901 0.57760 0.88075-0.26668 0.27005-0.77152
   2  10  -8  172.46  128.51   1-0.79284 0.98149 0.50022 0.11429-0.34809-0.15365
  -2 -10   8  246.30   59.22   1 0.48320-0.67201-0.85243 0.23744-0.19967 0.70144
   2  10  -7 1022.33  213.51   1-0.44044 0.64512 0.84944-0.22756 0.29061-0.72940
   2  10  -7 1262.59  223.13   1-0.78511 0.98981 0.50438 0.11800-0.35941-0.07961
  -2 -10   7  689.62  157.54   1 0.44627-0.65114-0.84805 0.22519-0.28572 0.72477
   2  10  -6  994.15  221.89   1-0.48390 0.70468 0.81927-0.18959 0.30761-0.68372
   2  10  -6 1097.43  163.73   1-0.77211 0.99285 0.51098 0.11928-0.37780 0.00149
  -2 -10   6  968.04  185.46   1 0.39888-0.61982-0.83379 0.20306-0.38168 0.75801
   2  10  -5  666.30  134.06   1-0.52022 0.75710 0.79118-0.15370 0.32153-0.63495
   2  10  -5  646.47   90.19   1-0.75218 0.98896 0.52060 0.11736-0.40395 0.09039
  -2 -10   5  441.29  131.19   1 0.33852-0.57525-0.80510 0.16676-0.48704 0.80079
   2  10  -4 1025.38  167.76   1-0.55012 0.80310 0.76591-0.12063 0.33276-0.58350
   2  10  -4  553.78  145.63   1-0.72230 0.97518 0.53261 0.11319-0.44112 0.19026
  -2 -10   4  844.30  150.28   1 0.26201-0.51479-0.75652 0.11034-0.59918 0.85018
   2  10  -3 3677.28  353.05   1-0.57415 0.84323 0.74401-0.09084 0.34173-0.52980
   2  10  -3 3210.03  139.31   1-0.67818 0.94716 0.54708 0.10657-0.49067 0.30253
  -2 -10   3 3126.06  109.55   1 0.16984-0.43901-0.68377 0.02984-0.70964 0.89798
   2  10  -2  175.37   91.53   1-0.59297 0.87815 0.72586-0.06489 0.34857-0.47395
   2  10  -2   50.35   39.92   1-0.61255 0.89762 0.56281 0.09868-0.55498 0.42956
  -2 -10   2   40.32   29.43   1 0.06797-0.35269-0.58629-0.07507-0.80724 0.93272
   2  10  -1  147.58   86.01   1-0.60693 0.90822 0.71176-0.04298 0.35358-0.41627
   2  10  -1   40.85   29.98   1-0.51140 0.81258 0.57572 0.09367-0.63797 0.57527
  -2 -10   1  151.76   62.69   1-0.03786-0.26292-0.47075-0.19841-0.88145 0.94419
   2  10   0   97.87   35.78   1-0.35272 0.66985 0.57797 0.09881-0.73588 0.73588
  -2 -10   0  316.70   80.76   1-0.13523-0.18162-0.34944-0.32774-0.92714 0.92714
   2  10   1  705.94  186.78   1-0.62159 0.95508 0.69634-0.01196 0.35877-0.29608
  -2 -10  -1  579.39  100.72   1-0.22073-0.11215-0.23223-0.45274-0.94728 0.88456
   2  10   2  298.89  127.15   1-0.62269 0.97228 0.69516-0.00298 0.35916-0.23378
  -2 -10  -2  251.97   90.53   1-0.28919-0.05985-0.12818-0.56458-0.94864 0.82320
   2  10   3   89.12   49.67   1-0.61973 0.98543 0.69833 0.00165 0.35812-0.17004
  -2 -10  -3  220.60   89.68   1-0.34373-0.02136-0.03951-0.66101-0.93823 0.75006
   2  10   4 2499.38  544.74   1-0.61268 0.99448 0.70579 0.00199 0.35562-0.10485
  -2 -10  -4 2616.37  165.19   1-0.38465 0.00349 0.03250-0.74096-0.92248 0.67153
   2  10   5 3852.09  585.50   1-0.60136 0.99927 0.71745-0.00186 0.35159-0.03812
  -2 -10  -5 4314.61  176.41   1-0.41579 0.01856 0.09004-0.80624-0.90499 0.59129
   2  10   6 2507.61  463.32   1-0.58548 0.99949 0.73320-0.00980 0.34586 0.03029
  -2 -10  -6 3146.07  245.96   1-0.43877 0.02546 0.13466-0.85859-0.88844 0.51201
   2  11  -9 2175.35  494.99   1-0.34951 0.52775 0.90179-0.22779 0.25416-0.81828
   2  11  -9 2850.09  248.02   1-0.78548 0.96372 0.50419 0.17020-0.35889-0.20558
   2  11  -8   35.22   60.79   1-0.40475 0.59903 0.87165-0.18992 0.27639-0.77787
   2  11  -8  370.11  162.93   1-0.78072 0.97501 0.50667 0.17560-0.36572-0.13603
   2  11  -7  118.37  101.27   1-0.45163 0.66201 0.84201-0.15248 0.29502-0.73381
   2  11  -7  146.74   90.84   1-0.77165 0.98199 0.51120 0.17893-0.37844-0.06058
   2  11  -6 3034.39  512.76   1-0.49121 0.71769 0.81384-0.11651 0.31043-0.68654
   2  11  -6 2942.43  194.41   1-0.75719 0.98354 0.51838 0.17945-0.39740 0.02112
   2  11  -5 3739.78  390.00   1-0.52426 0.76683 0.78789-0.08277 0.32305-0.63648
   2  11  -5 3911.26  219.75   1-0.73520 0.97764 0.52767 0.17800-0.42548 0.11191
   2  11  -4 8661.81  527.99   1-0.55143 0.81010 0.76476-0.05183 0.33325-0.58398
   2  11  -4 9266.99  538.25   1-0.70292 0.96146 0.53941 0.17411-0.46360 0.21275
   2  11  -3 2007.39  324.27   1-0.57321 0.84799 0.74490-0.02407 0.34138-0.52946
   2  11  -3 1625.77  240.97   1-0.65576 0.93040 0.55316 0.16821-0.51379 0.32565
   2  11  -2 2976.24  373.15   1-0.59020 0.88108 0.72859 0.00003 0.34757-0.47295
   2  11  -2 2777.78  189.90   1-0.58605 0.87678 0.56753 0.16167-0.57831 0.45288
  -2 -11   2 2304.82  152.71   1 0.08503-0.37537-0.60346-0.12560-0.79284 0.91832
   2  11  -1 3260.62  565.41   1-0.60271 0.90970 0.71608 0.02034 0.35207-0.41476
  -2 -11   1 3398.63  215.20   1-0.00792-0.29848-0.50500-0.23186-0.86308 0.92582
  -2 -11   0  846.79  150.80   1-0.09456-0.22790-0.40131-0.34358-0.91104 0.91104
   2  11   1  703.12  162.81   1-0.61538 0.95457 0.70295 0.04908 0.35658-0.29389
  -2 -11  -1  293.01   69.64   1-0.17300-0.16549-0.29907-0.45362-0.93841 0.87569
   2  11   2 2050.17  365.20   1-0.61587 0.97116 0.70243 0.05740 0.35675-0.23137
  -2 -11  -2 1993.42  122.14   1-0.23819-0.11648-0.20564-0.55485-0.94919 0.82375
   2  11   3   37.87   50.95   1-0.61254 0.98393 0.70594 0.06170 0.35557-0.16750
  -2 -11  -3  125.12   64.54   1-0.29231-0.07841-0.12328-0.64496-0.94834 0.76017
   2  11   4 1520.07  354.79   1-0.60532 0.99282 0.71342 0.06202 0.35300-0.10223
   2  12  -7   99.70   59.15   1-0.45632 0.67240 0.83882-0.08165 0.29687-0.73566
   2  12  -7  240.51  116.31   1-0.75456 0.97047 0.51956 0.23815-0.40085-0.03813
   2  12  -6  234.89   90.55   1-0.49277 0.72495 0.81266-0.04769 0.31103-0.68714
   2  12  -6  124.91   67.74   1-0.73793 0.96994 0.52658 0.23897-0.42209 0.04581
   2  12  -5  716.94  261.95   1-0.52318 0.77146 0.78877-0.01600 0.32265-0.63607
   2  12  -5  607.49  154.26   1-0.71340 0.96151 0.53582 0.23757-0.45159 0.13803
   2  12  -4  168.08   74.13   1-0.54815 0.81253 0.76764 0.01293 0.33203-0.58277
   2  12  -4   35.27   48.26   1-0.67788 0.94209 0.54716 0.23407-0.49099 0.24014
   2  12  -3   84.78   74.86   1-0.56812 0.84860 0.74963 0.03884 0.33951-0.52759
   2  12  -3  183.20   77.35   1-0.62641 0.90671 0.55999 0.22909-0.54222 0.35408
   2  12  -2 1833.85  273.12   1-0.58364 0.88022 0.73498 0.06130 0.34519-0.47057
   2  12  -1 3349.58  402.77   1-0.59496 0.90765 0.72388 0.08020 0.34929-0.41198
   2  12   0  120.60   65.32   1-0.60235 0.93114 0.71645 0.09544 0.35194-0.35194
   2  12   1  369.04  108.69   1-0.60597 0.95086 0.71275 0.10694 0.35323-0.29054
   2  12   2  387.12  153.86   1-0.60592 0.96692 0.71280 0.11469 0.35322-0.22783
   2  13  -3  132.76  115.13   1-0.55953 0.84571 0.75748 0.09866 0.33635-0.52442
  -3  12   4  196.24  106.56   1-0.89973 0.64144 0.09673 0.74702 0.42557-0.17464
   3 -12  -4  319.08  146.84   1-0.18896 0.44851-0.27712-0.56665-0.94206 0.69118
  -3  12   3  136.23   94.58   1-0.90021 0.62585 0.09294 0.74299 0.42540-0.23721
   3 -12  -3  141.55   93.86   1-0.15360 0.42918-0.32521-0.51078-0.93308 0.74491
  -3  12   2  443.72  131.41   1-0.90003 0.60961 0.09437 0.73373 0.42547-0.30000
   3 -12  -2  147.94  122.29   1-0.11462 0.40623-0.37603-0.45217-0.91949 0.79404
  -3  12   1 2102.65  184.70   1-0.89914 0.59265 0.10128 0.71900 0.42576-0.36303
  -3  12   1 1989.97  143.39   1-0.91864 0.61171 0.09764 0.72343 0.38282-0.32007
   3 -12  -1 1368.74  147.65   1-0.07323 0.38071-0.42868-0.39146-0.90048 0.83774
  -3  12   0  724.47  201.98   1-0.89738 0.57483 0.11399 0.69847 0.42626-0.42626
  -3  12   0  543.09  147.29   1-0.92178 0.59878 0.10463 0.70858 0.37331-0.37331
   3 -12   0  395.45  154.35   1-0.02826 0.35181-0.48186-0.33048-0.87578 0.87578
  -3  12  -1  143.08   80.48   1-0.89450 0.55588 0.13286 0.67178 0.42686-0.48959
  -3  12  -1  255.55  102.22   1-0.92605 0.58698 0.11463 0.69072 0.35956-0.42231
   3 -12   1  158.44   86.09   1 0.01868 0.32092-0.53440-0.27014-0.84501 0.90775
  -3  12  -2 1353.92  136.25   1-0.89007 0.53538 0.15833 0.63848 0.42743-0.55289
  -3  12  -2 1166.25  145.75   1-0.93095 0.57581 0.12699 0.67049 0.34234-0.46783
   3 -12   2 1736.86  174.13   1 0.06680 0.28886-0.58510-0.21165-0.80819 0.93367
  -3  12  -3 1018.20  196.30   1-0.88350 0.51275 0.19092 0.59807 0.42774-0.61594
  -3  12  -3 1042.68  203.74   1-0.93608 0.56486 0.14125 0.64838 0.32217-0.51041
   3 -12   3  904.01  186.97   1 0.11440 0.25688-0.63329-0.15614-0.76540 0.95374
  -3  12  -4  279.69  119.51   1-0.87396 0.48714 0.23121 0.54996 0.42746-0.67839
  -3  12  -4  414.10  175.39   1-0.94109 0.55381 0.15704 0.62473 0.29945-0.55045
   3 -12   4  348.53  145.89   1 0.16235 0.22501-0.67723-0.10435-0.71763 0.96875
  -3  11   6   85.22   91.17   1-0.90399 0.67158 0.05305 0.73937 0.42423-0.04788
   3 -11  -6   32.11   93.11   1-0.27577 0.50852-0.14905-0.64247-0.94959 0.57326
  -3  11   5 1040.89  296.24   1-0.90518 0.65662 0.03838 0.74620 0.42328-0.10966
   3 -11  -5 1175.45  138.88   1-0.24704 0.49585-0.19254-0.59122-0.94968 0.63607
  -3  11   4 2260.22  175.07   1-0.90585 0.64114 0.02877 0.74796 0.42260-0.17171
   3 -11  -4 2727.77  228.83   1-0.21448 0.47964-0.24119-0.53487-0.94647 0.69559
  -3  11   3  170.02   89.93   1-0.90613 0.62527 0.02443 0.74445 0.42229-0.23411
  -3  11   3  138.35   60.49   1-0.87584 0.59518 0.02128 0.74793 0.48213-0.29385
   3 -11  -3  459.21  151.28   1-0.17716 0.45835-0.29340-0.47487-0.93943 0.75126
  -3  11   2  115.24   87.23   1-0.90605 0.60905 0.02559 0.73544 0.42237-0.29692
  -3  11   2  165.42   70.53   1-0.88001 0.58328 0.02771 0.73365 0.47414-0.34862
   3 -11  -2  317.55  100.79   1-0.13575 0.43297-0.34876-0.41171-0.92732 0.80188
  -3  11   1  242.51   94.97   1-0.90560 0.59245 0.03257 0.72061 0.42287-0.36015
  -3  11   1  267.37  104.96   1-0.88652 0.57395 0.03785 0.71545 0.46112-0.39837
   3 -11  -1  205.36   90.69   1-0.09069 0.40395-0.40612-0.34657-0.90930 0.84658
  -3  11   0  992.82  196.02   1-0.90461 0.57531 0.04574 0.69959 0.42376-0.42376
  -3  11   0  856.39  191.98   1-0.89432 0.56567 0.05088 0.69456 0.44451-0.44451
   3 -11   0  729.94  180.65   1-0.04341 0.37257-0.46426-0.28038-0.88463 0.88463
  -3  11  -1   51.58   74.85   1-0.90282 0.55738 0.06557 0.67191 0.42497-0.48769
  -3  11  -1   41.21   71.41   1-0.90290 0.55818 0.06617 0.67141 0.42472-0.48747
   3 -11   1   68.33   72.87   1 0.00682 0.33840-0.52142-0.21543-0.85326 0.91600
  -3  11  -2 4350.51  263.44   1-0.90025 0.53988 0.09265 0.63645 0.42539-0.55086
  -3  11  -2 4736.72  295.26   1-0.91175 0.55096 0.08322 0.64650 0.40220-0.52770
   3 -11   2 5110.54  291.91   1 0.05822 0.30307-0.57630-0.15276-0.81516 0.94064
  -3  11  -3 1486.13  146.07   1-0.89535 0.51892 0.12748 0.59380 0.42670-0.61490
  -3  11  -3 1869.05  188.71   1-0.92048 0.54362 0.10169 0.62017 0.37731-0.56556
   3 -11   3 1418.24  176.51   1 0.10892 0.26803-0.62805-0.09363-0.77051 0.95884
  -3  11  -4 1700.58  173.69   1-0.88766 0.49516 0.17088 0.54258 0.42760-0.67853
  -3  11  -4  709.56  182.95   1-0.92874 0.53580 0.12128 0.59272 0.35032-0.60132
   3 -11   4 1007.08  233.08   1 0.15965 0.23339-0.67484-0.03899-0.72048 0.97160
  -3  11  -5 1175.29  114.97   1-0.87584 0.46728 0.22376 0.48188 0.42757-0.74123
  -3  11  -5 1326.71  169.99   1-0.93625 0.52724 0.14176 0.56438 0.32145-0.63519
   3 -11   5 1446.64  143.98   1 0.20874 0.20038-0.71636 0.01037-0.66576 0.97966
  -3  11  -6  212.98   93.37   1-0.85800 0.43337 0.28721 0.41060 0.42584-0.80223
  -3  11  -6  404.62  125.39   1-0.94278 0.51771 0.16293 0.53535 0.29087-0.66736
   3 -11   6  408.89  141.35   1 0.25574 0.16983-0.75201 0.05376-0.60750 0.98400
  -3  10   8 1197.16  165.43   1-0.90573 0.69998 0.03060 0.70976 0.42273 0.07905
   3 -10  -8 1329.50  204.77   1-0.34908 0.55536-0.03044-0.70887-0.93659 0.43481
  -3  10   7 2056.23  197.79   1-0.90717 0.68527 0.00447 0.72805 0.42073 0.01833
   3 -10  -7 1931.73  234.63   1-0.32817 0.55050-0.06549-0.66606-0.94234 0.50328
  -3  10   6 6975.99  319.31   1-0.90787 0.66983-0.01661 0.74128 0.41890-0.04255
   3 -10  -6 6836.69  323.99   1-0.30298 0.54136-0.10637-0.61742-0.94703 0.57070
  -3  10   5 1401.50  263.48   1-0.90814 0.65395-0.03255 0.74938 0.41739-0.10377
   3 -10  -5 1830.57  193.04   1-0.27318 0.52762-0.15302-0.56301-0.94971 0.63610
   3 -10  -4 5782.32  407.27   1-0.23856 0.50905-0.20510-0.50318-0.94922 0.69833
  -3  10   3  313.13  125.21   1-0.90817 0.62169-0.04832 0.74945 0.41579-0.22762
  -3  10   3  490.46  142.53   1-0.81975 0.53346-0.05323 0.75466 0.57024-0.38196
   3 -10  -3  775.25  175.65   1-0.19954 0.48635-0.26237-0.43818-0.94411 0.75594
  -3  10   2 1715.60  170.80   1-0.90817 0.60554-0.04764 0.74092 0.41586-0.29041
  -3  10   2 1207.89  167.25   1-0.83175 0.52938-0.03877 0.73234 0.55379-0.42827
   3 -10  -2 1539.15  363.19   1-0.15540 0.45824-0.32281-0.36995-0.93361 0.80817
  -3  10   1 7331.58  440.19   1-0.90818 0.58941-0.04078 0.72621 0.41657-0.35384
  -3  10   1 6994.67  397.17   1-0.84521 0.52676-0.02170 0.70743 0.53398-0.47122
   3 -10  -1 7388.35  449.31   1-0.10713 0.42600-0.38553-0.29943-0.91645 0.85373
  -3  10   0  600.51  189.64   1-0.90808 0.57315-0.02729 0.70487 0.41790-0.41790
  -3  10   0  538.39  157.76   1-0.85938 0.52486-0.00262 0.68049 0.51131-0.51131
   3 -10   0  428.12  156.53   1-0.05626 0.39104-0.44908-0.22787-0.89171 0.89171
  -3  10  -1  238.63   96.66   1-0.90759 0.55652-0.00662 0.67635 0.41979-0.48251
  -3  10  -1  390.69  133.47   1-0.87369 0.52308 0.01803 0.65198 0.48614-0.54890
   3 -10   1  533.42  176.32   1-0.00230 0.35315-0.51128-0.15787-0.85940 0.92214
  -3  10  -2  201.82  113.06   1-0.90628 0.53906 0.02188 0.63999 0.42210-0.54754
  -3  10  -2  317.18  153.86   1-0.88773 0.52129 0.03982 0.62213 0.45862-0.58411
   3 -10   2  427.77  163.95   1 0.05272 0.31418-0.57060-0.09076-0.81952 0.94501
  -3  10  -3 1504.32  208.59   1-0.90345 0.52009 0.05903 0.59499 0.42459-0.61276
  -3  10  -3 1952.29  208.23   1-0.90098 0.51846 0.06265 0.59144 0.42931-0.61755
   3 -10   3 1291.68  186.88   1 0.10680 0.27582-0.62601-0.02792-0.77246 0.96080
  -3  10  -4   72.43   60.21   1-0.89852 0.50034 0.10587 0.53988 0.42595-0.67688
  -3  10  -4  285.54  130.78   1-0.91322 0.51464 0.08620 0.56004 0.39823-0.64922
   3 -10   4    3.61   87.35   1 0.16045 0.23825-0.67555 0.02946-0.71963 0.97075
  -3  10  -5 2842.05  178.52   1-0.88911 0.47486 0.16342 0.47451 0.42751-0.74117
  -3  10  -5 3213.15  239.16   1-0.92423 0.50957 0.11028 0.52809 0.36555-0.67929
   3 -10   5 3526.22  240.67   1 0.21194 0.20285-0.71892 0.08069-0.66198 0.97587
  -3  10  -6 7852.65  298.50   1-0.87343 0.44312 0.23325 0.39686 0.42743-0.80383
  -3  10  -6 8421.06  381.05   1-0.93381 0.50309 0.13475 0.49576 0.33140-0.70789
   3 -10   6 8035.53  697.50   1 0.26073 0.17046-0.75561 0.12511-0.60088 0.97738
  -3  10  -7  171.55  131.87   1-0.94181 0.49501 0.15948 0.46317 0.29590-0.73513
   3 -10   7  462.83  141.06   1 0.30605 0.14120-0.78599 0.16334-0.53716 0.97641
  -3  10  -8   97.79  127.09   1-0.94810 0.48531 0.18430 0.43059 0.25908-0.76095
   3 -10   8  305.10  136.42   1 0.34783 0.11547-0.81012 0.19532-0.47192 0.97391
  -3   9   9  320.58  131.71   1-0.90758 0.71235-0.00627 0.68674 0.41982 0.14469
   3  -9  -9   92.57  116.94   1-0.39284 0.58881 0.04734-0.72675-0.91838 0.35373
  -3   9   8 1053.01  298.35   1-0.90818 0.69680-0.03957 0.71219 0.41669 0.08509
   3  -9  -8  967.38  256.65   1-0.37588 0.58793 0.01684-0.68851-0.92651 0.42460
  -3   9   7 5833.61  310.85   1-0.90790 0.68037-0.06765 0.73242 0.41369 0.02537
   3  -9  -7 6421.69  356.72   1-0.35515 0.58311-0.02008-0.64375-0.93459 0.49553
  -3   9   6  473.54  178.20   1-0.90713 0.66346-0.09048 0.74740 0.41100-0.03465
  -3   9   6  246.96   77.89   1-0.69564 0.45191-0.17546 0.83266 0.69663-0.32007
   3  -9  -6  440.72  143.95   1-0.32938 0.57340-0.06348-0.59259-0.94205 0.56572
  -3   9   5 2155.93  162.35   1-0.90621 0.64640-0.10796 0.75703 0.40878-0.09517
  -3   9   5 2479.94  139.65   1-0.71050 0.45067-0.16269 0.81202 0.68462-0.37082
   3  -9  -5 2589.44  192.48   1-0.29850 0.55856-0.11351-0.53480-0.94763 0.63402
  -3   9   4 7002.47  418.75   1-0.90543 0.62946-0.11992 0.76114 0.40720-0.15630
  -3   9   4 6932.43  387.16   1-0.72911 0.45317-0.14610 0.78756 0.66861-0.41757
   3  -9  -4 7339.84  446.51   1-0.26215 0.53827-0.16985-0.47070-0.94995 0.69907
  -3   9   3 1223.41  155.93   1-0.90497 0.61285-0.12609 0.75947 0.40635-0.21818
  -3   9   3 1367.71  124.75   1-0.75005 0.45801-0.12655 0.76013 0.64915-0.46087
   3  -9  -3 1131.92  162.95   1-0.22070 0.51312-0.23228-0.40055-0.94727 0.75911
  -3   9   2  406.03  131.24   1-0.90496 0.59670-0.12616 0.75168 0.40634-0.28090
  -3   9   2  226.64   68.77   1-0.77273 0.46472-0.10461 0.73040 0.62605-0.50053
   3  -9  -2  663.70  174.78   1-0.17345 0.48191-0.29846-0.32658-0.93852 0.81308
  -3   9   1 5665.81  271.81   1-0.90544 0.58104-0.11968 0.73736 0.40723-0.34451
  -3   9   1 5216.34  259.38   1-0.79524 0.47116-0.08095 0.69889 0.60086-0.53810
   3  -9  -1 5894.71  297.48   1-0.12147 0.44596-0.36726-0.24999-0.92215 0.85942
  -3   9   0 9654.95  419.69   1-0.90632 0.56577-0.10613 0.71595 0.40902-0.40902
  -3   9   0 9105.72  365.16   1-0.81746 0.47730-0.05591 0.66599 0.57325-0.57325
   3  -9   0 9302.68  402.35   1-0.06647 0.40687-0.43686-0.17239-0.89706 0.89706
  -3   9  -1  532.43  112.72   1-0.90736 0.55066-0.08482 0.68680 0.41168-0.47441
  -3   9  -1  781.78  136.32   1-0.83888 0.48265-0.02984 0.63207 0.54348-0.60624
   3  -9   1  714.70  131.70   1-0.00827 0.36474-0.50460-0.09686-0.86331 0.92605
  -3   9  -2  644.87  124.83   1-0.90811 0.53527-0.05494 0.64907 0.41509-0.54053
  -3   9  -2  657.65  118.18   1-0.85910 0.48679-0.00301 0.59739 0.51178-0.63730
   3  -9   2  764.01  178.78   1 0.05082 0.32171-0.56862-0.02505-0.82102 0.94650
  -3   9  -3 9347.74  368.13   1-0.90785 0.51886-0.01548 0.60176 0.41900-0.60717
  -3   9  -3 8895.07  369.18   1-0.87783 0.48944 0.02433 0.56218 0.47834-0.66662
   3  -9   3 9292.18  380.86   1 0.10856 0.27973-0.62770 0.04151-0.77084 0.95917
  -3   9  -4  480.60  119.73   1-0.90544 0.50030 0.03481 0.54361 0.42303-0.67393
  -3   9  -4  138.65  103.54   1-0.89490 0.49067 0.05188 0.52658 0.44323-0.69422
   3  -9   4  214.04  122.86   1 0.16525 0.23912-0.67977 0.10143-0.71455 0.96567
  -3   9  -5  762.60  110.77   1-0.89962 0.47969 0.09761 0.47261 0.42561-0.73927
  -3   9  -5 1361.09  232.81   1-0.91001 0.48971 0.07974 0.49086 0.40683-0.72057
   3  -9   5 1137.44  170.02   1 0.21908 0.20138-0.72460 0.15411-0.65341 0.96731
  -3   9  -611946.72  681.85   1-0.88687 0.45087 0.17482 0.38758 0.42764-0.80404
  -3   9  -613549.28 2373.75   1-0.92311 0.48673 0.10766 0.45508 0.36915-0.74564
   3  -9   613531.86 2491.92   1 0.26949 0.16733-0.76179 0.19906-0.58909 0.96559
  -3   9  -7 5544.16  222.35   1-0.86346 0.41139 0.26928 0.28530 0.42652-0.86565
  -3   9  -7 5775.89  312.31   1-0.93409 0.48165 0.13555 0.41934 0.33028-0.76952
   3  -9   7 6637.87  687.85   1 0.31580 0.13707-0.79198 0.23708-0.52252 0.96176
  -3   9  -8  127.28  150.14   1-0.94289 0.47437 0.16332 0.38371 0.29030-0.79229
   3  -9   8  105.76  107.44   1 0.35803 0.11089-0.81538 0.26833-0.45492 0.95692
  -3   9  -9  549.42  241.82   1-0.94944 0.46493 0.19082 0.34848 0.24928-0.81387
   3  -9   9  111.20   69.80   1 0.39583 0.08879-0.83260 0.29326-0.38740 0.95189
  -3   8  10 4148.73  274.03   1-0.90817 0.72346-0.03699 0.65755 0.41695 0.21028
   3  -8 -10 5266.85  375.43   1-0.43177 0.61727 0.12085-0.74025-0.89384 0.26645
  -3   8   9 1098.54  151.78   1-0.90760 0.70674-0.07822 0.69093 0.41247 0.15204
   3  -8  -9 1237.75  171.21   1-0.41885 0.62043 0.09587-0.70752-0.90297 0.33832
  -3   8   8  339.52  156.01   1-0.90584 0.68883-0.11396 0.71882 0.40800 0.09378
   3  -8  -8  400.20  128.45   1-0.40211 0.61977 0.06438-0.66830-0.91332 0.41141
  -3   8   7  276.25  131.71   1-0.90340 0.67025-0.14427 0.74128 0.40377 0.03529
   3  -8  -7   -5.58   27.94   1 0.54485-0.31169 0.28690-0.88367-0.78792 0.34924
   3  -8  -7  232.82  119.01   1-0.38092 0.61466 0.02582-0.62200-0.92424 0.48507
  -3   8   6 4485.69  296.78   1-0.90076 0.65146-0.16914 0.75830 0.40000-0.02366
   3  -8  -6 5147.86  374.07   1-0.35502 0.60466-0.02030-0.56804-0.93463 0.55830
  -3   8   5 3677.13  199.59   1-0.89875 0.63384-0.18788 0.76905 0.39614-0.08246
  -3   8   5 4552.74  207.77   1-0.60137 0.33590-0.24825 0.82981 0.75942-0.44562
   3  -8  -5 3368.84  253.35   1-0.32301 0.58871-0.07397-0.50661-0.94349 0.62988
  -3   8   414296.62  539.18   1-0.89681 0.61579-0.20151 0.77483 0.39385-0.14290
  -3   8   413602.15  473.05   1-0.63437 0.35280-0.22421 0.79790 0.73979-0.48875
   3  -8  -411388.70  455.32   1-0.28479 0.56653-0.13507-0.43776-0.94902 0.69813
  -3   8   3  532.12  143.40   1-0.89564 0.59852-0.20911 0.77461 0.39253-0.20432
  -3   8   3  393.19   82.07   1-0.66855 0.37088-0.19774 0.76355 0.71689-0.52861
   3  -8  -3  705.90  127.16   1-0.24014 0.53793-0.20277-0.36230-0.94932 0.76115
  -3   8   2 9625.87  370.92   1-0.89545 0.58222-0.21033 0.76798 0.39232-0.26684
  -3   8   210104.79  382.92   1-0.70280 0.38903-0.16935 0.72729 0.69092-0.56540
   3  -8  -2 9649.84  389.75   1-0.18970 0.50377-0.27610-0.28122-0.94221 0.81677
  -3   8   1 1032.85  151.24   1-0.89633 0.56699-0.20465 0.75447 0.39331-0.33057
  -3   8   1 1415.73  173.21   1-0.73625 0.40638-0.13954 0.68961 0.66215-0.59940
   3  -8  -1 1229.16  170.36   1-0.13337 0.46347-0.35186-0.19767-0.92649 0.86377
  -3   8   0  756.36  138.71   1-0.89826 0.55281-0.19145 0.73343 0.39555-0.39555
  -3   8   0  742.50  154.55   1-0.76865 0.42286-0.10873 0.65103 0.63035-0.63035
   3  -8   0 1035.42  151.53   1-0.07354 0.41956-0.42831-0.11325-0.90063 0.90063
  -3   8  -1 1578.99  184.20   1-0.90063 0.53831-0.17023 0.70445 0.39983-0.46256
  -3   8  -1 1626.69  207.90   1-0.79863 0.43676-0.07725 0.61169 0.59683-0.65959
   3  -8   1 1687.05  188.22   1-0.01047 0.37256-0.50213-0.03164-0.86472 0.92746
  -3   8  -2  599.49  108.08   1-0.90386 0.52539-0.13930 0.66567 0.40449-0.52994
  -3   8  -2  211.86  101.15   1-0.82632 0.44837-0.04538 0.57197 0.56135-0.68687
   3  -8   2  935.36  126.98   1 0.05318 0.32496-0.57108 0.04510-0.81916 0.94464
  -3   8  -3  226.54   74.29   1-0.90678 0.51216-0.09771 0.61623 0.41010-0.59827
  -3   8  -3   17.15  121.15   1-0.85151 0.45749-0.01337 0.53210 0.52415-0.71243
   3  -8   3  249.34   89.03   1 0.11486 0.27910-0.63372 0.11528-0.76497 0.95331
  -3   8  -4 5940.18  258.34   1-0.90818 0.49742-0.04383 0.55450 0.41626-0.66715
  -3   8  -4 5389.29  303.45   1-0.87407 0.46396 0.01860 0.49227 0.48544-0.73648
   3  -8   4 6284.40  291.49   1 0.17463 0.23542-0.68792 0.17733-0.70446 0.95557
  -3   8  -5  358.73   81.09   1-0.90612 0.47921 0.02450 0.47831 0.42229-0.73591
  -3   8  -5  323.27  174.66   1-0.89396 0.46802 0.05028 0.45256 0.44529-0.75903
   3  -8   5  373.04  135.73   1 0.23063 0.19550-0.73360 0.23086-0.63924 0.95314
  -3   8  -6 7892.42  296.25   1-0.89792 0.45623 0.11024 0.38445 0.42612-0.80251
   3  -8   6 9194.64  371.16   1 0.28235 0.16009-0.77061 0.27563-0.57133 0.94783
  -3   8  -7 4064.22  253.82   1-0.87740 0.41965 0.21744 0.26943 0.42764-0.86677
  -3   8  -7 4689.93  351.74   1-0.92537 0.46728 0.11300 0.37411 0.36180-0.80104
   3  -8   7 5073.98  505.26   1 0.32926 0.12923-0.79989 0.31275-0.50175 0.94099
  -3   8  -8  205.36  124.99   1-0.93693 0.46277 0.14378 0.33547 0.31856-0.82054
   3  -8   8  306.26  121.00   1 0.37112 0.10310-0.82194 0.34253-0.43206 0.93383
  -3   8  -9  217.70  183.33   1-0.94571 0.45548 0.17412 0.29728 0.27440-0.83913
   3  -8   9  153.58   86.60   1 0.40887 0.08142-0.83747 0.36592-0.36258 0.92707
  -3   7  11 1887.30  163.62   1-0.90804 0.73385-0.06030 0.62095 0.41450 0.27545
   3  -7 -11 1937.59  216.17   1-0.46519 0.64022 0.18866-0.74805-0.86486 0.17473
  -3   7  10  357.01  119.25   1-0.90606 0.71572-0.11042 0.66322 0.40846 0.21877
   3  -7 -10  129.20  118.14   1-0.45613 0.64724 0.16979-0.72144-0.87356 0.24616
  -3   7   9  139.33   73.58   1-0.90238 0.69589-0.15461 0.69956 0.40224 0.16227
   3  -7  -9  401.90  130.75   1-0.44375 0.65093 0.14459-0.68850-0.88440 0.31975
  -3   7   8 1924.16  165.06   1-0.89813 0.67584-0.19238 0.72930 0.39539 0.10649
   3  -7  -8 2336.19  123.38   1 0.35563-0.13289 0.39119-0.92826-0.84881 0.34737
   3  -7  -8 2251.79  206.12   1-0.42738 0.65065 0.11229-0.64846-0.89706 0.39515
  -3   7   7 1605.48  145.01   1-0.89298 0.65459-0.22527 0.75435 0.38965 0.04950
   3  -7  -7 1614.05   82.81   1 0.39275-0.15395 0.37371-0.90277-0.84028 0.40160
   3  -7  -7 1308.66  153.25   1-0.40626 0.64561 0.07211-0.60054-0.91090 0.47172
  -3   7   625913.06  889.77   1-0.88790 0.63340-0.25252 0.77377 0.38451-0.00809
   3  -7  -624966.15  797.80   1 0.43419-0.17930 0.35201-0.87319-0.82919 0.45318
   3  -7  -623681.73  807.65   1-0.37955 0.63498 0.02338-0.54406-0.92487 0.54843
  -3   7   525067.89  791.19   1-0.88336 0.61276-0.27404 0.78746 0.38020-0.06652
   3  -7  -526449.48  786.64   1 0.47971-0.20874 0.32656-0.83986-0.81439 0.50105
   3  -7  -526995.69  858.23   1-0.34677 0.61809-0.03438-0.47848-0.93731 0.62370
  -3   7   413387.87  427.37   1-0.87977 0.59306-0.28965 0.79523 0.37695-0.12600
   3  -7  -412072.09  328.49   1 0.52756-0.24050 0.29782-0.80325-0.79559 0.54492
   3  -7  -411961.67  390.72   1-0.30645 0.59383-0.10082-0.40428-0.94652 0.69564
  -3   7   320246.94  473.18   1-0.57579 0.27248-0.26596 0.76400 0.77312-0.58485
   3  -7  -322341.47  544.51   1-0.25862 0.56204-0.17520-0.32214-0.94995 0.76179
  -3   7   2 3165.10  251.00   1-0.87679 0.55786-0.30183 0.79174 0.37432-0.24885
  -3   7   2 3195.10  251.57   1-0.62355 0.30415-0.23225 0.72242 0.74648-0.62096
   3  -7  -2 3413.82  334.47   1-0.20386 0.52355-0.25627-0.23333-0.94485 0.81941
  -3   7   1  288.01  136.98   1-0.87789 0.54285-0.29742 0.77949 0.37528-0.31254
  -3   7   1  256.98  123.30   1-0.66948 0.33398-0.19699 0.67929 0.71622-0.65346
   3  -7  -1  227.61   82.95   1-0.14234 0.47806-0.34012-0.14169-0.92954 0.86682
  -3   7   0  296.51   98.59   1-0.88085 0.52970-0.28510 0.75933 0.37791-0.37791
  -3   7   0  271.16   97.08   1-0.71274 0.36114-0.16073 0.63515 0.68275-0.68275
   3  -7   0  150.85   77.37   1-0.07677 0.42841-0.42437-0.04949-0.90222 0.90222
  -3   7  -1  318.79   94.10   1-0.88557 0.51832-0.26388 0.73028 0.38226-0.44500
  -3   7  -1   72.17   89.77   1-0.75278 0.38507-0.12393 0.59048 0.64649-0.70925
   3  -7   1  226.28   78.65   1-0.00805 0.37576-0.50485 0.03878-0.86316 0.92590
  -3   7  -2  150.70  105.33   1-0.89170 0.50835-0.23252 0.69108 0.38831-0.51378
  -3   7  -2  221.40  132.32   1-0.78959 0.40600-0.08704 0.54584 0.60742-0.73294
   3  -7   2  194.96   78.38   1 0.06068 0.32308-0.57884 0.12055-0.81317 0.93866
  -3   7  -3  395.85  100.17   1-0.89855 0.49909-0.18936 0.64009 0.39590-0.58411
  -3   7  -3  113.31  122.46   1-0.82229 0.42263-0.05022 0.50117 0.56684-0.75512
   3  -7   3  245.99   82.12   1 0.12652 0.27311-0.64472 0.19402-0.75387 0.94221
  -3   7  -416388.85  528.96   1-0.90446 0.48807-0.13237 0.57528 0.40548-0.65637
  -3   7  -416632.40  585.45   1-0.85123 0.43549-0.01375 0.45685 0.52460-0.77565
   3  -7   417370.28  575.96   1 0.18926 0.22645-0.70035 0.25750-0.68824 0.93936
  -3   7  -5 5434.67  229.15   1-0.90807 0.47553-0.05826 0.49332 0.41473-0.72835
   3  -7   5 6031.21  455.58   1 0.24722 0.18480-0.74578 0.31071-0.61861 0.93236
  -3   7  -6 3492.53  157.75   1-0.90528 0.45659 0.03699 0.39022 0.42318-0.79952
  -3   7  -6 4158.33  273.27   1-0.89804 0.45037 0.05738 0.36983 0.43615-0.81264
   3  -7   6 4659.75  692.41   1 0.29962 0.14844-0.78194 0.35471-0.54661 0.92311
  -3   7  -7 6023.70  222.28   1-0.88979 0.42635 0.15985 0.25932 0.42745-0.86658
  -3   7  -7 6383.19  319.86   1-0.91603 0.45229 0.09204 0.32731 0.39039-0.82963
   3  -7   7 6936.71  624.16   1 0.34656 0.11755-0.80945 0.39007-0.47400 0.91324
  -3   7  -8 1626.89  275.29   1-0.93056 0.45075 0.12598 0.28551 0.34376-0.84575
   3  -7   8 1600.08  417.53   1 0.38787 0.09201-0.82936 0.41775-0.40212 0.90389
  -3   7  -9  813.21  241.90   1-0.94172 0.44583 0.15917 0.24445 0.29635-0.86108
   3  -7   9  557.92  144.64   1 0.42464 0.07131-0.84258 0.43883-0.33124 0.89573
  -3   7 -10  519.29  238.77   1-0.94957 0.43768 0.19150 0.20443 0.24824-0.87557
   3  -7  10  357.39  114.49   1 0.45695 0.05507-0.85002 0.45414-0.26201 0.88922
  -3   6  12  381.72  135.15   1-0.90771 0.74404-0.07453 0.57527 0.41290 0.33978
   3  -6 -12  846.64  172.83   1-0.49242 0.65658 0.24949-0.74997-0.83382 0.08019
  -3   6  11  898.64  215.38   1-0.90425 0.72443-0.13485 0.62774 0.40513 0.28483
   3  -6 -11 1180.36  156.08   1-0.48688 0.66717 0.23700-0.72967-0.84069 0.14986
  -3   6  10  417.10  110.68   1-0.89878 0.70301-0.18770 0.67254 0.39617 0.23118
   3  -6 -10  197.16   89.32   1 0.12826 0.06793 0.48337-0.96860-0.86596 0.23916
   3  -6 -10  139.13  115.51   1-0.47918 0.67589 0.21866-0.70255-0.85003 0.22264
  -3   6   9 1469.20  204.51   1-0.89122 0.67935-0.23518 0.71219 0.38782 0.17680
   3  -6  -9  903.19  243.71   1 0.15523 0.05704 0.47411-0.95142-0.86667 0.30254
   3  -6  -9 1304.07  205.50   1-0.46749 0.68028 0.19352-0.66967-0.86255 0.29790
  -3   6   8  104.95   79.62   1-0.88278 0.65479-0.27667 0.74585 0.37966 0.12222
   3  -6  -8   50.79   31.34   1 0.19178 0.03657 0.46087-0.93026-0.86649 0.36504
   3  -6  -8   66.83   98.54   1-0.45167 0.68054 0.16063-0.62905-0.87760 0.37568
  -3   6   7 9080.73  368.18   1-0.87410 0.63001-0.31233 0.77367 0.37200 0.06715
   3  -6  -7 8238.66  548.88   1 0.23700 0.00743 0.44337-0.90484-0.86443 0.42567
   3  -6  -7 8306.64  368.10   1-0.43080 0.67575 0.11895-0.57962-0.89457 0.45539
  -3   6   6115403.2  763.98   1-0.86579 0.60560-0.34218 0.79568 0.36511 0.01130
   3  -6  -6112385.9 2476.58   1 0.28956-0.02904 0.42140-0.87496-0.85940 0.48331
  -3   6   5 5476.16  254.61   1-0.85840 0.58210-0.36616 0.81183 0.35924-0.04555
   3  -6  -5 5352.75  180.80   1 0.34770-0.07111 0.39497-0.84061-0.85034 0.53694
  -3   6   4  934.48  133.08   1-0.85245 0.56004-0.38411 0.82194 0.35465-0.10370
   3  -6  -4  903.33   90.07   1 0.41044-0.11774 0.36461-0.80233-0.83581 0.58514
  -3   6   327277.35  774.17   1-0.84839 0.53987-0.39573 0.82573 0.35158-0.16337
   3  -6  -329335.55  777.62   1 0.47330-0.16452 0.33024-0.76009-0.81664 0.62864
  -3   6   2 2207.38  212.95   1-0.84664 0.52202-0.40061 0.82277 0.35028-0.22480
   3  -6  -2 2260.82  197.32   1 0.53544-0.21057 0.29288-0.71484-0.79215 0.66682
  -3   6   1 1319.26  167.94   1-0.84754 0.50681-0.39812 0.81245 0.35094-0.28821
  -3   6   1 1619.51  185.53   1-0.59496 0.25382-0.25276 0.66728 0.76297-0.70021
  -3   6   0  895.72  118.49   1-0.85130 0.49446-0.38745 0.79394 0.35377-0.35377
  -3   6   0 1038.22  134.10   1-0.65093 0.29369-0.21160 0.61825 0.72904-0.72904
  -3   6  -1 3473.41  292.76   1-0.85798 0.48504-0.36747 0.76612 0.35891-0.42165
  -3   6  -1 3087.14  268.87   1-0.70239 0.32905-0.16971 0.56848 0.69125-0.75401
   3  -6   1 2710.78  231.48   1 0.00014 0.37318-0.51401 0.11563-0.85778 0.92052
  -3   6  -2 3441.71  255.95   1-0.86740 0.47835-0.33665 0.72747 0.36642-0.49189
  -3   6  -2 3411.49  306.08   1-0.74888 0.35944-0.12767 0.51857 0.65028-0.77580
   3  -6   2 3329.35  205.87   1 0.07448 0.31491-0.59289 0.20230-0.80182 0.92730
  -3   6  -3 1947.39  174.51   1-0.87898 0.47382-0.29294 0.67592 0.37624-0.56445
  -3   6  -3 1870.61  192.17   1-0.79052 0.38522-0.08604 0.46920 0.60635-0.79463
   3  -6   3 2329.26  202.72   1 0.14453 0.26077-0.66130 0.27836-0.73606 0.92439
  -3   6  -459218.49 1160.90   1-0.89153 0.47026-0.23347 0.60861 0.38813-0.63908
  -3   6  -464757.24 1316.40   1-0.82672 0.40534-0.04491 0.42021 0.56081-0.81185
   3  -6   467931.07 1357.59   1 0.20990 0.21149-0.71729 0.34220-0.66439 0.91551
  -3   6  -5 4558.94  193.68   1-0.90243 0.46426-0.15413 0.52143 0.40231-0.71593
  -3   6  -5 4297.24  236.21   1-0.85796 0.42050-0.00460 0.37205 0.51369-0.82749
   3  -6   5 4932.82  543.90   1 0.26905 0.16858-0.76149 0.39417-0.58969 0.90343
  -3   6  -6 6859.44  255.10   1-0.90817 0.45385-0.04870 0.40816 0.41575-0.79209
  -3   6  -6 8207.69  398.19   1-0.88450 0.43118 0.03457 0.32487 0.46525-0.84174
   3  -6   6 7112.52  375.94   1 0.32156 0.13213-0.79541 0.43594-0.51372 0.89021
  -3   6  -7 4267.25  166.23   1-0.90019 0.43107 0.09313 0.25833 0.42541-0.86454
  -3   6  -7 4841.48  316.75   1-0.90648 0.43709 0.07288 0.27869 0.41590-0.85514
   3  -6   7 4997.87  454.83   1 0.36776 0.10197-0.82014 0.46852-0.43829 0.87754
  -3   6  -8  541.89  202.77   1-0.92417 0.43871 0.11014 0.23358 0.36575-0.86773
  -3   6  -9   85.20  109.47   1-0.93777 0.43624 0.14633 0.18953 0.31490-0.87964
   3  -6   9  242.81  113.57   1 0.44298 0.05864-0.84735 0.51139-0.29285 0.85734
  -3   6 -10 1614.20  199.84   1-0.94745 0.42990 0.18134 0.14683 0.26352-0.89085
   3  -6  10 1237.69  403.09   1 0.47350 0.04418-0.85198 0.52389-0.22342 0.85063
  -3   5  12  908.19  165.23   1-0.90287 0.73357-0.14974 0.58272 0.40297 0.34971
   3  -5 -12 1138.68  228.27   1-0.51246 0.68226 0.29653-0.72923-0.80588 0.05224
  -3   5  11 2419.04  166.97   1-0.89497 0.70961-0.21338 0.63832 0.39178 0.29831
   3  -5 -11 1514.35  414.73   1-0.04950 0.23532 0.53414-0.95946-0.84394 0.15507
   3  -5 -11 2298.21  242.28   1-0.50768 0.69360 0.28502-0.70991-0.81302 0.12219
  -3   5  10  381.14  151.15   1-0.88407 0.68260-0.27085 0.68795 0.38086 0.24650
   3  -5 -10  201.84   85.26   1-0.03065 0.23251 0.52963-0.94705-0.84767 0.22142
   3  -5 -10  447.45  184.30   1-0.50022 0.70228 0.26745-0.68452-0.82355 0.19552
  -3   5   9 1064.75  116.57   1-0.87159 0.65402-0.32170 0.73097 0.36988 0.19474
   3  -5  -9  793.98  164.34   1-0.00155 0.21946 0.52227-0.93178-0.85277 0.28915
   3  -5  -9 1223.49  151.81   1-0.48944 0.70761 0.24275-0.65200-0.83756 0.27234
  -3   5   8 5278.64  265.42   1-0.85836 0.62468-0.36629 0.76772 0.35920 0.14268
   3  -5  -8 4894.39  284.17   1 0.03790 0.19606 0.51151-0.91312-0.85843 0.35743
   3  -5  -8 5239.83  291.77   1-0.47494 0.70942 0.20945-0.61011-0.85472 0.35281
  -3   5   7 1405.80  179.84   1-0.84511 0.59532-0.40483 0.79842 0.34913 0.09001
   3  -5  -7 1479.14  242.86   1 0.08749 0.16251 0.49673-0.89043-0.86348 0.42511
   3  -5  -7 1453.88  200.56   1-0.45450 0.70506 0.16643-0.55936-0.87505 0.43588
  -3   5   6  933.97  140.89   1-0.83252 0.56652-0.43732 0.82323 0.34007 0.03639
   3  -5  -6  925.45  226.93   1 0.14611 0.12003 0.47729-0.86317-0.86651 0.49042
   3  -5  -6  985.39  153.64   1-0.42729 0.69393 0.11213-0.49731-0.89712 0.52069
  -3   5   514997.68  470.86   1-0.82123 0.53914-0.46395 0.84201 0.33214-0.01840
   3  -5  -514802.90  455.56   1 0.21314 0.06908 0.45276-0.83072-0.86577 0.55237
   3  -5  -515833.01  494.07   1-0.39174 0.67446 0.04534-0.42279-0.91895 0.60525
   3  -5  -4   52.20   65.34   1 0.28601 0.01228 0.42294-0.79298-0.85983 0.60911
   3  -5  -4   72.57   95.38   1-0.34669 0.64533-0.03450-0.33515-0.93734 0.68645
  -3   5   324521.84  735.52   1-0.80507 0.49078-0.49874 0.86109 0.32111-0.13287
   3  -5  -324026.08  696.76   1 0.36300-0.04857 0.38848-0.75063-0.84693 0.65893
   3  -5  -320952.34  639.70   1-0.29051 0.60519-0.12612-0.23578-0.94852 0.76035
  -3   5   233155.47  966.99   1-0.80136 0.47097-0.50625 0.86074 0.31863-0.19313
   3  -5  -232367.85  916.17   1 0.43933-0.10881 0.34922-0.70348-0.82766 0.70232
   3  -5  -231984.75  921.75   1-0.22399 0.55490-0.22753-0.12664-0.94765 0.82221
  -3   5   1  241.28  124.70   1-0.80127 0.45478-0.50642 0.85306 0.31857-0.25582
   3  -5  -1   68.94   60.63   1 0.51345-0.16685 0.30652-0.65290-0.80150 0.73883
   3  -5  -1  122.76   82.14   1-0.14819 0.49514-0.33240-0.01397-0.93142 0.86869
  -3   5   0 1356.78  162.49   1-0.80524 0.44265-0.49839 0.83718 0.32122-0.32122
  -3   5   0 1244.52  166.33   1-0.58327 0.22040-0.26086 0.59973 0.76924-0.76924
   3  -5   0 1628.51  144.62   1-0.06727 0.43016-0.43589 0.09741-0.89748 0.89748
  -3   5  -1 3311.69  185.58   1-0.81356 0.43487-0.48091 0.81184 0.32686-0.38960
  -3   5  -1 3038.35  290.06   1-0.64748 0.26851-0.21426 0.54526 0.73133-0.79409
   3  -5   1 3434.33  176.27   1 0.01569 0.36324-0.53115 0.20046-0.84712 0.90986
  -3   5  -2 2422.87  219.01   1-0.82632 0.43153-0.45222 0.77529 0.33569-0.46118
   3  -5   2 2798.26  233.07   1 0.09539 0.29950-0.61492 0.29188-0.78279 0.90835
  -3   5  -3 4477.45  221.70   1-0.84324 0.43239-0.40986 0.72510 0.34776-0.53597
  -3   5  -3 4099.05  227.44   1-0.75663 0.34570-0.12063 0.43601 0.64261-0.83089
   3  -5   3 4507.89  235.95   1 0.17005 0.24092-0.68396 0.36876-0.70941 0.89775
  -3   5  -4 3115.62  188.26   1-0.86342 0.43646-0.35011 0.65751 0.36320-0.61414
  -3   5  -4 2629.03  209.06   1-0.80099 0.37398-0.07464 0.38216 0.59399-0.84503
   3  -5   4 3239.37  440.55   1 0.23740 0.18981-0.73844 0.43103-0.63114 0.88214
  -3   5  -5  493.38   74.65   1-0.88480 0.44173-0.26747 0.56703 0.38154-0.69522
  -3   5  -5  180.71  134.80   1-0.83895 0.39586-0.02975 0.32942 0.54338-0.85718
   3  -5   5  191.21   60.72   1 0.29667 0.14659-0.78004 0.48049-0.55091 0.86466
  -3   5  -622336.80  664.30   1-0.90259 0.44264-0.15259 0.44428 0.40254-0.77889
  -3   5  -623824.18  789.09   1-0.87086 0.41169 0.01382 0.27798 0.49132-0.86788
   3  -5   625762.62  896.58   1 0.34823 0.11108-0.81033 0.51862-0.47125 0.84775
  -3   5  -7 5146.82  178.78   1-0.90685 0.43076 0.01140 0.27244 0.42129-0.86035
  -3   5  -7 5646.20  285.93   1-0.89716 0.42212 0.05582 0.22799 0.43816-0.87739
   3  -5   7 5487.49  422.62   1 0.39241 0.08273-0.83123 0.54734-0.39376 0.83280
  -3   5  -8 5706.00  386.55   1-0.91815 0.42704 0.09657 0.17938 0.38427-0.88625
   3  -5   8 6522.88  526.54   1 0.43068 0.06053-0.84430 0.56827-0.31884 0.82061
  -3   5  -9 2823.45  239.26   1-0.93422 0.42704 0.13590 0.13219 0.32977-0.89451
   3  -5   9 1991.04  465.35   1 0.46353 0.04375-0.85097 0.58280-0.24694 0.81143
  -3   5 -10  333.46  179.51   1-0.94565 0.42240 0.17385 0.08638 0.27479-0.90228
   3  -5  10  184.00   92.40   1 0.49191 0.03165-0.85231 0.59208-0.17767 0.80525
  -3   5 -11  169.94  121.01   1-0.95267 0.41340 0.21031 0.04226 0.21950-0.90956
   3  -5  11  377.10  151.58   1 0.51603 0.02363-0.84926 0.59687-0.11165 0.80198
   3  -4 -13  428.62  195.37   1-0.53273 0.69204 0.34771-0.72045-0.77154-0.04488
  -3   4  12  329.80  112.01   1-0.89232 0.71737-0.22907 0.59410 0.38895 0.36388
   3  -4 -12  124.40   57.40   1-0.19392 0.36945 0.56236-0.92777-0.80382 0.05230
   3  -4 -12  527.89  178.12   1-0.53082 0.70626 0.34270-0.70762-0.77510 0.02146
  -3   4  11  123.00   89.02   1-0.87775 0.68670-0.29798 0.65517 0.37516 0.31493
   3  -4 -11  144.55   67.78   1-0.18559 0.37717 0.56110-0.91862-0.80667 0.11777
   3  -4 -11   73.60  101.93   1-0.52686 0.71843 0.33246-0.68956-0.78222 0.09139
  -3   4  10  322.24  127.63   1-0.86062 0.65346-0.35917 0.70853 0.36098 0.26638
   3  -4 -10   52.80   62.95   1-0.16790 0.37552 0.55828-0.90791-0.81248 0.18620
   3  -4 -10   67.14  117.11   1-0.52036 0.72806 0.31599-0.66528-0.79332 0.16529
  -3   4   9 3988.13  219.24   1-0.84195 0.61868-0.41332 0.75483 0.34681 0.21781
   3  -4  -9 3497.10  163.75   1-0.14013 0.36380 0.55348-0.89522-0.82098 0.25734
   3  -4  -9 3747.44  270.59   1-0.51060 0.73442 0.29204-0.63351-0.80869 0.24346
  -3   4   860610.83 1401.56   1-0.82264 0.58315-0.46075 0.79461 0.33311 0.16885
   3  -4  -859447.39 1365.70   1-0.10226 0.34189 0.54568-0.87961-0.83172 0.33073
   3  -4  -856994.66 1342.28   1-0.49657 0.73652 0.25900-0.59265-0.82844 0.32602
  -3   4   7 4066.01  189.82   1-0.80346 0.54788-0.50201 0.82801 0.32003 0.11918
   3  -4  -7 4871.21  210.60   1-0.05243 0.30811 0.53482-0.86085-0.84333 0.40496
   3  -4  -7 4508.78  254.42   1-0.47736 0.73352 0.21468-0.53986-0.85207 0.41290
  -3   4   617227.41  536.55   1-0.78522 0.51353-0.53717 0.85532 0.30800 0.06847
   3  -4  -616701.39  467.15   1 0.00869 0.26302 0.51956-0.83768-0.85438 0.47863
   3  -4  -615992.66  500.93   1-0.45016 0.72240 0.15755-0.47499-0.87893 0.50250
  -3   4   543447.07 1430.59   1-0.76865 0.48087-0.56633 0.87663 0.29737 0.01636
   3  -4  -541883.35 1397.99   1 0.08038 0.20738 0.49893-0.80915-0.86290 0.54977
   3  -4  -541364.83 1360.95   1-0.41337 0.70169 0.08546-0.39515-0.90654 0.59284
   3  -4  -4 2761.96  234.33   1 0.16059 0.14333 0.47222-0.77459-0.86672 0.61600
   3  -4  -4 2753.99  212.05   1-0.36511 0.66937-0.00286-0.29907-0.93095 0.68007
  -3   4   311016.74  377.05   1-0.74357 0.42359-0.60642 0.90102 0.28168-0.09344
   3  -4  -3 9974.26  413.57   1 0.24733 0.07267 0.43919-0.73364-0.86367 0.67563
   3  -4  -310329.41  325.66   1-0.30319 0.62350-0.10604-0.18813-0.94700 0.75884
  -3   4   2 3941.91  279.05   1-0.73654 0.40046-0.61690 0.90363 0.27736-0.15187
   3  -4  -2 3845.49  243.88   1 0.33677-0.00068 0.40012-0.68665-0.85234 0.72697
   3  -4  -2 4114.86  268.20   1-0.22826 0.56479-0.22135-0.06510-0.94810 0.82266
  -3   4   1 2904.57  231.90   1-0.73418 0.38200-0.62035 0.89923 0.27592-0.21317
   3  -4  -1 3123.12  217.84   1 0.42597-0.07373 0.35641-0.63510-0.83157 0.76890
   3  -4  -1 2925.75  213.71   1-0.14227 0.49484-0.34021 0.06154-0.92952 0.86680
  -3   4   0  670.52  119.15   1-0.73718 0.36890-0.61596 0.88699 0.27775-0.27775
   3  -4   0  726.60   85.51   1 0.51042-0.14209 0.30836-0.57916-0.80273 0.80273
   3  -4   0  977.90   99.95   1-0.05091 0.41942-0.45542 0.18464-0.88881 0.88881
  -3   4  -121031.38  589.89   1-0.74616 0.36178-0.60249 0.86566 0.28327-0.34602
   3  -4   121153.10  566.64   1 0.04083 0.34373-0.55814 0.29515-0.82873 0.89147
  -3   4  -2 6185.36  248.36   1-0.76161 0.36113-0.57805 0.83337 0.29291-0.41841
  -3   4  -2 6492.35  300.15   1-0.65892 0.25822-0.20537 0.46072 0.72362-0.84914
   3  -4   2 6063.75  238.89   1 0.12662 0.27394-0.64481 0.38951-0.75377 0.87933
  -3   4  -3 2160.90  211.50   1-0.78376 0.36718-0.53983 0.78730 0.30706-0.49530
  -3   4  -3 2221.87  237.79   1-0.72086 0.30405-0.15354 0.40102 0.67585-0.86413
   3  -4   3 2317.92  205.17   1 0.20433 0.21231-0.71279 0.46534-0.67095 0.85928
  -3   4  -414386.29  409.72   1-0.81236 0.37968-0.48348 0.72310 0.32604-0.57702
  -3   4  -416772.36  523.89   1-0.77459 0.34195-0.10271 0.34244 0.62406-0.87510
   3  -4   416093.31  474.24   1 0.27219 0.16064-0.76367 0.52402-0.58541 0.83641
  -3   4  -516872.28  374.40   1-0.84613 0.39736-0.40203 0.63384 0.34989-0.66357
   3  -4   514226.41  313.34   1-0.07209 0.52097-0.99500 0.76289-0.06902 0.38284
  -3   4  -517098.75  477.55   1-0.81996 0.37123-0.05298 0.28486 0.56996-0.88376
   3  -4   517796.33  489.74   1 0.33022 0.11866-0.80044 0.56864-0.50022 0.81397
  -3   4  -6 3028.66  122.17   1-0.88140 0.41653-0.28270 0.50667 0.37841-0.75483
   3  -4   6 2849.61  110.97   1 0.07123 0.39374-0.98834 0.76402-0.13451 0.51110
  -3   4  -6 2964.07  212.25   1-0.85774 0.39294-0.00490 0.22892 0.51404-0.89060
   3  -4   6 3226.54  247.82   1 0.37917 0.08558-0.82561 0.60163-0.41784 0.79416
  -3   4  -7 1647.55  123.05   1-0.90682 0.42510-0.09704 0.31313 0.41018-0.84925
  -3   4  -7 1704.05  186.72   1-0.88856 0.40788 0.04118 0.17486 0.45689-0.89613
   3  -4   7 2009.54  262.55   1 0.42080 0.06001-0.84142 0.62531-0.33901 0.77805
  -3   4  -8 2804.53  668.55   1-0.91294 0.41619 0.08563 0.12255 0.39899-0.90097
   3  -4   8 2580.75  380.11   1 0.45600 0.04088-0.84987 0.64163-0.26415 0.76592
  -3   4  -9  795.65  176.92   1-0.93142 0.41860 0.12826 0.07207 0.34056-0.90530
   3  -4   9 1050.11  234.93   1 0.48598 0.02717-0.85242 0.65208-0.19283 0.75765
  -3   4 -10   90.52  110.05   1-0.94445 0.41555 0.16912 0.02334 0.28178-0.90926
   3  -4  10  108.91   67.27   1 0.51122 0.01802-0.85024 0.65775-0.12544 0.75301
  -3   4 -11  530.54  138.08   1-0.95237 0.40744 0.20813-0.02331 0.22286-0.91293
   3  -4  11  551.77  144.74   1 0.53259 0.01273-0.84414 0.65950-0.06125 0.75159
  -3   3  13  977.99  168.36   1-0.89177 0.72724-0.23212 0.53724 0.38838 0.42718
   3  -3 -13 1167.80  194.38   1-0.30533 0.47048 0.57505-0.88068-0.75899-0.05515
   3  -3 -13  796.05  190.99   1-0.54863 0.71358 0.39129-0.69625-0.73884-0.07759
  -3   3  12 1421.84  254.23   1-0.87347 0.69283-0.31471 0.61199 0.37147 0.38136
   3  -3 -12 1298.59  232.71   1-0.30666 0.48786 0.57516-0.87289-0.75838 0.00685
   3  -3 -12 1099.05  235.26   1-0.54741 0.72848 0.38781-0.68495-0.74158-0.01205
  -3   3  11  899.20  137.40   1-0.85122 0.65447-0.38769 0.67713 0.35371 0.33638
   3  -3 -11  874.00  122.91   1-0.30015 0.49740 0.57464-0.86448-0.76137 0.07247
   3  -3 -11  568.65  136.36   1-0.54432 0.74153 0.37912-0.66845-0.74831 0.05747
  -3   3  10 1083.84  120.05   1-0.82637 0.61339-0.45210 0.73391 0.33572 0.29173
   3  -3 -10  945.43   96.45   1-0.28506 0.49834 0.57334-0.85529-0.76812 0.14185
   3  -3 -10 1317.45  141.51   1-0.53888 0.75221 0.36414-0.64565-0.75960 0.13158
  -3   3   9  943.56  119.38   1-0.79997 0.57090-0.50901 0.78297 0.31770 0.24701
   3  -3  -9 1172.20  100.04   1-0.26039 0.48973 0.57089-0.84495-0.77863 0.21499
   3  -3  -9 1145.44  167.15   1-0.53031 0.75977 0.34137-0.61506-0.77603 0.21080
  -3   3   816473.95  422.98   1-0.77300 0.52782-0.55891 0.82502 0.30013 0.20183
   3  -3  -816437.82  389.64   1-0.22506 0.47044 0.56670-0.83286-0.79258 0.29156
   3  -3  -816563.64  460.31   1-0.51750 0.76308 0.30888-0.57475-0.79798 0.29556
  -3   3   7 1650.02  161.53   1-0.74633 0.48505-0.60223 0.86048 0.28338 0.15584
   3  -3  -7 1590.80  128.47   1-0.17796 0.43938 0.55991-0.81818-0.80921 0.37082
   3  -3  -7 1752.96  182.45   1-0.49881 0.76052 0.26417-0.52223-0.82546 0.38584
  -3   3   6 4964.86  254.17   1-0.72082 0.44345-0.63928 0.88968 0.26781 0.10866
   3  -3  -6 6230.41  365.14   1-0.11882 0.39620 0.54896-0.79941-0.82735 0.45160
   3  -3  -6 4902.52  238.05   1-0.47237 0.75022 0.20391-0.45360-0.85748 0.48105
  -3   3   5  117.24  116.60   1-0.69735 0.40377-0.67030 0.91289 0.25377 0.05994
   3  -3  -5  549.46   84.73   1-0.04633 0.33977 0.53340-0.77594-0.84459 0.53146
   3  -3  -5  170.05   82.03   1-0.43433 0.72826 0.12587-0.36782-0.89191 0.57821
   3  -3  -410620.12  312.98   1 0.03802 0.27146 0.51148-0.74612-0.85845 0.60795
   3  -3  -410507.32  321.39   1-0.38191 0.69192 0.02759-0.26180-0.92378 0.67282
  -3   3   3   38.05  115.73   1-0.65991 0.33413-0.71463 0.94151 0.23195-0.04372
   3  -3  -3   71.95   63.25   1 0.13175 0.19388 0.48219-0.70897-0.86609 0.67805
   3  -3  -3   -6.92   64.59   1-0.31281 0.63875-0.09058-0.13586-0.94548 0.75731
  -3   3   269672.52 1716.60   1-0.64778 0.30590-0.72783 0.94684 0.22500-0.09951
   3  -3  -267524.38 1655.19   1 0.23195 0.10976 0.44538-0.66424-0.86476 0.73940
   3  -3  -268217.13 1667.32   1-0.22660 0.56875-0.22375 0.00501-0.94793 0.82249
  -3   3   1 1213.35  128.72   1-0.64131 0.28332-0.73467 0.94582 0.22131-0.15857
   3  -3  -1 1368.22  170.91   1 0.33386 0.02394 0.40148-0.61242-0.85284 0.79016
   3  -3  -1  817.42   67.72   1-0.12714 0.48532-0.35995 0.14900-0.92426 0.86154
  -3   3   010329.87  325.97   1-0.64145 0.26735-0.73452 0.93781 0.22139-0.22139
   3  -3   010814.77  325.89   1 0.43350-0.05953 0.35237-0.55547-0.82939 0.82939
   3  -3   011375.29  330.36   1-0.02279 0.39692-0.48814 0.28505-0.87246 0.87246
  -3   3  -1 4072.10  273.77   1-0.64919 0.25899-0.72633 0.92176 0.22580-0.28855
   3  -3   1 3992.13  259.12   1 0.52628-0.13622 0.29862-0.49384-0.79614 0.85881
   3  -3   1 4178.59  262.35   1 0.07857 0.31161-0.59701 0.40171-0.79837 0.86111
  -3   3  -2  209.52   52.46   1-0.66550 0.25920-0.70838 0.89595 0.23517-0.36066
   3  -3   2  176.29   43.42   1-0.18328 0.58958-0.98294 0.79532-0.01534 0.14086
  -3   3  -2  585.31  133.10   1-0.61045 0.20411-0.24178 0.42935 0.75424-0.87976
   3  -3   2  359.47   77.81   1 0.16962 0.23660-0.68359 0.49604-0.70988 0.83543
  -3   3  -3  100.75   97.47   1-0.69128 0.26888-0.67788 0.85760 0.25019-0.43842
   3  -3   3  219.32   88.62   1-0.10821 0.53056-0.99276 0.81283-0.05211 0.24040
  -3   3  -3  184.32  118.48   1-0.68438 0.26195-0.18486 0.36457 0.70529-0.89356
   3  -3   3  112.36   33.76   1 0.24855 0.17385-0.74677 0.56703-0.61688 0.80513
  -3   3  -4 1253.92  145.04   1-0.72736 0.28899-0.63015 0.80200 0.27176-0.52275
   3  -3   4  884.97   93.89   1-0.00980 0.44825-0.99515 0.82302-0.09780 0.34886
  -3   3  -4 1109.66  171.92   1-0.74793 0.30940-0.12857 0.30040 0.65119-0.90223
   3  -3   4 1059.17  207.06   1 0.31466 0.12379-0.79129 0.61940-0.52425 0.77525
  -3   3  -5 3712.46  251.57   1-0.77384 0.31938-0.55745 0.72145 0.30067-0.61441
   3  -3   5 3292.88  171.65   1 0.11790 0.33663-0.98080 0.81646-0.15529 0.46911
  -3   3  -5 3308.49  231.39   1-0.80161 0.34725-0.07396 0.23805 0.59325-0.90705
   3  -3   5 3755.83  507.67   1 0.36942 0.08508-0.82093 0.65688-0.43542 0.74917
  -3   3  -6 1422.29  132.41   1-0.28316-0.18706 0.93192-0.77576 0.22658-0.60265
  -3   3  -6 1422.24  137.57   1-0.82967 0.35911-0.44425 0.60039 0.33805-0.71453
  -3   3  -6 1340.72  186.52   1-0.84570 0.37526-0.02107 0.17730 0.53324-0.90980
   3  -3   6 1739.87  205.02   1 0.41440 0.05602-0.83936 0.68318-0.35176 0.72809
  -3   3  -7 1056.72   52.82   1-0.88800 0.40132-0.25205 0.40044 0.38460-0.82375
  -3   3  -7  923.80  146.18   1-0.88122 0.39470 0.02960 0.11878 0.47177-0.91109
   3  -3   7 1262.73  167.73   1 0.45185 0.03463-0.84915 0.70084-0.27342 0.71247
  -3   3  -8 4445.03  274.34   1-0.90900 0.40660 0.07776 0.06266 0.40946-0.91145
   3  -3   8 3593.78  533.04   1 0.48300 0.01954-0.85243 0.71198-0.20015 0.70192
  -3   3  -9  362.50  140.32   1-0.92974 0.41127 0.12385 0.00870 0.34673-0.91146
   3  -3   9  513.12  149.06   1 0.50919 0.00962-0.85059 0.71800-0.13115 0.69597
  -3   3 -10  503.75  209.60   1-0.94409 0.40955 0.16776-0.04306 0.28378-0.91127
   3  -3  10   66.60   63.85   1 0.53099 0.00391-0.84477 0.72002-0.06636 0.69393
  -3   3 -11  559.94  160.43   1-0.95254 0.40196 0.20939-0.09233 0.22092-0.91098
   3  -3  11  271.80  129.12   1 0.54925 0.00173-0.83563 0.71873-0.00494 0.69528
  -3   2  13 1614.98  112.04   1-0.87249 0.70226-0.31838 0.55574 0.37064 0.44493
   3  -2 -13 1668.68  120.04   1-0.39569 0.56678 0.57958-0.81743-0.71239-0.10275
   3  -2 -13 1808.35  229.93   1-0.56232 0.73300 0.43367-0.67087-0.70407-0.11236
  -3   2  12  179.58   80.29   1-0.84488 0.65854-0.40545 0.63498 0.34896 0.40387
   3  -2 -12  139.53   74.72   1-0.39838 0.58551 0.57961-0.80959-0.71086-0.04157
   3  -2 -12   29.57   98.23   1-0.56213 0.74885 0.43162-0.66098-0.70548-0.04815
  -3   2  11 9667.84  524.51   1-0.81326 0.61069-0.48156 0.70347 0.32665 0.36355
   3  -2 -11 9317.45  506.09   1-0.39413 0.59731 0.57956-0.80165-0.71327 0.02353
   3  -2 -11 8475.90  488.55   1-0.55993 0.76277 0.42479-0.64633-0.71135 0.02052
  -3   2  10  289.01  125.33   1-0.77898 0.56032-0.54843 0.76249 0.30397 0.32349
   3  -2 -10  730.58  113.41   1-0.38214 0.60136 0.57932-0.79354-0.71996 0.09292
   3  -2 -10  700.37  122.47   1-0.55560 0.77457 0.41167-0.62540-0.72237 0.09434
  -3   2   9 6165.68  232.06   1-0.74321 0.50845-0.60696 0.81316 0.28146 0.28325
   3  -2  -9 6104.88  221.99   1-0.36176 0.59676 0.57835-0.78473-0.73118 0.16754
   3  -2  -9 5738.15  253.67   1-0.54838 0.78348 0.39059-0.59650-0.73939 0.17416
  -3   2   8   65.20   88.17   1-0.70700 0.45607-0.65787 0.85627 0.25950 0.24245
   3  -2  -8  348.84  100.27   1-0.33070 0.58174 0.57681-0.77530-0.74694 0.24592
   3  -2  -8   80.06  105.52   1-0.53705 0.78827 0.35921-0.55731-0.76323 0.26081
  -3   2   7 2532.83  229.03   1-0.67123 0.40419-0.70183 0.89237 0.23848 0.20071
   3  -2  -7 2291.94  192.03   1-0.28799 0.55508 0.57360-0.76420-0.76683 0.32844
   3  -2  -7 2584.91  248.79   1-0.51971 0.78706 0.31436-0.50464-0.79439 0.35477
  -3   2   6  191.21   99.90   1-0.63686 0.35372-0.73927 0.92196 0.21879 0.15767
   3  -2  -6   27.87   58.53   1-0.23216 0.51529 0.56760-0.75031-0.78988 0.41412
   3  -2  -6  389.06  134.93   1-0.49350 0.77697 0.25194-0.43440-0.83245 0.45563
  -3   2   523991.72  650.66   1-0.60483 0.30559-0.77061 0.94544 0.20080 0.11291
   3  -2  -525770.02  672.87   1-0.16211 0.46129 0.55732-0.73213-0.81431 0.50117
   3  -2  -523493.68  627.83   1-0.45464 0.75418 0.16671-0.34091-0.87493 0.56123
   3  -2  -420570.13  548.76   1-0.07805 0.39320 0.54058-0.70755-0.83765 0.58716
   3  -2  -419718.89  529.97   1-0.39742 0.71304 0.05573-0.22218-0.91594 0.66498
  -3   2   326154.23  555.71   1-0.55170 0.22025-0.81619 0.97530 0.17161 0.01661
   3  -2  -324038.13  489.56   1 0.01962 0.31157 0.51661-0.67567-0.85599 0.66812
   3  -2  -324227.12  485.25   1-0.31809 0.64966-0.08201-0.07671-0.94450 0.75633
  -3   2   321745.27  439.78   1-0.53159 0.19974 0.34471-0.18570-0.77368 0.96208
  -3   2   279728.03 1445.14   1-0.53296 0.18549-0.83069 0.98200 0.16093-0.03536
   3  -2  -276424.87 1393.51   1 0.12722 0.22012 0.48372-0.63490-0.86592 0.74056
   3  -2  -277628.47 1381.95   1-0.21599 0.56375-0.23904 0.08802-0.94668 0.82123
  -3   2   269388.87 1235.47   1-0.46265 0.11487 0.18333-0.03235-0.86737 0.99285
   3  -2  -1  840.16  125.74   1 0.24053 0.12289 0.44195-0.58521-0.86418 0.80150
   3  -2  -1  591.28   63.82   1-0.09810 0.46189-0.39689 0.25366-0.91260 0.84988
  -3   2   1  609.82   69.10   1-0.37180 0.00794 0.00962 0.13361-0.92826 0.99100
   3  -2   039245.82  744.15   1 0.35373 0.02577 0.39210-0.52745-0.84919 0.84919
   3  -2   041701.83  773.55   1 0.02213 0.35760-0.53815 0.40276-0.84255 0.84255
  -3   2   040044.01  737.31   1-0.27022-0.10950-0.15756 0.29301-0.94981 0.94981
  -3   2  -1 1713.61  142.81   1-0.51937 0.12366-0.84061 0.96843 0.15364-0.21643
   3  -2   1 1616.23   99.43   1-0.08755 0.48337-0.99424 0.86650-0.06180 0.12457
   3  -2   1 1452.65   94.59   1 0.46183-0.06613 0.33676-0.46428-0.82054 0.88321
   3  -2   1 1582.90   98.09   1 0.13244 0.26338-0.65021 0.52256-0.74811 0.81089
  -3   2  -1 1290.85   71.78   1-0.17180-0.22405-0.30071 0.42835-0.93811 0.87539
  -3   2  -229185.18  750.43   1-0.53359 0.12179-0.83021 0.95020 0.16127-0.28684
   3  -2   226185.85  665.39   1-0.01875 0.43067-0.99542 0.87547-0.09369 0.21922
   3  -2   230113.53  768.24   1 0.22649 0.18541-0.73040 0.61060-0.64436 0.76992
  -3   2  -3  158.14   94.10   1-0.55920 0.13113-0.81020 0.92215 0.17568-0.36392
   3  -2   3   16.01   49.85   1 0.07002 0.35798-0.98850 0.87634-0.13397 0.32227
  -3   2  -3  192.82   93.47   1-0.64767 0.21960-0.21411 0.32605 0.73121-0.91949
   3  -2   3  171.75   50.32   1 0.30309 0.12494-0.78413 0.67215-0.54154 0.72978
  -3   2  -4 3332.29  247.83   1-0.18175-0.26197 0.96612-0.86201 0.18320-0.43392
  -3   2  -4 3985.45  188.56   1-0.59863 0.15446-0.77632 0.88041 0.19735-0.44833
  -3   2  -4 4969.17  286.15   1-0.72222 0.27805-0.15233 0.25639 0.67467-0.92571
   3  -2   4 4025.04  463.44   1 0.36432 0.07975-0.81849 0.71435-0.44422 0.69521
  -3   2  -5   60.59   32.62   1-0.31980-0.14002 0.91608-0.81978 0.24189-0.55529
  -3   2  -5  255.61   84.21   1-0.65360 0.19333-0.72157 0.81780 0.22833-0.54205
  -3   2  -5  188.23  107.41   1-0.78464 0.32464-0.09229 0.18859 0.61304-0.92684
   3  -2   5  246.94   73.38   1 0.41305 0.04696-0.83891 0.74266-0.35441 0.66801
  -3   2  -6  447.29   99.60   1-0.48689 0.01117 0.81706-0.72856 0.30877-0.68488
  -3   2  -6 1063.31   98.73   1-0.72679 0.25054-0.63095 0.71934 0.27142-0.64789
  -3   2  -6  870.46  192.01   1-0.83542 0.35934-0.03421 0.12266 0.54854-0.92510
   3  -2   6 1150.98  171.88   1 0.45243 0.02365-0.84925 0.76087-0.27214 0.64847
  -3   2  -7  126.60   26.36   1-0.82075 0.32840-0.46505 0.54558 0.33180-0.77102
  -3   2  -7  352.65  165.38   1-0.87577 0.38362 0.02118 0.05941 0.48225-0.92157
   3  -2   7  229.21  110.23   1 0.48455 0.00775-0.85241 0.77186-0.19643 0.63573
  -3   2  -8  206.51  155.74   1-0.90681 0.39876 0.07352-0.00087 0.41506-0.91705
   3  -2   8  385.53  124.75   1 0.51078-0.00238-0.85032 0.77762-0.12667 0.62873
  -3   2  -9 9484.27  396.14   1-0.92952 0.40540 0.12329-0.05849 0.34752-0.91226
   3  -2   9 9992.56  390.50   1 0.53245-0.00796-0.84420 0.77935-0.06172 0.62653
  -3   2 -10 3129.02  226.13   1-0.94477 0.40458 0.17036-0.11342 0.27995-0.90744
   3  -2  10 3258.02  211.11   1 0.55041-0.00984-0.83488 0.77787-0.00076 0.62833
  -3   2 -11  670.94  142.40   1-0.95323 0.39700 0.21467-0.16538 0.21273-0.90279
   3  -1 -14 4159.56  279.77   1-0.46007 0.62076 0.57883-0.75683-0.67326-0.20458
   3  -1 -14 4514.02  330.17   1-0.57329 0.73348 0.46986-0.64709-0.67123-0.20800
  -3   1  13 1203.34  292.00   1-0.84323 0.66731-0.40989 0.57951 0.34775 0.46782
   3  -1 -13 1403.46  137.53   1-0.46957 0.64631 0.57843-0.74855-0.66702-0.14812
   3  -1 -13 1040.12  234.55   1-0.57449 0.75080 0.47404-0.64346-0.66725-0.14917
  -3   1  12  986.92  170.55   1-0.80446 0.61231-0.49998 0.66198 0.32070 0.43225
   3  -1 -12 1223.77  196.72   1-0.47348 0.66627 0.57824-0.74049-0.66441-0.08803
   3  -1 -12  867.76  194.98   1-0.57454 0.76697 0.47422-0.63581-0.66709-0.08653
  -3   1  11 2468.51  195.54   1-0.76171 0.55345-0.57789 0.73204 0.29298 0.39723
   3  -1 -11 2111.96  182.42   1-0.47127 0.68011 0.57835-0.73272-0.66589-0.02384
   3  -1 -11 2211.57  195.64   1-0.57319 0.78174 0.46952-0.62330-0.67156-0.01926
  -3   1  10  666.32  132.08   1-0.71650 0.49210-0.64521 0.79157 0.26517 0.36226
   3  -1 -10  357.30  107.40   1-0.46214 0.68702 0.57875-0.72524-0.67191 0.04487
   3  -1 -10  162.09   96.79   1-0.57002 0.79468 0.45868-0.60464-0.68167 0.05365
  -3   1   9 3178.32  165.83   1-0.66992 0.42943-0.70333 0.84183 0.23773 0.32696
   3  -1  -9 3263.30  171.04   1-0.44501 0.68594 0.57930-0.71792-0.68290 0.11857
   3  -1  -9 2861.95  183.59   1-0.56427 0.80505 0.43985-0.57799-0.69866 0.13344
  -3   1   8  231.05   98.24   1-0.62312 0.36651-0.75311 0.88375 0.21103 0.29092
   3  -1  -8  190.89   72.77   1-0.41849 0.67547 0.57969-0.71043-0.69915 0.19752
   3  -1  -8  -47.01  105.28   1-0.55501 0.81187 0.40990-0.54022-0.72383 0.22140
  -3   1   7 3889.08  262.19   1-0.57708 0.30437-0.79535 0.91813 0.18545 0.25374
   3  -1  -7 3407.72  278.52   1-0.38088 0.65391 0.57929-0.70216-0.72065 0.28172
   3  -1  -7 3939.31  208.07   1-0.53943 0.81242 0.36565-0.48815-0.75848 0.31886
  -3   1   6 4293.69  220.67   1-0.53312 0.24435-0.83056 0.94539 0.16102 0.21569
   3  -1  -6 4588.64  191.88   1-0.33049 0.61929 0.57680-0.69182-0.74704 0.37127
   3  -1  -6 4164.84  191.73   1-0.51432 0.80343 0.30107-0.41574-0.80300 0.42619
  -3   1   5 5640.11  239.61   1-0.49156 0.18670-0.85969 0.96668 0.13885 0.17508
   3  -1  -5 5672.16  215.78   1-0.26498 0.56982 0.57137-0.67851-0.77673 0.46359
   3  -1  -5 5368.13  205.08   1-0.47434 0.77949 0.20816-0.31461-0.85537 0.54167
  -3   1   5 5256.00  186.21   1-0.60561 0.30090 0.63328-0.52646-0.48185 0.79516
   3  -1  -4112249.0 1983.84   1-0.18333 0.50422 0.56075-0.65999-0.80743 0.55692
   3  -1  -4115673.1 2025.86   1-0.41085 0.73208 0.08071-0.17942-0.90811 0.65716
  -3   1   3  476.91  154.05   1-0.42081 0.08378-0.90140 0.99272 0.10192 0.08643
   3  -1  -3  449.25   86.82   1-0.08582 0.42268 0.54225-0.63364-0.83581 0.64794
   3  -1  -3  286.06   52.20   1-0.31662 0.65381-0.08441-0.00658-0.94478 0.75662
  -3   1   3  204.50   41.38   1-0.54588 0.20839 0.38348-0.29225-0.74494 0.93335
  -3   1   2 2442.37  135.64   1-0.39378 0.04066-0.91497 0.99846 0.08805 0.03751
   3  -1  -2 2360.85  219.21   1 0.02621 0.32669 0.51479-0.59828-0.85691 0.73166
   3  -1  -2 1965.11   94.27   1-0.19056 0.54394-0.27491 0.19160-0.94239 0.81695
  -3   1   2 1813.59   84.82   1-0.46855 0.11516 0.19576-0.11253-0.86147 0.98695
  -3   1   1  583.68   88.98   1-0.37383 0.00463-0.92421 0.99987 0.07790-0.01511
   3  -1  -1  729.13  101.48   1 0.14804 0.22101 0.47662-0.55221-0.86655 0.80387
   3  -1  -1  693.87   65.39   1-0.04698 0.41628-0.46007 0.38458-0.88663 0.82389
  -3   1   1  495.25   47.92   1-0.35896-0.01034-0.01352 0.08901-0.93325 0.99597
   3  -1   010885.40  263.12   1 0.27375 0.11138 0.42819-0.49587-0.86122 0.86122
   3  -1   010921.94  243.74   1 0.09127 0.29413-0.61088 0.54313-0.78644 0.78644
  -3   1   0 9605.74  216.63   1-0.23547-0.14988-0.20964 0.27736-0.94900 0.94900
  -3   1  -1 2619.93  151.94   1-0.36021-0.04114-0.93016 0.99015 0.07101-0.13379
   3  -1   1 2062.87   93.86   1 0.08474 0.31673-0.98643 0.92646-0.14056 0.20332
   3  -1   1 2163.27  119.18   1 0.39650 0.00484 0.37180-0.43162-0.83937 0.90204
   3  -1   1 2415.51  113.71   1 0.20767 0.19381-0.71550 0.65560-0.66703 0.72980
  -3   1  -1 2380.50   94.33   1-0.12098-0.28048-0.36788 0.42781-0.92196 0.85924
  -3   1  -298873.46 5337.37   1-0.16197-0.25524 0.97122-0.91917 0.17458-0.29994
  -3   1  -2111336.8 6013.88   1-0.36934-0.04810-0.92620 0.97836 0.07562-0.20120
   3  -1   2107196.3 5792.72   1 0.51020-0.09276 0.30850-0.36043-0.80282 0.92815
   3  -1   2113485.1 6130.75   1 0.29834 0.11926-0.78112 0.72905-0.54848 0.67398
  -3   1  -3  237.30   43.05   1-0.25705-0.17627 0.94205-0.89780 0.21554-0.40358
  -3   1  -3  207.13   66.16   1-0.39133-0.04219-0.91614 0.96046 0.08680-0.27516
  -3   1  -3  377.33  158.68   1-0.61163 0.17792-0.24093 0.28509 0.75356-0.94184
   3  -1   3  157.76   51.37   1 0.36710 0.06655-0.81983 0.77560-0.43944 0.62769
  -3   1  -4  282.39   54.38   1-0.37025-0.07897 0.89108-0.85464 0.26243-0.51317
  -3   1  -4  495.91   94.59   1-0.42838-0.02123-0.89737 0.93387 0.10582-0.35697
  -3   1  -4  419.47  109.59   1-0.69811 0.24830-0.17337 0.20965 0.69468-0.94572
   3  -1   4  470.95   79.00   1 0.41924 0.03037-0.84093 0.80460-0.34214 0.59302
  -3   1  -5  209.97   57.17   1-0.50112 0.03580 0.80629-0.77765 0.31424-0.62767
  -3   1  -5  250.31   61.27   1-0.48350 0.01780-0.86493 0.89359 0.13459-0.44852
  -3   1  -5  400.88  152.71   1-0.76992 0.30429-0.10745 0.13597 0.62902-0.94282
   3  -1   5  395.36   88.00   1 0.45964 0.00603-0.85043 0.82197-0.25587 0.56948
  -3   1  -6 2640.29  257.26   1-0.64612 0.16462 0.66902-0.64818 0.36732-0.74347
  -3   1  -6 4014.27  142.33   1-0.56102 0.07897-0.80872 0.82933 0.17668-0.55314
  -3   1  -6 3914.41  207.56   1-0.82770 0.34599-0.04372 0.06439 0.55946-0.93602
   3  -1   6 4450.56  485.27   1 0.49154-0.00964-0.85233 0.83167-0.17863 0.55517
  -3   1  -7 2520.80  177.71   1-0.67096 0.17281-0.70214 0.71489 0.23833-0.67754
  -3   1  -7 3189.29  211.47   1-0.87287 0.37508 0.01680-0.00399 0.48766-0.92698
   3  -1   7 3358.38  525.24   1 0.51702-0.01904-0.84903 0.83622-0.10875 0.54805
  -3   1  -8 1956.75  181.15   1-0.90688 0.39318 0.07365-0.06876 0.41489-0.91688
   3  -1   8 1972.28  147.45   1 0.53771-0.02364-0.84194 0.83698-0.04465 0.54671
  -3   1  -9  230.33  134.03   1-0.93107 0.40130 0.12731-0.13028 0.34189-0.90663
   3  -1   9   53.87   57.18   1 0.55465-0.02450-0.83194 0.83483 0.01485 0.54995
  -3   1 -10  314.02  125.14   1-0.94657 0.40073 0.17769-0.18852 0.26910-0.89658
  -3   1 -11  205.63  140.67   1-0.95429 0.39240 0.22474-0.24321 0.19698-0.88705
   3   0 -14  770.30  156.51   1-0.51923 0.68558 0.57503-0.68530-0.63224-0.24560
   3   0 -14  837.99  187.15   1-0.58323 0.74905 0.50644-0.61588-0.63509-0.24413
  -3   0  13    0.58   36.49   1-0.80196 0.62021-0.50505 0.60715 0.31902 0.49667
   3   0 -13  247.47  108.86   1-0.52906 0.71146 0.57408-0.67648-0.62491-0.19023
   3   0 -13  160.87   98.52   1-0.58473 0.76667 0.51241-0.61403-0.62889-0.18753
  -3   0  12 1492.16  229.22   1-0.75029 0.55245-0.59610 0.69035 0.28584 0.46711
   3   0 -12  918.13  171.30   1-0.53396 0.73240 0.57357-0.66809-0.62120-0.13124
   3   0 -12 1269.56  243.33   1-0.58528 0.78334 0.51465-0.60845-0.62655-0.12707
  -3   0  11 1745.34  116.57   1-0.69516 0.48120-0.67305 0.75951 0.25247 0.43770
   3   0 -11 1473.16  139.19   1-0.53343 0.74792 0.57363-0.66027-0.62160-0.06813
   3   0 -11 1666.70  144.33   1-0.58470 0.79888 0.51231-0.59829-0.62900-0.06181
  -3   0  10 2889.73  176.17   1-0.63791 0.40785-0.73819 0.81679 0.21938 0.40805
   3   0 -10 2950.88  183.47   1-0.52674 0.75728 0.57431-0.65308-0.62665-0.00038
   3   0 -10 2444.34  177.17   1-0.58263 0.81293 0.50411-0.58228-0.63749 0.00947
  -3   0   9  613.38  147.42   1-0.57986 0.33369-0.79296 0.86370 0.18698 0.37771
   3   0  -9  384.55  116.56   1-0.51288 0.75946 0.57559-0.64648-0.63690 0.07256
   3   0  -9  221.09  101.35   1-0.57840 0.82481 0.48809-0.55845-0.65361 0.08839
  -3   0   8 3728.36  214.62   1-0.52249 0.26023-0.83838 0.90104 0.15531 0.34698
   3   0  -8 3839.66  194.04   1-0.49047 0.75310 0.57727-0.64028-0.65283 0.15120
   3   0  -8 4226.04  219.49   1-0.57076 0.83330 0.46120-0.52374-0.67934 0.17692
  -3   0   7 7717.74  337.33   1-0.46605 0.18771-0.87582 0.93065 0.12542 0.31408
   3   0  -7 7371.22  295.46   1-0.45777 0.73645 0.57891-0.63405-0.67476 0.23583
   3   0  -7 7290.40  309.43   1-0.55773 0.83636 0.41808-0.47280-0.71702 0.27740
  -3   0   6   58.31   91.12   1-0.41198 0.11756-0.90597 0.95296 0.09738 0.27933
   3   0  -6  302.02  113.20   1-0.41265 0.70738 0.57970-0.62696-0.70260 0.32638
   3   0  -6  126.35   72.43   1-0.53438 0.82913 0.35207-0.39897-0.76842 0.39160
  -3   0   6  114.25   52.60   1-0.59962 0.30480 0.75767-0.71068-0.25765 0.63405
  -3   0   5  371.15  134.00   1-0.36132 0.05081-0.92968 0.96885 0.07157 0.24236
   3   0  -5  -40.66   73.70   1-0.35291 0.66342 0.57798-0.61744-0.73578 0.42265
   3   0  -5   78.02   61.43   1-0.49319 0.80406 0.25124-0.29032-0.83285 0.51883
  -3   0   5   67.53   73.50   1-0.60777 0.29738 0.69905-0.65984-0.37673 0.69004
   3   0  -4  242.74   69.33   1-0.27603 0.60258 0.57249-0.60405-0.77204 0.52153
   3   0  -4   91.89   52.80   1-0.42131 0.74814 0.10059-0.13154-0.90131 0.65036
  -3   0   4  166.53   73.03   1-0.60303 0.27602 0.60502-0.57375-0.51990 0.77111
  -3   0   3  268.75  103.07   1-0.27429-0.06856-0.96121 0.98483 0.02887 0.15939
   3   0  -3  306.33   90.26   1-0.18088 0.52348 0.56037-0.58404-0.80824 0.62036
   3   0  -3  120.82   40.13   1-0.30314 0.64597-0.10612 0.08284-0.94701 0.75885
  -3   0   3   27.60   44.70   1-0.56899 0.22587 0.45526-0.43181-0.68481 0.87322
  -3   0   213937.73  339.09   1-0.24010-0.11884-0.97067 0.98641 0.01213 0.11338
   3   0  -213687.20  320.05   1-0.06813 0.42671 0.53840-0.55421-0.83992 0.71467
   3   0  -214343.53  284.15   1-0.13753 0.49652-0.34643 0.33085-0.92793 0.80249
  -3   0   213754.10  275.10   1-0.48600 0.12675 0.23503-0.21940-0.84175 0.96736
   3   0  -119326.05  367.27   1 0.04269 0.33221-0.56011 0.55231-0.82731 0.76457
  -3   0   118453.42  351.86   1-0.35002-0.02491-0.02885 0.03661-0.93629 0.99901
   3   0   0 8642.65  221.64   1 0.19538 0.19538 0.45952-0.45952-0.86640 0.86640
   3   0   0 8688.63  197.63   1 0.19553 0.19554-0.70557 0.70557-0.68112 0.68112
  -3   0   0 7997.61  179.98   1-0.19552-0.19552-0.26799 0.26799-0.94337 0.94337
  -3   0  -1  837.72   65.16   1-0.25974-0.14707 0.94105-0.94885 0.21669-0.27936
  -3   0  -1  837.00  108.57   1-0.18747-0.21973-0.98217 0.97430-0.01332-0.04943
   3   0   1 1241.30  170.86   1 0.33194 0.07490 0.40237-0.39445-0.85317 0.91585
   3   0   1 1136.54  150.18   1 0.30635 0.10082-0.78618 0.79402-0.53670 0.59945
  -3   0  -1 1082.81   62.19   1-0.06204-0.34499-0.44217 0.43438-0.89478 0.83203
  -3   0  -2 8584.20  246.12   1-0.33771-0.08521 0.90763-0.92323 0.24930-0.37466
  -3   0  -2 9904.36  302.67   1-0.19051-0.23278-0.98161 0.96586-0.01186-0.11365
   3   0   2 9929.64  294.24   1 0.46100-0.03792 0.33723-0.32147-0.82082 0.94615
   3   0   210586.13  310.46   1 0.38303 0.04012-0.82730 0.84303-0.41091 0.53635
  -3   0  -2 9542.66  265.97   1 0.03666-0.45977-0.55372 0.53813-0.83189 0.70641
  -3   0  -3   93.48   42.01   1-0.42856-0.01027 0.85708-0.88048 0.28590-0.47395
  -3   0  -3  289.36   69.17   1-0.20622-0.23316-0.97849 0.95487-0.00430-0.18397
  -3   0  -3  151.42   90.69   1-0.57738 0.13804-0.26488 0.24126 0.77231-0.96058
   3   0   3  272.66   60.71   1 0.43696 0.00225-0.84593 0.86953-0.30570 0.49386
  -3   0  -4   82.57   39.57   1-0.53070 0.07577 0.78256-0.81376 0.32549-0.57623
  -3   0  -4  282.71   88.33   1-0.23656-0.21890-0.97155 0.94006 0.01040-0.26144
  -3   0  -4  166.16   94.71   1-0.67668 0.22125-0.19117 0.15969 0.71101-0.96205
   3   0   4  138.54   44.32   1 0.47623-0.02094-0.85216 0.88363-0.21683 0.46771
  -3   0  -5 2033.19  113.99   1-0.64050 0.16940 0.67546-0.71447 0.36538-0.67884
  -3   0  -5 2262.32  151.34   1-0.28436-0.18719-0.95811 0.91875 0.03383-0.34763
  -3   0  -5 2345.47  178.43   1-0.75849 0.28723-0.11881 0.07954 0.64075-0.95455
   3   0   5 2708.44  359.31   1 0.50593-0.03445-0.85109 0.89033-0.14021 0.45400
  -3   0  -6 4432.60  126.27   1-0.75107 0.26359 0.52427-0.57111 0.40128-0.77739
  -3   0  -6 5298.70  171.89   1-0.35413-0.13329-0.93272 0.88572 0.06794-0.44466
  -3   0  -6 5483.66  239.15   1-0.82347 0.33613-0.04881 0.00169 0.56525-0.94181
   3   0   6 5275.62  181.31   1 0.52905-0.04149-0.84548 0.89257-0.07244 0.44899
  -3   0  -7 2067.78   81.60   1-0.45480-0.04871-0.88253 0.82770 0.11954-0.55904
  -3   0  -7 2112.04  149.44   1-0.87325 0.36983 0.01738-0.07235 0.48695-0.92627
   3   0   7 1995.60  111.18   1 0.54748-0.04383-0.83673 0.89166-0.01126 0.45056
  -3   0  -8 1966.92  152.58   1-0.90969 0.39034 0.07912-0.14200 0.40766-0.90964
  -3   0  -9  632.96  115.42   1-0.93459 0.39917 0.13694-0.20768 0.32831-0.89304
  -3   0 -10 1807.36  151.69   1-0.94937 0.39790 0.19047-0.26886 0.24981-0.87714
  -3   0 -11  327.06  107.72   1-0.95529 0.38775 0.24058-0.32681 0.17181-0.86187
  -3   0 -11  181.94  103.62   1-0.59137 0.02354 0.78244-0.86858-0.19508-0.49497
   3   1 -14 2835.34  230.59   1-0.56661 0.73862 0.56956-0.61210-0.59543-0.28241
   3   1 -14 2970.91  230.44   1-0.59137 0.76281 0.54072-0.58237-0.59824-0.28098
   3   1 -13  785.03  189.68   1-0.57659 0.76465 0.56810-0.60277-0.58718-0.22796
   3   1 -13  791.90  192.17   1-0.59304 0.78061 0.54850-0.58233-0.58943-0.22699
  -3  -1  12 1325.69  177.36   1-0.68159 0.47807-0.68966 0.71621 0.24451 0.50841
   3   1 -12  974.12  166.63   1-0.58218 0.78628 0.56724-0.59403-0.58249-0.16994
   3   1 -12  920.67  150.30   1-0.59396 0.79764 0.55288-0.57890-0.58440-0.16922
  -3  -1  11  100.30   57.27   1-0.61358 0.39395-0.76237 0.78106 0.20568 0.48450
   3   1 -11  263.47   80.18   1-0.58291 0.80306 0.56712-0.58604-0.58186-0.10787
   3   1 -11  129.48   93.04   1-0.59399 0.81380 0.55307-0.57127-0.58418-0.10664
  -3  -1  1010788.58  375.15   1-0.54496 0.30923-0.82157 0.83207 0.16741 0.46045
   3   1 -10 9953.96  370.43   1-0.57815 0.81435 0.56786-0.57890-0.58588-0.04115
   3   1 -1010366.23  382.51   1-0.59290 0.82882 0.54784-0.55822-0.59019-0.03782
  -3  -1   9 4822.06  202.03   1-0.47600 0.22418-0.86968 0.87235 0.13064 0.43443
   3   1  -9 5080.90  234.58   1-0.56696 0.81920 0.56951-0.57267-0.59515 0.03082
   3   1  -9 5004.52  232.46   1-0.59014 0.84218 0.53520-0.53776-0.60439 0.03917
  -3  -1   8 2385.79  193.94   1-0.40832 0.14042-0.90782 0.90266 0.09550 0.40678
   3   1  -8 2613.73  186.48   1-0.54804 0.81632 0.57198-0.56727-0.61031 0.10868
   3   1  -8 2485.16  193.83   1-0.58459 0.85276 0.51186-0.50661-0.62947 0.12705
  -3  -1   7 1321.13  151.32   1-0.34301 0.05902-0.93725 0.92426 0.06234 0.37716
   3   1  -7 1052.75  152.35   1-0.51969 0.80403 0.57499-0.56240-0.63190 0.19297
   3   1  -7 1003.32  127.31   1-0.57396 0.85824 0.47218-0.45911-0.66903 0.22941
  -3  -1   6 2449.26  183.45   1-0.28097-0.01928-0.95917 0.93862 0.03216 0.34438
   3   1  -6 2562.22  183.31   1-0.47975 0.78013 0.57791-0.55744-0.66018 0.28396
   3   1  -6 2876.27  202.59   1-0.55350 0.85389 0.40544-0.38456-0.72749 0.35067
  -3  -1   5  191.91   87.46   1-0.22349-0.09285-0.97469 0.94627 0.00405 0.30973
   3   1  -5  122.21   66.27   1-0.42561 0.74204 0.57964-0.55130-0.69488 0.38136
   3   1  -5  205.20   73.26   1-0.51186 0.82837 0.29506-0.26637-0.80680 0.49278
  -3  -1   5   90.32   47.17   1-0.59363 0.27711 0.77672-0.80530-0.21044 0.52410
  -3  -1   4 3471.55  165.20   1-0.17135-0.16108-0.98498 0.94869-0.02105 0.27209
   3   1  -4 3413.83  139.16   1-0.35451 0.68673 0.57805-0.54194-0.73496 0.48445
   3   1  -4 3266.46  111.96   1-0.42682 0.75926 0.11122-0.07442-0.89746 0.64650
  -3  -1   4 3488.90  111.30   1-0.60702 0.27493 0.71178-0.74803-0.35338 0.60403
  -3  -1   328374.80  570.18   1-0.12546-0.22305-0.99117 0.94700-0.04286 0.23113
   3   1  -330260.58  598.96   1-0.26387 0.61213 0.57126-0.52725-0.77719 0.58931
   3   1  -329391.84  532.28   1-0.26374 0.61219-0.16745 0.21190-0.94994 0.76178
  -3  -1   328611.28  518.66   1-0.59932 0.25057 0.58125-0.62559-0.55040 0.73880
  -3  -1   2  362.94   83.05   1-0.08669-0.27783-0.99429 0.94210-0.06220 0.18773
   3   1  -2  345.02   31.98   1-0.02315 0.38762-0.48773 0.53984-0.87268 0.74720
  -3  -1   2  368.62   41.44   1-0.52500 0.16011 0.32770-0.37985-0.78547 0.91108
  -3  -1   113488.01  338.37   1-0.05597-0.32465-0.99549 0.93552-0.07651 0.13928
   3   1  -113220.50  255.28   1 0.20050 0.18016-0.70966 0.76956-0.67541 0.61263
  -3  -1   112292.61  238.40   1-0.34992-0.03064-0.02902-0.03093-0.93632 0.99905
   3   1   0102918.1 1823.37   1 0.12103 0.27535 0.48578-0.41810-0.86565 0.86565
   3   1   0102587.8 1775.34   1 0.34197 0.05477-0.80698 0.87474-0.48147 0.48147
  -3  -1   097013.92 1678.75   1-0.14712-0.24954-0.33381 0.26609-0.93108 0.93108
  -3  -1  -1  -47.78   82.37   1-0.02187-0.39094-0.99549 0.91994-0.09226 0.02949
   3   1   1  314.65   53.18   1 0.27009 0.14237 0.42974-0.35415-0.86160 0.92428
   3   1   1  120.55   37.43   1 0.42322-0.01046-0.84216 0.91781-0.33413 0.39685
  -3  -1  -1  127.62   28.80   1 0.00713-0.41980-0.52176 0.44627-0.85305 0.79031
  -3  -1  -228038.67  725.14   1-0.02028-0.40863-0.99545 0.91211-0.09299-0.03253
   3   1   232069.12  818.84   1 0.41426 0.01445 0.36261-0.27915-0.83480 0.96013
   3   1   229610.87  737.00   1 0.47273-0.04391-0.85192 0.93544-0.22528 0.35072
  -3  -1  -227219.15  679.45   1 0.10695-0.53587-0.62615 0.54270-0.77232 0.64677
  -3  -1  -3 5412.07  183.94   1-0.56856 0.12397 0.74923-0.84030 0.33967-0.52775
  -3  -1  -3 5850.45  218.52   1-0.03040-0.41460-0.99562 0.90449-0.08833-0.09995
   3   1   3 6365.85  230.36   1 0.54558-0.10077 0.28643-0.19509-0.78758 0.97559
   3   1   3 5672.64  200.03   1 0.50578-0.06080-0.85111 0.94239-0.14064 0.32891
  -3  -1  -4 9005.72  314.23   1-0.65233 0.19163 0.66179-0.76065 0.36945-0.62022
  -3  -1  -410305.85  377.91   1-0.05370-0.40739-0.99553 0.89662-0.07756-0.17349
  -3  -1  -411119.19  409.28   1-0.65926 0.19819-0.20510 0.10584 0.72339-0.97443
   3   1   410736.31  382.26   1 0.52966-0.06860-0.84526 0.94439-0.07053 0.32156
  -3  -1  -5 1561.00   94.58   1-0.73672 0.25968 0.54737-0.65409 0.39701-0.71043
  -3  -1  -5 2390.67  159.80   1-0.09227-0.38492-0.99394 0.88724-0.05959-0.25422
  -3  -1  -5 2005.28  163.21   1-0.75161 0.27444-0.12505 0.01791 0.64763-0.96143
   3   1   5 2171.96  150.15   1 0.54784-0.07070-0.83651 0.94349-0.00997 0.32376
  -3  -1  -623158.82  538.86   1-0.81530 0.32215 0.40036-0.51489 0.41831-0.79441
  -3  -1  -627449.58  640.11   1-0.14921-0.34410-0.98829 0.87327-0.03160-0.34494
  -3  -1  -628674.06  706.60   1-0.82382 0.33084-0.04839-0.06651 0.56477-0.94133
  -3  -1  -7  617.07   65.89   1-0.23076-0.27864-0.97298 0.85008 0.00758-0.44690
  -3  -1  -7  575.31  102.20   1-0.87772 0.36867 0.02416-0.14693 0.47855-0.91787
  -3  -1  -8 2021.22  181.08   1-0.91569 0.39069 0.09131-0.22196 0.39137-0.89335
  -3  -1  -9  323.13  108.18   1-0.94006 0.39899 0.15360-0.29210 0.30444-0.86918
  -3  -1  -9  520.18  133.61   1-0.58989 0.04853 0.78587-0.92409-0.18553-0.37906
  -3  -1 -10 2162.72  141.87   1-0.95272 0.39559 0.21067-0.35682 0.21894-0.84627
  -3  -1 -10 1918.48  211.39   1-0.59603 0.03862 0.76992-0.91597-0.22795-0.39937
  -3  -1 -11  163.36  106.16   1-0.60083 0.02736 0.75274-0.90662-0.26901-0.42104
   3   2 -14 2401.91  191.34   1-0.60424 0.78112 0.56438-0.53877-0.56245-0.31553
   3   2 -14 3247.24  253.40   1-0.59777 0.77484 0.57246-0.54632-0.56120-0.31803
   3   2 -13 2409.13  196.45   1-0.61422 0.80721 0.56248-0.52902-0.55346-0.26180
   3   2 -13 2354.20  206.26   1-0.59946 0.79265 0.58204-0.54808-0.54942-0.26701
  -3  -2  12 1768.19  128.71   1-0.59924 0.39005-0.77577 0.73455 0.19769 0.55523
   3   2 -12 1392.18  191.11   1-0.62023 0.82931 0.56128-0.51997-0.54796-0.20459
   3   2 -12 1650.70  162.18   1-0.60055 0.80986 0.58858-0.54680-0.54120-0.21242
  -3  -2  11 9090.50  327.70   1-0.52004 0.29475-0.84013 0.79065 0.15400 0.53664
   3   2 -11 9183.71  380.22   1-0.62187 0.84705 0.56094-0.51179-0.54644-0.14339
   3   2 -11 8995.42  353.10   1-0.60100 0.82643 0.59138-0.54179-0.53764-0.15318
  -3  -2  1022963.88  709.05   1-0.44071 0.19933-0.89060 0.83328 0.11221 0.51565
   3   2 -1021073.31  685.19   1-0.61856 0.85983 0.56162-0.50463-0.54950-0.07762
   3   2 -1021755.72  684.46   1-0.60067 0.84222 0.58934-0.53193-0.54024-0.08777
  -3  -2   9 8595.92  291.40   1-0.36303 0.10557-0.92895 0.86380 0.07243 0.49264
   3   2  -9 8738.72  306.65   1-0.60944 0.86682 0.56341-0.49857-0.55779-0.00662
   3   2  -9 9332.05  320.04   1-0.59920 0.85687 0.58055-0.51533-0.55127-0.01394
  -3  -2   8  301.50  123.97   1-0.28789 0.01414-0.95699 0.88441 0.03558 0.46648
   3   2  -8  279.09  116.82   1-0.59334 0.86681 0.56632-0.49364-0.57202 0.07032
   3   2  -8  451.96  116.66   1-0.59573 0.86952 0.56171-0.48866-0.57409 0.07167
  -3  -2   7  491.90  115.70   1-0.21679-0.07304-0.97621 0.89575 0.00081 0.43850
   3   2  -7  312.20  104.03   1-0.56840 0.85839 0.56930-0.48899-0.59396 0.15504
   3   2  -7  296.57   58.53   1 0.50365-0.21386-0.85139 0.93194-0.14648-0.29281
   3   2  -7  612.96  111.95   1-0.58815 0.87806 0.52656-0.44570-0.61384 0.17422
  -3  -2   611860.75  398.13   1-0.15037-0.15555-0.98814 0.89980-0.03105 0.40761
   3   2  -611049.78  368.71   1-0.53295 0.83899 0.57368-0.48549-0.62196 0.24574
   3   2  -611061.97  324.40   1 0.52018-0.21430-0.84824 0.93663-0.09945-0.27708
   3   2  -611636.96  352.79   1-0.57115 0.87718 0.46252-0.37384-0.67812 0.30130
  -3  -2   5 2341.82  181.44   1-0.08950-0.23240-0.99412 0.89754-0.06089 0.37471
   3   2  -5 2396.74  209.06   1-0.48409 0.80617 0.57766-0.48159-0.65722 0.34371
   3   2  -5 2439.27  147.92   1 0.53832-0.21636-0.84165 0.93790-0.04263-0.27115
   3   2  -5 2358.79  152.97   1-0.53020 0.85236 0.34109-0.24461-0.77622 0.46221
  -3  -2   411879.55  370.76   1-0.03496-0.30304-0.99566 0.89128-0.08623 0.33729
   3   2  -412512.32  374.72   1-0.41867 0.75680 0.57969-0.47574-0.69904 0.44823
   3   2  -411990.54  307.38   1-0.42194 0.75998 0.10179 0.00274-0.90088 0.64993
  -3  -2   3 1569.08  118.26   1 0.01255-0.36665-0.99406 0.88190-0.10801 0.29631
   3   2  -3 1254.89  108.12   1-0.33342 0.68734 0.57697-0.46529-0.74560 0.55772
   3   2  -3 1318.99   44.41   1-0.14004 0.49423-0.34315 0.45521-0.92878 0.74061
  -3  -2   1 1939.18  132.80   1 0.08407-0.47036-0.98653 0.85880-0.14026 0.20302
   3   2  -1 2088.62  318.96   1-0.09588 0.48182 0.54437-0.41693-0.83334 0.77072
   3   2  -1 1821.96   88.98   1 0.45850-0.07221-0.85026 0.97798-0.25848 0.19576
  -3  -2   1 1662.07   51.42   1-0.37492-0.01135 0.01514-0.14290-0.92693 0.98967
  -3  -2   0150854.3 2642.52   1 0.10700-0.50938-0.98280 0.84728-0.15046 0.15046
   3   2   0145166.0 2538.76   1 0.05302 0.34896 0.50715-0.37181-0.86021 0.86021
   3   2   0152292.2 2610.93   1 0.51032-0.10793-0.85040 0.98588-0.12797 0.12798
  -3  -2   0147119.5 2521.66   1-0.08473-0.31755-0.41349 0.27805-0.90655 0.90655
  -3  -2  -1  192.03  124.60   1 0.12069-0.53917-0.98027 0.83695-0.15652 0.09375
   3   2   1  127.99   23.92   1 0.21291 0.20518 0.45285-0.30958-0.86578 0.92847
  -3  -2  -1   -0.72   30.44   1-0.32333-0.09477 0.57634-0.71959-0.75051 0.68789
   3   2   1   47.24   36.48   1 0.53518-0.11671-0.84307 0.98640-0.05293 0.11569
  -3  -2  -1   67.53   34.71   1 0.08803-0.50653-0.60768 0.46433-0.78928 0.72650
  -3  -2  -2  181.11   80.10   1 0.12459-0.55917-0.97950 0.82840-0.15824 0.03271
   3   2   2  202.88   66.11   1 0.37170 0.06265 0.38423-0.23307-0.84510 0.97043
   3   2   2  101.72   48.30   1 0.55127-0.11671-0.83432 0.98549 0.00233 0.12317
  -3  -2  -2   76.54   33.24   1 0.18100-0.61559-0.69337 0.54217-0.69747 0.57191
  -3  -2  -3  683.62  103.82   1 0.11801-0.56868-0.98078 0.82189-0.15533-0.03295
   3   2   3  733.71   81.41   1 0.51908-0.06863 0.30307-0.14403-0.79918 0.98719
  -3  -2  -3  386.13   57.21   1 0.23275-0.68342-0.73522 0.57617-0.63660 0.44826
  -3  -2  -4 1918.38  145.36   1 0.09997-0.56674-0.98401 0.81733-0.14734-0.10371
  -3  -2  -4 2224.37  159.70   1-0.64745 0.18075-0.21428 0.04724 0.73135-0.98239
  -3  -2  -5 1032.16  119.09   1 0.06908-0.55194-0.98863 0.81416-0.13355-0.18026
  -3  -2  -5  764.18  105.47   1-0.75089 0.26808-0.12574-0.04916 0.64834-0.96213
  -3  -2  -620485.08  620.86   1 0.02311-0.52207-0.99334 0.81108-0.11281-0.26377
  -3  -2  -620203.96  623.20   1-0.83004 0.33143-0.04086-0.14183 0.55619-0.93275
  -3  -2  -7  374.79   86.93   1-0.88705 0.37248 0.03871-0.22926 0.46003-0.89927
  -3  -2  -7  226.35  104.79   1-0.59285 0.07798 0.77878-0.96907-0.20499-0.23413
  -3  -2  -8  105.18   45.70   1-0.13226-0.39889-0.99042 0.79186-0.03964-0.46242
  -3  -2  -8  359.53  116.06   1-0.92506 0.39442 0.11226-0.31068 0.36282-0.86481
  -3  -2  -8  518.98  168.97   1-0.59762 0.06669 0.76483-0.96295-0.24056-0.26129
  -3  -2  -9  208.47   83.79   1-0.94697 0.40025 0.17940-0.38567 0.26655-0.83129
  -3  -2  -9  169.30  131.73   1-0.60150 0.05451 0.74982-0.95577-0.27560-0.28899
  -3  -2 -10  -24.76   84.79   1-0.60451 0.04263 0.73388-0.94752-0.30979-0.31682
   3   3 -14  797.02  185.59   1-0.63372 0.81626 0.55840-0.46507-0.53533-0.34265
   3   3 -14 1073.31  193.62   1-0.60253 0.78523 0.60149-0.50755-0.52456-0.35467
   3   3 -13    5.86   79.15   1-0.64352 0.84217 0.55615-0.45498-0.52589-0.28938
   3   3 -13  372.76  137.48   1-0.60336 0.80277 0.61332-0.51242-0.50969-0.30491
  -3  -3  12 2171.84  168.90   1-0.50738 0.29253-0.84904 0.73956 0.14724 0.60619
   3   3 -12 2276.56  221.02   1-0.64968 0.86442 0.55467-0.44565-0.51984-0.23271
   3   3 -12 1778.49  331.81   1-0.60441 0.81982 0.62191-0.51317-0.49790-0.25403
  -3  -3  11   75.88   54.20   1-0.41838 0.18744-0.90267 0.78535 0.10067 0.58997
   3   3 -11   95.47   89.91   1-0.65185 0.88269 0.55414-0.43727-0.51769-0.17214
   3   3 -11  180.48   89.16   1-0.60500 0.83642 0.62729-0.51071-0.49038-0.19889
  -3  -3  10  269.21   69.80   1-0.33150 0.08426-0.94171 0.81708 0.05727 0.57032
   3   3 -10  706.99  135.28   1-0.64950 0.89644 0.55472-0.43000-0.52002-0.10711
   3   3 -10  286.42  110.69   1-0.60513 0.85256 0.62850-0.50408-0.48866-0.13795
  -3  -3   9   93.27   93.06   1-0.24857-0.01475-0.96847 0.83597 0.01626 0.54856
   3   3  -9  187.00  132.47   1-0.64187 0.90491 0.55654-0.42399-0.52749-0.03692
   3   3  -9  166.55   96.34   1-0.60463 0.86807 0.62390-0.49164-0.49513-0.06882
  -3  -3   8 6792.76  236.41   1-0.17005-0.10936-0.98519 0.84482-0.02167 0.52374
   3   3  -8 7433.70  270.16   1-0.62787 0.90701 0.55968-0.41928-0.54085 0.03915
   3   3  -8 7780.24  223.31   1-0.60298 0.88242 0.61039-0.47028-0.51364 0.01235
  -3  -3   7 4359.51  215.50   1-0.09688-0.19849-0.99363 0.84486-0.05743 0.49678
   3   3  -7 4940.79  245.18   1-0.60600 0.90124 0.56406-0.41581-0.56087 0.12188
   3   3  -7 3682.08  324.71   1 0.41661-0.12105-0.84009 0.98840-0.34738-0.09166
   3   3  -7 4523.51  197.36   1-0.59928 0.89482 0.58103-0.43237-0.55068 0.11106
  -3  -3   640079.98 1136.10   1-0.02957-0.28189-0.99561 0.83905-0.08871 0.46530
   3   3  -636743.08 1047.21   1-0.57392 0.88561 0.56850-0.41258-0.58941 0.21319
   3   3  -639010.23 1062.52   1 0.41203-0.10041-0.83856 0.99474-0.35641-0.01991
   3   3  -639685.10 1087.93   1-0.58712 0.89878 0.52221-0.36574-0.61852 0.24171
  -3  -3   5  942.34  120.41   1 0.03114-0.35871-0.99270 0.82836-0.11645 0.43028
   3   3  -5  975.17  137.90   1 0.39052-0.06283-0.83046 0.99451-0.39726 0.08365
   3   3  -5  954.48   83.54   1-0.54850 0.87629 0.39092-0.22666-0.73913 0.42512
  -3  -3   4 4427.16  288.15   1 0.08474-0.42841-0.98643 0.81430-0.14056 0.39162
   3   3  -4 3955.35  262.99   1-0.46934 0.81313 0.57844-0.40676-0.66717 0.41635
   3   3  -4 3864.36  227.03   1 0.30287 0.04092-0.78399 0.95588-0.54186 0.29086
   3   3  -4 4043.68  224.60   1-0.38165 0.72530 0.02714 0.14515-0.92390 0.67294
  -3  -3   3  615.38  124.07   1 0.13082-0.49059-0.97824 0.79832-0.16099 0.34928
   3   3  -3  882.81  110.50   1-0.38951 0.74934 0.57948-0.39993-0.71587 0.52776
   3   3  -2  283.57   58.08   1-0.16888 0.54449 0.96950-0.78213 0.17760-0.30296
   3   3  -2  382.84   69.76   1-0.28642 0.66206 0.57346-0.38621-0.76752 0.64226
   3   3  -1 3870.90  247.50   1-0.15828 0.54996 0.55667-0.36152-0.81551 0.75288
   3   3   025204.73  658.43   1-0.22069 0.62850 0.95461-0.75164 0.20002-0.20002
   3   3   022387.87  580.39   1-0.00633 0.41399 0.52351-0.32049-0.85199 0.85199
  -3  -3   023096.88  560.02   1 0.00312-0.41096-0.51732 0.31423-0.85578 0.85578
  -3  -3   023248.12  566.77   1-0.60721 0.19971 0.70915-0.91198-0.35831 0.35831
   3   3   111028.47  359.84   1-0.23389 0.65780 0.95025-0.73948 0.20568-0.14300
   3   3   111861.91  378.92   1 0.16246 0.26126 0.47155-0.26061-0.86673 0.92942
  -3  -3  -1 9968.07  306.69   1-0.45752 0.03350 0.57892-0.78998-0.67491 0.61221
  -3  -3  -110683.32  306.29   1 0.17833-0.60251-0.69109 0.48000-0.70041 0.63763
  -3  -3  -110733.49  317.74   1-0.60150 0.17734 0.74980-0.96083-0.27565 0.21291
   3   3   2  460.15  117.64   1-0.23826 0.67827 0.94876-0.73019 0.20755-0.08219
   3   3   2   15.35   39.13   1 0.33590 0.10390 0.40052-0.18166-0.85249 0.97785
  -3  -3  -2   44.68   25.69   1-0.37404-0.06602 0.57911-0.79804-0.72437 0.59896
  -3  -3  -2   81.92   38.48   1 0.25497-0.69507-0.75146 0.53250-0.60851 0.48301
  -3  -3  -2   27.65   53.78   1-0.59888 0.15867 0.76043-0.97929-0.25115 0.12568
   3   3   3 3536.27  200.09   1-0.23341 0.68952 0.95041-0.72404 0.20547-0.01743
   3   3   3 3503.04  264.03   1 0.49921-0.04312 0.31510-0.08836-0.80714 0.99515
  -3  -3  -3 3104.00  233.25   1 0.29292-0.74907-0.77761 0.55081-0.55633 0.36808
  -3  -3  -3 3962.40  190.47   1-0.59866 0.14239 0.76122-0.98792-0.24925 0.06106
   3   3   470645.25 1777.73   1-0.21872 0.69094 0.95523-0.72106 0.19918 0.05153
  -3  -3  -471672.91 1799.83   1-0.64328 0.17094-0.21747-0.01733 0.73408-0.98512
  -3  -3  -469836.39 1759.16   1-0.59971 0.12738 0.75729-0.99182-0.25853 0.00760
   3   3   5  450.44   70.51   1-0.19326 0.68157 0.96292-0.72095 0.18819 0.12519
  -3  -3  -5  735.73  103.61   1-0.75823 0.26980-0.11863-0.12405 0.64109-0.95489
  -3  -3  -5  846.24  149.79   1-0.60136 0.11296 0.75045-0.99281-0.27419-0.03946
   3   3   6   52.17   33.18   1-0.15551 0.65993 0.97278-0.72301 0.17175 0.20431
  -3  -3  -6  189.52   92.24   1-0.84368 0.33943-0.02369-0.22678 0.53632-0.91288
  -3  -3  -6  150.21   79.47   1-0.60318 0.09872 0.74149-0.99168-0.29386-0.08253
  -3  -3  -7 2720.07  120.79   1 0.10280-0.62352-0.98353 0.72572-0.14859-0.29075
  -3  -3  -7 2773.06  123.57   1-0.90207 0.38184 0.06464-0.32296 0.42672-0.86595
  -3  -3  -7 2250.98  138.13   1-0.60493 0.08539 0.73101-0.98873-0.31571-0.12292
  -3  -3  -8  266.00   97.01   1 0.03114-0.56796-0.99270 0.72710-0.11645-0.38565
  -3  -3  -8   12.08   43.76   1-0.93742 0.40113 0.14528-0.41147 0.31641-0.81840
  -3  -3  -8  372.12  162.26   1-0.60640 0.07085 0.71879-0.98436-0.34001-0.16128
  -3  -3  -9 1095.16  268.79   1-0.60747 0.05591 0.70514-0.97855-0.36570-0.19824
  -3  -3 -10 1926.37  189.86   1-0.60804 0.04047 0.69011-0.97135-0.39246-0.23414
   3   4 -14 1200.46  179.24   1-0.65635 0.84457 0.55300-0.39195-0.51319-0.36478
   3   4 -14  838.44  142.55   1-0.60510 0.79419 0.62819-0.46753-0.48910-0.38816
   3   4 -13  791.22  212.99   1-0.66585 0.87016 0.55052-0.38162-0.50354-0.31172
   3   4 -13  655.01  179.42   1-0.60630 0.81140 0.64103-0.47252-0.47060-0.34400
  -3  -4  12 3814.63  255.47   1-0.41008 0.18958-0.90693 0.72963 0.09640 0.65703
   3   4 -12 3950.24  285.60   1-0.67196 0.89237 0.54884-0.37210-0.49721-0.25534
   3   4 -12 3976.35  280.15   1-0.60708 0.82819 0.65157-0.47522-0.45485-0.29708
  -3  -4  11 1364.18  143.50   1-0.31501 0.07819-0.94781 0.76328 0.04903 0.64131
   3   4 -11  858.69  129.82   1-0.67438 0.91089 0.54816-0.36358-0.49468-0.19515
   3   4 -11 1259.19  158.57   1-0.60753 0.84464 0.65940-0.47521-0.44281-0.24646
  -3  -4  10 2074.63  160.62   1-0.22508-0.02782-0.97432 0.78191 0.00482 0.62276
   3   4 -10 2044.50  158.00   1-0.67262 0.92522 0.54866-0.35623-0.49653-0.13059
   3   4 -10 2143.34  152.52   1-0.60773 0.86084 0.66380-0.47177-0.43591-0.19070
  -3  -4   9 7578.36  289.50   1-0.14046-0.12852-0.98943 0.78915-0.03576 0.60059
   3   4  -9 8276.70  336.08   1-0.66597 0.93468 0.55048-0.35021-0.50342-0.06099
   3   4  -9 8159.17  294.44   1-0.60771 0.87684 0.66344-0.46357-0.43648-0.12747
  -3  -4   8 8139.61  266.89   1-0.06204-0.22290-0.99534 0.78660-0.07369 0.57581
   3   4  -8 7585.74  259.61   1-0.65346 0.93826 0.55374-0.34562-0.51609 0.01439
   3   4  -8 8213.94  228.11   1-0.60733 0.89247 0.65572-0.44800-0.44851-0.05277
  -3  -4   7 9683.18  331.32   1 0.01010-0.31114-0.99421 0.77768-0.10689 0.54625
   3   4  -710024.89  348.91   1-0.63368 0.93457 0.55841-0.34245-0.53537 0.09637
   3   4  -7 8298.67  241.45   1 0.29156 0.00970-0.77672 0.99284-0.55828 0.11903
   3   4  -7 9420.46  289.25   1-0.60576 0.90690 0.63489-0.41934-0.47952 0.04089
  -3  -4   644906.41 1466.57   1 0.07529-0.39244-0.98779 0.76347-0.13633 0.51292
   3   4  -641311.35 1309.08   1 0.24129 0.07602-0.74137 0.96533-0.62621 0.24971
   3   4  -643735.86 1390.02   1-0.59996 0.91724 0.58499-0.36073-0.54573 0.16892
  -3  -4   516237.62  513.76   1 0.13320-0.46644-0.97775 0.74564-0.16204 0.47586
   3   4  -515193.32  478.81   1-0.56358 0.89697 0.56998-0.33845-0.59790 0.28438
   3   4  -515537.46  426.89   1 0.11417 0.21916-0.63306 0.86481-0.76563 0.45173
   3   4  -516248.56  449.82   1-0.56739 0.90079 0.44995-0.21788-0.68964 0.37562
   3   4  -4  615.10   89.33   1-0.18346 0.53257 0.96566-0.72624 0.18395-0.43466
   3   4  -4  273.26   67.06   1-0.50771 0.85715 0.57602-0.33662-0.64064 0.38982
   3   4  -3 7389.56  265.53   1-0.22613 0.59133 0.95284-0.70562 0.20236-0.39039
   3   4  -3 7581.77  268.22   1-0.43272 0.79821 0.57955-0.33228-0.69055 0.50244
   3   4  -214849.85  433.08   1-0.26108 0.64238 0.94055-0.68553 0.21725-0.34261
   3   4  -214977.10  423.04   1-0.33415 0.71545 0.57701-0.32208-0.74524 0.61999
   3   4  -1 8328.73  277.18   1-0.20873 0.60607 0.56450-0.30167-0.79860 0.73597
   3   4   0  288.48  115.14   1-0.30777 0.72127 0.92149-0.65087 0.23688-0.23688
   3   4   0  185.94   66.41   1-0.05542 0.46874 0.53551-0.26482-0.84270 0.84270
  -3  -4   0  124.38   34.80   1-0.65749 0.24391 0.55271-0.82359-0.51205 0.51205
  -3  -4   0   86.78   24.55   1 0.12681-0.54057-0.64498 0.37399-0.75359 0.75359
  -3  -4   0   98.74   34.13   1-0.54466 0.13060 0.38007-0.65120-0.74758 0.74758
   3   4   1 3465.79  193.96   1-0.31947 0.74908 0.91623-0.63781 0.24175-0.17907
   3   4   1 3944.46  155.06   1 0.12045 0.30890 0.48611-0.20752-0.86555 0.92817
  -3  -4  -1 3526.79  135.96   1-0.59368 0.16400 0.56626-0.84498-0.57173 0.50902
  -3  -4  -1 3720.62  195.43   1 0.27089-0.70057-0.76277 0.48390-0.58718 0.52443
  -3  -4  -1 4130.90  151.46   1-0.59727 0.16716 0.56979-0.84877-0.56443 0.50163
   3   4   210031.88  370.61   1-0.32330 0.76901 0.91446-0.62824 0.24335-0.11799
   3   4   210157.06  369.46   1 0.30779 0.13764 0.41336-0.12683-0.85696 0.98232
  -3  -4  -2 9002.84  318.30   1-0.52555 0.07983 0.57443-0.86109-0.62754 0.50213
  -3  -4  -2 8111.38  296.91   1 0.32345-0.76917-0.79652 0.50981-0.51080 0.38530
  -3  -4  -2 9627.42  348.32   1-0.60581 0.16061 0.63544-0.92157-0.47874 0.35341
   3   4   3 4948.70  205.13   1-0.31905 0.78086 0.91643-0.62240 0.24158-0.05354
   3   4   3 4725.50  164.79   1 0.48829-0.02655 0.32156-0.02711-0.81127 0.99927
  -3  -4  -3 4152.60  147.98   1-0.45743-0.00433 0.57892-0.87346-0.67497 0.48686
  -3  -4  -3 3983.87  137.64   1 0.34641-0.80818-0.80937 0.51481-0.47424 0.28599
  -3  -4  -3 5285.45  206.40   1-0.60772 0.14651 0.66356-0.95753-0.43629 0.24831
   3   4   4127118.510376.99   1-0.30630 0.78421 0.92214-0.62031 0.23627 0.01444
  -3  -4  -496129.00 1786.18   1-0.39226-0.08555 0.57953-0.88194-0.71433 0.46351
  -3  -4  -4128370.010471.88   1-0.64942 0.17145-0.21276-0.08981 0.73005-0.98108
  -3  -4  -4130132.310619.58   1-0.60806 0.13084 0.67552-0.97733-0.41704 0.16639
   3   4   5  127.27   65.29   1-0.28440 0.77841 0.93141-0.62178 0.22710 0.08629
  -3  -4  -5  276.34   56.99   1-0.77612 0.28232-0.10114-0.20926 0.62241-0.93621
  -3  -4  -5  275.66   99.04   1-0.60809 0.11487 0.67885-0.98851-0.41154 0.09823
   3   4   6 5032.31  197.57   1-0.25226 0.76238 0.94380-0.62637 0.21351 0.16256
  -3  -4  -6 4848.68  189.72   1-0.86656 0.35668 0.00754-0.32581 0.49900-0.87556
  -3  -4  -6 5012.41  244.89   1-0.60807 0.09885 0.67684-0.99434-0.41486 0.03889
   3   4   7  438.38   93.42   1-0.20818 0.73440 0.95852-0.63329 0.19464 0.24411
  -3  -4  -7  646.86   86.12   1-0.92287 0.39700 0.10711-0.43321 0.36990-0.80914
  -3  -4  -7  468.63  127.48   1-0.60797 0.08273 0.67113-0.99646-0.42420-0.01442
  -3  -4  -8  295.01  136.97   1-0.60767 0.06643 0.66259-0.99577-0.43782-0.06346
  -3  -4 -10  306.91  186.05   1-0.60612 0.03286 0.63884-0.98770-0.47379-0.15281
   3   5 -13  210.94  101.50   1-0.68228 0.89226 0.54588-0.30926-0.48630-0.32896
   3   5 -13  125.45  103.05   1-0.60779 0.81858 0.66555-0.42943-0.43315-0.38145
  -3  -5  12 2360.29  166.17   1-0.31336 0.08696-0.94840 0.70395 0.04821 0.70489
   3   5 -12 2164.23  191.11   1-0.68819 0.91426 0.54410-0.29964-0.47993-0.27262
   3   5 -12 1843.89  150.18   1-0.60809 0.83488 0.67783-0.43387-0.41323-0.33870
  -3  -5  11  809.34  135.25   1-0.21693-0.02554-0.97618 0.72386 0.00087 0.68947
   3   5 -11  515.26  165.58   1-0.69062 0.93279 0.54335-0.29105-0.47728-0.21255
   3   5 -11  535.27  140.78   1-0.60807 0.85088 0.68788-0.43608-0.39630-0.29297
  -3  -5  10   54.30   62.45   1-0.12693-0.13163-0.99101 0.73081-0.04216 0.66976
   3   5 -10  204.31  139.75   1-0.68912 0.94739 0.54381-0.28366-0.47891-0.14821
   3   5 -10   98.68   76.74   1-0.60791 0.86672 0.69520-0.43556-0.38356-0.24304
  -3  -5   9   72.90   96.94   1-0.04411-0.23040-0.99565 0.72693-0.08201 0.64689
   3   5  -9  207.18  107.55   1-0.68306 0.95743 0.54565-0.27765-0.48547-0.07894
   3   5  -9  143.22   62.94   1-0.60778 0.88259 0.69886-0.43138-0.37706-0.18688
  -3  -5   838547.91  929.29   1 0.03196-0.32258-0.99263 0.71613-0.11683 0.61894
   3   5  -837785.27  927.75   1-0.67150 0.96196 0.54897-0.27313-0.49770-0.00399
   3   5  -836757.84  844.55   1-0.60785 0.89867 0.69696-0.42163-0.38046-0.12082
  -3  -5   7  559.19  148.61   1 0.10068-0.40739-0.98390 0.69960-0.14765 0.58701
   3   5  -7  805.69  166.14   1-0.65313 0.95970 0.55382-0.27013-0.51642 0.07742
   3   5  -7  297.49   44.47   1 0.13493 0.17190-0.65251 0.93631-0.74566 0.30620
   3   5  -7  263.04   52.86   1-0.60810 0.91493 0.68502-0.40186-0.40117-0.03745
   3   5  -685719.57 2162.57   1-0.16187 0.48447 0.97125-0.67978 0.17454-0.55061
   3   5  -685146.86 2159.35   1-0.62617 0.94883 0.56004-0.26852-0.54245 0.16617
   3   5  -673577.70 1808.13   1 0.02914 0.29354-0.54570 0.83742-0.83747 0.46102
   3   5  -683590.95 2055.88   1-0.60697 0.92981 0.64992-0.35891-0.45735 0.08138
   3   5  -525151.35  853.23   1-0.21541 0.55411 0.95628-0.65701 0.19776-0.51115
   3   5  -524413.96  831.00   1-0.58812 0.92688 0.56720-0.26782-0.57653 0.26296
   3   5  -523843.16  754.06   1-0.20914 0.54801-0.24767 0.54751-0.94599 0.63238
   3   5  -523856.97  755.27   1-0.58719 0.92622 0.52250-0.22263-0.61821 0.30420
   3   5  -4 2403.45  210.75   1-0.26142 0.61622 0.94042-0.63334 0.21740-0.46811
   3   5  -4 2422.54  212.20   1-0.53516 0.89026 0.57344-0.26632-0.62028 0.36947
   3   5  -3 5256.35  228.01   1-0.29996 0.67087 0.92489-0.61002 0.23362-0.42166
   3   5  -3 5213.48  231.93   1-0.46411 0.83526 0.57867-0.26366-0.67062 0.48251
   3   5  -2 4580.39  420.45   1-0.33117 0.71818 0.91077-0.58809 0.24660-0.37196
   3   5  -2 4657.37  215.31   1-0.36966 0.75685 0.57897-0.25609-0.72673 0.60132
   3   5  -1 4334.43  191.20   1-0.24690 0.64991 0.56938-0.23888-0.78411 0.72148
   3   5   0 7457.76  314.24   1-0.37233 0.79137 0.88997-0.55172 0.26328-0.26328
   3   5   0 7659.05  290.24   1-0.09302 0.51201 0.54377-0.20541-0.83405 0.83405
  -3  -5   0 7424.60  242.88   1 0.26855-0.68779-0.76113 0.42235-0.59037 0.59037
  -3  -5   0 7370.87  244.91   1-0.40924-0.00993 0.07768-0.41643-0.90911 0.90911
   3   5   1  137.98   68.02   1-0.38225 0.81739 0.88454-0.53850 0.26731-0.20463
   3   5   1  132.60   35.56   1 0.08919 0.34583 0.49620-0.14993-0.86361 0.92623
  -3  -5  -1  165.65   40.60   1-0.72054 0.28519 0.53326-0.87970-0.44321 0.38050
  -3  -5  -1  215.43   45.55   1 0.35404-0.78933-0.81335 0.46673-0.46163 0.39888
  -3  -5  -1  166.90   61.87   1-0.53769 0.10187 0.36093-0.70765-0.76197 0.69917
   3   5   222160.81  497.17   1-0.38517 0.83641 0.88291-0.52907 0.26849-0.14312
   3   5   223318.11  475.45   1 0.29013 0.16093 0.42115-0.06694-0.85933 0.98469
  -3  -5  -219553.63  407.23   1-0.67494 0.22350 0.54800-0.90229-0.49409 0.36867
  -3  -5  -219604.47  396.04   1 0.38182-0.83330-0.82677 0.47208-0.41309 0.28765
  -3  -5  -222444.74  466.56   1-0.57648 0.12462 0.48113-0.83572-0.66043 0.53482
   3   5   3 4343.50  167.10   1-0.38097 0.84830 0.88525-0.52361 0.26679-0.07874
   3   5   3 4628.33  135.26   1 0.48928-0.02190 0.32098 0.04116-0.81090 0.99891
  -3  -5  -3 4494.94  135.35   1-0.62767 0.16012 0.55972-0.92185-0.54104 0.35290
  -3  -5  -3 4990.53  173.40   1-0.59164 0.12366 0.54196-0.90436-0.59684 0.40844
   3   5   412983.76  435.20   1-0.36936 0.85279 0.89156-0.52212 0.26207-0.01133
  -3  -5  -413226.15  411.93   1-0.66977 0.18616-0.19676-0.17359 0.71602-0.96706
  -3  -5  -412288.52  411.23   1-0.59812 0.11402 0.57444-0.94466-0.55879 0.30758
   3   5   5  159.11   47.39   1-0.34968 0.84939 0.90171-0.52442 0.25423 0.05915
  -3  -5  -5  200.15   59.40   1-0.80876 0.30932-0.06594-0.31225 0.58442-0.89822
  -3  -5  -5  369.60  117.54   1-0.60100 0.10078 0.59142-0.96946-0.53759 0.22358
   3   5   6 1228.60  264.56   1-0.32146 0.83727 0.91532-0.53023 0.24258 0.13349
  -3  -5  -6 1465.34  111.28   1-0.90044 0.38499 0.06167-0.44767 0.43058-0.80707
  -3  -5  -6 1575.81  169.14   1-0.60215 0.08581 0.59893-0.98478-0.52790 0.15108
   3   5   7   65.25   40.22   1-0.28323 0.81514 0.93189-0.53900 0.22661 0.21214
  -3  -5  -7  210.30   98.44   1-0.60232 0.06987 0.60010-0.99377-0.52637 0.08675
   3   5   8 5314.22  208.95   1-0.23295 0.78097 0.95057-0.54988 0.20528 0.29615
  -3  -5  -8 5523.79  281.56   1-0.60182 0.05324 0.59669-0.99817-0.53082 0.02840
  -3  -5  -9  449.74  138.50   1-0.60073 0.03603 0.58972-0.99902-0.53976-0.02545
   3   6 -13  260.97  133.58   1-0.69365 0.90929 0.54240-0.23807-0.47395-0.34131
   3   6 -13   73.10   71.36   1-0.60809 0.82456 0.68676-0.38303-0.39822-0.41638
  -3  -6  12  151.29   73.59   1-0.22350-0.00856-0.97469 0.66245 0.00406 0.74905
   3   6 -12  300.88  147.11   1-0.69923 0.93096 0.54062-0.22844-0.46776-0.28479
   3   6 -12   79.47   59.60   1-0.60771 0.84019 0.70053-0.38896-0.37408-0.37786
  -3  -6  11   23.39   53.47   1-0.12822-0.11992-0.99087 0.67076-0.04155 0.73191
   3   6 -11  279.91   89.40   1-0.60696 0.85545 0.71247-0.39305-0.35209-0.33718
  -3  -6  10 1821.58  168.17   1-0.04126-0.22282-0.99566 0.66697-0.08333 0.71097
   3   6 -10 1775.21  186.57   1-0.69999 0.96393 0.54037-0.21250-0.46690-0.16023
   3   6 -10 1552.27  137.29   1-0.60603 0.87053 0.72230-0.39504-0.33316-0.29344
  -3  -6   9 8329.50  333.99   1 0.03840-0.31858-0.99206 0.65558-0.11974 0.68462
   3   6  -9 8432.49  291.13   1-0.60514 0.88565 0.72947-0.39437-0.31884-0.24511
  -3  -6   819648.81  644.24   1 0.11024-0.40652-0.98222 0.63795-0.15190 0.65402
   3   6  -818413.74  614.92   1-0.68310 0.97923 0.54564-0.20208-0.48543-0.01627
   3   6  -818068.26  546.53   1-0.60467 0.90118 0.73283-0.38989-0.31196-0.18933
   3   6  -7 1812.00  216.47   1-0.17437 0.48656 0.96808-0.61676 0.17999-0.61875
   3   6  -7 1560.52  181.23   1-0.66558 0.97781 0.55059-0.19919-0.50382 0.06483
   3   6  -7 1420.48  130.05   1-0.03006 0.34231-0.47979 0.83141-0.87686 0.43768
   3   6  -7 1857.66  173.64   1-0.60513 0.91765 0.72960-0.37882-0.31858-0.12004
   3   6  -636906.44  783.67   1-0.23066 0.55896 0.95134-0.59221 0.20430-0.58037
   3   6  -638257.01  820.29   1-0.63988 0.96821 0.55700-0.19776-0.52942 0.15314
   3   6  -634392.82  649.25   1-0.17557 0.50412-0.29557 0.65513-0.93904 0.56271
   3   6  -634900.73  661.39   1-0.60707 0.93560 0.71103-0.35241-0.35480-0.02116
   3   6  -5  -11.71    8.58   1-0.60450 0.94903 0.62272-0.25626-0.49677 0.18346
   3   6  -4  245.28   83.84   1-0.32094 0.68144 0.91556-0.54083 0.24236-0.49308
   3   6  -4  289.80   99.18   1-0.55299 0.91374 0.57137-0.19651-0.60640 0.35559
   3   6  -3   59.11   56.91   1-0.35558 0.73203 0.89877-0.51628 0.25644-0.44449
   3   6  -3  166.46   65.62   1-0.48484 0.86164 0.57762-0.19489-0.65671 0.46860
   3   6  -2  114.38   69.94   1-0.38315 0.77570 0.88404-0.49375 0.26767-0.39304
   3   6  -2  151.53   84.77   1-0.39344 0.78628 0.57955-0.18894-0.71366 0.58826
   3   6  -1 2502.55  156.98   1-0.27289 0.68157 0.57218-0.17400-0.77338 0.71076
   3   6   0  302.60   68.32   1-0.41864 0.84338 0.86327-0.45738 0.28195-0.28195
   3   6   0  454.34   64.46   1-0.11838 0.54303 0.54888-0.14284-0.82747 0.82747
  -3  -6   0  369.87   62.17   1 0.38571-0.81073-0.82845 0.42169-0.40605 0.40605
  -3  -6   0  305.96   36.23   1-0.29916-0.12559-0.11245-0.29389-0.94755 0.94755
   3   6   1 7203.53  250.30   1-0.42687 0.86771 0.85814-0.44445 0.28523-0.22255
   3   6   1 6660.30  261.50   1 0.07008 0.37060 0.50208-0.08814-0.86197 0.92459
  -3  -6  -1 6055.45  169.60   1-0.82795 0.38714 0.47862-0.89299-0.29226 0.22954
  -3  -6  -1 5971.74  277.65   1 0.41926-0.86034-0.84094 0.42631-0.34210 0.27937
  -3  -6  -1 6545.00  169.28   1-0.45745 0.01658 0.17250-0.58674-0.87234 0.80960
   3   6   216805.21  453.47   1-0.42884 0.88577 0.85690-0.43541 0.28601-0.16064
   3   6   216309.46  407.06   1 0.28556 0.17112 0.42313-0.00125-0.85988 0.98524
  -3  -6  -214112.92  348.50   1-0.80603 0.34917 0.49265-0.91489-0.32800 0.20257
  -3  -6  -214896.29  369.46   1 0.42769-0.88484-0.84346 0.42097-0.32501 0.19957
  -3  -6  -215883.51  389.61   1-0.52349 0.06590 0.32386-0.74618-0.78807 0.66246
   3   6   3 5099.99  219.79   1-0.42447 0.89751 0.85965-0.43036 0.28428-0.09622
   3   6   3 4155.39  149.21   1 0.50646-0.03343 0.31076 0.11908-0.80431 0.99232
  -3  -6  -3 4516.25  184.97   1-0.55542 0.08171 0.41112-0.84126-0.72282 0.53441
   3   6   429481.22  956.35   1-0.41356 0.90269 0.86637-0.42928 0.27992-0.02918
  -3  -6  -428761.00  894.25   1-0.71097 0.22173-0.16228-0.27584 0.68423-0.93527
  -3  -6  -430565.67  977.56   1-0.57120 0.08147 0.46267-0.90068-0.67798 0.42677
   3   6   5 3630.95  458.92   1-0.39569 0.90093 0.87694-0.43204 0.27274 0.04067
  -3  -6  -5 3542.74  225.89   1-0.57995 0.07410 0.49388-0.93970-0.64786 0.33385
   3   6   6   90.31   42.53   1-0.37022 0.89155 0.89110-0.43840 0.26242 0.11368
  -3  -6  -6  288.64  136.92   1-0.58460 0.06263 0.51188-0.96553-0.62944 0.25263
   3   6   7 1305.72  245.71   1-0.33601 0.87362 0.90845-0.44790 0.24860 0.19014
  -3  -6  -7 2201.60  173.63   1-0.58682 0.04873 0.52095-0.98241-0.61987 0.18026
   3   6   8 1434.69  118.45   1-0.29173 0.84544 0.92839-0.46004 0.23017 0.27125
  -3  -6  -8 1736.56  179.36   1-0.58744 0.03324 0.52357-0.99284-0.61706 0.11464
  -3  -7  12   80.81   78.77   1-0.14336-0.09436-0.98907 0.60904-0.03438 0.78749
   3   7 -12  199.78   98.85   1-0.70573 0.94313 0.53847-0.15857-0.46042-0.29213
   3   7 -12   97.25   69.98   1-0.60632 0.84449 0.71958-0.34040-0.33847-0.41346
  -3  -7  11  253.07  103.34   1-0.05200-0.20164-0.99556 0.60690-0.07835 0.76877
   3   7 -11  194.89   99.14   1-0.70765 0.96116 0.53781-0.15007-0.45822-0.23161
   3   7 -11  171.06   76.62   1-0.60464 0.85882 0.73304-0.34602-0.31153-0.37774
  -3  -7  10 2632.66  221.66   1 0.03135-0.30110-0.99268 0.59623-0.11655 0.74420
   3   7 -10 1699.52  328.84   1-0.70596 0.97556 0.53839-0.14280-0.46015-0.16697
  -3  -7   911284.47  620.57   1 0.10635-0.39220-0.98292 0.57867-0.15017 0.71505
   3   7  -911396.00  632.06   1-0.70006 0.98576 0.54035-0.13692-0.46682-0.09759
   3   7  -910844.19  562.47   1-0.60024 0.88636 0.75522-0.35156-0.26333-0.30125
   3   7  -884735.3113991.74   1-0.17339 0.47518 0.96834-0.55716 0.17956-0.68100
   3   7  -883469.6013786.70   1-0.68911 0.99091 0.54382-0.13254-0.47892-0.02277
   3   7  -880139.67 2267.44   1-0.59819 0.90038 0.76288-0.35139-0.24528-0.25657
   3   7  -7 6791.29  284.26   1-0.23232 0.55022 0.95078-0.53180 0.20501-0.64377
   3   7  -7 6274.80  286.29   1-0.67194 0.98983 0.54885-0.12973-0.49724 0.05825
   3   7  -7 6331.98  224.94   1-0.59698 0.91522 0.76694-0.34762-0.23538-0.20374
   3   7  -6 4352.23  222.97   1-0.28372 0.61772 0.93169-0.50491 0.22681-0.60289
   3   7  -6 4425.47  225.20   1-0.64687 0.98086 0.55536-0.12839-0.52261 0.14633
   3   7  -6 3878.51  136.83   1-0.59799 0.93230 0.76357-0.33642-0.24361-0.13278
   3   7  -5  106.13   20.88   1-0.60495 0.95532 0.73054-0.29555-0.31675 0.00309
   3   7  -4  345.52  107.19   1-0.36536 0.73141 0.89368-0.45135 0.26044-0.51118
   3   7  -4  416.27  103.61   1-0.56232 0.92873 0.57015-0.12757-0.59892 0.34811
   3   7  -3  794.45  143.87   1-0.39601 0.77816 0.87676-0.42662 0.27287-0.46092
   3   7  -3  849.08  113.55   1-0.49594 0.87839 0.57690-0.12645-0.64901 0.46090
   3   7  -2 2999.27  400.89   1-0.42033 0.81858 0.86222-0.40428 0.28263-0.40800
   3   7  -2 3446.03  154.71   1-0.40641 0.80492 0.57968-0.12135-0.70624 0.58084
   3   7  -1 5390.82  180.20   1-0.28701 0.70135 0.57352-0.10765-0.76726 0.70463
  -3  -7   1 5166.51  140.06   1 0.42167-0.83628-0.84168 0.37500-0.33727 0.39999
  -3  -7   1 5220.52  123.71   1 0.08592-0.50017-0.60435 0.13827-0.79207 0.85481
   3   7   0  241.47   93.80   1-0.45104 0.88149 0.84240-0.36886 0.29479-0.29479
   3   7   0  159.16   48.26   1-0.13159 0.56197 0.55191-0.07816-0.82345 0.82345
  -3  -7   0   61.48   27.11   1-0.21898-0.21139-0.23359-0.24048-0.94735 0.94735
   3   7   1 6487.62  276.31   1-0.45778 0.90432 0.83783-0.35649 0.29744-0.23475
   3   7   1 6203.56  252.14   1 0.06480 0.38155 0.50367-0.02205-0.86145 0.92408
   3   7   241292.07 1322.87   1-0.45886 0.92150 0.83708-0.34794 0.29786-0.17249
   3   7   240758.01 1254.57   1 0.29760 0.16471 0.41788 0.07167-0.85837 0.98373
  -3  -7  -239592.04 1228.58   1-0.46014-0.00241 0.17808-0.66781-0.86980 0.74432
   3   7   313637.15  479.21   1-0.45425 0.93299 0.84023-0.34329 0.29605-0.10800
  -3  -7  -313542.43  434.54   1-0.50566 0.02631 0.28022-0.77813-0.81595 0.62754
   3   7   4  365.10  104.63   1-0.44377 0.93860 0.84725-0.34251 0.29193-0.04119
  -3  -7  -4  568.69  158.38   1-0.53254 0.03706 0.34720-0.85293-0.77191 0.52070
   3   7   5   46.22   52.24   1-0.42706 0.93800 0.85802-0.34548 0.28531 0.02810
  -3  -7  -5  395.55  146.91   1-0.54845 0.03685 0.39078-0.90433-0.73924 0.42522
   3   7   6  728.92  238.41   1-0.40359 0.93062 0.87234-0.35199 0.27592 0.10018
   3   7   7  105.14   61.09   1-0.37249 0.91562 0.88988-0.36174 0.26334 0.17544
  -3  -7  -7  214.02  122.82   1-0.56285 0.01914 0.43535-0.96460-0.70260 0.26298
  -3  -8  12  797.47  238.64   1-0.07541-0.16781-0.99486 0.54622-0.06747 0.82065
   3   8 -12  921.14  164.18   1-0.70819 0.95126 0.53763-0.09001-0.45761-0.29494
  -3  -8  11 2182.03  155.74   1 0.01217-0.27149-0.99409 0.53766-0.10784 0.79825
   3   8 -11 1950.79  193.07   1-0.70965 0.96882 0.53713-0.08167-0.45593-0.23391
  -3  -8  10  228.34   85.28   1 0.09067-0.36608-0.98553 0.52131-0.14320 0.77085
   3   8 -10  264.53  129.79   1-0.70756 0.98282 0.53785-0.07454-0.45833-0.16879
   3   8 -10   56.96   54.89   1-0.59808 0.87379 0.76326-0.29970-0.24437-0.38296
   3   8  -9 4810.70  319.36   1-0.16089 0.45228 0.97149-0.50045 0.17411-0.73822
   3   8  -9 5440.44  373.05   1-0.70134 0.99270 0.53993-0.06878-0.46539-0.09902
   3   8  -8  157.60   68.99   1-0.22261 0.53010 0.95399-0.47515 0.20085-0.70229
   3   8  -8   58.37   75.78   1-0.69016 0.99763 0.54349-0.06450-0.47778-0.02392
   3   8  -8  133.21   58.71   1-0.58988 0.89771 0.78588-0.30665-0.18552-0.31634
   3   8  -7 2454.80  171.85   1-0.27669 0.60028 0.93452-0.44788 0.22385-0.66261
   3   8  -7 1604.63  145.69   1-0.67288 0.99644 0.54858-0.06175-0.49625 0.05726
   3   8  -6  295.83   81.71   1-0.32352 0.66321 0.91436-0.41992 0.24344-0.61951
   3   8  -6  342.63   94.67   1-0.64787 0.98753 0.55511-0.06043-0.52163 0.14535
   3   8  -5 3290.83  411.68   1-0.36371 0.71936 0.89455-0.39237 0.25977-0.57319
   3   8  -5 3141.69  193.23   1-0.61286 0.96861 0.56275-0.06022-0.55471 0.24114
   3   8  -4 7008.43  296.51   1-0.39721 0.76896 0.87607-0.36608 0.27335-0.52409
   3   8  -4 7675.70  297.47   1-0.56399 0.93605 0.56992-0.05961-0.59757 0.34675
   3   8  -3 1603.52  229.51   1-0.42457 0.81242 0.85959-0.34180 0.28431-0.47237
   3   8  -3 1092.48  101.79   1-0.49825 0.88636 0.57674-0.05856-0.64738 0.45927
   3   8  -2 3016.22  354.69   1-0.44611 0.85006 0.84570-0.32011 0.29285-0.41822
   3   8  -2 2362.43  108.92   1-0.40927 0.81343 0.57969-0.05363-0.70458 0.57917
   3   8  -1 3454.74  162.69   1-0.28953 0.70953 0.57374-0.04020-0.76615 0.70352
  -3  -8   1 3133.25  110.44   1 0.06126-0.48114-0.57943 0.04566-0.81271 0.87545
   3   8   0 9131.24  365.17   1-0.47276 0.90891 0.82734-0.28615 0.30329-0.30329
   3   8   0 8545.75  299.21   1-0.13100 0.56704 0.55180-0.01037-0.82362 0.82362
  -3  -8   0 8138.45  268.59   1-0.15836-0.27761-0.31885-0.22289-0.93447 0.93447
   3   8   1  362.75   90.16   1-0.47822 0.93046 0.82342-0.27443 0.30541-0.24273
   3   8   1  230.34   43.20   1 0.07542 0.37659 0.50046 0.04882-0.86246 0.92509
  -3  -8  -1  128.20   50.64   1-0.30223-0.14983-0.10758-0.44197-0.94714 0.88442
   3   8   2 7739.28  836.55   1-0.47853 0.94687 0.82319-0.26641 0.30553-0.18016
   3   8   2 7251.62  371.47   1 0.33198 0.13596 0.40235 0.15488-0.85317 0.97853
  -3  -8  -2 7578.97  404.41   1-0.39268-0.07547 0.04706-0.60454-0.91846 0.79298
   3   8   3  201.06   94.62   1-0.47364 0.95808 0.82671-0.26212 0.30363-0.11558
  -3  -8  -3  258.15   87.64   1-0.44976-0.03447 0.15675-0.72197-0.87928 0.69106
   3   8   4  995.76  254.92   1-0.46341 0.96394 0.83394-0.26155 0.29964-0.04890
  -3  -8  -4 1277.06  203.20   1-0.48473-0.01638 0.23221-0.80572-0.84327 0.59205
   3   8   5  112.11   49.81   1-0.44752 0.96415 0.84476-0.26457 0.29340 0.02001
  -3  -8  -5  178.92   74.06   1-0.50780-0.00943 0.28531-0.86664-0.81285 0.49883
   3   8   6 3851.06  165.84   1-0.42548 0.95821 0.85902-0.27102 0.28468 0.09142
  -3  -8  -6 4509.43  172.05   1-0.52261-0.01075 0.32163-0.91077-0.78957 0.41275
   3   8   7  430.98  158.67   1-0.39657 0.94540 0.87644-0.28064 0.27310 0.16569
   3   9 -11  903.87  177.00   1-0.70782 0.97265 0.53776-0.01458-0.45804-0.23180
   3   9 -10 3901.65  216.84   1-0.70515 0.98608 0.53866-0.00764-0.46107-0.16605
   3   9  -9  167.13   95.50   1-0.20300 0.50009 0.96008-0.42139 0.19241-0.75652
   3   9  -9  149.87   93.09   1-0.69837 0.99540 0.54090-0.00203-0.46871-0.09570
   3   9  -8 1134.56  190.98   1-0.25999 0.57318 0.94095-0.39446 0.21679-0.71823
   3   9  -8 1662.29  284.34   1-0.68666 0.99979 0.54457 0.00214-0.48159-0.02011
   3   9  -7 1440.47  292.05   1-0.30963 0.63891 0.92067-0.36638 0.23766-0.67642
   3   9  -7 1510.51  206.43   1-0.66887 0.99809 0.54970 0.00485-0.50043 0.06144
   3   9  -6 1984.58  309.58   1-0.35238 0.69777 0.90034-0.33825 0.25534-0.63142
   3   9  -6 2287.59  200.24   1-0.64338 0.98870 0.55619 0.00620-0.52603 0.14975
   3   9  -5 3921.54  617.53   1-0.38890 0.75026 0.88082-0.31099 0.27000-0.58343
   3   9  -5 4590.75  291.14   1-0.60793 0.96935 0.56370 0.00654-0.55916 0.24559
   3   9  -4 5957.55  581.42   1-0.41917 0.79662 0.86294-0.28531 0.28216-0.53290
   3   9  -4 5881.14  341.91   1-0.55857 0.93629 0.57065 0.00737-0.60194 0.35113
   3   9  -3 3813.76  445.43   1-0.44374 0.83729 0.84727-0.26184 0.29191-0.47997
   3   9  -3 3550.85  175.68   1-0.49232 0.88608 0.57715 0.00875-0.65154 0.46343
   3   9  -2 3015.68  350.01   1-0.46294 0.87259 0.83426-0.24103 0.29946-0.42483
   3   9  -2 3214.44  129.35   1-0.40243 0.81224 0.57965 0.01412-0.70854 0.58314
   3   9  -1 6980.12  375.40   1-0.28048 0.70614 0.57291 0.02830-0.77012 0.70749
   3   9   0 1813.59  328.11   1-0.48619 0.92803 0.81758-0.20875 0.30850-0.30850
   3   9   0 2022.95  221.99   1-0.11536 0.55699 0.54829 0.06076-0.82828 0.82828
   3   9   1  365.93  140.13   1-0.49056 0.94850 0.81433-0.19769 0.31018-0.24750
   3   9   214410.50 2518.67   1-0.49018 0.96422 0.81461-0.19017 0.31004-0.18467
   3   9   3 1496.87  366.59   1-0.48501 0.97515 0.81845-0.18621 0.30804-0.11999
   3   9   4  158.43   73.89   1-0.47490 0.98114 0.82581-0.18577 0.30412-0.05338
   3   9   5 1249.76  352.10   1-0.45956 0.98190 0.83660-0.18876 0.29814 0.01528
   3  10 -10 5495.66  358.07   1-0.17433 0.46102 0.96809-0.36955 0.17998-0.80677
   3  10 -10 6614.82  436.46   1-0.69896 0.98555 0.54071 0.05803-0.46806-0.15907
   3  10  -9  189.14   84.12   1-0.23463 0.53741 0.95000-0.34365 0.20600-0.77011
   3  10  -9  438.18  149.18   1-0.69140 0.99409 0.54311 0.06347-0.47643-0.08798
   3  10  -8  122.05   73.60   1-0.28735 0.60624 0.93020-0.31606 0.22834-0.72977
   3  10  -8  227.39  114.22   1-0.67885 0.99764 0.54688 0.06754-0.48996-0.01173
   3  10  -7  -18.28   49.05   1-0.33307 0.66805 0.90986-0.28791 0.24739-0.68615
   3  10  -7  223.93  108.06   1-0.66015 0.99504 0.55203 0.07024-0.50936 0.07037
   3  10  -6 2258.85  462.98   1-0.37249 0.72345 0.88988-0.26020 0.26335-0.63945
   3  10  -6 2520.86  176.41   1-0.63366 0.98465 0.55841 0.07170-0.53538 0.15910
   3  10  -5 1163.36  278.54   1-0.40566 0.77272 0.87111-0.23363 0.27675-0.59018
   3  10  -4 5715.10  769.56   1-0.43318 0.81634 0.85413-0.20885 0.28774-0.53848
   3  10  -4 5738.05  355.49   1-0.54635 0.92972 0.57218 0.07357-0.61163 0.36082
   3  10  -3  336.61  185.66   1-0.45541 0.85467 0.83944-0.18636 0.29651-0.48456
   3  10  -3  164.58   71.80   1-0.47838 0.87780 0.57799 0.07564-0.66111 0.47300
   3  10  -2 2795.81  486.98   1-0.47265 0.88800 0.82742-0.16654 0.30324-0.42861
   3  10  -2 3578.24  234.84   1-0.38594 0.80140 0.57941 0.08210-0.71786 0.59245
   3  10  -1 3561.29  407.96   1-0.48513 0.91658 0.81836-0.14968 0.30809-0.37077
   3  10  -1 3222.07  207.15   1-0.25940 0.69073 0.57078 0.09811-0.77904 0.71641
   3  10   0  171.05   71.95   1-0.49303 0.94058 0.81246-0.13598 0.31114-0.31114
   3  10   1  412.94   95.84   1-0.49648 0.96012 0.80985-0.12557 0.31246-0.24978
   3  10   2  245.87  122.82   1-0.49549 0.97523 0.81060-0.11852 0.31208-0.18671
   3  10   3  101.38   56.35   1-0.49003 0.98587 0.81472-0.11484 0.30998-0.12192
   3  11  -8  181.34   97.21   1-0.30630 0.63088 0.92214-0.24034 0.23627-0.73771
   3  11  -7 1666.04  325.35   1-0.34862 0.68930 0.90224-0.21263 0.25380-0.69255
   3  11  -7 1452.23  155.15   1-0.64680 0.98735 0.55537 0.13461-0.52268 0.08369
   3  11  -6  617.37  202.69   1-0.38502 0.74167 0.88300-0.18568 0.26843-0.64454
   3  11  -6  697.75  186.71   1-0.61879 0.97544 0.56157 0.13626-0.54929 0.17301
   3  11  -5  403.15  174.52   1-0.41552 0.78828 0.86518-0.16005 0.28070-0.59413
   3  11  -5  656.20  169.07   1-0.57961 0.95260 0.56764 0.13796-0.58465 0.27113
   3  11  -4 2629.62  456.61   1-0.44073 0.82959 0.84924-0.13632 0.29073-0.54147
   3  11  -4 3283.46  175.67   1-0.52730 0.91633 0.57426 0.13922-0.62623 0.37541
   3  11  -3  581.51  153.07   1-0.46099 0.86595 0.83561-0.11488 0.29870-0.48675
   3  11  -3  583.65  140.44   1-0.45630 0.86137 0.57896 0.14239-0.67571 0.48760
   3  11  -2  276.41  147.52   1-0.47658 0.89763 0.82460-0.09607 0.30477-0.43014
   3  11  -1 2266.45  410.33   1-0.48771 0.92485 0.81645-0.08012 0.30908-0.37177
   3  11   0 6456.95  238.28   1-0.49454 0.94779 0.81132-0.06719 0.31172-0.31172
   3  11   1  218.91  108.65   1-0.49718 0.96653 0.80932-0.05738 0.31273-0.25005
   3  11   2  164.24  104.73   1-0.49564 0.98109 0.81049-0.05075 0.31214-0.18677
   3  12  -5  131.44   60.17   1-0.41964 0.79810 0.86265-0.08987 0.28235-0.59577
   3  12  -5  303.79  125.12   1-0.55676 0.93540 0.57089 0.20244-0.60339 0.28988
   3  12  -4  173.78  126.01   1-0.44291 0.83747 0.84782-0.06724 0.29159-0.54233
   3  12  -4   59.99   65.47   1-0.50110 0.89578 0.57653 0.20467-0.64537 0.39455
   3  12  -3   63.17   92.18   1-0.46151 0.87216 0.83526-0.04688 0.29890-0.48695
   3  12  -2  135.58   90.51   1-0.47570 0.90245 0.82524-0.02906 0.30443-0.42980
   3  12  -1 2235.71  372.93   1-0.48568 0.92853 0.81796-0.01398 0.30830-0.37098
  -4  11   4  968.91  164.45   1-0.90793 0.51282-0.06614 0.84288 0.41386-0.16296
   4 -11  -4 1004.27  187.77   1-0.16452 0.56004-0.31056-0.46550-0.93620 0.68531
  -4  11   314069.74  722.95   1-0.90786 0.49660-0.06933 0.83821 0.41350-0.22532
  -4  11   312621.16  622.68   1-0.81478 0.40384-0.05903 0.82825 0.57674-0.38846
   4 -11  -314208.49  714.90   1-0.12760 0.53915-0.35935-0.40892-0.92443 0.73627
  -4  11   2  457.23  141.06   1-0.90791 0.48050-0.06721 0.82825 0.41374-0.28829
  -4  11   2  513.07  152.52   1-0.82643 0.39941-0.04526 0.80662 0.56121-0.43569
   4 -11  -2  693.01  204.52   1-0.08740 0.51498-0.41019-0.35029-0.90780 0.78235
  -4  11   1  437.24  160.33   1-0.90805 0.46450-0.05946 0.81265 0.41460-0.35187
  -4  11   1  467.46  156.45   1-0.83941 0.39631-0.02916 0.78267 0.54270-0.47994
   4 -11  -1  917.48  269.27   1-0.04512 0.48855-0.46225-0.29019-0.88560 0.82285
  -4  11   0  833.60  235.83   1-0.90818 0.44848-0.04569 0.79104 0.41606-0.41606
  -4  11   0 1333.88  176.83   1-0.85315 0.39397-0.01116 0.75682 0.52153-0.52153
   4 -11   0  258.60  101.34   1 0.00013 0.45935-0.51401-0.23064-0.85778 0.85778
  -4  11  -1 1363.15  158.93   1-0.90805 0.43220-0.02540 0.76290 0.41808-0.48080
  -4  11  -1  921.52  251.04   1-0.86716 0.39190 0.00841 0.72939 0.49795-0.56071
   4 -11   1 1134.99  156.82   1 0.04686 0.42869-0.56448-0.17237-0.82411 0.88685
  -4  11  -2  189.35   87.29   1-0.90727 0.41528 0.00201 0.72763 0.42052-0.54597
  -4  11  -2  422.79  115.72   1-0.88102 0.38968 0.02929 0.70065 0.47216-0.59768
   4 -11   2  666.96  171.14   1 0.09346 0.39776-0.61304-0.11649-0.78450 0.91006
  -4  11  -3  414.33  127.04   1-0.90526 0.39712 0.03731 0.68447 0.42320-0.61137
  -4  11  -3  625.52  145.24   1-0.89444 0.38732 0.05109 0.67077 0.44424-0.63249
   4 -11   3  704.02  165.19   1 0.14075 0.36656-0.65786-0.06382-0.73986 0.92820
  -4  11  -4 1588.75  146.13   1-0.90113 0.37685 0.08145 0.63249 0.42581-0.67670
  -4  11  -4 1444.16  201.99   1-0.90701 0.38382 0.07391 0.64009 0.41455-0.66555
   4 -11   4 2090.25  222.04   1 0.18721 0.33618-0.69862-0.01520-0.69055 0.94167
  -4  10   6  609.15  156.75   1-0.90554 0.53710-0.11826 0.84294 0.40742-0.03108
   4 -10  -6 1040.20  201.34   1-0.25049 0.61920-0.18741-0.53639-0.94980 0.57347
  -4  10   5 1788.79  159.61   1-0.90445 0.51986-0.13246 0.84929 0.40547-0.09185
  -4  10   5 1322.71  122.20   1-0.72234 0.33779-0.15222 0.86932 0.67457-0.36077
   4 -10  -5 1856.77  193.56   1-0.21973 0.60483-0.23366-0.48247-0.94716 0.63355
  -4  10   4 1909.35  206.09   1-0.90365 0.50291-0.14165 0.85063 0.40415-0.15326
  -4  10   4 1581.98  142.89   1-0.73751 0.33686-0.13838 0.84761 0.66100-0.40996
   4 -10  -4 2501.94  224.03   1-0.18448 0.58561-0.28333-0.42502-0.94111 0.69022
  -4  10   3 1455.03  160.73   1-0.90328 0.48639-0.14563 0.84677 0.40357-0.21540
  -4  10   3 1303.88  165.02   1-0.75497 0.33822-0.12180 0.82317 0.64434-0.45606
   4 -10  -3  916.65  208.55   1-0.14523 0.56239-0.33631-0.36424-0.93048 0.74231
  -4  10   2 5881.92  320.25   1-0.90342 0.47039-0.14412 0.83740 0.40379-0.27835
  -4  10   2 5370.84  295.08   1-0.77436 0.34171-0.10294 0.79652 0.62430-0.49878
   4 -10  -2 6291.75  341.42   1-0.10233 0.53552-0.39158-0.30117-0.91443 0.78898
  -4  10   1  216.20   89.90   1-0.90409 0.45491-0.13675 0.82218 0.40486-0.34213
  -4  10   1  326.90  122.76   1-0.79408 0.34535-0.08220 0.76793 0.60221-0.53945
   4 -10  -1   67.25   81.92   1-0.05704 0.50609-0.44815-0.23659-0.89213 0.82939
  -4  10   0  228.08   95.81   1-0.90520 0.43987-0.12306 0.80065 0.40677-0.40677
  -4  10   0  334.10  105.34   1-0.81404 0.34923-0.05989 0.73776 0.57770-0.57770
   4 -10   0  410.13   97.62   1-0.00864 0.47375-0.50419-0.17276-0.86354 0.86354
  -4  10  -1  307.50  124.11   1-0.90653 0.42506-0.10248 0.77222 0.40949-0.47222
  -4  10  -1  318.88  110.19   1-0.83375 0.35286-0.03628 0.70630 0.55093-0.61369
   4 -10   1  139.83   80.10   1 0.04122 0.43995-0.55855-0.11061-0.82844 0.89118
  -4  10  -2   81.67   71.55   1-0.90772 0.41010-0.07429 0.73617 0.41293-0.53837
  -4  10  -2  131.79   97.22   1-0.85281 0.35584-0.01162 0.67378 0.52207-0.64759
   4 -10   2  259.25  133.15   1 0.09082 0.40608-0.61044-0.05134-0.78683 0.91239
  -4  10  -3   54.97   64.26   1-0.90817 0.39441-0.03758 0.69161 0.41689-0.60506
  -4  10  -3 -115.21  109.43   1-0.87089 0.35784 0.01387 0.64043 0.49126-0.67954
   4 -10   3  294.15  125.15   1 0.14081 0.37218-0.65791 0.00397-0.73981 0.92815
  -4  10  -4  119.43   93.58   1-0.90697 0.37706 0.00879 0.63738 0.42108-0.67197
  -4  10  -4  185.63  126.72   1-0.88776 0.35892 0.03986 0.60637 0.45857-0.70956
   4 -10   4  167.99  111.51   1 0.18957 0.33950-0.70060 0.05451-0.68790 0.93902
  -4  10  -5  702.81  139.05   1-0.90275 0.35669 0.06633 0.57200 0.42501-0.73863
  -4  10  -5  683.04  201.08   1-0.90308 0.35817 0.06651 0.57187 0.42427-0.73802
   4 -10   5  692.88  197.76   1 0.23662 0.30890-0.73785 0.09951-0.63212 0.94587
  -4   9   8  870.85  135.92   1-0.90293 0.56115-0.14918 0.82179 0.40305 0.09873
   4  -9  -8  726.58  246.56   1-0.32468 0.66691-0.07124-0.60035-0.94313 0.44135
  -4   9   7  754.70  213.95   1-0.90011 0.54219-0.17453 0.83930 0.39915 0.03990
  -4   9   6  683.90  195.56   1-0.89783 0.52438-0.19452 0.85127 0.39503-0.01861
  -4   9   6  585.53  146.11   1-0.61577 0.24170-0.23793 0.89513 0.75113-0.37457
  -4   9   512730.68  571.65   1-0.89550 0.50594-0.21005 0.85896 0.39237-0.07868
  -4   9   513516.84  570.22   1-0.63745 0.24727-0.22189 0.87122 0.73784-0.42404
  -4   9   4 7274.76  460.86   1-0.89380 0.48814-0.22045 0.86152 0.39052-0.13957
  -4   9   4 9965.10  597.68   1-0.66183 0.25555-0.20308 0.84453 0.72161-0.47057
  -4   9   3 3567.57  275.40   1-0.89294 0.47117-0.22549 0.85873 0.38960-0.20139
  -4   9   3 3411.03  253.68   1-0.68800 0.26562-0.18187 0.81545 0.70254-0.51426
   4  -9  -3 3062.99  232.99   1-0.16111 0.58389-0.31516-0.31767-0.93526 0.74709
  -4   9   2  119.69  138.81   1-0.89305 0.45517-0.22488 0.85028 0.38972-0.26424
  -4   9   2  160.45  120.71   1-0.71514 0.27666-0.15862 0.78433 0.68074-0.55522
   4  -9  -2  464.76  171.96   1-0.11512 0.55393-0.37538-0.24965-0.91968 0.79424
  -4   9   1 1015.45  179.52   1-0.89418 0.44020-0.21820 0.83577 0.39092-0.32819
  -4   9   1  772.87  137.72   1-0.74255 0.28797-0.13366 0.75151 0.65631-0.59355
   4  -9  -1  942.10  165.75   1-0.06640 0.52107-0.43694-0.18011-0.89703 0.83429
  -4   9   0  163.91  127.28   1-0.89629 0.42620-0.20494 0.81467 0.39326-0.39326
  -4   9   0  560.32  151.80   1-0.77002 0.29957-0.10735 0.71743 0.62891-0.62891
   4  -9   0  262.93  126.04   1-0.01444 0.48517-0.49764-0.11161-0.86726 0.86726
  -4   9  -1 2791.63  198.48   1-0.89922 0.41302-0.18443 0.78632 0.39671-0.45945
  -4   9  -1 2663.80  225.15   1-0.79624 0.30972-0.07986 0.68209 0.59967-0.66243
  -4   9  -2  317.64  116.06   1-0.90224 0.39900-0.15590 0.75002 0.40204-0.52749
  -4   9  -2  350.71  163.67   1-0.82123 0.31862-0.05148 0.64586 0.56826-0.69378
  -4   9  -3  904.32  165.34   1-0.90556 0.38616-0.11806 0.70434 0.40745-0.59562
  -4   9  -3  977.14  215.74   1-0.84465 0.32596-0.02243 0.60896 0.53484-0.72312
   4  -9   3  859.81  179.91   1 0.14458 0.37407-0.66134 0.07515-0.73601 0.92434
  -4   9  -4   73.84   59.65   1-0.90785 0.37231-0.06965 0.64808 0.41346-0.66435
  -4   9  -4  242.27  113.64   1-0.86624 0.33148 0.00708 0.57158 0.49956-0.75060
   4  -9   4  242.32  120.18   1 0.19566 0.33908-0.70567 0.12733-0.68098 0.93209
  -4   9  -5 2133.91  144.90   1-0.90766 0.35597-0.00878 0.57936 0.41960-0.73322
  -4   9  -5 2530.73  230.58   1-0.88585 0.33528 0.03675 0.53386 0.46251-0.77625
   4  -9   5 1848.71  340.18   1 0.24445 0.30669-0.74373 0.17315-0.62217 0.93592
  -4   9  -6 2736.82  172.56   1-0.90267 0.33484 0.06711 0.49562 0.42505-0.80139
  -4   9  -6 3792.38  289.17   1-0.90322 0.33659 0.06676 0.49598 0.42394-0.80043
   4  -9   6 2992.18  609.55   1 0.29006 0.27713-0.77574 0.21301-0.56042 0.93692
   4  -9   7 2399.12  197.80   1 0.33240 0.25084-0.80168 0.24679-0.49679 0.93603
  -4   8   9 1446.31  196.07   1-0.89798 0.56715-0.19348 0.80599 0.39521 0.16941
   4  -8  -9 1171.91  253.99   1-0.36801 0.69982 0.00220-0.61383-0.92981 0.36531
  -4   8   8 2393.51  192.07   1-0.89293 0.54601-0.22554 0.83021 0.38959 0.11229
   4  -8  -8 2614.25  125.64   1 0.46303-0.11565 0.33609-0.94073-0.82014 0.31880
   4  -8  -8 2783.55  181.32   1-0.34790 0.69576-0.03245-0.57141-0.93696 0.43519
  -4   8   7  169.34  103.55   1-0.88789 0.52485-0.25259 0.84943 0.38449 0.05465
   4  -8  -7   34.95   37.88   1 0.48624-0.12278 0.32276-0.91952-0.81202 0.37334
   4  -8  -7   44.90  111.17   1-0.32337 0.68729-0.07338-0.52272-0.94341 0.50436
  -4   8   6  745.23  192.63   1-0.88323 0.50409-0.27464 0.86364 0.38008-0.00366
   4  -8  -6  630.67  111.35   1 0.51408-0.13453 0.30614-0.89502-0.80124 0.42523
   4  -8  -6  396.04  120.09   1-0.29400 0.67397-0.12062-0.46772-0.94816 0.57182
   4  -8  -523407.21  739.48   1 0.54546-0.14983 0.28651-0.86751-0.78764 0.47430
   4  -8  -524227.64  816.15   1-0.25947 0.65549-0.17391-0.40667-0.94996 0.63635
  -4   8   4 7064.78  434.66   1-0.87641 0.46505-0.30335 0.87668 0.37399-0.12304
  -4   8   4 8701.31  489.40   1-0.57909 0.16718-0.26372 0.83740 0.77142-0.52038
   4  -8  -4 8924.59  518.09   1-0.21997 0.63233-0.23333-0.33958-0.94719 0.69630
  -4   8   3  481.36  192.08   1-0.87480 0.44733-0.30965 0.87515 0.37260-0.18439
  -4   8   3  192.69   84.46   1-0.61445 0.18644-0.23889 0.80470 0.75191-0.56363
   4  -8  -3  381.63  134.86   1-0.17502 0.60342-0.29631-0.26880-0.93891 0.75075
  -4   8   2 1450.08  182.80   1-0.87466 0.43109-0.31018 0.86783 0.37248-0.24701
  -4   8   2 1042.81  114.54   1-0.65044 0.20632-0.21198 0.76992 0.72937-0.60385
   4  -8  -2 1247.15  119.54   1-0.12546 0.56988-0.36212-0.19520-0.92364 0.79820
  -4   8   1  228.15  131.57   1-0.87612 0.41644-0.30448 0.85430 0.37374-0.31100
  -4   8   1  293.81  143.51   1-0.68625 0.22603-0.18332 0.73339 0.70388-0.64112
   4  -8  -1  141.46   82.81   1-0.07277 0.53305-0.42924-0.12011-0.90025 0.83750
  -4   8   0 2406.52  210.68   1-0.87921 0.40343-0.29200 0.83398 0.37645-0.37645
  -4   8   0 2383.28  196.63   1-0.72119 0.24488-0.15324 0.69544 0.67556-0.67556
   4  -8   0 2755.02  184.44   1-0.01676 0.49311-0.49502-0.04654-0.86871 0.86871
  -4   8  -1  154.06   85.58   1-0.88383 0.39193-0.27195 0.80610 0.38063-0.44337
  -4   8  -1  335.12  148.18   1-0.75471 0.26229-0.12206 0.65638 0.64459-0.70735
   4  -8   1  411.88  120.76   1 0.04049 0.45191-0.55778 0.02401-0.82899 0.89173
  -4   8  -2 4120.16  284.84   1-0.88969 0.38169-0.24337 0.76968 0.38627-0.51174
  -4   8  -2 4190.03  292.44   1-0.78666 0.27842-0.09015 0.61674 0.61075-0.73627
   4  -8   2 4642.39  292.78   1 0.09689 0.41135-0.61639 0.09010-0.78145 0.90701
  -4   8  -3  320.35  132.40   1-0.89629 0.37218-0.20497 0.72344 0.39325-0.58146
  -4   8  -3  217.57  127.57   1-0.81604 0.29173-0.05757 0.57630 0.57510-0.76338
   4  -8   3  213.45   93.52   1 0.15263 0.37170-0.66859 0.15015-0.72779 0.91612
  -4   8  -4 1436.36  222.17   1-0.90235 0.36118-0.15492 0.66559 0.40219-0.65309
  -4   8  -4 1556.50  264.68   1-0.84295 0.30255-0.02464 0.53552 0.53742-0.78846
  -4   8  -5 2045.25  153.92   1-0.90710 0.34979-0.09103 0.59385 0.41093-0.72455
  -4   8  -5 2487.18  253.47   1-0.86719 0.31072 0.00845 0.49457 0.49789-0.81169
  -4   8  -6 3199.97  159.32   1-0.90769 0.33423-0.00991 0.50488 0.41950-0.79584
  -4   8  -6 3083.60  218.10   1-0.88868 0.31640 0.04137 0.45360 0.45665-0.83314
  -4   8  -7  911.57  267.80   1-0.90725 0.31890 0.07437 0.41275 0.41395-0.85319
  -4   8  -8  578.14  249.07   1-0.92288 0.31846 0.10715 0.37211 0.36985-0.87184
  -4   7  10  732.42  165.39   1-0.89170 0.57129-0.23256 0.78516 0.38830 0.23905
   4  -7 -10  983.82  208.56   1-0.40653 0.72802 0.07260-0.62425-0.91074 0.28335
  -4   7   9   53.30   71.28   1-0.88389 0.54737-0.27166 0.81642 0.38069 0.18393
   4  -7  -9   57.18   21.73   1 0.31284 0.02406 0.41109-0.95608-0.85622 0.29210
   4  -7  -9  -80.34   94.84   1-0.39030 0.72787 0.04273-0.58663-0.91969 0.35504
  -4   7   8  137.63   87.23   1-0.87586 0.52323-0.30553 0.84246 0.37351 0.12837
   4  -7  -8  394.34  102.32   1 0.33843 0.01454 0.39934-0.93641-0.85204 0.35060
   4  -7  -8  134.84  133.99   1-0.37014 0.72364 0.00594-0.54209-0.92895 0.42717
  -4   7   7 1085.68  207.86   1-0.86808 0.49935-0.33429 0.86338 0.36697 0.07218
   4  -7  -7 1251.28  165.28   1 0.37105-0.00195 0.38455-0.91362-0.84524 0.40656
   4  -7  -7 1205.52  220.47   1-0.34483 0.71437-0.03766-0.49072-0.93790 0.49885
  -4   7   6 3070.19  235.88   1-0.86100 0.47616-0.35797 0.87922 0.36128 0.01513
   4  -7  -6 2667.94  199.85   1 0.40748-0.02229 0.36615-0.88733-0.83659 0.46058
   4  -7  -6 2829.12  675.18   1-0.31410 0.69970-0.08849-0.43213-0.94525 0.56892
   4  -7  -5 6802.95  270.30   1 0.44780-0.04652 0.34458-0.85788-0.82506 0.51172
   4  -7  -5 6935.88  318.77   1-0.27753 0.67918-0.14633-0.36653-0.94950 0.63589
  -4   7   4  577.41  157.63   1-0.85049 0.43344-0.38978 0.89536 0.35316-0.10221
   4  -7  -4  486.74   73.88   1 0.49088-0.07352 0.32004-0.82546-0.81031 0.55964
   4  -7  -4  872.78  135.87   1-0.23490 0.65260-0.21048-0.29463-0.94895 0.69806
  -4   7   3  276.62  107.09   1-0.84774 0.41458-0.39757 0.89531 0.35109-0.16288
   4  -7  -3  194.58   68.30   1 0.53558-0.10213 0.29279-0.79034-0.79209 0.60409
   4  -7  -3   79.04   85.69   1-0.18666 0.62067-0.28031-0.21708-0.94158 0.75341
  -4   7   2  297.66  156.08   1-0.84703 0.39776-0.39953 0.88944 0.35057-0.22509
  -4   7   2  154.22   89.29   1-0.58067 0.13092-0.26264 0.75280 0.77060-0.64508
   4  -7  -2   -4.53   77.99   1-0.13287 0.58291-0.35251-0.13709-0.92632 0.80088
  -4   7   127134.30  870.65   1-0.84858 0.38320-0.39521 0.87728 0.35172-0.28898
  -4   7   126331.33  826.88   1-0.62542 0.15957-0.23087 0.71317 0.74534-0.68258
   4  -7  -126409.69  825.17   1-0.07554 0.54145-0.42587-0.05578-0.90162 0.83888
  -4   7   0   54.86   88.55   1-0.85249 0.37101-0.38398 0.85822 0.35468-0.35468
  -4   7   0  181.97  108.79   1-0.66887 0.18692-0.19748 0.67190 0.71666-0.71666
   4  -7   0  276.02  116.58   1-0.01487 0.49684-0.49716 0.02329-0.86752 0.86752
  -4   7  -1  671.36  108.83   1-0.85878 0.36119-0.36499 0.83139 0.35953-0.42227
  -4   7  -1  687.65  188.31   1-0.71033 0.21228-0.16284 0.62939 0.68476-0.74752
   4  -7   1  648.55  126.15   1 0.04674 0.45129-0.56435 0.09827-0.82420 0.88694
  -4   7  -2  115.24   84.86   1-0.86727 0.35357-0.33713 0.79569 0.36630-0.49178
  -4   7  -2  152.93  121.32   1-0.74924 0.23509-0.12732 0.58600 0.64993-0.77545
   4  -7   2  185.55  102.21   1 0.10691 0.40700-0.62611 0.16757-0.77236 0.89792
  -4   7  -3  257.84   94.48   1-0.87753 0.34773-0.29887 0.74960 0.37496-0.56317
  -4   7  -3  172.74  116.48   1-0.78550 0.25554-0.09138 0.54233 0.61207-0.80035
   4  -7   3  233.00   78.50   1 0.16558 0.36441-0.68006 0.22937-0.71420 0.90254
  -4   7  -4  215.26   71.51   1-0.88877 0.34286-0.24817 0.69106 0.38535-0.63630
   4  -7   4  262.48  111.82   1 0.22095 0.32512-0.72608 0.28323-0.65114 0.90225
  -4   7  -5 1230.78  158.02   1-0.89953 0.33751-0.18209 0.61715 0.39709-0.71078
  -4   7  -5 2079.60  217.12   1-0.84759 0.28548-0.01858 0.45382 0.53031-0.84411
   4  -7   5 1408.74  377.89   1 0.27246 0.28993-0.76386 0.32879-0.58504 0.89879
  -4   7  -6  662.66  129.40   1-0.90687 0.32778-0.09596 0.52317 0.41032-0.78666
  -4   7  -6  932.86  203.50   1-0.87347 0.29528 0.01770 0.40968 0.48655-0.86311
   4  -7   6  868.20  234.75   1 0.31945 0.25899-0.79416 0.36694-0.51696 0.89346
  -4   7  -7  459.66  196.61   1-0.89584 0.30184 0.05352 0.36583 0.44113-0.88037
   4  -7   7  316.44  122.02   1 0.36200 0.23249-0.81735 0.39797-0.44819 0.88744
  -4   7  -8   67.71  115.68   1-0.91465 0.30458 0.08914 0.32235 0.39429-0.89628
   4  -7   8  156.54   79.26   1 0.39987 0.21036-0.83417 0.42255-0.37981 0.88158
   4  -6 -11 3297.65  248.85   1-0.44046 0.75148 0.13802-0.62966-0.88709 0.19696
  -4   6  10  467.54  170.95   1-0.87429 0.54818-0.31162 0.79647 0.37216 0.25520
   4  -6 -10  193.50   68.87   1 0.16236 0.16408 0.47159-0.95682-0.86673 0.23993
   4  -6 -10   85.62   85.20   1-0.42813 0.75523 0.11375-0.59765-0.89652 0.26913
  -4   6   9  198.96  134.53   1-0.86265 0.52044-0.35263 0.82964 0.36258 0.20204
   4  -6  -9   12.87   31.65   1 0.18622 0.15631 0.46294-0.94025-0.86660 0.30248
   4  -6  -9  343.74  145.93   1-0.41191 0.75508 0.08270-0.55885-0.90746 0.34280
  -4   6   8 5859.39  291.89   1-0.85101 0.49269-0.38829 0.85746 0.35355 0.14833
   4  -6  -8 4734.96  420.15   1 0.21727 0.14134 0.45116-0.92055-0.86558 0.36414
   4  -6  -8 5885.24  316.97   1-0.39110 0.75036 0.04418-0.51259-0.91928 0.41737
  -4   6   7 1858.00  205.25   1-0.83989 0.46546-0.41873 0.88007 0.34530 0.09385
   4  -6  -7 1655.36  261.89   1 0.25489 0.11980 0.43609-0.89756-0.86304 0.42428
   4  -6  -7 1482.61  172.62   1-0.36527 0.74044-0.00258-0.45807-0.93089 0.49184
  -4   6   6 2662.84  230.66   1-0.82981 0.43916-0.44392 0.89759 0.33815 0.03832
   4  -6  -6 2551.87  405.73   1 0.29824 0.09252 0.41760-0.87115-0.85828 0.48220
   4  -6  -6 1778.98  161.31   1-0.33304 0.72426-0.05742-0.39547-0.94116 0.56482
   4  -6  -5 5168.34  232.72   1 0.34631 0.06053 0.39563-0.84127-0.85061 0.53720
   4  -6  -5 4320.78  225.78   1-0.29410 0.70138-0.12046-0.32467-0.94815 0.63453
  -4   6   4 4519.64  250.22   1-0.81445 0.39160-0.47898 0.91694 0.32746-0.07648
   4  -6  -4 3769.83  191.40   1 0.39873 0.02427 0.37066-0.80838-0.83882 0.58814
   4  -6  -4 3592.35  227.68   1-0.24814 0.67147-0.19091-0.24647-0.94972 0.69883
  -4   6   3 1812.98  223.24   1-0.81002 0.37108-0.48845 0.91855 0.32445-0.13621
   4  -6  -3 1820.83  198.34   1 0.45238-0.01329 0.34204-0.77189-0.82362 0.63561
   4  -6  -3 1848.59  214.09   1-0.19558 0.63520-0.26792-0.16176-0.94338 0.75521
  -4   6   2 3775.17  261.29   1-0.80826 0.35321-0.49214 0.91439 0.32326-0.19776
   4  -6  -2 4466.66  199.78   1 0.50686-0.05168 0.31052-0.73248-0.80415 0.67882
   4  -6  -2 4087.71  218.84   1-0.13672 0.59237-0.34749-0.07439-0.92765 0.80221
  -4   6   1 3031.07  217.51   1-0.80947 0.33832-0.48961 0.90401 0.32408-0.26133
   4  -6  -1 2900.84  167.05   1-0.07387 0.54540-0.42790 0.01393-0.90079 0.83805
  -4   6   012391.41  393.21   1-0.81389 0.32664-0.48020 0.88674 0.32708-0.32708
  -4   6   012574.50  400.95   1-0.61330 0.12571-0.23973 0.64637 0.75259-0.75259
   4  -6   012763.95  395.69   1-0.00781 0.49540-0.50512 0.09895-0.86300 0.86300
  -4   6  -1  950.16  159.95   1-0.82165 0.31831-0.46300 0.86169 0.33243-0.39517
  -4   6  -1  772.75  172.39   1-0.66327 0.15959-0.20194 0.60071 0.72061-0.78337
   4  -6   1  690.56  131.93   1 0.05862 0.44503-0.57671 0.17833-0.81483 0.87757
  -4   6  -2 1266.48  136.98   1-0.83274 0.31330-0.43677 0.82760 0.34024-0.46573
  -4   6  -2 1012.73  133.77   1-0.71008 0.19029-0.16306 0.55396 0.68497-0.81049
   4  -6   2 1416.81  113.82   1 0.12274 0.39684-0.64117 0.25037-0.75751 0.88307
  -4   6  -3  701.49  114.48   1-0.84692 0.31142-0.39984 0.78282 0.35048-0.53869
  -4   6  -3  611.21  130.98   1-0.75319 0.21731-0.12352 0.50655 0.64609-0.83436
   4  -6   3  601.17   97.43   1 0.18419 0.35148-0.69607 0.31313-0.69393 0.88227
  -4   6  -4 1301.09  115.07   1-0.86355 0.31194-0.34968 0.72483 0.36330-0.61425
  -4   6  -4 1720.93  221.00   1-0.79254 0.24087-0.08387 0.45918 0.60401-0.85505
   4  -6   4 2231.46  326.67   1 0.24135 0.31061-0.74141 0.36625-0.62614 0.87713
  -4   6  -5 2844.56  663.24   1-0.88138 0.31367-0.28279 0.65010 0.37839-0.69207
  -4   6  -5 3025.96  270.61   1-0.82743 0.25969-0.04404 0.41149 0.55982-0.87362
   4  -6   5 3248.22  298.21   1 0.29334 0.27467-0.77789 0.41057-0.55572 0.86947
  -4   6  -6 1322.16  170.30   1-0.89795 0.31413-0.19364 0.55311 0.39518-0.77160
  -4   6  -6 1145.87  195.18   1-0.85806 0.27424-0.00446 0.36406 0.51352-0.89008
   4  -6   6 1189.12  224.53   1 0.34017 0.24389-0.80600 0.44653-0.48438 0.86088
  -4   6  -7  682.44  186.18   1-0.88443 0.28479 0.03447 0.31711 0.46537-0.90461
   4  -6   7  667.21  171.46   1 0.38162 0.21821-0.82669 0.47500-0.41345 0.85250
  -4   6  -8 2169.68  252.56   1-0.90656 0.29084 0.07305 0.27067 0.41569-0.91768
   4  -6   8 1912.74  382.17   1 0.41866 0.19723-0.84074 0.49692-0.34331 0.84508
  -4   6  -9   59.29  105.42   1-0.92451 0.29272 0.11095 0.22491 0.36463-0.92936
   4  -6   9  278.28  134.43   1 0.45132 0.18064-0.84905 0.51309-0.27461 0.83910
  -4   5  12   44.14   65.42   1-0.87974 0.58015-0.28979 0.72256 0.37692 0.37591
   4  -5 -12  161.40  108.47   1-0.46932 0.76986 0.19740-0.62903-0.86067 0.10780
  -4   5  11  160.74   84.53   1-0.86508 0.54938-0.34459 0.76953 0.36453 0.32556
   4  -5 -11  147.41   75.01   1 0.02248 0.29355 0.51582-0.94114-0.85639 0.16752
   4  -5 -11  278.86  122.78   1-0.46067 0.77729 0.17919-0.60308-0.86929 0.17915
  -4   5  10  139.67  109.75   1-0.84931 0.51751-0.39315 0.81025 0.35227 0.27509
   4  -5 -10   69.65   36.75   1 0.04109 0.29098 0.51060-0.92802-0.85883 0.23258
   4  -5 -10   94.16   88.32   1-0.44863 0.78133 0.15444-0.57058-0.88027 0.25287
  -4   5   9  604.46  182.59   1-0.83316 0.48512-0.43574 0.84522 0.34053 0.22418
   4  -5  -9  267.74   96.24   1 0.06755 0.28058 0.50284-0.91236-0.86173 0.29810
   4  -5  -9  233.51  135.73   1-0.43248 0.78126 0.12225-0.53066-0.89331 0.32866
  -4   5   8   31.79   87.00   1-0.81719 0.45305-0.47298 0.87460 0.32934 0.17262
   4  -5  -8   93.78   99.31   1-0.41139 0.77625 0.08171-0.48238-0.90778 0.40587
  -4   5   736724.44 1207.33   1-0.80201 0.42178-0.50493 0.89870 0.31906 0.12015
   4  -5  -735798.62 1146.01   1 0.14290 0.23741 0.47839-0.87219-0.86643 0.42767
   4  -5  -735620.19 1168.92   1-0.38437 0.76531 0.03200-0.42493-0.92262 0.48344
  -4   5   6 4499.37  242.52   1-0.78817 0.39183-0.53171 0.91762 0.30993 0.06654
   4  -5  -6 4090.98  518.03   1 0.19119 0.20521 0.46109-0.84697-0.86650 0.49042
   4  -5  -6 4296.33  245.54   1-0.35072 0.74757-0.02765-0.35751-0.93607 0.55973
   4  -5  -5  595.85  101.43   1 0.24532 0.16716 0.44001-0.81797-0.86383 0.55042
   4  -5  -5  353.03   99.06   1-0.30899 0.72190-0.09674-0.28066-0.94612 0.63251
  -4   5   4 8420.94  325.61   1-0.76656 0.33803-0.56985 0.94005 0.29604-0.04505
   4  -5  -4 8222.67  429.75   1 0.30407 0.12448 0.41502-0.78506-0.85749 0.60677
   4  -5  -4 8426.62  280.67   1-0.25898 0.68794-0.17465-0.19500-0.94995 0.69907
  -4   5   3 8989.63  309.40   1-0.75978 0.31515-0.58102 0.94337 0.29177-0.10353
   4  -5  -3 7946.75  244.75   1 0.36671 0.07801 0.38668-0.74882-0.84616 0.65816
   4  -5  -3 8504.28  282.36   1-0.20110 0.64634-0.26016-0.10179-0.94438 0.75622
  -4   5   2  419.25  155.81   1-0.75631 0.29557-0.58662 0.94111 0.28959-0.16409
   4  -5  -2  278.08   61.94   1 0.43008 0.03073 0.35422-0.70848-0.83039 0.70505
   4  -5  -2  346.28   88.97   1-0.13604 0.59731-0.34838-0.00579-0.92742 0.80198
  -4   5   1 1693.59  215.90   1-0.75656 0.27973-0.58621 0.93285 0.28975-0.22700
   4  -5  -1 1360.84  164.68   1 0.49338-0.01647 0.31856-0.66494-0.80937 0.74670
   4  -5  -1 1567.94  163.40   1-0.06656 0.54371-0.43674 0.09047-0.89711 0.83437
  -4   5   0  548.09   98.65   1-0.76093 0.26800-0.57915 0.91794 0.29249-0.29249
   4  -5   0  598.81  111.54   1 0.55514-0.06215 0.28025-0.61875-0.78311 0.78311
   4  -5   0  456.35   90.92   1 0.00573 0.48747-0.52021 0.18174-0.85401 0.85401
  -4   5  -1 1609.91  174.44   1-0.76971 0.26068-0.56454 0.89547 0.29804-0.36079
  -4   5  -1 1255.00  169.13   1-0.61415 0.10483-0.23911 0.57011 0.75209-0.81484
   4  -5   1 1241.78  143.17   1 0.07742 0.43184-0.59586 0.26517-0.79934 0.86208
  -4   5  -2  -28.79   80.74   1-0.78309 0.25796-0.54105 0.86413 0.30662-0.43212
  -4   5  -2   65.31  110.96   1-0.66938 0.14396-0.19707 0.52020 0.71629-0.84181
   4  -5   2   84.52   73.50   1 0.14546 0.37979-0.66214 0.33910-0.73512 0.86067
  -4   5  -3 3695.60  184.69   1-0.80107 0.25984-0.50681 0.82204 0.31844-0.50668
  -4   5  -3 3019.91  206.14   1-0.72018 0.17867-0.15415 0.46940 0.67643-0.86471
   4  -5   3 4005.17  196.89   1 0.20926 0.33207-0.71678 0.40158-0.66515 0.85349
  -4   5  -4 3419.77  179.97   1-0.82336 0.26603-0.45908 0.76645 0.33362-0.58460
  -4   5  -4 3995.49  246.79   1-0.76634 0.20904-0.11105 0.41857 0.63275-0.88379
   4  -5   4 3688.85  325.26   1 0.26735 0.29023-0.76030 0.45289-0.59199 0.84299
  -4   5  -5 5679.82  235.52   1-0.84909 0.27568-0.39378 0.69333 0.35210-0.66579
  -4   5  -5 4928.48  307.97   1-0.80718 0.23380-0.06772 0.36739 0.58639-0.90019
   4  -5   5 4739.38  234.44   1 0.31918 0.25446-0.79400 0.49444-0.51737 0.83112
  -4   5  -6   -7.00   39.68   1-0.87625 0.28674-0.30398 0.59570 0.37385-0.75027
  -4   5  -6  -21.93  112.59   1-0.84287 0.25342-0.02473 0.31655 0.53753-0.91409
   4  -5   6  203.65   99.07   1 0.36500 0.22468-0.81882 0.52710-0.44305 0.81955
  -4   5  -7  587.75  171.14   1-0.87345 0.26791 0.01767 0.26628 0.48659-0.92591
   4  -5   7  498.78  154.64   1 0.40491 0.20057-0.83605 0.55215-0.37020 0.80925
  -4   5  -8  798.13  213.84   1-0.89901 0.27765 0.05911 0.21684 0.43390-0.93588
   4  -5   8  716.22  196.53   1 0.44006 0.18149-0.84668 0.57065-0.29911 0.80088
  -4   5  -9  882.84  195.42   1-0.91967 0.28224 0.09990 0.16819 0.37975-0.94448
   4  -5   9  928.25  308.49   1 0.47066 0.16696-0.85174 0.58358-0.23021 0.79470
  -4   4  12 1141.84  210.62   1-0.85729 0.55201-0.36960 0.73462 0.35837 0.39446
   4  -4 -12  764.89  217.57   1-0.09947 0.40513 0.54511-0.91066-0.83243 0.08094
   4  -4 -12 1138.20  254.41   1-0.48726 0.79320 0.23785-0.60276-0.84024 0.08660
  -4   4  11   44.04   73.01   1-0.83700 0.51547-0.42611 0.78354 0.34329 0.34691
   4  -4 -11  375.38  112.24   1-0.08803 0.40973 0.54272-0.90037-0.83528 0.14641
   4  -4 -11  154.71   98.19   1-0.47965 0.80188 0.21969-0.57582-0.84950 0.15937
  -4   4  10  725.51  156.50   1-0.81571 0.47809-0.47623 0.82580 0.32833 0.29912
   4  -4 -10  624.69  158.37   1-0.06884 0.40659 0.53856-0.88830-0.83976 0.21352
   4  -4 -10  798.01  178.85   1-0.46799 0.80629 0.19457-0.54297-0.86204 0.23465
  -4   4   9 7169.69  435.04   1-0.79421 0.44048-0.52029 0.86200 0.31388 0.25083
   4  -4  -9 6218.29  680.88   1-0.04168 0.39548 0.53229-0.87413-0.84552 0.28190
   4  -4  -9 7112.97  420.41   1-0.45200 0.80639 0.16131-0.50196-0.87730 0.31265
  -4   4   8  168.59  136.15   1-0.77313 0.40330-0.55868 0.89254 0.30022 0.20174
   4  -4  -8   81.11   48.74   1-0.00639 0.37624 0.52353-0.85746-0.85198 0.35098
   4  -4  -8  116.11  128.69   1-0.43065 0.80112 0.11867-0.45158-0.89467 0.39276
  -4   4   7 1913.80  202.14   1-0.75311 0.36718-0.59169 0.91770 0.28759 0.15162
   4  -4  -7 1791.43  282.61   1 0.03700 0.34889 0.51177-0.83780-0.85832 0.41995
   4  -4  -7 1580.48  121.53   1-0.40269 0.78924 0.06545-0.39063-0.91299 0.47381
  -4   4   617023.40  512.13   1-0.73475 0.33272-0.61953 0.93768 0.27626 0.10021
   4  -4  -616479.75  455.77   1 0.08820 0.31373 0.49651-0.81463-0.86353 0.48779
   4  -4  -616828.65  467.60   1-0.36702 0.76950 0.00047-0.31792-0.93021 0.55387
   4  -4  -5 2934.31  391.71   1 0.14629 0.27181 0.47722-0.78751-0.86651 0.55311
   4  -4  -5 2825.74  224.22   1-0.32189 0.74043-0.07581-0.23388-0.94373 0.63012
  -4   4   410052.25  377.44   1-0.70532 0.27095-0.66006 0.96256 0.25850-0.00752
   4  -4  -4 9949.87  318.07   1 0.21072 0.22346 0.45369-0.75606-0.86588 0.61516
   4  -4  -4 9823.39  341.99   1-0.26684 0.70143-0.16273-0.13919-0.94990 0.69901
  -4   4   3 9401.20  363.28   1-0.69539 0.24491-0.67276 0.96740 0.25261-0.06438
   4  -4  -3 8364.26  417.49   1 0.27965 0.17061 0.42568-0.72013-0.86057 0.67253
   4  -4  -3 9069.61  314.83   1-0.20225 0.65310-0.25855-0.03569-0.94458 0.75642
  -4   4   211093.28  395.32   1-0.68939 0.22280-0.68021 0.96699 0.24908-0.12359
   4  -4  -212606.73  401.17   1 0.35128 0.11506 0.39327-0.67980-0.84966 0.72430
   4  -4  -211684.57  372.15   1-0.12942 0.59630-0.35700 0.07054-0.92509 0.79965
  -4   4   1 1487.66  154.69   1-0.68787 0.20519-0.68207 0.96099 0.24819-0.18545
   4  -4  -1 1528.57  124.17   1 0.42415 0.05839 0.35739-0.63607-0.83208 0.76941
   4  -4  -1 1746.20  136.87   1-0.05188 0.53465-0.45428 0.17570-0.88934 0.82660
  -4   4   013496.62  444.09   1-0.69137 0.19258-0.67777 0.94883 0.25024-0.25024
   4  -4   012824.80  394.43   1 0.49525 0.00337 0.31745-0.58825-0.80866 0.80866
   4  -4   011687.68  362.78   1 0.02759 0.47124-0.54403 0.27324-0.83861 0.83861
  -4   4  -1 6439.53  275.38   1-0.70036 0.18547-0.66646 0.92967 0.25555-0.31829
   4  -4   1 6369.76  251.29   1 0.10426 0.41058-0.62355 0.36041-0.77479 0.83757
  -4   4  -210070.55  301.87   1-0.71527 0.18428-0.64687 0.90221 0.26444-0.38993
  -4   4  -210283.51  344.61   1-0.62776 0.09671-0.22914 0.48449 0.74390-0.86942
   4  -4   211270.14  309.45   1 0.17635 0.35457-0.68939 0.43409-0.70259 0.82814
  -4   4  -3 1063.17  153.15   1-0.73646 0.18954-0.61701 0.86448 0.27731-0.46555
  -4   4  -3 1204.68  194.22   1-0.68675 0.13960-0.18291 0.43039 0.70350-0.89178
   4  -4   3 1676.48  270.67   1 0.24172 0.30544-0.74168 0.49419-0.62567 0.81392
  -4   4  -4  513.82   88.81   1-0.76401 0.20100-0.57409 0.81370 0.29443-0.54542
  -4   4  -4  507.74  153.10   1-0.73999 0.17674-0.13606 0.37567 0.65870-0.90974
   4  -4   4  783.27   97.22   1 0.29951 0.26370-0.78186 0.54222-0.54678 0.79778
  -4   4  -5 8743.91  324.42   1-0.79770 0.21859-0.51349 0.74525 0.31620-0.62993
  -4   4  -5 9201.56  418.54   1-0.78735 0.20834-0.08941 0.32129 0.60997-0.92377
   4  -4   5 9564.96  376.87   1 0.35000 0.22926-0.81126 0.57946-0.46833 0.78208
  -4   4  -6  174.47   62.20   1-0.83647 0.24125-0.42744 0.65135 0.34291-0.71939
  -4   4  -6  473.05  185.83   1-0.82839 0.23330-0.04287 0.26690 0.55849-0.93505
   4  -4   6  441.47  112.34   1 0.39346 0.20163-0.83166 0.60768-0.39182 0.76815
  -4   4  -7 1099.12  181.40   1-0.86336 0.25219 0.00295 0.21321 0.50457-0.94389
   4  -4   7  379.71  158.36   1 0.43119 0.17996-0.84443 0.62833-0.31779 0.75683
  -4   4  -8 1234.27  260.58   1-0.89241 0.26540 0.04763 0.16055 0.44868-0.95067
   4  -4   8  682.25  221.26   1 0.46366 0.16356-0.85098 0.64274-0.24664 0.74841
  -4   4  -9  606.11  183.06   1-0.91575 0.27266 0.09144 0.10888 0.39119-0.95592
   4  -4   9  746.59  204.42   1 0.49176 0.15174-0.85232 0.65198-0.17807 0.74288
  -4   3  13 1383.12  148.58   1-0.85200 0.55713-0.38542 0.69053 0.35431 0.46126
   4  -3 -13 1549.70  142.91   1-0.19957 0.49497 0.56319-0.86881-0.80185-0.01229
   4  -3 -13 1921.22  221.44   1-0.50922 0.80468 0.28872-0.59367-0.81075-0.00568
  -4   3  12  998.25  244.79   1-0.82686 0.51574-0.45095 0.74847 0.33607 0.41688
   4  -3 -12  881.68  213.91   1-0.19563 0.50707 0.56261-0.86034-0.80323 0.05170
   4  -3 -12 1314.14  177.00   1-0.50443 0.81601 0.27732-0.57446-0.81769 0.06406
  -4   3  11  130.89   73.36   1-0.80003 0.47281-0.50890 0.79856 0.31774 0.37246
   4  -3 -11  161.00   62.17   1-0.18457 0.51206 0.56094-0.85078-0.80701 0.11811
   4  -3 -11  621.56  172.30   1-0.49682 0.82453 0.25958-0.54890-0.82811 0.13728
  -4   3  10  601.01  137.90   1-0.77243 0.42911-0.55989 0.84171 0.29977 0.32769
   4  -3 -10  177.58   72.86   1-0.16600 0.50954 0.55797-0.83992-0.81308 0.18681
   4  -3 -10  156.99  108.11   1-0.48567 0.82950 0.23431-0.51581-0.84214 0.21412
  -4   3   9 1064.07  139.44   1-0.74480 0.38538-0.60455 0.87851 0.28244 0.28227
   4  -3  -9  932.72  111.59   1-0.13946 0.49904 0.55336-0.82742-0.82118 0.25753
   4  -3  -9  748.37  165.77   1-0.47043 0.83043 0.19978-0.47268-0.85952 0.29486
  -4   3   818096.57  641.32   1-0.71785 0.34233-0.64336 0.90946 0.26602 0.23594
   4  -3  -816467.16  590.20   1-0.10503 0.48054 0.54624-0.81250-0.83101 0.33001
   4  -3  -816651.31  598.05   1-0.44886 0.82494 0.15491-0.42008-0.88006 0.37815
  -4   3   714937.99  449.80   1-0.69227 0.30053-0.67665 0.93497 0.25077 0.18843
   4  -3  -715188.54  735.71   1-0.06137 0.45293 0.53688-0.79523-0.84142 0.40305
   4  -3  -712978.35  386.54   1-0.41984 0.81199 0.09776-0.35519-0.90231 0.46314
  -4   3   6 7303.03  335.05   1-0.66863 0.26080-0.70481 0.95526 0.23698 0.13947
   4  -3  -6 7067.82  623.43   1-0.00896 0.41657 0.52419-0.77464-0.85155 0.47580
   4  -3  -6 6081.63  237.88   1-0.38151 0.78975 0.02688-0.27657-0.92397 0.54753
   4  -3  -5 2722.54  373.72   1 0.05183 0.37182 0.50750-0.75005-0.86008 0.54696
   4  -3  -5 3021.26  215.70   1-0.33235 0.75652-0.05856-0.18340-0.94133 0.62772
  -4   3   4 1647.18  197.69   1-0.62984 0.18979-0.74642 0.98115 0.21482 0.03615
   4  -3  -4 1467.00  286.79   1 0.11995 0.31986 0.48613-0.72083-0.86560 0.61488
   4  -3  -4 1549.50  133.74   1-0.27078 0.71100-0.15671-0.07748-0.94979 0.69890
  -4   3   3 4461.28  240.53   1-0.61595 0.15980-0.76009 0.98696 0.20701-0.01877
   4  -3  -3 4688.44  342.53   1 0.19450 0.26138 0.45985-0.68663-0.86642 0.67838
   4  -3  -3 4160.68  202.03   1-0.19745 0.65392-0.26529 0.03876-0.94373 0.75556
  -4   3   2 9962.51  420.67   1-0.60659 0.13434-0.76898 0.98799 0.20177-0.07629
   4  -3  -210595.29  403.62   1 0.27327 0.19870 0.42840-0.64726-0.86127 0.73591
   4  -3  -210536.70  392.15   1-0.11464 0.58714-0.37599 0.15725-0.91950 0.79405
  -4   3   1  244.96  109.14   1-0.60240 0.11405-0.77287 0.98402 0.19944-0.13670
   4  -3  -1   72.81   70.84   1 0.35400 0.13405 0.39197-0.60291-0.84914 0.78645
   4  -3  -1  356.11   72.16   1-0.02724 0.51563-0.48303 0.27215-0.87517 0.81243
  -4   3   0  130.15  101.51   1-0.60404 0.09958-0.77135 0.97464 0.20036-0.20036
   4  -3   0  155.12   70.59   1 0.43470 0.06957 0.35173-0.55483-0.82904 0.82904
   4  -3   0  267.55   88.80   1 0.06025 0.44419-0.57839 0.37530-0.81353 0.81353
  -4   3  -1  114.90   92.67   1-0.61216 0.09160-0.76371 0.95915 0.20489-0.26763
   4  -3   1  100.49   77.37   1 0.51239 0.00797 0.30716-0.50238-0.80193 0.86460
   4  -3   1  151.27   64.53   1 0.14228 0.37822-0.65925 0.46386-0.73833 0.80111
  -4   3  -2 7160.53  305.64   1-0.62743 0.09077-0.74883 0.93641 0.21346-0.33894
  -4   3  -2 7738.37  322.19   1-0.58592 0.04924-0.25904 0.44662 0.76784-0.89336
   4  -3   2 6691.36  246.79   1 0.21671 0.31987-0.72273 0.53518-0.65626 0.78182
  -4   3  -3101273.6 1932.84   1-0.65048 0.09772-0.72494 0.90465 0.22654-0.41478
  -4   3  -3103689.7 8481.40   1-0.65352 0.10074-0.20959 0.38930 0.72730-0.91558
   4  -3   3100881.1 1986.84   1 0.28195 0.27083-0.77034 0.59061-0.57190 0.76014
  -4   3  -4 4215.60  198.58   1-0.68194 0.11307-0.68924 0.86110 0.24472-0.49569
  -4   3  -4 3890.50  217.47   1-0.71450 0.14562-0.15918 0.33102 0.68128-0.93231
   4  -3   4 4582.20  522.06   1 0.33791 0.23092-0.80476 0.63287-0.48801 0.73901
  -4   3  -5 1417.73  142.46   1-0.72240 0.13759-0.63710 0.80110 0.26876-0.58249
  -4   3  -5 1157.12  176.33   1-0.76852 0.18387-0.10886 0.27296 0.63048-0.94428
   4  -3   5 1067.00  210.64   1 0.38528 0.19941-0.82827 0.66422-0.40683 0.72044
  -4   3  -6  237.11   76.68   1-0.77200 0.17109-0.56063 0.71678 0.29949-0.67597
  -4   3  -6  399.61  167.72   1-0.81516 0.21443-0.05859 0.21483 0.57625-0.95281
   4  -3   6   59.81   42.54   1 0.42564 0.17511-0.84287 0.68670-0.32920 0.70553
  -4   3  -7  854.46  184.02   1-0.85465 0.23784-0.00914 0.15752 0.51912-0.95844
  -4   3  -8  458.08  168.73   1-0.88720 0.25453 0.03894 0.10147 0.45973-0.96172
   4  -3   8  195.85   59.88   1 0.48898 0.14410-0.85239 0.71195-0.18522 0.68727
  -4   3  -9  774.26  201.87   1-0.91310 0.26437 0.08595 0.04660 0.39855-0.96329
   4  -3   9  994.72  335.96   1 0.51357 0.13560-0.84978 0.71719-0.11873 0.68355
  -4   3 -10  151.74  106.86   1-0.93264 0.26784 0.13153-0.00683 0.33595-0.96343
   4  -3  10  180.40  105.87   1 0.53442 0.13083-0.84339 0.71864-0.05538 0.68295
  -4   2  13  968.23  184.24   1-0.82016 0.51945-0.46637 0.70399 0.33139 0.48430
   4  -2 -13  779.92  143.54   1-0.28223 0.58329 0.57308-0.81102-0.76936-0.04478
   4  -2 -13 1192.17  395.01   1-0.52447 0.82556 0.32633-0.56351-0.78640-0.03002
  -4   2  12 1770.22  137.75   1-0.78749 0.47068-0.53298 0.76275 0.30948 0.44347
   4  -2 -12 2049.90  160.31   1-0.27881 0.59591 0.57275-0.80281-0.77085 0.01932
   4  -2 -12 2598.67  222.32   1-0.52024 0.83746 0.31568-0.54503-0.79353 0.03989
   4  -2 -11 2345.60  188.62   1-0.26871 0.60186 0.57176-0.79392-0.77516 0.08626
   4  -2 -11 2022.51  199.73   1-0.51323 0.84657 0.29839-0.51994-0.80470 0.11387
  -4   2  10 1447.24  160.37   1-0.71876 0.36976-0.64211 0.85617 0.26657 0.36089
   4  -2 -10 1349.31  142.28   1-0.25140 0.60060 0.56990-0.78417-0.78230 0.15603
   4  -2 -10 1491.98  178.97   1-0.50263 0.85210 0.27307-0.48680-0.82023 0.19220
  -4   2   9  909.84  167.97   1-0.68441 0.31921-0.68627 0.89254 0.24616 0.31853
   4  -2  -9  578.91   97.46   1-0.22627 0.59152 0.56685-0.77323-0.79212 0.22848
   4  -2  -9  624.04  126.17   1-0.48728 0.85288 0.23791-0.44381-0.84020 0.27498
  -4   2   819557.14  644.58   1-0.65098 0.26968-0.72440 0.92280 0.22683 0.27511
   4  -2  -819695.96  635.95   1-0.19267 0.57396 0.56217-0.76066-0.80425 0.30324
   4  -2  -818877.82  616.26   1-0.46596 0.84764 0.19029-0.38770-0.86409 0.36218
  -4   2   7 1733.99  216.97   1-0.61921 0.22181-0.75693 0.94748 0.20883 0.23036
   4  -2  -7 1487.91  191.93   1-0.15000 0.54734 0.55524-0.74584-0.81804 0.37965
   4  -2  -7 1517.65  174.21   1-0.43571 0.83347 0.12860-0.31828-0.89084 0.45167
  -4   2   6  933.60  235.99   1-0.58977 0.17626-0.78430 0.96698 0.19244 0.18401
   4  -2  -6  148.72   88.31   1-0.09828 0.51155 0.54486-0.72764-0.83274 0.45699
   4  -2  -6  167.61   86.40   1-0.39442 0.80826 0.05022-0.23216-0.91755 0.54112
  -4   2   5  281.68  125.82   1-0.56332 0.13372-0.80684 0.98167 0.17793 0.13578
   4  -2  -5  164.73   62.27   1-0.03662 0.46594 0.53108-0.70595-0.84652 0.53340
   4  -2  -5  140.81  103.83   1-0.33964 0.76943-0.04640-0.12783-0.93940 0.62579
  -4   2   4  582.57  125.78   1-0.54083 0.09522-0.82475 0.99173 0.16517 0.08597
   4  -2  -4  367.97   64.06   1 0.03404 0.41131 0.51260-0.67957-0.85794 0.60744
   4  -2  -4  520.06  109.08   1-0.26928 0.71512-0.15901-0.00746-0.94984 0.69895
  -4   2   317615.72  631.45   1-0.52238 0.06069-0.83845 0.99760 0.15525 0.03310
   4  -2  -317226.13  602.06   1 0.11258 0.34883 0.48871-0.64777-0.86515 0.67727
   4  -2  -317402.34  595.35   1-0.18410 0.64619-0.28385 0.12504-0.94102 0.75286
  -4   2   2 3338.17  206.00   1-0.50897 0.03120-0.84794 0.99925 0.14809-0.02252
   4  -2  -2 3496.32  333.99   1 0.19704 0.28055 0.45890-0.61008-0.86636 0.74099
   4  -2  -2 3593.31  161.35   1-0.08817 0.56628-0.40924 0.25822-0.90815 0.78271
  -4   2   1  429.02  148.77   1-0.50133 0.00747-0.85318 0.99666 0.14402-0.08124
   4  -2  -1  136.93   63.32   1 0.28526 0.20842 0.42326-0.56653-0.85992 0.79724
   4  -2  -1  630.81   82.42   1 0.01121 0.48278-0.52625 0.38307-0.85025 0.78751
  -4   2   0 1368.15  183.10   1-0.50017-0.00976-0.85396 0.98961 0.14341-0.14341
   4  -2   0 1382.11  155.87   1 0.37458 0.13533 0.38281-0.51821-0.84447 0.84447
   4  -2   0 1744.41  159.74   1 0.10676 0.40333-0.62597 0.49047-0.77249 0.77249
  -4   2  -113428.56  502.06   1-0.50628-0.01974-0.84980 0.97762 0.14665-0.20944
   4  -2   112674.78  454.83   1 0.19320 0.33297-0.70363 0.57599-0.68378 0.74656
  -4   2  -2 7563.88  273.53   1-0.52048-0.02163-0.83982 0.95981 0.15423-0.27980
   4  -2   2 8367.69  285.07   1 0.54435-0.00226 0.28722-0.40686-0.78815 0.91348
   4  -2   2 9599.16  320.04   1 0.26776 0.27460-0.76058 0.64076-0.59145 0.71695
  -4   2  -3 1786.18  179.81   1-0.54366-0.01452-0.82257 0.93472 0.16670-0.35506
  -4   2  -3 1577.02  215.47   1-0.62122 0.06281-0.23396 0.34589 0.74788-0.93616
   4  -2   3 1796.91  202.98   1 0.33026 0.22815-0.80046 0.68848-0.50017 0.68842
  -4   2  -4   60.80   72.99   1-0.57658 0.00204-0.79577 0.89986 0.18518-0.43616
  -4   2  -4   67.11  114.36   1-0.69032 0.11580-0.17993 0.28399 0.70076-0.95180
   4  -2   4   52.27   68.67   1 0.38189 0.19240-0.82681 0.72269-0.41296 0.66385
  -4   2  -5   -5.40   49.42   1-0.62097 0.03033-0.75522 0.85145 0.20982-0.52354
  -4   2  -5  399.48  152.38   1-0.75122 0.16060-0.12542 0.22161 0.64801-0.96181
   4  -2   5  156.53   59.16   1 0.42477 0.16559-0.84262 0.74636-0.33099 0.64460
  -4   2  -6  226.86   66.55   1-0.67810 0.07136-0.69381 0.78218 0.24248-0.61894
  -4   2  -6  230.28  108.20   1-0.80377 0.19741-0.07155 0.16000 0.59061-0.96717
   4  -2   6   -3.30   56.77   1 0.46031 0.14611-0.85053 0.76214-0.25437 0.63069
  -4   2  -7 4859.62  273.52   1-0.84785 0.22541-0.01824 0.09884 0.52991-0.96923
   4  -2   7 5240.67  592.91   1 0.49003 0.13263-0.85237 0.77182-0.18254 0.62184
  -4   2  -8 1088.16  224.42   1-0.88382 0.24551 0.03349 0.03916 0.46661-0.96860
   4  -2   8 1013.79  241.49   1 0.51476 0.12399-0.84954 0.77683-0.11531 0.61737
  -4   2  -9  615.63  202.24   1-0.91209 0.25771 0.08390-0.01911 0.40129-0.96603
   4  -2   9  653.12  177.80   1 0.53549 0.11934-0.84293 0.77808-0.05190 0.61672
  -4   2 -10  473.28  184.21   1-0.93303 0.26258 0.13260-0.07566 0.33445-0.96193
   4  -2  10   77.17   64.58   1 0.55288 0.11804-0.83321 0.77621 0.00824 0.61932
  -4   1  13 1287.57  129.53   1-0.77949 0.47309-0.54752 0.71738 0.30430 0.51140
   4  -1 -13 1306.71  153.43   1-0.35213 0.65885 0.57795-0.74821-0.73619-0.07796
   4  -1 -13 1433.48  189.30   1-0.53826 0.84499 0.36247-0.53187-0.76084-0.05559
  -4   1  12  468.14  137.69   1-0.73866 0.41616-0.61378 0.77578 0.27866 0.47429
   4  -1 -12  532.25  140.10   1-0.34946 0.67224 0.57782-0.74020-0.73755-0.01397
   4  -1 -12  429.96  153.77   1-0.53462 0.85748 0.35272-0.51430-0.76795 0.01432
  -4   1  11  585.42  118.33   1-0.69679 0.35813-0.67100 0.82522 0.25344 0.43674
   4  -1 -11  744.04  145.42   1-0.34056 0.67937 0.57737-0.73185-0.74206 0.05316
   4  -1 -11  688.50  149.22   1-0.52827 0.86726 0.33609-0.48985-0.77972 0.08888
  -4   1  10  330.35  134.61   1-0.65469 0.29993-0.72038 0.86674 0.22895 0.39848
   4  -1 -10  347.34  126.02   1-0.32481 0.67967 0.57644-0.72303-0.74980 0.12353
   4  -1 -10  213.36   87.97   1-0.51831 0.87342 0.31088-0.45682-0.79668 0.16865
  -4   1   911317.40  447.49   1-0.61320 0.24233-0.76273 0.90123 0.20546 0.35922
   4  -1  -911769.81  446.56   1-0.30149 0.67240 0.57475-0.71345-0.76076 0.19711
   4  -1  -910852.65  415.96   1-0.50338 0.87461 0.27484-0.41297-0.81918 0.25395
  -4   1   8 1961.96  147.02   1-0.57305 0.18608-0.79876 0.92940 0.18325 0.31870
   4  -1  -8 2311.11  173.99   1-0.26980 0.65676 0.57187-0.70268-0.77470 0.27368
   4  -1  -8 1898.85  133.92   1-0.48188 0.86916 0.22456-0.35423-0.84697 0.34505
  -4   1   7   14.47  123.58   1-0.53526 0.13226-0.82897 0.95162 0.16217 0.27733
   4  -1  -7   83.18   82.19   1-0.22891 0.63191 0.56719-0.69011-0.79112 0.35273
   4  -1  -7   90.03   76.50   1-0.45015 0.85352 0.15753-0.27946-0.87894 0.43976
  -4   1   6 3844.32  259.88   1-0.49985 0.08077-0.85417 0.96900 0.14324 0.23347
   4  -1  -6 3804.39  186.04   1-0.17810 0.59715 0.55993-0.67496-0.80916 0.43340
   4  -1  -6 4166.31  194.04   1-0.40499 0.82444 0.06974-0.18393-0.91165 0.53521
  -4   1   513048.68  510.47   1-0.46786 0.03269-0.87471 0.98170 0.12637 0.18756
   4  -1  -512208.51  455.50   1-0.11725 0.55224 0.54866-0.65586-0.82777 0.51465
   4  -1  -512902.62  455.18   1-0.34251 0.77793-0.04158-0.06493-0.93859 0.62498
  -4   1   4  491.07  170.77   1-0.43996-0.01128-0.89102 0.99018 0.11182 0.13932
   4  -1  -4  714.69  134.99   1-0.04574 0.49677 0.53326-0.63255-0.84471 0.59421
   4  -1  -4  463.91   77.37   1-0.25964 0.71111-0.17366 0.07490-0.94996 0.69907
  -4   1   3  694.32  140.05   1-0.41684-0.05049-0.90347 0.99479 0.09987 0.08848
   4  -1  -3  890.01  127.17   1 0.03533 0.43174 0.51224-0.60363-0.85811 0.67023
   4  -1  -3  931.54  100.83   1-0.15760 0.62530-0.31987 0.22878-0.93425 0.74609
  -4   1   3  829.11   85.65   1-0.52869 0.06070 0.33716-0.24593-0.77897 0.96738
  -4   1   2 1437.82  193.09   1-0.39920-0.08421-0.91235 0.99584 0.09082 0.03474
   4  -1  -2 1848.30  196.02   1 0.12425 0.35898 0.48471-0.56822-0.86580 0.74044
   4  -1  -2 1100.81  100.54   1-0.04423 0.52779-0.46329 0.38001-0.88509 0.75961
  -4   1   2 1011.23   88.69   1-0.46023-0.02353 0.17827-0.09504-0.86971 0.99519
  -4   1   1  345.91  174.34   1-0.38776-0.11174-0.91783 0.99348 0.08498-0.02220
   4  -1  -1   76.99   84.30   1 0.21887 0.28044 0.45054-0.52613-0.86551 0.80282
   4  -1  -1   75.94   60.09   1 0.06942 0.43019-0.58777 0.51228-0.80603 0.74329
  -4   1   1   85.85   45.55   1-0.37393-0.12591 0.01339 0.06208-0.92735 0.99009
  -4   1   020874.65  731.58   1-0.38327-0.13232-0.91992 0.98775 0.08269-0.08269
   4  -1   020264.24  693.51   1 0.31593 0.19945 0.40970-0.47737-0.85576 0.85576
   4  -1   019983.97  665.61   1 0.17224 0.34352-0.68585 0.61810-0.70705 0.70705
  -4   1  -149290.56 1603.06   1-0.38652-0.14515-0.91841 0.97840 0.08435-0.14713
   4  -1   149431.82 1605.03   1 0.41226 0.11938 0.36365-0.42347-0.83533 0.89800
   4  -1   149823.12 1604.25   1 0.25919 0.27274-0.75450 0.69459-0.60294 0.66569
  -4   1  -2  411.48  151.73   1-0.39839-0.14936-0.91274 0.96490 0.09041-0.21598
   4  -1   2   82.25   69.78   1 0.50448 0.04325 0.31195-0.36389-0.80509 0.93043
   4  -1   2   52.56   50.08   1 0.32960 0.21838-0.80009 0.74802-0.50121 0.62671
  -4   1  -3  269.37  125.17   1-0.41992-0.14392-0.90187 0.94619 0.10146-0.28982
  -4   1  -3   55.90  111.58   1-0.59066 0.02661-0.25576 0.29992 0.76531-0.95359
   4  -1   3   66.02   57.83   1 0.38567 0.17822-0.82843 0.78424-0.40613 0.59430
  -4   1  -4 1475.92  163.21   1-0.45233-0.12759-0.88397 0.92046 0.11825-0.36940
  -4   1  -4 1742.60  212.61   1-0.66821 0.08806-0.19800 0.23429 0.71712-0.96816
   4  -1   4 1806.35  311.94   1 0.43055 0.14941-0.84426 0.80793-0.31912 0.57000
  -4   1  -5 3368.62  172.09   1-0.49725-0.09875-0.85592 0.88458 0.14186-0.45579
  -4   1  -5 3888.22  246.28   1-0.73642 0.14017-0.13939 0.16780 0.66200-0.97580
   4  -1   5 3366.17  410.64   1 0.46665 0.12937-0.85134 0.82288-0.23968 0.55328
  -4   1  -6 3992.90  170.82   1-0.55678-0.05562-0.81214 0.83275 0.17437-0.55083
  -4   1  -6 4253.11  247.93   1-0.79489 0.18290-0.08132 0.10199 0.60126-0.97782
   4  -1   6 3996.57  335.04   1 0.49608 0.11616-0.85210 0.83144-0.16678 0.54332
  -4   1  -713488.90  507.13   1-0.84356 0.21549-0.02384 0.03665 0.53649-0.97581
   4  -1   714601.44  515.12   1 0.52016 0.10817-0.84824 0.83543-0.09953 0.53883
  -4   1  -8 1837.78  182.48   1-0.88278 0.23882 0.03183-0.02694 0.46870-0.97068
   4  -1   8 1942.08  151.16   1 0.54005 0.10436-0.84082 0.83586-0.03686 0.53892
  -4   1  -9  570.12  188.22   1-0.91308 0.25304 0.08590-0.08888 0.39862-0.96336
   4  -1   9  557.48  154.08   1 0.55654 0.10395-0.83052 0.83340 0.02202 0.54279
  -4   1 -10 2980.30  257.02   1-0.93493 0.25883 0.13792-0.14875 0.32691-0.95439
  -4   0  13  888.78  221.92   1-0.72973 0.41764-0.62677 0.72888 0.27320 0.54249
   4   0 -13  444.32  122.85   1-0.41005 0.72278 0.57970-0.68209-0.70413-0.11101
   4   0 -13  431.25  156.86   1-0.55059 0.86296 0.39693-0.49855-0.73436-0.08207
  -4   0  12  215.98   80.71   1-0.68044 0.35222-0.69103 0.78534 0.24384 0.50908
   4   0 -12  434.75  129.74   1-0.40824 0.73702 0.57969-0.67421-0.70518-0.04725
   4   0 -12  536.15  150.95   1-0.54756 0.87606 0.38824-0.48204-0.74124-0.01239
  -4   0  11  261.74  117.14   1-0.63056 0.28623-0.74570 0.83215 0.21522 0.47495
   4   0 -11  112.60   71.31   1-0.40060 0.74543 0.57964-0.66628-0.70959 0.01985
   4   0 -11  218.65   99.84   1-0.54191 0.88653 0.37243-0.45841-0.75341 0.06257
  -4   0  10  862.90  117.68   1-0.58100 0.22058-0.79197 0.87057 0.18761 0.43982
   4   0 -10  561.97  120.13   1-0.38651 0.74738 0.57942-0.65819-0.71754 0.09050
   4   0 -10  705.46  134.36   1-0.53265 0.89340 0.34750-0.42566-0.77170 0.14367
  -4   0   935241.21 1150.02   1-0.53293 0.15646-0.83071 0.90120 0.16091 0.40415
   4   0  -933156.17 1084.83   1-0.36553 0.74210 0.57849-0.64951-0.72919 0.16555
   4   0  -932497.74 1050.86   1-0.51822 0.89509 0.31065-0.38100-0.79683 0.23160
  -4   0   8  -13.66   97.52   1-0.48630 0.09374-0.86313 0.92579 0.13607 0.36622
   4   0  -8  170.00   83.12   1-0.33599 0.72860 0.57712-0.64025-0.74433 0.24331
   4   0  -8  386.55  105.34   1-0.49615 0.88914 0.25801-0.32055-0.82901 0.32658
  -4   0   7  978.09  141.45   1-0.44221 0.03356-0.88976 0.94459 0.11299 0.32651
   4   0  -7 1069.18  133.53   1-0.29730 0.70596 0.57441-0.62964-0.76266 0.32427
   4   0  -7 1212.89  145.36   1-0.46291 0.87188 0.18387-0.23805-0.86712 0.42794
  -4   0   6  538.97  192.81   1-0.40134-0.02339-0.91130 0.95830 0.09192 0.28479
   4   0  -6  495.85  112.19   1-0.24847 0.67318 0.56956-0.61691-0.78348 0.40772
   4   0  -6  652.50  100.54   1-0.41246 0.83751 0.08373-0.13017-0.90711 0.53068
  -4   0   526250.73  898.82   1-0.36435-0.07645-0.92838 0.96755 0.07310 0.24083
   4   0  -527516.75  926.11   1-0.18870 0.62945 0.56157-0.60103-0.80561 0.49248
  -4   0   523839.98  780.31   1-0.60662 0.16608 0.64493-0.60572-0.46483 0.77814
  -4   0   4 8439.26  380.03   1-0.33189-0.12525-0.94156 0.97305 0.05746 0.19357
   4   0  -4 9039.32  349.62   1-0.11781 0.57451 0.54877-0.58039-0.82762 0.57712
   4   0  -4 8782.64  316.71   1-0.23658 0.69368-0.20801 0.17698-0.94908 0.69819
  -4   0   4 8183.00  294.36   1-0.59111 0.13361 0.53956-0.50829-0.59954 0.85075
  -4   0   332486.27  945.06   1-0.30468-0.16855-0.95144 0.97506 0.04389 0.14437
   4   0  -333524.42  959.01   1-0.03557 0.50831 0.53083-0.55454-0.84673 0.65885
   4   0  -333434.28  924.76   1-0.10891 0.58223-0.38327 0.35990-0.91718 0.72902
  -4   0   331102.53  862.54   1-0.54901 0.07538 0.39238-0.36893-0.73798 0.92639
  -4   0   2 1188.03  147.47   1-0.28331-0.20601-0.95844 0.97419 0.03331 0.09219
   4   0  -2 1289.44  187.58   1 0.05654 0.43224 0.50612-0.52193-0.86060 0.73535
   4   0  -2 1430.03  109.04   1 0.02864 0.46053-0.54516 0.52958-0.83783 0.71235
  -4   0   2 1094.13   86.85   1-0.47390-0.01546 0.20721-0.19173-0.85584 0.98132
  -4   0   1  123.93   99.99   1-0.26843-0.23697-0.96294 0.97081 0.02599 0.03676
   4   0  -1   44.06   71.98   1 0.15626 0.34867 0.47375-0.48166-0.86668 0.80400
   4   0  -1  266.00   63.13   1 0.15625 0.34909-0.67183 0.66398-0.72403 0.66125
  -4   0   1  206.49   52.40   1-0.37175-0.13369 0.00955-0.00181-0.92828 0.99102
  -4   0   012554.69  470.43   1-0.26074-0.26074-0.96515 0.96515 0.02222-0.02222
   4   0   012397.49  448.11   1 0.26051 0.26051 0.43376-0.43376-0.86254 0.86254
  -4   0   012019.30  407.86   1-0.26065-0.26065-0.17212 0.17212-0.94996 0.94996
  -4   0  -122959.19  792.52   1-0.26098-0.27659-0.96508 0.95721 0.02234-0.08510
   4   0   124139.46  813.07   1 0.36540 0.17188 0.38732-0.37944-0.84644 0.90910
   4   0   122159.38  800.58   1 0.34070 0.19685-0.80629 0.81414-0.48352 0.54627
  -4   0  -2 1894.47  172.03   1-0.26998-0.28369-0.96249 0.94674 0.02675-0.15227
   4   0   2 1719.78  128.48   1 0.46705 0.08632 0.33381-0.31805-0.81879 0.94413
   4   0   2 1713.82  255.81   1 0.40065 0.15284-0.83446 0.85020-0.37834 0.50378
  -4   0  -3 3497.26  179.98   1-0.28870-0.28105-0.95674 0.93312 0.03598-0.22426
   4   0   3 3568.98  305.74   1 0.44604 0.12351-0.84801 0.87161-0.28621 0.47438
  -4   0  -4  511.13  103.20   1-0.31840-0.26744-0.94659 0.91510 0.05072-0.30176
  -4   0  -4  761.37  161.35   1-0.64904 0.06326-0.21306 0.18157 0.73030-0.98134
   4   0   4  400.73   95.95   1 0.48104 0.10458-0.85238 0.88384-0.20504 0.45593
  -4   0  -5 1092.27  109.50   1-0.36063-0.24103-0.92998 0.89082 0.07121-0.38515
  -4   0  -5  964.03  110.84   1-0.72479 0.12291-0.15001 0.11065 0.67243-0.98622
   4   0   5  950.73  175.52   1 0.50864 0.09318-0.85068 0.88992-0.13270 0.44648
  -4   0  -614707.97  474.91   1-0.41816-0.19957-0.90278 0.85578 0.10056-0.47727
  -4   0  -615177.60  522.52   1-0.78928 0.17165-0.08736 0.04024 0.60777-0.98433
   4   0   615779.07  521.41   1 0.53075 0.08716-0.84486 0.89194-0.06711 0.44365
  -4   0  -711389.28  437.30   1-0.84243 0.20872-0.02530-0.02966 0.53820-0.97752
   4   0   711384.13  413.88   1 0.54873 0.08526-0.83596 0.89089-0.00682 0.44612
  -4   0  -8 1571.51  293.12   1-0.88457 0.23496 0.03469-0.09757 0.46510-0.96709
  -4   0  -9  161.75   81.56   1-0.91637 0.25069 0.09276-0.16350 0.38942-0.95415
  -4  -1  13  331.88  112.52   1-0.67130 0.35352-0.70174 0.73615 0.23853 0.57714
   4   1 -13  642.71  170.61   1-0.45858 0.77697 0.57888-0.61355-0.67423-0.14091
   4   1 -13  203.87   96.86   1-0.56144 0.87945 0.42947-0.46331-0.70733-0.10909
  -4  -1  12 2044.81  164.82   1-0.61364 0.27976-0.76230 0.78885 0.20572 0.54721
   4   1 -12 2228.79  191.35   1-0.45745 0.79189 0.57892-0.60572-0.67496-0.07748
   4   1 -12 1753.59  158.74   1-0.55901 0.89314 0.42197-0.44798-0.71375-0.03988
  -4  -1  11 1854.51  169.40   1-0.55618 0.20619-0.81262 0.83131 0.17404 0.51613
   4   1 -11 1403.34  195.09   1-0.45089 0.80138 0.57914-0.59806-0.67917-0.01056
   4   1 -11 1829.69  151.22   1-0.55408 0.90434 0.40714-0.42534-0.72610 0.03527
  -4  -1  10   88.96   81.46   1-0.50017 0.13413-0.85396 0.86447 0.14341 0.48445
   4   1 -10  167.67  104.34   1-0.43826 0.80479 0.57946-0.59050-0.68712 0.06009
   4   1 -10  301.18   85.05   1-0.54558 0.91197 0.38265-0.39304-0.74559 0.11756
  -4  -1   9 3769.32  242.33   1-0.44548 0.06336-0.88791 0.89058 0.11469 0.45038
   4   1  -9 4011.62  227.56   1-0.41876 0.80133 0.57969-0.58285-0.69899 0.13466
   4   1  -9 3317.08  177.89   1-0.53171 0.91422 0.34503-0.34760-0.77345 0.20822
  -4  -1   8 1138.78  153.31   1-0.39330-0.00490-0.91520 0.91004 0.08781 0.41448
   4   1  -8 1720.99  192.83   1-0.39140 0.79003 0.57951-0.57480-0.71481 0.21318
   4   1  -8 1377.21  154.55   1-0.50938 0.90802 0.28909-0.28384-0.81052 0.30810
  -4  -1   710611.26  337.98   1-0.34428-0.07001-0.93675 0.92375 0.06298 0.37652
   4   1  -710658.89  318.13   1-0.35530 0.76962 0.57809-0.56564-0.73455 0.29616
   4   1  -710784.46  272.55   1-0.47360 0.88818 0.20656-0.19298-0.85617 0.41699
  -4  -1   610739.44  376.42   1-0.29902-0.13161-0.95336 0.93281 0.04109 0.33546
   4   1  -611872.16  393.13   1-0.30877 0.73914 0.57532-0.55498-0.75740 0.38164
   4   1  -610282.57  304.94   1-0.41533 0.84599 0.08917-0.06786-0.90528 0.52885
  -4  -1   6 9638.17  280.85   1-0.59200 0.16115 0.78091-0.80166-0.19924 0.57564
  -4  -1   510214.75  419.51   1-0.25827-0.18845-0.96584 0.93742 0.02101 0.29278
   4   1  -5 8816.73  346.01   1-0.25097 0.69738 0.56985-0.54162-0.78248 0.46934
   4   1  -511012.92  383.39   1-0.32325 0.76993-0.07359 0.10252-0.94344 0.62983
  -4  -1   510022.47  345.58   1-0.60524 0.15901 0.72879-0.75719-0.32022 0.63353
  -4  -1   421887.54  762.65   1-0.22251-0.24029-0.97492 0.93862 0.00358 0.24745
   4   1  -423587.71  802.79   1-0.18105 0.64352 0.56039-0.52428-0.80819 0.55768
   4   1  -422492.86  731.10   1-0.18750 0.65039-0.27916 0.31571-0.94175 0.69087
  -4  -1   421862.08  709.54   1-0.60627 0.14403 0.64057-0.67682-0.47126 0.72191
  -4  -1   3  801.36  127.50   1-0.19232-0.28657-0.98126 0.93710-0.01099 0.19927
   4   1  -3  858.11   71.96   1-0.01759 0.49633-0.49406 0.53838-0.86924 0.68102
  -4  -1   3  590.82   54.84   1-0.57955 0.10030 0.49236-0.53670-0.64937 0.83778
  -4  -1   2   64.84   95.71   1-0.16825-0.32673-0.98548 0.93344-0.02253 0.14805
   4   1  -2   27.40   50.75   1-0.00493 0.49939 0.52315-0.47129-0.85222 0.72697
   4   1  -2  107.95   43.37   1 0.15136 0.34357-0.66746 0.71951-0.72909 0.60353
  -4  -1   2   92.39   43.19   1-0.50303 0.00764 0.27402-0.32616-0.81967 0.94528
  -4  -1   1  227.06  137.50   1-0.15085-0.36021-0.98807 0.92816-0.03082 0.09358
   4   1  -1  459.84   90.72   1 0.09882 0.41167 0.49315-0.43338-0.86430 0.80168
   4   1  -1  393.24   70.59   1 0.28333 0.22774-0.77127 0.83118-0.56995 0.50720
  -4  -1   1  177.97   50.90   1-0.37912-0.13193 0.02261-0.08262-0.92506 0.98780
  -4  -1   0 1242.56  160.74   1-0.14071-0.38644-0.98940 0.92162-0.03564 0.03564
   4   1   0 1351.36  223.22   1 0.20930 0.31734 0.45424-0.38656-0.86594 0.86594
   4   1   0 1511.69  196.99   1 0.37369 0.15343-0.82292 0.89068-0.42795 0.42795
  -4  -1   0 1289.58  108.15   1-0.24214-0.28480-0.19981 0.13209-0.94944 0.94944
  -4  -1  -1  803.95  137.73   1-0.13844-0.40481-0.98968 0.91403-0.03672-0.02603
   4   1   1 1043.47  153.73   1 0.32230 0.22042 0.40680-0.33121-0.85476 0.91744
   4   1   1  880.65  137.00   1 0.43417 0.10892-0.84522 0.92088-0.31157 0.37430
  -4  -1  -1  739.48   76.94   1-0.12303-0.42001-0.36524 0.28973-0.92274 0.86002
  -4  -1  -2  328.77  119.12   1-0.14473-0.41460-0.98889 0.90536-0.03373-0.09178
   4   1   2  122.52   60.71   1 0.43313 0.12589 0.35258-0.26911-0.82950 0.95484
   4   1   2    6.14   34.08   1 0.47597 0.08319-0.85214 0.93567-0.21747 0.34291
  -4  -1  -3  145.97   80.78   1-0.16044-0.41498-0.98669 0.89528-0.02626-0.16201
   4   1   3  116.37   56.87   1 0.53787 0.03723 0.29134-0.20000-0.79108 0.97908
   4   1   3   77.95   28.33   1 0.50629 0.06902-0.85104 0.94232-0.13922 0.32749
  -4  -1  -4 4226.37  169.32   1-0.18666-0.40485-0.98232 0.88304-0.01371-0.23731
  -4  -1  -4 4716.27  216.68   1-0.63378 0.04237-0.22465 0.12539 0.74016-0.99120
   4   1   4 5047.06  178.50   1 0.52934 0.06206-0.84538 0.94451-0.07152 0.32255
  -4  -1  -519715.16  653.20   1-0.22489-0.38271-0.97437 0.86721 0.00473-0.31853
  -4  -1  -520801.86  708.75   1-0.71728 0.10977-0.15672 0.04959 0.67892-0.99271
   4   1   520651.07  687.51   1 0.54744 0.06005-0.83676 0.94373-0.01140 0.32519
  -4  -1  -6 6483.32  358.52   1-0.27737-0.34631-0.96028 0.84525 0.03039-0.40694
  -4  -1  -6 7441.45  432.11   1-0.78780 0.16453-0.08894-0.02596 0.60946-0.98602
  -4  -1  -7   72.03   40.57   1-0.34780-0.29197-0.93528 0.81238 0.06544-0.50476
  -4  -1  -7  172.57   85.21   1-0.84518 0.20583-0.02175-0.10101 0.53403-0.97335
  -4  -1  -8  570.92  137.98   1-0.88970 0.23445 0.04308-0.17372 0.45449-0.95647
  -4  -1  -9  181.55  100.22   1-0.92220 0.25087 0.10558-0.24409 0.37200-0.93673
  -4  -1  -9  253.78  109.91   1-0.59036-0.08137 0.78480-0.92302-0.18855-0.37604
  -4  -2  13 1092.53  120.93   1-0.60537 0.28191-0.77012 0.73676 0.20109 0.61457
   4   2 -13  916.92  223.59   1-0.49830 0.82234 0.57674-0.54368-0.64735-0.16779
   4   2 -13 1234.54  142.31   1-0.57051 0.89420 0.46035-0.42639-0.68013-0.13630
  -4  -2  12  439.07  124.56   1-0.54070 0.20119-0.82484 0.78319 0.16510 0.58832
   4   2 -12  348.03  100.34   1-0.49770 0.83780 0.57678-0.53584-0.64777-0.10467
   4   2 -12  251.83   90.51   1-0.56867 0.90847 0.45417-0.41239-0.68581-0.06781
  -4  -2  11 1775.81  131.75   1-0.47660 0.12100-0.86930 0.81982 0.13096 0.55969
   4   2 -11 2280.71  180.93   1-0.49203 0.84816 0.57717-0.52836-0.65174-0.03799
   4   2 -11 2007.83  142.49   1-0.56447 0.92040 0.44050-0.39090-0.69808 0.00726
  -4  -2  10  169.93   83.34   1-0.41442 0.04273-0.90472 0.84740 0.09863 0.52923
   4   2 -10  185.84   83.75   1-0.48064 0.85282 0.57786-0.52118-0.65958 0.03254
   4   2 -10  219.42   67.71   1-0.55704 0.92907 0.41599-0.35859-0.71878 0.09075
  -4  -2   9 4002.86  237.96   1-0.35487-0.03289-0.93241 0.86726 0.06831 0.49676
   4   2  -9 4626.73  259.65   1-0.46273 0.85096 0.57872-0.51416-0.67152 0.10719
   4   2  -9 4253.20  203.84   1-0.54376 0.93191 0.37757-0.31235-0.74950 0.18427
  -4  -2   8  439.95  100.84   1-0.29848-0.10564-0.95354 0.88095 0.04082 0.46125
   4   2  -8  774.74  120.04   1-0.43731 0.84159 0.57947-0.50703-0.68772 0.18609
   4   2  -8 1034.59  130.79   1-0.52102 0.92529 0.31762-0.24459-0.79224 0.28982
  -4  -2   7 2367.26  230.95   1-0.24613-0.17408-0.96911 0.88865 0.01507 0.42424
   4   2  -7 2469.16  220.17   1-0.40319 0.82352 0.57966-0.49934-0.70811 0.26918
   4   2  -7 1919.59  133.04   1 0.52687-0.10673-0.84624 0.92679-0.07921-0.36008
   4   2  -7 2134.09  158.66   1-0.48134 0.90174 0.22471-0.14386-0.84723 0.40761
  -4  -2   6 2572.34  205.09   1-0.19820-0.23809-0.98012 0.89179-0.00816 0.38472
   4   2  -6 2614.70  188.48   1-0.35918 0.79522 0.57825-0.49024-0.73253 0.35677
   4   2  -6 2085.12  112.48   1 0.54648-0.11025-0.83734 0.92573-0.01480-0.36173
   4   2  -6 2704.23  156.65   1-0.41048 0.84674 0.08000 0.00905-0.90835 0.53191
  -4  -2   5125062.9 3127.63   1-0.15520-0.29718-0.98746 0.89125-0.02875 0.34255
   4   2  -5125955.8 3139.35   1-0.30358 0.75566 0.57492-0.47901-0.75980 0.44666
   4   2  -5127312.6 3118.05   1-0.28361 0.73591-0.13691 0.23357-0.94911 0.63550
  -4  -2   4 1631.13  234.73   1-0.11763-0.35084-0.99196 0.88788-0.04655 0.29759
   4   2  -4 1587.73  159.44   1-0.23537 0.70349 0.56800-0.46421-0.78864 0.53814
   4   2  -4 1364.52  108.04   1-0.07552 0.54402-0.42478 0.52905-0.90213 0.65125
  -4  -2   4 1515.75  119.51   1-0.59135 0.12274 0.78249-0.88663-0.19495 0.44588
  -4  -2   3  849.41  129.84   1-0.08591-0.39853-0.99433 0.88217-0.06257 0.25086
   4   2  -3  694.99  101.98   1-0.15380 0.63797 0.55590-0.44422-0.81689 0.62901
   4   2  -3  919.82   73.95   1 0.18069 0.30382-0.69311 0.80506-0.69781 0.50947
  -4  -2   3  700.38   63.32   1-0.60809 0.12416 0.67844-0.79014-0.41222 0.60021
  -4  -2   2  816.26  114.62   1-0.06051-0.44003-0.99538 0.87544-0.07440 0.19993
   4   2  -2 1131.95  184.06   1-0.05901 0.55913 0.53634-0.41680-0.84193 0.71668
   4   2  -2 1141.36  116.74   1 0.36566 0.13498-0.81914 0.93896-0.44192 0.31642
  -4  -2   2  950.08   79.61   1-0.56084 0.05984 0.42904-0.54899-0.70807 0.83367
  -4  -2   1  146.60  101.63   1-0.04184-0.47480-0.99566 0.86792-0.08306 0.14582
   4   2  -1  141.75   45.42   1 0.04772 0.46844 0.50870-0.38126-0.85961 0.79699
   4   2  -1   49.04   23.65   1 0.45591 0.06071-0.84985 0.97757-0.26435 0.20163
  -4  -2   1   64.36   36.68   1-0.40645-0.11021 0.07246-0.20022-0.91079 0.97353
  -4  -2   0 5936.57  302.43   1-0.03032-0.50241-0.99562 0.86009-0.08837 0.08837
   4   2   0 5856.96  243.80   1 0.16353 0.36874 0.47117-0.33582-0.86674 0.86674
   4   2   0 5647.01  206.71   1 0.50020 0.03252-0.85176 0.98724-0.15581 0.15581
  -4  -2   0 5427.50  193.18   1-0.22707-0.30549-0.22190 0.08645-0.94825 0.94825
  -4  -2  -1  198.16   98.00   1-0.02643-0.52239-0.99557 0.85226-0.09016 0.02740
   4   2   1  447.45   83.81   1 0.28406 0.26429 0.42378-0.28051-0.86006 0.92274
   4   2   1  443.91   63.24   1 0.52680 0.02201-0.84626 0.98959-0.07943 0.14219
  -4  -2  -1  440.29   48.51   1-0.08515-0.46351-0.41297 0.26974-0.90675 0.84403
  -4  -2  -2  353.22  135.29   1-0.03071-0.53421-0.99562 0.84452-0.08819-0.03733
   4   2   2  152.99   84.25   1 0.40385 0.16080 0.36802-0.21686-0.83752 0.96286
   4   2   2  118.16   53.89   1 0.54519 0.01971-0.83808 0.98926-0.01930 0.14481
  -4  -2  -2   18.99   24.96   1 0.01349-0.57817-0.52875 0.37777-0.84866 0.72318
  -4  -2  -3  398.62   98.13   1-0.04385-0.53717-0.99565 0.83676-0.08213-0.10616
   4   2   3  536.10   78.61   1 0.51827 0.06247 0.30357-0.14452-0.79952 0.98752
  -4  -2  -4 5403.80  246.42   1-0.06672-0.53039-0.99520 0.82852-0.07152-0.17953
  -4  -2  -4 5467.30  237.94   1-0.62355 0.02650-0.23225 0.06521 0.74648-0.99751
  -4  -2  -548910.49 1427.89   1-0.10060-0.51261-0.99336 0.81889-0.05569-0.25813
  -4  -2  -551947.56 1524.63   1-0.71498 0.10183-0.15876-0.01614 0.68087-0.99466
  -4  -2  -610689.32  567.66   1-0.14725-0.48209-0.98856 0.80575-0.03253-0.34401
  -4  -2  -610870.99  591.05   1-0.79143 0.16253-0.08506-0.09763 0.60529-0.98186
  -4  -2  -7  904.66  142.78   1-0.20978-0.43566-0.97774 0.78705-0.00258-0.43673
  -4  -2  -7  887.62  154.51   1-0.85258 0.20761-0.01193-0.17861 0.52244-0.96176
  -4  -2  -7  763.35  146.47   1-0.59244-0.05281 0.77980-0.97009-0.20223-0.23689
  -4  -2  -8 1981.04  134.86   1-0.89864 0.23774 0.05845-0.25687 0.43476-0.93674
  -4  -2  -8 1350.04  166.33   1-0.59759-0.06373 0.76495-0.96307-0.24027-0.26159
  -4  -2  -9  989.99  149.54   1-0.60168-0.07569 0.74896-0.95491-0.27753-0.28706
  -4  -3  13  307.07  102.76   1-0.53475 0.20567-0.82935 0.72770 0.16189 0.65432
   4   3 -13  239.36  104.72   1-0.53027 0.85997 0.57396-0.47317-0.62399-0.19115
   4   3 -13  894.85  169.07   1-0.57844 0.90776 0.48827-0.38652-0.65344-0.16298
  -4  -3  12  178.78   81.48   1-0.46330 0.11813-0.87748 0.76800 0.12398 0.62945
   4   3 -12   44.91   71.20   1-0.53004 0.87579 0.57398-0.46532-0.62417-0.12827
   4   3 -12   99.50   81.17   1-0.57712 0.92255 0.48343-0.37386-0.65819-0.09543
  -4  -3  11 4955.26  343.19   1-0.39412 0.03287-0.91481 0.79750 0.08822 0.60242
   4   3 -11 4684.92  334.30   1-0.52503 0.88682 0.57448-0.45794-0.62793-0.06180
   4   3 -11 4462.47  294.15   1-0.57361 0.93517 0.47097-0.35359-0.67018-0.02064
  -4  -3  10  447.87  155.49   1-0.32764-0.04997-0.94317 0.81855 0.05533 0.57225
   4   3 -10  395.12  144.41   1-0.51462 0.89246 0.57544-0.45103-0.63562 0.00859
   4   3 -10  226.77   80.72   1-0.56672 0.94440 0.44778-0.32258-0.69159 0.06357
  -4  -3   9  400.11  132.18   1-0.26502-0.12868-0.96393 0.83143 0.02432 0.54051
   4   3  -9  803.36  149.86   1-0.49803 0.89192 0.57676-0.44446-0.64754 0.08320
   4   3  -9  164.39   76.76   1-0.55426 0.94805 0.40767-0.27468-0.72566 0.16043
  -4  -3   8  113.87   92.82   1-0.20647-0.20332-0.97844 0.83807-0.00418 0.50625
   4   3  -8  183.20  101.70   1-0.47425 0.88418 0.57820-0.43803-0.66389 0.16226
   4   3  -8  180.80   83.06   1-0.53076 0.94068 0.34255-0.20174-0.77520 0.27277
  -4  -3   7 3861.46  198.33   1-0.15247-0.27340-0.98785 0.83960-0.03005 0.46937
   4   3  -7 3917.65  185.00   1-0.44207 0.86805 0.57937-0.43133-0.68475 0.24583
   4   3  -7 3361.20  246.14   1 0.43092-0.00501-0.84436 0.99267-0.31836-0.12068
   4   3  -7 4448.77  147.57   1-0.48519 0.91123 0.23322-0.08460-0.84273 0.40311
  -4  -3   625357.12  609.13   1-0.10352-0.33830-0.99314 0.83658-0.05431 0.43090
   4   3  -625348.75  494.53   1 0.42483 0.01713-0.84264 0.99881-0.33086-0.04545
   4   3  -627415.82  531.94   1-0.38935 0.83122 0.04099 0.11581-0.92017 0.54374
  -4  -3   535147.77  956.48   1-0.05992-0.39799-0.99540 0.83105-0.07468 0.38850
   4   3  -535008.53  940.12   1-0.34674 0.80448 0.57769-0.41411-0.73894 0.42580
   4   3  -532945.61  811.87   1 0.38888 0.06915-0.82978 0.99383-0.40027 0.08667
   4   3  -535585.14  877.68   1-0.16224 0.62033-0.31364 0.47784-0.93557 0.62196
  -4  -3   4 8807.24  359.11   1-0.02206-0.45195-0.99549 0.82336-0.09217 0.34323
   4   3  -4 8336.79  306.36   1-0.28040 0.75419 0.57291-0.40143-0.77015 0.51965
  -4  -3   3 1152.84  178.60   1 0.00973-0.49984-0.99424 0.81431-0.10672 0.29502
   4   3  -3 1317.24  115.06   1-0.19996 0.68980 0.56325-0.38388-0.80172 0.61384
  -4  -3   2 4095.69  217.28   1 0.03517-0.54138-0.99235 0.80464-0.11828 0.24381
   4   3  -2 3829.06  491.85   1-0.10492 0.61070 0.54622-0.35901-0.83104 0.70579
  -4  -3   1  824.90  132.82   1 0.05398-0.57629-0.99046 0.79496-0.12677 0.18953
   4   3  -1  660.52  158.17   1 0.00396 0.51786 0.52082-0.32570-0.85365 0.79103
  -4  -3   1  677.35   39.06   1-0.50182-0.02097 0.27117-0.46669-0.82136 0.88416
  -4  -3   1  708.24   40.55   1-0.60773 0.08610 0.69994-0.89493-0.37514 0.43780
  -4  -3   0  315.29  111.36   1 0.06586-0.60426-0.98904 0.78575-0.13211 0.13211
   4   3   0  362.62   77.48   1 0.12433 0.41357 0.48468-0.28166-0.86580 0.86580
  -4  -3   0  225.17   29.16   1-0.21871-0.31953-0.23513 0.03197-0.94703 0.94703
  -4  -3   0  301.30   46.48   1-0.59699 0.05850 0.76692-0.97012-0.23542 0.23542
  -4  -3  -1 1738.27  165.35   1 0.07047-0.62497-0.98844 0.77736-0.13418 0.07141
   4   3   1 1997.52  380.65   1 0.25185 0.30213 0.43734-0.22640-0.86330 0.92598
  -4  -3  -1 1608.98  111.61   1-0.04435-0.50987-0.46315 0.25227-0.88516 0.82242
  -4  -3  -1 1644.52  128.57   1-0.59332 0.03877 0.77756-0.98859-0.20824 0.14550
  -4  -3  -2  384.64  136.64   1 0.06743-0.63803-0.98884 0.76997-0.13281 0.00728
   4   3   2  215.17   68.46   1 0.38043 0.18988 0.37991-0.16105-0.84317 0.96850
  -4  -3  -2  138.90   34.28   1 0.05980-0.63009-0.57792 0.35925-0.81389 0.68841
  -4  -3  -2  115.89   63.94   1-0.59338 0.02277 0.77740-0.99627-0.20864 0.08318
  -4  -3  -3 2042.60  156.27   1 0.05621-0.64290-0.99020 0.76355-0.12777-0.06051
   4   3   3 2385.27  106.14   1 0.50469 0.08170 0.31182-0.08508-0.80501 0.99301
  -4  -3  -3 2024.39  113.04   1-0.59508 0.00841 0.77273-0.99943-0.22081 0.03261
  -4  -3  -4 6457.84  288.92   1 0.03610-0.63888-0.99227 0.75782-0.11870-0.13235
  -4  -3  -4 6127.54  266.43   1-0.61967 0.01699-0.23509 0.00028 0.74881-0.99985
  -4  -3  -4 6042.97  256.85   1-0.59746-0.00526 0.76538-0.99991-0.23920-0.01172
  -4  -3  -5  851.97  107.50   1 0.00609-0.62497-0.99444 0.75221-0.10507-0.20875
  -4  -3  -5  797.84  114.79   1-0.71921 0.10042-0.15502-0.08766 0.67727-0.99107
  -4  -3  -5 1008.43  123.78   1-0.60002-0.01876 0.75609-0.99845-0.26133-0.05233
  -4  -3  -6  816.04  138.12   1-0.03528-0.59969-0.99566 0.74563-0.08608-0.29050
  -4  -3  -6 1156.61  161.74   1-0.80137 0.16683-0.07423-0.17625 0.59354-0.97010
  -4  -3  -6 1160.33  180.12   1-0.60247-0.03236 0.74517-0.99536-0.28588-0.09050
  -4  -3  -7  522.27  110.00   1-0.09037-0.56069-0.99406 0.73625-0.06048-0.37886
  -4  -3  -7  784.30  160.21   1-0.86550 0.21489 0.00602-0.26436 0.50085-0.94017
  -4  -3  -7  438.91  131.67   1-0.60462-0.04505 0.73312-0.99084-0.31137-0.12725
  -4  -3  -8   40.27   80.35   1-0.60634-0.05934 0.71937-0.98493-0.33889-0.16240
  -4  -4  13 2017.65  164.58   1-0.46103 0.12630-0.87884 0.70937 0.12279 0.69342
   4   4 -13 2213.90  200.39   1-0.55546 0.89081 0.57106-0.40254-0.60444-0.21070
   4   4 -13 2046.29  168.68   1-0.58497 0.91991 0.51336-0.34382-0.62790-0.18852
  -4  -4  12 1134.43  243.44   1-0.38513 0.03432-0.91906 0.74175 0.08364 0.66979
   4   4 -12 1575.09  179.65   1-0.55542 0.90682 0.57106-0.39467-0.60447-0.14797
   4   4 -12 1227.51  133.98   1-0.58409 0.93516 0.50987-0.33251-0.63155-0.12207
  -4  -4  11  153.90   88.83   1-0.31238-0.05481-0.94875 0.76421 0.04772 0.64262
   4   4 -11  209.29   95.50   1-0.55085 0.91830 0.57164-0.38737-0.60810-0.08163
  -4  -4  10  471.90  125.80   1-0.24399-0.13928-0.96967 0.77726 0.01402 0.61356
   4   4 -10 1141.31  154.08   1-0.54115 0.92465 0.57278-0.38064-0.61568-0.01135
   4   4 -10  842.37   95.32   1-0.57506 0.95836 0.47607-0.28308-0.66531 0.03729
  -4  -4   9  283.79  132.56   1-0.18001-0.21935-0.98351 0.78323-0.01690 0.58174
   4   4  -9   59.31  102.10   1-0.52556 0.92510 0.57443-0.37441-0.62754 0.06321
   4   4  -9  101.77   60.62   1-0.56290 0.96232 0.43551-0.23470-0.70246 0.13724
  -4  -4   8 1512.72  156.24   1-0.12083-0.29462-0.99164 0.78349-0.04504 0.54711
   4   4  -8 1705.02  167.11   1-0.50307 0.91866 0.57638-0.36849-0.64396 0.14233
   4   4  -8 1843.88  179.88   1-0.53812 0.95368 0.36210-0.15351-0.76111 0.25869
  -4  -4   749064.73 1453.12   1-0.06697-0.36442-0.99519 0.77866-0.07140 0.51076
   4   4  -751923.27 1469.83   1-0.48152 0.91320 0.22509-0.00869-0.84703 0.40741
  -4  -4   613266.51  419.70   1-0.01842-0.42906-0.99541 0.77109-0.09384 0.47043
   4   4  -614334.81  420.48   1-0.43228 0.87997 0.57956-0.35591-0.69081 0.31459
   4   4  -612533.64  280.48   1 0.12704 0.32057-0.64520 0.86909-0.75337 0.37670
  -4  -4   5 3494.98  236.92   1 0.02440-0.48799-0.99324 0.76113-0.11340 0.42722
   4   4  -5 3435.94  197.45   1-0.38082 0.84455 0.57929-0.34777-0.72068 0.40716
  -4  -4   419944.08  500.35   1 0.06131-0.54099-0.98960 0.74970-0.13006 0.38112
   4   4  -419468.20  468.94   1-0.31631 0.79577 0.57587-0.33672-0.75386 0.50335
  -4  -4   3 9264.28  334.05   1 0.09210-0.58788-0.98530 0.73761-0.14384 0.33213
   4   4  -3 9877.49  326.72   1-0.23712 0.73262 0.56822-0.32117-0.78796 0.60008
  -4  -4   2  295.68  129.21   1 0.11661-0.62848-0.98105 0.72557-0.15471 0.28024
   4   4  -2   44.69   59.29   1-0.14226 0.65380 0.55386-0.29893-0.82035 0.69510
   4   4  -111128.30  294.13   1-0.03166 0.55916 0.52988-0.26709-0.84747 0.78485
   4   4   0  369.52   61.87   1 0.09259 0.45095 0.49513-0.22444-0.86386 0.86386
  -4  -4   0  116.07   26.00   1-0.23356-0.31026-0.21244-0.05845-0.94884 0.94884
  -4  -4   0  217.86   38.32   1-0.57265 0.02815 0.46763-0.73879-0.67333 0.67333
   4   4   1 3988.16  179.67   1-0.15067 0.71052 0.97391-0.69549 0.16963-0.10695
   4   4   1 3791.48  335.60   1 0.22680 0.33280 0.44742-0.16880-0.86508 0.92776
  -4  -4  -1 3284.95  102.40   1-0.00176-0.55808-0.51189 0.23331-0.85904 0.79630
  -4  -4  -1 3398.11  116.24   1-0.60405 0.04471 0.61885-0.89714-0.50213 0.43947
   4   4   2  377.17   82.98   1-0.14822 0.72418 0.97448-0.68825 0.16856-0.04320
   4   4   2  290.12   58.29   1 0.36472 0.21097 0.38679-0.10026-0.84697 0.97233
  -4  -4  -2  203.25   30.94   1 0.10651-0.68280-0.62573 0.33903-0.77273 0.64717
  -4  -4  -2  360.17   53.53   1-0.60773 0.03239 0.66392-0.95004-0.43573 0.31041
   4   4   3 9928.22  353.83   1 0.49858 0.09346 0.31548-0.02104-0.80739 0.99540
  -4  -4  -3 9359.61  335.90   1-0.60811 0.01676 0.68162-0.97559-0.40692 0.21893
  -4  -4  -4  985.42  123.87   1 0.12037-0.72882-0.98033 0.67812-0.15638-0.09467
  -4  -4  -4  977.63   91.64   1-0.62376 0.01545-0.23210-0.07048 0.74635-0.99739
  -4  -4  -4 1343.26  115.76   1-0.60808 0.00072 0.68740-0.98921-0.39712 0.14648
  -4  -4  -5  953.95  155.50   1 0.09348-0.71803-0.98508 0.67508-0.14445-0.16936
  -4  -4  -5  928.29  139.53   1-0.73161 0.10719-0.14382-0.16663 0.66637-0.98017
  -4  -4  -5  542.46  145.69   1-0.60809-0.01526 0.68659-0.99624-0.39851 0.08520
  -4  -4  -6 4091.16  268.90   1 0.05654-0.69718-0.99017 0.67238-0.12792-0.24866
  -4  -4  -6 4096.46  260.73   1-0.81904 0.17887-0.05406-0.26420 0.57117-0.94773
  -4  -4  -6 4219.27  285.22   1-0.60811-0.03125 0.68153-0.99902-0.40707 0.03110
  -4  -4  -7  261.47   96.88   1 0.00769-0.66443-0.99435 0.66878-0.10580-0.33355
  -4  -4  -7  352.25  128.72   1-0.60802-0.04735 0.67337-0.99871-0.42055-0.01807
  -4  -4  -8  371.63  152.46   1-0.60768-0.06369 0.66275-0.99593-0.43757-0.06372
  -4  -5  13  171.05   99.47   1-0.38782 0.04745-0.91780 0.68050 0.08501 0.73120
   4   5 -13  143.01   94.51   1-0.57465 0.91566 0.56839-0.33216-0.58880-0.22633
  -4  -5  12 1174.07  116.97   1-0.30896-0.04780-0.94995 0.70550 0.04602 0.70708
   4   5 -12 1005.09  260.21   1-0.57464 0.93169 0.56840-0.32428-0.58881-0.16362
  -4  -5  11  382.56  120.04   1-0.23517-0.13768-0.97190 0.71958 0.00973 0.68062
   4   5 -11  869.57  182.36   1-0.57029 0.94340 0.56903-0.31704-0.59241-0.09732
   4   5 -11  731.54  148.47   1-0.58729 0.96010 0.52290-0.26994-0.61778-0.07304
  -4  -5  10   23.89   84.34   1-0.16625-0.22268-0.98580 0.72560-0.02348 0.65108
   4   5 -10  130.78   81.17   1-0.56104 0.95020 0.57032-0.31045-0.59995-0.02707
   4   5 -10  108.09   48.62   1-0.58176 0.97069 0.50074-0.23996-0.64093 0.01291
  -4  -5   9  372.50  175.86   1-0.10276-0.30210-0.99320 0.72448-0.05467 0.61955
   4   5  -9  175.64  137.01   1-0.54614 0.95133 0.57221-0.30446-0.61180 0.04747
   4   5  -9  238.75   73.01   1-0.56983 0.97488 0.45807-0.18947-0.68224 0.11701
  -4  -5   8  197.95   96.05   1-0.04442-0.37654-0.99565 0.71914-0.08186 0.58398
   4   5  -8  396.75  116.07   1-0.52459 0.94584 0.57452-0.29890-0.62826 0.12663
   4   5  -8  132.96   51.24   1-0.54205 0.96325 0.37282-0.09645-0.75310 0.25068
  -4  -5   741906.79 1357.21   1 0.00831-0.44537-0.99432 0.71002-0.10608 0.54543
   4   5  -741363.44 1334.29   1-0.49518 0.93248 0.57696-0.29346-0.64954 0.21061
   4   5  -737824.17 1151.62   1-0.45697 0.89398 0.17152 0.11304-0.87278 0.43360
  -4  -5   6  561.10  166.12   1 0.05528-0.50844-0.99031 0.69823-0.12735 0.50394
   4   5  -6  371.02  119.37   1-0.45640 0.90974 0.57896-0.28759-0.67564 0.29941
  -4  -5   510669.54  390.54   1 0.09636-0.56561-0.98461 0.68474-0.14573 0.45956
   4   5  -510003.55  319.71   1-0.40648 0.87587 0.57968-0.28043-0.70621 0.39269
  -4  -5   4 2722.94  173.35   1 0.13147-0.61682-0.97811 0.67045-0.16127 0.41233
   4   5  -4 2667.00  159.83   1-0.34344 0.82856 0.57752-0.27069-0.74061 0.49010
   4   5  -3 2213.70  155.90   1-0.16044 0.66158 0.97160-0.65672 0.17391-0.36195
   4   5  -3 2042.10  166.13   1-0.26535 0.76651 0.57141-0.25669-0.77657 0.58869
   4   5  -2 1844.06  189.05   1-0.17067 0.68788 0.55873-0.23612-0.81159 0.68633
   4   5  -1 1370.24  185.75   1-0.20020 0.73354 0.96091-0.63043 0.19120-0.25388
   4   5  -1 1565.72  239.19   1-0.05861 0.59177 0.53625-0.20579-0.84202 0.77939
   4   5   0  194.62   81.04   1-0.21078 0.76023 0.95772-0.61944 0.19576-0.19576
   4   5   0  235.72   48.86   1 0.06936 0.47983 0.50230-0.16393-0.86190 0.86190
   4   5   1  235.86  107.91   1-0.21502 0.78057 0.95641-0.61032 0.19759-0.13491
   4   5   1  102.69   34.67   1 0.21009 0.35515 0.45393-0.10764-0.86590 0.92859
  -4  -5  -1   98.58   33.38   1-0.54683-0.01948 0.38619-0.73291-0.74284 0.68004
   4   5   2  451.80   87.41   1-0.21271 0.79436 0.95713-0.60324 0.19659-0.07123
   4   5   2  960.91   96.93   1 0.35715 0.22416 0.39045-0.03624-0.84851 0.97387
  -4  -5  -2  472.01   59.57   1-0.58286 0.00050 0.50501-0.85959-0.63657 0.51096
   4   5   3 1300.84   98.15   1-0.20355 0.80130 0.95992-0.59823 0.19264-0.00460
   4   5   3 1303.70   89.72   1 0.50168 0.09600 0.31363 0.04851-0.80619 0.99419
  -4  -5  -3 1091.45   96.54   1-0.59515-0.00332 0.55876-0.92116-0.57755 0.38915
   4   5   4 2105.51  163.12   1-0.18709 0.80094 0.96466-0.59517 0.18552 0.06519
  -4  -5  -4 1939.95  160.00   1-0.63793 0.02398-0.22153-0.14882 0.73753-0.98857
  -4  -5  -4 2043.09  156.31   1-0.60004-0.01454 0.58551-0.95573-0.54508 0.29387
   4   5   5 1148.94  185.86   1-0.16267 0.79262 0.97105-0.59377 0.17489 0.13850
  -4  -5  -5  974.61  156.51   1-0.75444 0.12439-0.12232-0.25590 0.64486-0.95866
  -4  -5  -5  838.69  166.01   1-0.60204-0.02866 0.59818-0.97622-0.52887 0.21486
  -4  -5  -6  107.07   88.15   1 0.12930-0.77560-0.97855 0.59301-0.16031-0.21626
  -4  -5  -6  372.68  111.34   1-0.60265-0.04417 0.60235-0.98820-0.52342 0.14661
  -4  -5  -7  256.96   82.49   1 0.08543-0.74783-0.98633 0.59299-0.14086-0.29848
  -4  -5  -7  316.80  142.55   1-0.60243-0.06052 0.60079-0.99446-0.52546 0.08585
  -4  -6  12  300.74  141.91   1-0.23822-0.12421-0.97114 0.65890 0.01121 0.74189
   4   6 -12  307.48  142.72   1-0.58866 0.95071 0.56711-0.25493-0.57606-0.17649
  -4  -6  11 2757.75  184.46   1-0.16456-0.21395-0.98606 0.66595-0.02429 0.71464
   4   6 -11 2853.01  193.61   1-0.58406 0.96282 0.56694-0.24722-0.58089-0.10884
  -4  -6  10  171.26  117.42   1-0.09690-0.29753-0.99363 0.66494-0.05742 0.68507
  -4  -6   9 1063.88  176.46   1-0.03461-0.37592-0.99565 0.65917-0.08639 0.65128
   4   6  -9  849.36  144.14   1-0.56048 0.97134 0.57040-0.23493-0.60041 0.03607
  -4  -6   8 8508.70  484.23   1 0.02185-0.44848-0.99344 0.64917-0.11224 0.61436
   4   6  -8 8383.46  479.76   1-0.53952 0.96642 0.57297-0.22962-0.61694 0.11531
  -4  -6   7 4304.38  258.62   1 0.07243-0.51516-0.98818 0.63612-0.13505 0.57441
   4   6  -7 3431.04  224.16   1-0.51089 0.95384 0.57576-0.22453-0.63834 0.19941
  -4  -6   6 3475.74  219.40   1 0.11710-0.57593-0.98095 0.62111-0.15493 0.53152
   4   6  -6 3429.05  192.60   1-0.47307 0.93207 0.57826-0.21916-0.66468 0.28846
   4   6  -5 2104.57  144.81   1-0.15584 0.63048 0.97270-0.60577 0.17190-0.48530
   4   6  -5 1853.68  158.00   1-0.42423 0.89927 0.57965-0.21268-0.69571 0.38219
   4   6  -4 5947.33  278.07   1-0.18866 0.67940 0.96422-0.58949 0.18620-0.43692
   4   6  -4 5971.31  260.89   1-0.36222 0.85300 0.57837-0.20386-0.73094 0.48043
   4   6  -320406.39  669.69   1-0.21563 0.72247 0.95621-0.57368 0.19785-0.38589
   4   6  -321445.84  672.66   1-0.28485 0.79168 0.57332-0.19092-0.76821 0.58033
   4   6  -2 3524.71  177.97   1-0.19011 0.71298 0.56179-0.17149-0.80513 0.67988
   4   6  -1 5201.93  245.64   1-0.25211 0.79115 0.94386-0.54572 0.21345-0.27613
   4   6  -1 5360.68  500.18   1-0.07644 0.61526 0.54023-0.14210-0.83803 0.77540
   4   6   0  564.15  124.89   1-0.26161 0.81676 0.94034-0.53441 0.21748-0.21748
   4   6   0  606.69  102.18   1 0.05537 0.49949 0.50647-0.10043-0.86047 0.86047
   4   6   1 6399.55  283.40   1-0.26522 0.83646 0.93898-0.52524 0.21900-0.15632
   4   6   1 6270.08  240.24   1 0.20291 0.36796 0.45668-0.04271-0.86617 0.92885
   4   6   2  -13.42   64.31   1-0.26277 0.85012 0.93991-0.51837 0.21797-0.09261
   4   6   2   41.10   30.91   1 0.35988 0.22706 0.38914 0.03274-0.84796 0.97332
  -4  -6  -2  136.50   53.85   1-0.52362-0.06446 0.32418-0.74649-0.78786 0.66225
   4   6   3  153.21   72.14   1-0.25405 0.85749 0.94315-0.51381 0.21427-0.02623
   4   6   3  115.60   50.53   1 0.51634 0.08698 0.30475 0.12508-0.80032 0.98832
  -4  -6  -3  136.12   64.28   1-0.55727-0.04693 0.41669-0.84683-0.71819 0.52978
   4   6   4  398.05   97.13   1-0.23866 0.85821 0.94862-0.51148 0.20772 0.04299
  -4  -6  -4  330.40  100.11   1-0.57246-0.04776 0.46697-0.90498-0.67395 0.42274
   4   6   5 1491.77  118.52   1-0.21607 0.85172 0.95608-0.51113 0.19804 0.11535
  -4  -6  -5 1367.92  115.68   1-0.58047-0.05586 0.49583-0.94166-0.64590 0.33189
   4   6   6 1249.59  125.20   1-0.18543 0.83718 0.96512-0.51237 0.18480 0.19127
  -4  -6  -6 1163.84   92.82   1-0.58448-0.06798 0.51139-0.96503-0.62996 0.25315
  -4  -7  12   49.26   72.49   1-0.17437-0.19372-0.98448 0.60446-0.01960 0.77272
   4   7 -12  202.63  106.54   1-0.59748 0.96519 0.56560-0.18570-0.56842-0.18413
  -4  -7  11  303.73  110.81   1-0.10255-0.28145-0.99321 0.60455-0.05477 0.74518
   4   7 -11  400.17  165.78   1-0.59305 0.97686 0.56637-0.17863-0.57228-0.11756
  -4  -7  10  840.95  206.68   1-0.03641-0.36368-0.99566 0.59921-0.08556 0.71321
   4   7 -10 1349.83  140.93   1-0.58362 0.98408 0.56701-0.17169-0.58127-0.04576
  -4  -7   9 3137.86  253.90   1 0.02359-0.43980-0.99331 0.58906-0.11303 0.67792
   4   7  -9 2453.04  217.68   1-0.56919 0.98569 0.56919-0.16600-0.59332 0.02899
  -4  -7   8 1194.03  187.73   1 0.07754-0.50984-0.98748 0.57544-0.13734 0.63946
   4   7  -8 1165.14  180.89   1-0.54845 0.98101 0.57193-0.16085-0.60999 0.10836
  -4  -7   7 2724.50  233.09   1 0.12549-0.57389-0.97932 0.55950-0.15864 0.59799
   4   7  -7 2689.46  210.77   1-0.52019 0.96879 0.57494-0.15599-0.63153 0.19260
   4   7  -6  331.20  126.15   1-0.16756 0.63179 0.96983-0.54305 0.17702-0.55310
   4   7  -6  497.00  136.91   1-0.48286 0.94751 0.57774-0.15091-0.65806 0.28184
   4   7  -5 5848.49  288.57   1-0.20370 0.68404 0.95987-0.52529 0.19271-0.50611
   4   7  -5 6263.66  281.62   1-0.43457 0.91527 0.57952-0.14482-0.68941 0.37589
   4   7  -4   89.75   85.38   1-0.23414 0.73058 0.95017-0.50778 0.20579-0.45650
   4   7  -4  137.86   58.55   1-0.37309 0.86984 0.57908-0.13650-0.72488 0.47407
   4   7  -3 3308.09  574.94   1-0.25897 0.77151 0.94133-0.49115 0.21636-0.40440
   4   7  -3 3284.80  149.16   1-0.29586 0.80836 0.57429-0.12421-0.76331 0.57543
   4   7  -2 1283.26  110.17   1-0.27826 0.80690 0.93389-0.47590 0.22451-0.34987
   4   7  -2 1371.10   95.80   1-0.20054 0.72908 0.56333-0.10536-0.80151 0.67626
   4   7  -1  711.33  132.71   1-0.29208 0.83682 0.92824-0.46245 0.23032-0.29300
   4   7  -1  700.18  149.86   1-0.08478 0.62926 0.54203-0.07623-0.83606 0.77344
   4   7   0 1629.69  166.64   1-0.30045 0.86129 0.92468-0.45109 0.23383-0.23383
   4   7   0 1509.91  233.71   1 0.05143 0.50909 0.50762-0.03391-0.86004 0.86004
   4   7   1 3069.74  223.45   1-0.30333 0.88027 0.92344-0.44205 0.23503-0.17235
   4   7   1 2325.97  292.07   1 0.20667 0.36982 0.45525 0.02639-0.86604 0.92872
   4   7   2 1574.91  133.40   1-0.30061 0.89365 0.92462-0.43542 0.23389-0.10853
   4   7   2 1403.16  166.81   1 0.37406 0.21882 0.38307 0.10659-0.84458 0.96992
   4   7   3 5265.62  348.12   1-0.29209 0.90124 0.92823-0.43124 0.23033-0.04229
   4   7   4  502.64  133.11   1-0.27747 0.90271 0.93421-0.42941 0.22418 0.02653
   4   7   5  409.78  131.86   1-0.25624 0.89759 0.94235-0.42975 0.21520 0.09819
   4   7   6  729.78  227.76   1-0.22770 0.88515 0.95232-0.43192 0.20303 0.17304
  -4  -8  11   89.45   84.17   1-0.04894-0.34072-0.99561 0.53917-0.07977 0.77018
   4   8 -11  243.13  149.74   1-0.59703 0.98651 0.56568-0.11022-0.56881-0.12103
  -4  -8  10 3033.70  202.44   1 0.01467-0.42044-0.99393 0.52971-0.10898 0.73663
   4   8 -10 3190.94  224.00   1-0.58773 0.99331 0.56726-0.10395-0.57686-0.05026
  -4  -8   911225.70  432.88   1 0.07196-0.49383-0.98824 0.51624-0.13484 0.69973
   4   8  -910467.79  412.82   1-0.57270 0.99486 0.56868-0.09776-0.59042 0.02609
  -4  -8   8  168.70  101.34   1 0.12309-0.56105-0.97980 0.50000-0.15758 0.65970
   4   8  -8  166.86   82.56   1-0.55185 0.99006 0.57151-0.09271-0.60730 0.10567
   4   8  -7 1620.55  261.70   1-0.16834 0.62217 0.96964-0.48300 0.17736-0.61612
   4   8  -7 1400.41  247.93   1-0.52355 0.97781 0.57462-0.08794-0.62904 0.19011
   4   8  -6   98.67   80.04   1-0.20758 0.67751 0.95870-0.46427 0.19438-0.57046
   4   8  -6  119.56   75.29   1-0.48623 0.95654 0.57754-0.08298-0.65575 0.27953
   4   8  -5 1671.23  145.05   1-0.24117 0.72720 0.94775-0.44551 0.20879-0.52219
   4   8  -5 1494.59  193.79   1-0.43794 0.92430 0.57946-0.07703-0.68732 0.37380
   4   8  -4 1181.72  140.15   1-0.26928 0.77141 0.93742-0.42738 0.22072-0.47144
   4   8  -4 1211.00  130.58   1-0.37633 0.87873 0.57917-0.06887-0.72313 0.47232
   4   8  -3 1285.05  150.91   1-0.29203 0.81027 0.92826-0.41042 0.23030-0.41834
   4   8  -3 1886.09  165.90   1-0.29858 0.81674 0.57451-0.05675-0.76208 0.57420
   4   8  -2  335.84  129.01   1-0.30955 0.84389 0.92070-0.39506 0.23763-0.36299
   4   8  -2  209.32   79.58   1-0.20193 0.73613 0.56353-0.03788-0.80103 0.67577
   4   8  -1 3683.67  522.14   1-0.32193 0.87237 0.91510-0.38165 0.24278-0.30545
   4   8  -1 3444.53  367.67   1-0.08320 0.63335 0.54170-0.00822-0.83644 0.77381
   4   8   0 8753.57  890.09   1-0.32919 0.89573 0.91171-0.37046 0.24579-0.24579
   4   8   0 8208.80  468.21   1 0.05854 0.50765 0.50553 0.03584-0.86081 0.86081
   4   8   1  678.69  166.61   1-0.33133 0.91397 0.91069-0.36164 0.24667-0.18399
   4   8   1  630.30  126.67   1 0.22326 0.35887 0.44882 0.10049-0.86528 0.92796
   4   8   2 9580.28  459.35   1-0.32827 0.92701 0.91214-0.35529 0.24540-0.12004
   4   8   3 6581.94  352.35   1-0.31982 0.93466 0.91607-0.35142 0.24190-0.05386
   4   8   4 1119.83  312.81   1-0.30570 0.93665 0.92240-0.34995 0.23602 0.01469
  -4  -9  10 2060.07  199.99   1 0.05665-0.46808-0.99015 0.45817-0.12797 0.75562
   4   9 -10 2341.15  229.96   1-0.58687 0.99811 0.56740-0.03638-0.57760-0.04952
  -4  -9   9 1381.08  173.98   1 0.11105-0.53858-0.98208 0.44231-0.15225 0.71714
   4   9  -9 1051.93  195.39   1-0.57135 0.99917 0.56888-0.03023-0.59154 0.02721
   4   9  -8  395.99  130.83   1-0.15951 0.60293 0.97182-0.42533 0.17350-0.67494
   4   9  -8  820.55  207.81   1-0.55006 0.99392 0.57173-0.02520-0.60872 0.10709
   4   9  -7  192.37   87.71   1-0.20178 0.66130 0.96045-0.40615 0.19188-0.63063
   4   9  -7  544.86  143.32   1-0.52131 0.98122 0.57484-0.02043-0.63070 0.19178
   4   9  -6  295.65  129.40   1-0.23839 0.71402 0.94871-0.38662 0.20760-0.58368
   4   9  -6  286.51  115.41   1-0.48350 0.95946 0.57770-0.01542-0.65763 0.28141
   4   9  -5 2508.43  186.81   1-0.26957 0.76130 0.93731-0.36741 0.22085-0.53424
   4   9  -5 2425.25  174.03   1-0.43461 0.92662 0.57952-0.00936-0.68938 0.37586
   4   9  -4 4503.29  273.15   1-0.29549 0.80333 0.92680-0.34910 0.23175-0.48247
   4   9  -4 3909.70  232.99   1-0.37215 0.88021 0.57905-0.00102-0.72539 0.47457
   4   9  -3  386.54   98.51   1-0.29305 0.81687 0.57405 0.01138-0.76457 0.57669
   4   9  -2 3440.46  369.53   1-0.33223 0.87226 0.91027-0.31697 0.24704-0.37240
   4   9  -2 3354.95  186.42   1-0.19405 0.73392 0.56238 0.03094-0.80378 0.67852
   4   9  -1 1968.97  292.26   1-0.34326 0.89940 0.90491-0.30380 0.25159-0.31427
   4   9  -1 1217.20  307.00   1-0.07106 0.62687 0.53905 0.06209-0.83926 0.77664
   4   9   0 7690.05  447.84   1-0.34950 0.92174 0.90180-0.29289 0.25416-0.25416
   4   9   1 2227.03  292.61   1-0.35093 0.93927 0.90107-0.28437 0.25475-0.19207
   4   9   2  188.41   82.51   1-0.34748 0.95192 0.90281-0.27830 0.25333-0.12797
   4   9   3  202.15   87.05   1-0.33900 0.95954 0.90700-0.27469 0.24984-0.06180
   4  10  -8  344.82  144.59   1-0.18736 0.63648 0.96458-0.35044 0.18564-0.68707
   4  10  -8   83.63   74.54   1-0.54326 0.99278 0.57254 0.04170-0.61404 0.11241
   4  10  -7  218.03  115.52   1-0.22700 0.69223 0.95255-0.33060 0.20273-0.64149
   4  10  -7  402.98  135.32   1-0.51364 0.97921 0.57552 0.04660-0.63634 0.19742
   4  10  -6  696.41  199.97   1-0.26118 0.74251 0.94051-0.31076 0.21730-0.59337
   4  10  -6  555.29  178.77   1-0.47482 0.95643 0.57817 0.05183-0.66351 0.28729
   4  10  -5  557.78  161.63   1-0.29014 0.78757 0.92905-0.29150 0.22951-0.54291
   4  10  -5  923.16  228.10   1-0.42469 0.92235 0.57965 0.05822-0.69543 0.38191
   4  10  -4 1318.48  229.24   1-0.31409 0.82762 0.91868-0.27332 0.23952-0.49024
   4  10  -4 1699.99  142.69   1-0.36055 0.87399 0.57830 0.06691-0.73182 0.48131
   4  10  -3   53.28   73.24   1-0.33320 0.86283 0.90980-0.25665 0.24744-0.43548
   4  10  -3  197.06   77.26   1-0.27912 0.80861 0.57278 0.08032-0.77071 0.58283
   4  10  -2 1282.52  275.84   1-0.34762 0.89335 0.90274-0.24178 0.25339-0.37875
   4  10  -2 1814.90  109.30   1-0.17644 0.72197 0.55966 0.10134-0.80971 0.68446
   4  10  -1 5148.04  283.26   1-0.35769 0.91932 0.89768-0.22900 0.25731-0.31999
   4  10   0  617.88  127.52   1-0.36299 0.94071 0.89493-0.21845 0.25947-0.25947
   4  10   116017.77  936.50   1-0.36374 0.95757 0.89453-0.21025 0.25978-0.19709
   4  11  -5 1285.59  181.61   1-0.30398 0.80710 0.92316-0.21795 0.23530-0.54870
   4  11  -5 1594.46  158.08   1-0.40809 0.91141 0.57969 0.12591-0.70527 0.39175
   4  11  -4  176.69   97.99   1-0.32615 0.84538 0.91314-0.20013 0.24453-0.49525
   4  11  -4  152.30   79.10   1-0.34137 0.86047 0.57742 0.13548-0.74165 0.49114
   4  11  -3  973.19  214.12   1-0.34373 0.87905 0.90468-0.18387 0.25178-0.43982
   4  11  -2 2616.71  554.78   1-0.35708 0.90831 0.89800-0.16947 0.25705-0.38242
  -5  10   4 6133.12  429.36   1-0.89528 0.36498-0.21142 0.92024 0.39213-0.14118
  -5  10   4 5943.43  388.69   1-0.70010 0.16911-0.17166 0.88090 0.69309-0.44205
   5 -10  -4 6441.49  438.37   1-0.12396 0.65544-0.36405-0.34429-0.92308 0.67220
  -5  10   3 3275.75  279.71   1-0.89487 0.34846-0.21398 0.91497 0.39167-0.20346
  -5  10   3 3514.74  260.31   1-0.72026 0.17317-0.15407 0.85544 0.67636-0.48809
   5 -10  -3 3235.99  281.55   1-0.08540 0.63291-0.41266-0.28789-0.90686 0.71870
  -5  10   2  205.15  105.78   1-0.89529 0.33277-0.21136 0.90451 0.39214-0.26666
  -5  10   2  135.36   93.71   1-0.74168 0.17849-0.13448 0.82797 0.65712-0.53160
   5 -10  -2  226.45  125.10   1-0.04474 0.60805-0.46270-0.22983-0.88538 0.75990
  -5  10   1  180.33  130.67   1-0.89655 0.31793-0.20320 0.88852 0.39356-0.33082
  -5  10   1  477.63  154.36   1-0.76419 0.18516-0.11320 0.79892 0.63497-0.57221
   5 -10  -1  245.94  125.46   1-0.00110 0.58048-0.51262-0.17212-0.85861 0.79587
  -5  10   0   63.71   83.91   1-0.89859 0.30386-0.18905 0.86653 0.39595-0.39595
  -5  10   0   29.35   98.36   1-0.78650 0.19140-0.09032 0.76819 0.61093-0.61093
   5 -10   0  144.01   88.29   1 0.04408 0.55135-0.56157-0.11538-0.82625 0.82625
  -5  10  -1  166.39   91.43   1-0.90087 0.28899-0.16825 0.83799 0.40014-0.46287
  -5  10  -1  189.33  155.49   1-0.80859 0.19741-0.06613 0.73614 0.58463-0.64739
   5 -10   1  132.25   85.90   1 0.08936 0.52181-0.60899-0.06063-0.78812 0.85089
  -5  10  -2  136.75   78.54   1-0.90379 0.27577-0.14013 0.80201 0.40437-0.52982
  -5  10  -2  328.64  177.29   1-0.83007 0.20281-0.04082 0.70298 0.55614-0.68166
   5 -10   2  427.71  161.68   1 0.13548 0.49178-0.65302-0.00875-0.74511 0.87067
  -5   9   6  828.09  126.10   1-0.58543 0.08100-0.25938 0.91658 0.76810-0.39155
   5  -9  -6 1266.30  182.32   1-0.20906 0.71409-0.24891-0.40729-0.94569 0.56936
  -5   9   5 2958.41  273.62   1-0.88179 0.36190-0.28102 0.92994 0.37876-0.06508
  -5   9   5 2404.41  197.25   1-0.60807 0.08754-0.24349 0.89282 0.75562-0.44182
   5  -9  -5 1756.37  211.74   1-0.17520 0.69626-0.29607-0.35234-0.93895 0.62535
  -5   9   4  274.09  130.40   1-0.87982 0.34382-0.28946 0.93053 0.37699-0.12604
  -5   9   4   95.35   92.53   1-0.63311 0.09648-0.22516 0.86662 0.74058-0.48954
   5  -9  -4  -51.57   76.96   1-0.13750 0.67460-0.34647-0.29415-0.92792 0.67704
  -5   9   3  370.82  132.02   1-0.87899 0.32688-0.29292 0.92616 0.37625-0.18804
  -5   9   3  350.52  141.00   1-0.65986 0.10714-0.20463 0.83822 0.72297-0.53470
   5  -9  -3  808.08  226.54   1-0.09628 0.64941-0.39916-0.23367-0.91180 0.72364
  -5   9   2 1286.83  198.94   1-0.87942 0.31120-0.29114 0.91655 0.37663-0.25115
  -5   9   2  784.69  187.93   1-0.68768 0.11885-0.18213 0.80785 0.70279-0.57727
   5  -9  -2 1167.25  291.43   1-0.05269 0.62162-0.45332-0.17152-0.88978 0.76430
  -5   9   1  678.47  205.74   1-0.88116 0.29684-0.28374 0.90131 0.37819-0.31546
  -5   9   1  444.30  159.81   1-0.71595 0.13103-0.15790 0.77574 0.68005-0.61729
   5  -9  -1  412.58  121.46   1-0.00604 0.59103-0.50711-0.10994-0.86185 0.79911
  -5   9   0 5393.48  243.68   1-0.88421 0.28378-0.27021 0.87995 0.38098-0.38098
  -5   9   0 5077.39  248.77   1-0.74416 0.14313-0.13215 0.74212 0.65479-0.65479
   5  -9   0 5443.53  230.45   1 0.04215 0.55890-0.55953-0.04973-0.82773 0.82773
  -5   9  -1 2188.97  170.19   1-0.88842 0.27189-0.24992 0.85181 0.38501-0.44775
  -5   9  -1 2001.94  171.32   1-0.77211 0.15529-0.10524 0.70747 0.62670-0.68946
   5  -9   1 1786.77  142.32   1 0.09028 0.52657-0.60990 0.00801-0.78731 0.85009
  -5   9  -2   61.98   64.81   1-0.89354 0.26090-0.22200 0.81606 0.39024-0.51571
  -5   9  -2   69.76  112.21   1-0.79875 0.16586-0.07711 0.67149 0.59669-0.72221
   5  -9   2   70.37   72.63   1 0.13894 0.49399-0.65620 0.06216-0.74168 0.86723
  -5   9  -3  223.57  103.97   1-0.89909 0.25034-0.18537 0.77160 0.39656-0.58477
  -5   9  -3  237.20  131.26   1-0.82406 0.17509-0.04810 0.63462 0.56444-0.75272
   5  -9   3   82.81  109.43   1 0.18661 0.46241-0.69811 0.11193-0.69123 0.87957
  -5   9  -4  294.26  112.69   1-0.90396 0.23802-0.13823 0.71666 0.40465-0.65554
  -5   9  -4  428.77  176.01   1-0.84774 0.18269-0.01838 0.59705 0.53008-0.78112
   5  -9   4  256.37  109.50   1 0.23261 0.43249-0.73511 0.15677-0.63678 0.88790
  -5   8   8  134.99  100.48   1-0.87644 0.39917-0.30324 0.90791 0.37401 0.12787
   5  -8  -8  128.67   75.30   1 0.45294 0.02472 0.34173-0.94638-0.82344 0.32209
   5  -8  -8  347.56  143.99   1-0.28412 0.76231-0.13611-0.46775-0.94907 0.44729
   5  -8  -7  372.13   86.79   1 0.47523 0.01852 0.32914-0.92590-0.81597 0.37729
   5  -8  -7  320.37  103.69   1-0.25682 0.75106-0.17791-0.41819-0.94994 0.51088
   5  -8  -6  174.84   82.20   1 0.50144 0.00839 0.31377-0.90265-0.80628 0.43027
   5  -8  -6  354.91  165.10   1-0.22535 0.73599-0.22556-0.36292-0.94780 0.57147
  -5   8   5  272.70  152.48   1-0.86038 0.33479-0.35994 0.94111 0.36079-0.04710
   5  -8  -5  305.33  106.87   1 0.53082-0.00489 0.29578-0.87679-0.79418 0.48084
   5  -8  -5  362.90  140.03   1-0.18925 0.71593-0.27673-0.30397-0.94212 0.62851
  -5   8   4 1188.23  237.11   1-0.85735 0.31565-0.36943 0.94276 0.35841-0.10747
   5  -8  -4  860.58  203.37   1-0.14887 0.69159-0.33149-0.24141-0.93163 0.68074
  -5   8   3 2238.27  238.74   1-0.85586 0.29806-0.37396 0.93945 0.35726-0.16905
  -5   8   3 1795.73  162.75   1-0.59595 0.03759-0.25207 0.81788 0.76243-0.57415
   5  -8  -3 1747.12  150.17   1-0.10460 0.66334-0.38873-0.17638-0.91539 0.72722
  -5   8   2  534.79  158.61   1-0.85611 0.28220-0.37322 0.93088 0.35745-0.23198
  -5   8   2  186.59  109.08   1-0.63037 0.05591-0.22720 0.78514 0.74229-0.61677
   5  -8  -2  185.78   86.56   1-0.05766 0.63221-0.44741-0.10973-0.89246 0.76698
  -5   8   1  158.83  129.98   1-0.85819 0.26817-0.36684 0.91666 0.35907-0.29633
  -5   8   1  151.82  123.80   1-0.66509 0.07453-0.20049 0.75056 0.71933-0.65657
   5  -8  -1  198.70  117.82   1-0.00759 0.59821-0.50536-0.04399-0.86287 0.80012
  -5   8   0 1617.74  157.67   1-0.86215 0.25603-0.35426 0.89625 0.36219-0.36219
  -5   8   0 2458.23  211.66   1-0.69950 0.09284-0.17218 0.71437 0.69357-0.69357
   5  -8   0 1674.66  142.54   1 0.04391 0.56276-0.56139 0.01982-0.82638 0.82638
  -5   8  -1 3822.36  268.79   1-0.86794 0.24571-0.33480 0.86895 0.36685-0.42959
  -5   8  -1 3778.76  302.87   1-0.73305 0.11029-0.14250 0.67682 0.66507-0.72783
   5  -8   1 3431.14  215.25   1 0.09513 0.52738-0.61467 0.08053-0.78302 0.84579
  -5   8  -2  558.33  133.33   1-0.87535 0.23701-0.30751 0.83382 0.37307-0.49855
  -5   8  -2  285.75  121.06   1-0.76553 0.12700-0.11186 0.63844 0.63359-0.75911
   5  -8   2  727.05  185.10   1 0.14643 0.49216-0.66302 0.13673-0.73413 0.85969
  -5   8  -3  217.23  111.50   1-0.88400 0.22955-0.27116 0.78964 0.38079-0.56900
  -5   8  -3  215.25  115.81   1-0.79598 0.14138-0.08014 0.59887 0.59998-0.78826
   5  -8   3  414.39  146.50   1 0.19623 0.45845-0.70614 0.18770-0.68032 0.86866
  -5   8  -4  317.56  137.88   1-0.82437 0.15369-0.04773 0.55861 0.56402-0.81506
   5  -8   4  128.39   96.89   1 0.24401 0.42709-0.74340 0.23273-0.62274 0.87374
  -5   8  -5  110.25   59.25   1-0.90143 0.21372-0.16333 0.66615 0.40091-0.71453
  -5   8  -5  755.57  264.71   1-0.85043 0.16367-0.01482 0.51784 0.52586-0.83966
   5  -8   5  139.87  125.26   1 0.28882 0.39833-0.77492 0.27209-0.56220 0.87595
  -5   7   9  536.72  192.27   1-0.86317 0.39631-0.35093 0.89569 0.36300 0.20162
   5  -7  -9  331.24  136.38   1 0.33139 0.13576 0.40262-0.94760-0.85327 0.28914
   5  -7  -9  353.22  149.76   1-0.32644 0.79421-0.06834-0.47555-0.94274 0.37824
   5  -7  -8  416.07  118.69   1 0.35455 0.12868 0.39170-0.92877-0.84903 0.34758
   5  -7  -8  446.71  156.96   1-0.30226 0.78608-0.10752-0.42862-0.94713 0.44536
  -5   7   7  803.96  203.24   1-0.84512 0.34605-0.40479 0.93388 0.34914 0.09000
   5  -7  -7  784.02  182.65   1 0.38345 0.11594 0.37840-0.90746-0.84248 0.40380
   5  -7  -7  857.61  234.97   1-0.27345 0.77332-0.15261-0.37576-0.94969 0.51064
   5  -7  -6 2390.06  157.36   1 0.41560 0.09988 0.36191-0.88309-0.83444 0.45843
   5  -7  -6 2522.10  209.63   1-0.23975 0.75567-0.20335-0.31727-0.94929 0.57296
  -5   7   5 1676.93  273.27   1-0.83142 0.30001-0.44002 0.95359 0.33929-0.02556
   5  -7  -5 2093.14  181.02   1 0.45118 0.08038 0.34271-0.85601-0.82400 0.51065
   5  -7  -5 1301.73  210.09   1-0.20124 0.73353-0.25998-0.25300-0.94441 0.63080
  -5   7   4 1381.27  273.58   1-0.82698 0.27948-0.45064 0.95636 0.33616-0.08517
   5  -7  -4 1091.10  173.67   1 0.48942 0.05823 0.32089-0.82632-0.81085 0.56018
   5  -7  -4  481.82  122.91   1-0.15774 0.70606-0.31969-0.18550-0.93429 0.68341
  -5   7   3 1463.56  215.40   1-0.82455 0.26094-0.45635 0.95421 0.33445-0.14621
   5  -7  -3 1212.84  184.10   1 0.52951 0.03423 0.29661-0.79415-0.79475 0.60675
   5  -7  -3 1091.60  155.82   1-0.10990 0.67425-0.38203-0.11537-0.91759 0.72942
  -5   7   2  412.28  147.61   1-0.82433 0.24463-0.45685 0.94686 0.33429-0.20880
   5  -7  -2 1178.55  183.24   1-0.05909 0.63926-0.44571-0.04374-0.89322 0.76774
  -5   7   1  493.21  181.25   1-0.82651 0.23071-0.45176 0.93391 0.33582-0.27308
  -5   7   1  245.13  117.78   1-0.61191 0.01571-0.24073 0.72302 0.75340-0.69064
   5  -7  -1  184.91   84.06   1-0.00514 0.60137-0.50812 0.02645-0.86126 0.79852
  -5   7   0 1051.09  186.24   1-0.83122 0.21932-0.44050 0.91480 0.33915-0.33915
  -5   7   0 1309.73  210.87   1-0.65278 0.04049-0.21016 0.68458 0.72780-0.72780
   5  -7   0 1179.30  167.08   1 0.05006 0.56223-0.56783 0.09396-0.82162 0.82162
  -5   7  -1  563.37  126.67   1-0.83847 0.21054-0.42243 0.88882 0.34426-0.40700
  -5   7  -1  736.44  201.99   1-0.69254 0.06415-0.17807 0.64461 0.69904-0.76180
   5  -7   1  342.59  108.27   1 0.10458 0.52360-0.62386 0.15747-0.77449 0.83727
  -5   7  -2  288.25  100.67   1-0.84817 0.20414-0.39636 0.85492 0.35142-0.47689
  -5   7  -2   89.48  161.82   1-0.73063 0.08613-0.14471 0.60339 0.66725-0.79277
   5  -7   2  385.32  119.99   1 0.15856 0.48571-0.67388 0.21534-0.72162 0.84717
  -5   7  -3  516.10  119.47   1-0.86005 0.19991-0.36101 0.81174 0.36052-0.54873
   5  -7   3  512.56  136.91   1 0.21036 0.44999-0.71766 0.26697-0.66385 0.85219
  -5   7  -4  222.53  104.63   1-0.87354 0.19729-0.31447 0.75736 0.37152-0.62247
  -5   7  -4  122.00  153.58   1-0.80020 0.12388-0.07551 0.51861 0.59494-0.84598
   5  -7   4  127.54   79.74   1 0.25943 0.41729-0.75467 0.31176-0.60262 0.85362
  -5   7  -5 1169.07  107.61   1-0.88761 0.19525-0.25400 0.68905 0.38422-0.69790
  -5   7  -5 1392.45  177.81   1-0.83080 0.13840-0.03993 0.47517 0.55513-0.86893
   5  -7   5 1122.77  338.90   1 0.30491 0.38786-0.78528 0.35021-0.53884 0.85259
  -5   7  -6   82.40  130.00   1-0.85835 0.14987-0.00406 0.43144 0.51304-0.88960
   5  -7   6    6.77   69.87   1 0.34678 0.36204-0.80957 0.38234-0.47364 0.85013
  -5   6  10 1867.72  200.02   1-0.84951 0.39306-0.39259 0.87744 0.35242 0.27494
   5  -6 -10  739.45  340.67   1 0.21011 0.24659 0.45393-0.93915-0.86590 0.23910
   5  -6 -10 1302.87  156.40   1-0.36507 0.82241-0.00292-0.48100-0.93097 0.30375
  -5   6   9  345.58  154.03   1-0.83647 0.36377-0.42746 0.90469 0.34291 0.22180
   5  -6  -9   53.81   57.67   1 0.23176 0.24102 0.44546-0.92277-0.86478 0.30065
   5  -6  -9  321.21  119.87   1-0.34440 0.81780-0.03837-0.43779-0.93803 0.37353
  -5   6   8  762.09  192.49   1-0.82397 0.33517-0.45769 0.92706 0.33404 0.16792
   5  -6  -8  722.93  208.66   1 0.25912 0.22974 0.43434-0.90373-0.86267 0.36122
   5  -6  -8  463.03  142.44   1-0.31904 0.80849-0.08047-0.38794-0.94431 0.44254
  -5   6   7 1589.77  420.02   1-0.81247 0.30757-0.48325 0.94477 0.32611 0.11310
   5  -6  -7 1190.81  376.91   1 0.29171 0.21323 0.42046-0.88194-0.85913 0.42036
   5  -6  -7 2002.51  185.71   1-0.28849 0.79400-0.12928-0.33137-0.94871 0.50965
   5  -6  -6 1454.03  298.49   1 0.32893 0.19209 0.40376-0.85731-0.85368 0.47760
   5  -6  -6 1551.22  269.01   1-0.25242 0.77397-0.18452-0.26837-0.94986 0.57352
  -5   6   5 1049.52  201.28   1-0.79404 0.25695-0.52061 0.96642 0.31377-0.00004
   5  -6  -5  869.81  129.93   1 0.37083 0.16638 0.38466-0.83026-0.84529 0.53194
   5  -6  -5 1082.58  181.72   1-0.21082 0.74873-0.24642-0.19884-0.94595 0.63234
  -5   6   4 2086.03  206.15   1-0.78783 0.23464-0.53234 0.97030 0.30971-0.05872
   5  -6  -4 1819.17  162.14   1 0.41501 0.13828 0.36221-0.79994-0.83460 0.58392
   5  -6  -4 2464.12  223.78   1-0.16361 0.71755-0.31180-0.12567-0.93595 0.68506
  -5   6   3  239.53  128.43   1-0.78407 0.21478-0.53927 0.96938 0.30726-0.11902
   5  -6  -3  243.44   84.60   1 0.46141 0.10797 0.33700-0.76684-0.82068 0.63268
  -5   6   2 8055.87  373.22   1-0.78304 0.19765-0.54114 0.96339 0.30659-0.18110
   5  -6  -2 7917.85  327.07   1 0.50908 0.07639 0.30917-0.73114-0.80327 0.67793
   5  -6  -2 8639.48  344.00   1-0.05621 0.64200-0.44913 0.02737-0.89169 0.76620
  -5   6   1  698.96  140.50   1-0.78500 0.18351-0.53756 0.95196 0.30786-0.24512
   5  -6  -1  803.42  119.28   1 0.55710 0.04445 0.27897-0.69305-0.78218 0.71951
   5  -6  -1  709.45  115.87   1 0.00217 0.59967-0.51628 0.10231-0.85641 0.79367
  -5   6   0  240.22  103.47   1-0.79016 0.17257-0.52799 0.93453 0.31123-0.31123
  -5   6   0  216.64  124.77   1-0.60462-0.01330-0.24595 0.65259 0.75758-0.75758
   5  -6   0   14.83   70.11   1 0.06145 0.55646-0.57962 0.17344-0.81256 0.81256
  -5   6  -1 1432.04  157.21   1-0.79864 0.16495-0.51165 0.91033 0.31682-0.37956
  -5   6  -1  740.35  133.67   1-0.65083 0.01680-0.21168 0.61045 0.72911-0.79187
   5  -6   1 1802.14  182.70   1 0.11944 0.51441-0.63806 0.23942-0.76065 0.82343
  -5   6  -2  420.98  151.99   1-0.81048 0.16069-0.48748 0.87831 0.32476-0.45025
  -5   6  -2  674.11  185.89   1-0.69507 0.04494-0.17594 0.56684 0.69707-0.82259
   5  -6   2  693.80  126.75   1 0.17603 0.47391-0.68912 0.29833-0.70293 0.82849
  -5   6  -3 1322.88  226.78   1-0.82555 0.15966-0.45401 0.83699 0.33515-0.52339
  -5   6  -3 1484.75  255.94   1-0.73677 0.07054-0.13906 0.52209 0.66168-0.84996
   5  -6   3 1674.57  259.02   1 0.22955 0.43647-0.73277 0.34982-0.64058 0.82892
  -5   6  -4 1869.69  158.08   1-0.84348 0.16154-0.40922 0.78437 0.34793-0.59888
  -5   6  -4 1001.83  228.47   1-0.77567 0.09371-0.10160 0.47691 0.62289-0.87393
   5  -6   4 1181.26  248.70   1 0.27948 0.40286-0.76867 0.39351-0.57534 0.82634
  -5   6  -5  759.97  168.48   1-0.86349 0.16544-0.34989 0.71720 0.36325-0.67693
  -5   6  -5  817.60  223.72   1-0.81104 0.11301-0.06334 0.43079 0.58154-0.89534
   5  -6   5  733.90  251.05   1 0.32513 0.37327-0.79750 0.43019-0.50820 0.82194
  -5   6  -6  910.28  193.64   1-0.84283 0.12872-0.02478 0.38438 0.53759-0.91415
   5  -6   6  475.18  174.32   1 0.36656 0.34788-0.81957 0.46010-0.44037 0.81687
  -5   6  -7  195.06  135.16   1-0.87088 0.14069 0.01385 0.33788 0.49129-0.93061
   5  -6   7  214.45   96.44   1 0.40353 0.32664-0.83554 0.48385-0.37285 0.81190
  -5   5  10  166.98  107.91   1-0.81925 0.35696-0.46841 0.88574 0.33076 0.29669
   5  -5 -10  420.25  134.05   1 0.11294 0.34936 0.48859-0.90601-0.86517 0.23892
   5  -5 -10  364.69  109.94   1-0.38231 0.84540 0.02832-0.44446-0.92359 0.29620
  -5   5   9  175.58  107.01   1-0.80238 0.32400-0.50419 0.91367 0.31931 0.24540
   5  -5  -9   38.77   57.15   1 0.13704 0.34137 0.48040-0.89004-0.86627 0.30214
  -5   5   8 1305.30  277.66   1-0.78633 0.29185-0.53511 0.93673 0.30873 0.19323
   5  -5  -8  770.55  226.86   1 0.16738 0.32711 0.46980-0.87151-0.86675 0.36531
   5  -5  -8  874.55  193.00   1-0.33433 0.82940-0.05528-0.34541-0.94083 0.43905
  -5   5   7  553.43  167.24   1-0.77157 0.26099-0.56137 0.95513 0.29922 0.13999
   5  -5  -7  689.42  135.04   1 0.20342 0.30715 0.45648-0.85028-0.86616 0.42739
   5  -5  -7  733.09  154.85   1-0.30175 0.81288-0.10833-0.28459-0.94720 0.50815
  -5   5   6 2923.56  232.35   1-0.75852 0.23183-0.58307 0.96898 0.29097 0.08550
   5  -5  -6 2975.85  372.82   1 0.24467 0.28198 0.44027-0.82615-0.86388 0.48779
   5  -5  -6 3482.28  253.53   1-0.26284 0.79002-0.16881-0.21636-0.94995 0.57362
  -5   5   5 3826.65  287.95   1-0.74759 0.20480-0.60029 0.97835 0.28416 0.02956
   5  -5  -5 3859.98  342.55   1 0.29046 0.25227 0.42101-0.79897-0.85928 0.54588
   5  -5  -5 3396.11  187.27   1-0.21751 0.76103-0.23686-0.14068-0.94688 0.63327
  -5   5   4  935.29  149.40   1-0.73918 0.18030-0.61301 0.98321 0.27897-0.02799
   5  -5  -4 1217.26  123.57   1 0.33997 0.21883 0.39862-0.76866-0.85177 0.60104
   5  -5  -4 1248.12  114.01   1-0.16580 0.72536-0.30884-0.06091-0.93654 0.68566
  -5   5   3  972.71  153.46   1-0.73366 0.15868-0.62110 0.98345 0.27560-0.08736
   5  -5  -3  992.84  104.81   1 0.39288 0.18215 0.37364-0.73579-0.84025 0.65225
   5  -5  -3 1303.90  132.84   1-0.10866 0.68425-0.38359 0.02162-0.91708 0.72892
  -5   5   2 1743.76  194.12   1-0.73140 0.14032-0.62437 0.97887 0.27422-0.14873
   5  -5  -2 2350.24  158.77   1 0.44683 0.14428 0.34511-0.69938-0.82537 0.70003
   5  -5  -2 2281.04  158.57   1-0.04797 0.63938-0.45890 0.10484-0.88718 0.76170
  -5   5   110652.66  443.75   1-0.73272 0.12554-0.62246 0.96910 0.27503-0.21228
   5  -5  -1 9855.79  397.82   1 0.50141 0.10578 0.31378-0.66017-0.80629 0.74362
   5  -5  -1 9772.19  383.29   1 0.01550 0.59196-0.53095 0.18467-0.84726 0.78452
  -5   5   0  214.12  126.74   1-0.73792 0.11465-0.61486 0.95365 0.27821-0.27821
   5  -5   0  390.39  146.08   1 0.55560 0.06768 0.27995-0.61845-0.78289 0.78289
   5  -5   0  -62.89   58.26   1 0.07921 0.54432-0.59765 0.25917-0.79783 0.79783
  -5   5  -1  813.59  150.60   1-0.74725 0.10787-0.60082 0.93175 0.28395-0.34670
  -5   5  -1 1055.79  191.98   1-0.60849-0.03116-0.24318 0.57418 0.75537-0.81813
   5  -5   1  468.55   87.73   1 0.14072 0.49881-0.65782 0.32693-0.73990 0.80268
  -5   5  -2  813.89  155.83   1-0.76087 0.10539-0.57926 0.90233 0.29245-0.41794
  -5   5  -2  520.19  163.29   1-0.65911 0.00335-0.20522 0.52835 0.72349-0.84901
   5  -5   2  794.09  124.57   1 0.19963 0.45598-0.70895 0.38590-0.67641 0.80197
  -5   5  -3 2693.23  185.16   1-0.77885 0.10728-0.54866 0.86388 0.30389-0.49213
  -5   5  -3 2677.75  263.64   1-0.70682 0.03496-0.16589 0.48115 0.68766-0.87594
   5  -5   3 2272.55  340.01   1 0.25452 0.41739-0.75113 0.43588-0.60910 0.79735
  -5   5  -4 2638.85  208.22   1-0.80108 0.11341-0.50681 0.81417 0.31844-0.56943
  -5   5  -4 2547.00  235.65   1-0.75107 0.06311-0.12557 0.43295 0.64816-0.89920
   5  -5   4 2322.52  433.70   1 0.30450 0.38347-0.78502 0.47762-0.53946 0.79046
  -5   5  -5 5176.63  273.42   1-0.82711 0.12333-0.45036 0.74987 0.33624-0.64997
  -5   5  -5 6141.01  337.16   1-0.79160 0.08793-0.08488 0.38455 0.60510-0.91890
   5  -5   5 5487.62  310.28   1 0.34958 0.35444-0.81104 0.51148-0.46903 0.78278
  -5   5  -6  237.25  126.78   1-0.82781 0.10807-0.04358 0.33539 0.55929-0.93585
   5  -5   6  295.09   91.86   1 0.38955 0.33021-0.83006 0.53830-0.39903 0.77536
  -5   5  -7  981.20  214.36   1-0.85968 0.12386-0.00221 0.28617 0.51081-0.95013
   5  -5   7  617.17  167.87   1 0.42532 0.31051-0.84278 0.55888-0.32986 0.76891
  -5   4  11  564.19  157.94   1-0.80324 0.35137-0.50245 0.85988 0.31988 0.37032
   5  -4 -11  115.73   54.35   1 0.00360 0.44831 0.52091-0.87856-0.85359 0.16472
   5  -4 -11  276.17  111.62   1-0.41599 0.86860 0.09042-0.44656-0.90486 0.21472
  -5   4  10  407.85  119.71   1-0.78158 0.31361-0.54378 0.89335 0.30565 0.32181
   5  -4 -10  632.27  214.32   1 0.02297 0.44499 0.51569-0.86543-0.85646 0.23022
   5  -4 -10  589.70  158.99   1-0.39854 0.86723 0.05779-0.40619-0.91532 0.28793
  -5   4   9   88.73   92.81   1-0.76049 0.27642-0.57987 0.92159 0.29221 0.27250
   5  -4  -9  -14.84   56.42   1 0.04879 0.43522 0.50839-0.85022-0.85974 0.29612
   5  -4  -9  170.69   87.91   1-0.37607 0.86085 0.01719-0.35784-0.92642 0.36177
  -5   4   8  687.22  156.65   1-0.74049 0.24031-0.61106 0.94492 0.27978 0.22218
   5  -4  -8  688.83  130.73   1 0.08099 0.41907 0.49875-0.83268-0.86295 0.36195
   5  -4  -8  328.49  113.85   1-0.34797 0.84867-0.03234-0.30062-0.93694 0.43517
  -5   4   7 3575.42  269.59   1-0.72205 0.20577-0.63759 0.96359 0.26855 0.17067
   5  -4  -7 4564.75  449.13   1 0.11938 0.39673 0.48647-0.81250-0.86549 0.42712
   5  -4  -7 4327.80  291.10   1-0.31294 0.82970-0.09037-0.23482-0.94546 0.50640
  -5   4   6 1595.35  196.47   1-0.70567 0.17313-0.65961 0.97783 0.25870 0.11775
   5  -4  -6 1597.13  234.42   1 0.16342 0.36886 0.47121-0.78942-0.86674 0.49066
   5  -4  -6 1607.33  129.95   1-0.27055 0.80337-0.15706-0.16038-0.94980 0.57347
  -5   4   5 1078.55  177.01   1-0.69173 0.14309-0.67732 0.98768 0.25045 0.06326
   5  -4  -5  951.11  197.00   1 0.21294 0.33541 0.45283-0.76312-0.86578 0.55238
   5  -4  -5  776.41  125.42   1-0.22059 0.76973-0.23243-0.07739-0.94726 0.63365
  -5   4   4  339.44  137.96   1-0.68070 0.11596-0.69073 0.99322 0.24399 0.00698
   5  -4  -4  213.02   77.39   1 0.26695 0.29748 0.43106-0.73344-0.86192 0.61120
   5  -4  -4  416.99  122.72   1-0.16331 0.72848-0.31220 0.01016-0.93587 0.68498
  -5   4   3 2731.20  257.74   1-0.67300 0.09215-0.69978 0.99442 0.23951-0.05128
   5  -4  -3 2560.70  379.47   1 0.32446 0.25605 0.40581-0.70026-0.85441 0.66637
   5  -4  -3 2488.78  209.34   1-0.09994 0.68114-0.39459 0.10034-0.91340 0.72524
  -5   4   2 5861.51  325.30   1-0.66905 0.07210-0.70433 0.99111 0.23722-0.11173
   5  -4  -2 5586.29  255.85   1 0.38484 0.21192 0.37770-0.66426-0.84216 0.71682
   5  -4  -2 5287.47  235.83   1-0.03285 0.62988-0.47656 0.19019-0.87852 0.75304
  -5   4   1 1203.39  185.00   1-0.66924 0.05619-0.70411 0.98303 0.23733-0.17459
   5  -4  -1  415.35   86.07   1 0.44576 0.16708 0.34570-0.62438-0.82570 0.76303
   5  -4  -1  672.86   80.95   1 0.03641 0.57667-0.55346 0.27488-0.83207 0.76933
  -5   4   0 3553.58  271.21   1-0.67397 0.04481-0.69865 0.96971 0.24007-0.24007
   5  -4   0 3980.67  241.48   1 0.50654 0.12238 0.31070-0.58150-0.80428 0.80428
   5  -4   0 3244.68  196.26   1 0.10430 0.52481-0.62360 0.35260-0.77475 0.77475
  -5   4  -1  181.99  128.97   1-0.68358 0.03833-0.68727 0.95047 0.24568-0.30842
   5  -4   1  224.57   97.59   1 0.16960 0.47560-0.68356 0.42042-0.70991 0.77268
  -5   4  -2 1734.44  146.19   1-0.69841 0.03705-0.66894 0.92428 0.25440-0.37989
  -5   4  -2 1818.02  181.13   1-0.62332-0.03806-0.23242 0.48777 0.74661-0.87213
   5  -4   2 1774.66  139.77   1 0.23022 0.43106-0.73328 0.47798-0.63975 0.76531
  -5   4  -3 7991.12  464.56   1-0.71872 0.04146-0.64216 0.88963 0.26654-0.45478
  -5   4  -3 9868.76  597.32   1-0.67725-0.00023-0.19071 0.43819 0.71059-0.89887
   5  -4   3 8138.48  618.84   1 0.28542 0.39211-0.77267 0.52518-0.56701 0.75526
  -5   4  -4  502.52  151.63   1-0.74470 0.05133-0.60471 0.84432 0.28237-0.53336
  -5   4  -4  739.39  181.83   1-0.72726 0.03366-0.14778 0.38739 0.67025-0.92129
   5  -4   4  659.38  136.78   1 0.33466 0.35893-0.80295 0.56331-0.49321 0.74421
  -5   4  -5  615.29  149.39   1-0.77631 0.06684-0.55315 0.78491 0.30225-0.61598
  -5   4  -5  854.29  205.93   1-0.77295 0.06365-0.10438 0.33626 0.62581-0.93961
   5  -4   5  495.77  136.84   1 0.37794 0.33143-0.82506 0.59322-0.42004 0.73364
   5  -4   6  195.53  101.43   1 0.41620 0.30923-0.83995 0.61598-0.34819 0.72452
  -5   4  -7  554.58  180.80   1-0.84951 0.10805-0.01604 0.23222 0.52732-0.96664
   5  -4   7  315.38  142.12   1 0.44965 0.29185-0.84873 0.63263-0.27830 0.71735
  -5   3  12  310.36  164.09   1-0.78955 0.34809-0.52913 0.82665 0.31083 0.44212
   5  -3 -12   94.18   73.73   1-0.09232 0.53386 0.54363-0.84151-0.83423 0.08273
   5  -3 -12  227.85  129.59   1-0.44485 0.88698 0.14680-0.44293-0.88349 0.13061
  -5   3  11 1956.45  156.77   1-0.76279 0.30522-0.57611 0.86578 0.29366 0.39655
   5  -3 -11 1177.60  290.72   1-0.07887 0.53645 0.54076-0.83074-0.83746 0.14859
   5  -3 -11 2156.76  176.28   1-0.43142 0.88964 0.12017-0.40856-0.89410 0.20397
  -5   3  10 3896.86  231.47   1-0.73629 0.26263-0.61726 0.89907 0.27721 0.35025
   5  -3 -10 3085.52  399.85   1-0.05898 0.53262 0.53633-0.81840-0.84194 0.21569
   5  -3 -10 4023.44  229.96   1-0.41340 0.88770 0.08551-0.36616-0.90652 0.27913
  -5   3   9  210.64  109.33   1-0.71068 0.22078-0.65303 0.92705 0.26169 0.30300
   5  -3  -9  465.57  114.22   1-0.03251 0.52219 0.53008-0.80425-0.84731 0.28369
   5  -3  -9  271.46   99.47   1-0.38980 0.88017 0.04181-0.31472-0.91994 0.35529
  -5   3   8  789.39  187.12   1-0.68638 0.18038-0.68389 0.95006 0.24731 0.25463
   5  -3  -8 1076.35  202.66   1 0.00063 0.50509 0.52169-0.78795-0.85312 0.35213
   5  -3  -8 1118.29  174.82   1-0.35971 0.86605-0.01222-0.25301-0.93298 0.43120
  -5   3   724475.13  806.66   1-0.66394 0.14184-0.71013 0.96844 0.23427 0.20493
   5  -3  -722765.40  771.34   1 0.04044 0.48134 0.51079-0.76915-0.85875 0.42037
   5  -3  -722701.59  717.94   1-0.32164 0.84403-0.07622-0.18125-0.94378 0.50473
  -5   3   6  301.57  113.83   1-0.64385 0.10565-0.73200 0.98245 0.22276 0.15370
   5  -3  -6  119.15   65.82   1 0.08669 0.45113 0.49698-0.74743-0.86341 0.48767
   5  -3  -6   71.56   93.08   1-0.27486 0.81330-0.15045-0.09927-0.94963 0.57330
  -5   3   5  903.34  154.63   1-0.62657 0.07227-0.74969 0.99228 0.21297 0.10074
   5  -3  -5  961.73  162.76   1 0.13880 0.41519 0.47980-0.72242-0.86632 0.55292
   5  -3  -5  868.77  121.49   1-0.21898 0.77373-0.23474-0.00736-0.94706 0.63346
  -5   3   4 6709.55  363.13   1-0.61258 0.04217-0.76332 0.99805 0.20512 0.04585
   5  -3  -4 7169.86  512.13   1 0.19646 0.37361 0.45912-0.69381-0.86637 0.61565
   5  -3  -4 6213.68  260.72   1-0.15459 0.72538-0.32389 0.08957-0.93337 0.68249
  -5   3   3  131.02  123.84   1-0.60233 0.01581-0.77293 0.99981 0.19940-0.01117
   5  -3  -3  164.06   83.50   1 0.25848 0.32766 0.43460-0.66138-0.86272 0.67468
   5  -3  -3   44.69   83.47   1-0.08343 0.67024-0.41509 0.18856-0.90594 0.71777
  -5   3   2 4753.32  290.46   1-0.59627-0.00633-0.77847 0.99748 0.19604-0.07055
   5  -3  -2 4633.23  361.74   1 0.32366 0.27856 0.40618-0.62504-0.85454 0.72918
   5  -3  -2 4515.16  191.75   1-0.00868 0.61133-0.50415 0.28547-0.86357 0.73809
  -5   3   1  508.97  124.79   1-0.59487-0.02384-0.77973 0.99089 0.19527-0.13252
   5  -3  -1  448.18  138.32   1 0.39100 0.22748 0.37459-0.58558-0.84070 0.77803
   5  -3  -1  425.14   81.67   1 0.06703 0.55167-0.58533 0.37445-0.80801 0.74527
  -5   3   0  949.90  138.46   1-0.59858-0.03623-0.77637 0.97966 0.19732-0.19732
   5  -3   0 1098.04  137.45   1 0.45822 0.17635 0.33879-0.54189-0.82173 0.82173
   5  -3   0  800.82   91.33   1 0.13962 0.49516-0.65683 0.45358-0.74099 0.74099
  -5   3  -1  125.25  108.06   1-0.60786-0.04305-0.76778 0.96322 0.20249-0.26523
   5  -3   1  181.81   80.90   1 0.52435 0.12631 0.29982-0.49504-0.79696 0.85963
   5  -3   1   81.79   53.09   1 0.20742 0.44344-0.71529 0.51989-0.66732 0.73010
  -5   3  -2  408.52  170.23   1-0.62317-0.04385-0.75306 0.94064 0.21106-0.33654
  -5   3  -2  469.67  212.23   1-0.58832-0.07869-0.25738 0.44496 0.76656-0.89208
   5  -3   2  113.90   40.05   1 0.26871 0.39840-0.76124 0.57367-0.59016 0.71566
  -5   3  -3  702.66  115.71   1-0.64495-0.03817-0.73083 0.91055 0.22339-0.41162
  -5   3  -3  742.87  193.02   1-0.64863-0.03449-0.21337 0.39308 0.73057-0.91885
   5  -3   3  765.05  166.38   1 0.32275 0.36040-0.79612 0.61638-0.51187 0.70012
  -5   3  -4  413.17  139.41   1-0.67368-0.02554-0.69899 0.87084 0.23991-0.49088
  -5   3  -4  433.63  155.66   1-0.70458 0.00535-0.16783 0.33966 0.68949-0.94052
   5  -3   4  267.59   91.63   1 0.36991 0.32930-0.82116 0.64927-0.43456 0.68556
  -5   3  -5  279.43   90.53   1-0.70978-0.00555-0.65422 0.81822 0.26115-0.57487
  -5   3  -5  295.16  166.61   1-0.75551 0.04018-0.12128 0.28525 0.64381-0.95760
   5  -3   5   96.50   68.28   1 0.41048 0.30455-0.83803 0.67399-0.35943 0.67304
  -5   3  -6 1801.96  188.15   1-0.80106 0.07004-0.07457 0.23080 0.59391-0.97047
   5  -3   6 1914.57  285.09   1 0.44568 0.28542-0.84793 0.69175-0.28700 0.66333
  -5   3  -7  406.92  201.18   1-0.84080 0.09371-0.02739 0.17577 0.54063-0.97995
   5  -3   7  145.09   75.68   1 0.47595 0.27121-0.85214 0.70383-0.21750 0.65655
  -5   2  12 1216.52  153.31   1-0.74721 0.30005-0.60088 0.83064 0.28392 0.46902
   5  -2 -12 1040.66  138.73   1-0.16532 0.61268 0.55785-0.78791-0.81330 0.06177
   5  -2 -12  879.41  143.38   1-0.45918 0.90692 0.17609-0.40447-0.87071 0.11784
  -5   2  11  359.44  174.55   1-0.71512 0.25176-0.64708 0.86906 0.26435 0.42583
   5  -2 -11  275.00  110.99   1-0.15190 0.61530 0.55557-0.77773-0.81747 0.12857
   5  -2 -11   86.51   83.41   1-0.44549 0.90931 0.14809-0.36873-0.88295 0.19282
  -5   2  10 2170.64  206.51   1-0.68355 0.20410-0.68731 0.90143 0.24566 0.38177
   5  -2 -10 1593.70  400.26   1-0.13210 0.61154 0.55201-0.76628-0.82330 0.19703
   5  -2 -10 1655.89  162.13   1-0.42677 0.90667 0.11110-0.32400-0.89750 0.27011
  -5   2   9  381.97  133.62   1-0.65312 0.15756-0.72209 0.92835 0.22805 0.33664
   5  -2  -9  645.74  178.07   1-0.10608 0.60143 0.54645-0.75294-0.83074 0.26712
   5  -2  -9  528.40  161.87   1-0.40177 0.89776 0.06376-0.26892-0.91351 0.34886
  -5   2   829176.23 1502.83   1-0.62436 0.11269-0.75189 0.95029 0.21172 0.29022
   5  -2  -829998.55 6873.10   1-0.07270 0.58410 0.53941-0.73800-0.83889 0.33789
   5  -2  -829326.04 1483.50   1-0.36920 0.88117 0.00429-0.20181-0.92933 0.42756
  -5   2   7  294.44  174.48   1-0.59776 0.07000-0.77711 0.96766 0.19687 0.24233
   5  -2  -7  135.48   52.91   1-0.03228 0.55972 0.53003-0.72071-0.84736 0.40899
   5  -2  -7  377.21  126.26   1-0.32721 0.85523-0.06707-0.12268-0.94256 0.50351
  -5   2   6   68.74  105.29   1-0.57384 0.02997-0.79809 0.98078 0.18368 0.19277
   5  -2  -6  107.57   74.68   1 0.01516 0.52833 0.51782-0.70060-0.85535 0.47960
   5  -2  -6   64.78   64.63   1-0.27466 0.81873-0.15075-0.03124-0.94964 0.57331
  -5   2   5  297.27  123.76   1-0.55307-0.00689-0.81510 0.98993 0.17235 0.14136
   5  -2  -5  194.58   63.41   1 0.06936 0.49017 0.50230-0.67717-0.86190 0.54878
   5  -2  -5  210.69   78.08   1-0.21096 0.77133-0.24622 0.07183-0.94597 0.63236
  -5   2   4 1295.52  192.28   1-0.53615-0.03976-0.82830 0.99528 0.16265 0.08849
   5  -2  -4 1496.77  264.56   1 0.12962 0.44608 0.48291-0.64993-0.86601 0.61529
   5  -2  -4 1399.75  150.34   1-0.13722 0.71362-0.34684 0.18024-0.92782 0.67694
  -5   2   313945.40  453.87   1-0.52310-0.06889-0.83793 0.99708 0.15563 0.03272
   5  -2  -313830.47  412.20   1 0.19539 0.39638 0.45952-0.61862-0.86640 0.67836
   5  -2  -313918.76  378.11   1-0.05648 0.64869-0.44881 0.29004-0.89183 0.70361
  -5   2   2 4976.18  325.55   1-0.51464-0.09343-0.84398 0.99529 0.15111-0.02554
   5  -2  -2 4184.05  590.55   1 0.26525 0.34260 0.43178-0.58296-0.86209 0.73672
   5  -2  -2 4481.55  179.31   1 0.02776 0.58050-0.54421 0.39323-0.83848 0.71300
  -5   2   1 8634.31  319.80   1-0.51127-0.11289-0.84634 0.98983 0.14931-0.08652
   5  -2  -1 9408.40  306.91   1 0.33773 0.28620 0.39967-0.54294-0.85217 0.78949
   5  -2  -110008.26  292.06   1 0.10999 0.51437-0.62907 0.48573-0.76951 0.70673
  -5   2   0 1313.95  195.20   1-0.51348-0.12676-0.84479 0.98044 0.15049-0.15049
   5  -2   0  720.26   89.24   1 0.18682 0.45363-0.69830 0.56280-0.69099 0.69099
  -5   2  -128042.69  892.76   1-0.52180-0.13453-0.83887 0.96669 0.15494-0.21773
   5  -2   126720.97  826.08   1 0.48410 0.17220 0.32401-0.45153-0.81281 0.87547
   5  -2   128552.11  863.45   1 0.25563 0.40105-0.75193 0.62427-0.60765 0.67040
  -5   2  -216687.17  607.20   1-0.53679-0.13562-0.82782 0.94780 0.16299-0.28856
   5  -2   217826.77  630.60   1 0.55449 0.11789 0.28067-0.40031-0.78342 0.90876
   5  -2   217458.69  604.23   1 0.31534 0.35739-0.79170 0.67187-0.52322 0.64872
  -5   2  -3  242.60  116.22   1-0.55890-0.12989-0.81044 0.92239 0.17552-0.36375
  -5   2  -3  197.21  152.11   1-0.62157-0.06718-0.23370 0.34564 0.74767-0.93595
   5  -2   3  163.17   56.65   1 0.36641 0.32237-0.81950 0.70752-0.44062 0.62887
  -5   2  -4  149.63   77.06   1-0.58910-0.11579-0.78489 0.88898 0.19208-0.44305
  -5   2  -4  483.70  183.70   1-0.68360-0.02125-0.18551 0.28957 0.70588-0.95691
   5  -2   4  126.50   70.05   1 0.40953 0.29510-0.83770 0.73358-0.36129 0.61218
  -5   2  -5  217.23   83.39   1-0.62807-0.09292-0.74819 0.84442 0.21382-0.52754
  -5   2  -5  469.25  165.70   1-0.74002 0.01906-0.13604 0.23222 0.65867-0.97247
   5  -2   5  313.71  117.84   1 0.44617 0.27453-0.84803 0.75178-0.28593 0.59954
  -5   2  -6 2086.53  188.68   1-0.79031 0.05366-0.08626 0.17471 0.60659-0.98315
   5  -2   6 1738.21  372.14   1 0.47716 0.25960-0.85221 0.76383-0.21457 0.59090
  -5   2  -7 4218.75  238.49   1-0.83403 0.08131-0.03593 0.11653 0.55053-0.98985
   5  -2   7 3858.28  522.77   1 0.50353 0.24948-0.85140 0.77085-0.14681 0.58611
  -5   2  -8  353.43  135.21   1-0.87107 0.10226 0.01413 0.05860 0.49094-0.99302
   5  -2   8  237.55  111.44   1 0.52576 0.24334-0.84660 0.77390-0.08262 0.58468
  -5   1  12  336.27  133.48   1-0.69814 0.24523-0.66929 0.83136 0.25424 0.49868
   5  -1 -12  267.00  119.33   1-0.22965 0.68267 0.56729-0.72966-0.79084 0.03931
   5  -1 -12   87.24   76.37   1-0.47212 0.92547 0.20338-0.36400-0.85775 0.10488
  -5   1  11 3462.97  213.03   1-0.66055 0.19153-0.71392 0.86814 0.23232 0.45786
   5  -1 -11 3497.05  224.37   1-0.21657 0.68563 0.56557-0.72006-0.79574 0.10684
   5  -1 -11 3370.39  200.64   1-0.45808 0.92751 0.17381-0.32669-0.87175 0.18161
  -5   1  10 5961.04  418.71   1-0.62388 0.13875-0.75236 0.89872 0.21146 0.41598
   5  -1 -10 6675.51  421.16   1-0.19721 0.68232 0.56285-0.70944-0.80268 0.17641
   5  -1 -10 5442.95  351.15   1-0.43848 0.92399 0.13407-0.27922-0.88868 0.26129
  -5   1   912061.09  465.35   1-0.58869 0.08746-0.78526 0.92376 0.19185 0.37284
   5  -1  -912583.75  475.29   1-0.17120 0.67235 0.55882-0.69752-0.81142 0.24777
   5  -1  -911725.59  420.27   1-0.41170 0.91329 0.08231-0.21972-0.90759 0.34293
  -5   1   8 1448.48  151.10   1-0.55550 0.03817-0.81317 0.94381 0.17367 0.32827
   5  -1  -8 1944.09  161.82   1-0.13815 0.65535 0.55312-0.68393-0.82156 0.32054
   5  -1  -8 1713.69  118.82   1-0.37578 0.89345 0.01667-0.14633-0.92655 0.42464
  -5   1   7  954.10  171.07   1-0.52509-0.00821-0.83648 0.95914 0.15670 0.28279
   5  -1  -7 1052.88  155.28   1-0.09810 0.63121 0.54482-0.66783-0.83278 0.39441
   5  -1  -7  933.33  108.49   1-0.32863 0.86227-0.06473-0.05729-0.94223 0.50318
  -5   1   6  490.10  160.44   1-0.49739-0.05199-0.85583 0.97065 0.14193 0.23478
   5  -1  -6  617.27  114.86   1-0.05017 0.59932 0.53430-0.64940-0.84380 0.46805
   5  -1  -6  304.26   57.31   1-0.26816 0.81786-0.16072 0.04645-0.94987 0.57353
  -5   1   5 3937.25  259.90   1-0.47317-0.09230-0.87144 0.97843 0.12916 0.18477
   5  -1  -5 4267.40  350.82   1 0.00519 0.56001 0.52049-0.62769-0.85384 0.54072
   5  -1  -5 3854.88  170.21   1-0.19359 0.75958-0.27068 0.16401-0.94299 0.62939
  -5   1   425205.54  684.92   1-0.45292-0.12864-0.88363 0.98278 0.11856 0.13258
   5  -1  -425273.00  738.67   1 0.06760 0.51364 0.50283-0.60212-0.86173 0.61123
   5  -1  -424321.98  587.52   1-0.10707 0.68908-0.38561 0.28673-0.91642 0.66553
  -5   1   332891.75  852.21   1-0.43710-0.16054-0.89261 0.98394 0.11034 0.07801
   5  -1  -331860.07  791.12   1 0.13620 0.46121 0.48069-0.57212-0.86624 0.67820
   5  -1  -332449.21  760.06   1-0.01335 0.61117-0.49887 0.40780-0.86656 0.67834
  -5   1   2  365.36  188.11   1-0.42620-0.18752-0.89854 0.98203 0.10470 0.02086
   5  -1  -2  168.11   65.05   1 0.21008 0.40340 0.45394-0.53745-0.86590 0.74054
   5  -1  -2  170.65   63.69   1 0.08134 0.53254-0.59978 0.51650-0.79601 0.67053
  -5   1   1 5958.39  292.91   1-0.42071-0.20910-0.90145 0.97711 0.10187-0.03908
   5  -1  -1 6119.17  650.05   1 0.28755 0.34201 0.42227-0.49786-0.85964 0.79696
   5  -1  -1 6742.40  219.46   1 0.16992 0.46011-0.68385 0.60825-0.70955 0.64677
  -5   1   0 9561.82  364.41   1-0.42114-0.22475-0.90122 0.96905 0.10209-0.10209
   5  -1   0 9672.56  320.18   1 0.36699 0.27886 0.38654-0.45424-0.84610 0.84610
   5  -1   010085.00  317.18   1 0.24840 0.39786-0.74665 0.67890-0.61709 0.61709
  -5   1  -1 3392.58  237.40   1-0.42805-0.23393-0.89755 0.95754 0.10565-0.16844
   5  -1   1 3647.85  193.06   1 0.44603 0.21591 0.34555-0.40537-0.82561 0.88828
   5  -1   1 3723.12  161.04   1 0.31488 0.34742-0.79142 0.73151-0.52391 0.58666
  -5   1  -2 4108.69  218.10   1-0.44202-0.23604-0.88986 0.94202 0.11289-0.23846
   5  -1   2 4723.30  261.91   1 0.52304 0.15499 0.30063-0.35257-0.79752 0.92286
   5  -1   2 4496.97  256.18   1 0.37009 0.30827-0.82124 0.76918-0.43425 0.55975
  -5   1  -3 1287.58  138.46   1-0.46377-0.23038-0.87720 0.92152 0.12423-0.31258
  -5   1  -3 1275.50  183.46   1-0.59673-0.09766-0.25152 0.29568 0.76200-0.95028
   5  -1   3  681.42  153.19   1 0.41538 0.27885-0.83969 0.79549-0.34981 0.53798
  -5   1  -4  204.51  108.50   1-0.49412-0.21611-0.85801 0.89450 0.14020-0.39135
  -5   1  -4  318.31  162.36   1-0.66496-0.04553-0.20060 0.23689 0.71943-0.97046
   5  -1   4   52.33   44.03   1 0.45279 0.25751-0.84932 0.81299-0.27134 0.52223
  -5   1  -5  261.98  110.22   1-0.53415-0.19217-0.82980 0.85846 0.16157-0.47550
  -5   1  -5  178.13  133.81   1-0.72697 0.00038-0.14804 0.17645 0.67051-0.98430
  -5   1  -6 3393.01  231.00   1-0.78205 0.03976-0.09500 0.11567 0.61593-0.99249
   5  -1   6 3229.23  464.30   1 0.50948 0.23311-0.85054 0.82989-0.13034 0.50688
  -5   1  -713760.69  344.94   1-0.82971 0.07134-0.04127 0.05408 0.55666-0.99598
   5  -1   713329.03  310.38   1 0.53092 0.22776-0.84480 0.83199-0.06657 0.50587
  -5   0  12 3262.98  250.26   1-0.64294 0.18435-0.73296 0.82727 0.22224 0.53068
   5   0 -12 3537.47  258.87   1-0.28524 0.74392 0.57336-0.66805-0.76804 0.01651
   5   0 -12 2915.68  212.42   1-0.48314 0.94214 0.22868-0.32248-0.84514 0.09151
  -5   0  11  289.41  156.25   1-0.60004 0.12535-0.77504 0.86149 0.19813 0.49204
   5   0 -11  208.91  110.16   1-0.27267 0.74740 0.57216-0.65896-0.77348 0.08458
   5   0 -11  -37.65   66.68   1-0.46905 0.94409 0.19683-0.28197-0.86095 0.17082
  -5   0  10 2403.72  246.65   1-0.55848 0.06769-0.81077 0.88937 0.17529 0.45214
   5   0 -10 2647.46  232.98   1-0.25397 0.74474 0.57018-0.64910-0.78126 0.15499
   5   0 -10 2812.12  228.60   1-0.44828 0.93940 0.15374-0.23113-0.88057 0.25317
  -5   0   9 1409.58  229.53   1-0.51912 0.01233-0.84079 0.91129 0.15351 0.41156
   5   0  -9 1598.71  162.09   1-0.22866 0.73547 0.56716-0.63818-0.79122 0.22758
   5   0  -9 1598.49  122.61   1-0.41913 0.92632 0.09640-0.16606-0.90279 0.33813
  -5   0   8  144.04  104.53   1-0.48180-0.04106-0.86601 0.92868 0.13369 0.36859
   5   0  -8  240.31   81.40   1-0.19624 0.71911 0.56270-0.62583-0.80302 0.30200
   5   0  -8  286.30   87.87   1-0.37881 0.90209 0.02205-0.08397-0.92521 0.42329
  -5   0   7  702.75  177.53   1-0.44736-0.09158-0.88683 0.94166 0.11566 0.32383
   5   0  -7  552.47  124.64   1-0.15628 0.69519 0.55633-0.61157-0.81613 0.37773
   5   0  -7  279.67   58.20   1-0.32412 0.86340-0.07215 0.01784-0.94325 0.50420
  -5   0   6 3914.02  241.07   1-0.41628-0.13875-0.90376 0.95076 0.09959 0.27712
   5   0  -6 3942.50  339.90   1-0.10871 0.66353 0.54698-0.59441-0.83005 0.45430
   5   0  -6 4104.53  170.82   1-0.25207 0.80740-0.18504 0.13849-0.94985 0.57351
  -5   0   5  560.23  171.26   1-0.38901-0.18210-0.91724 0.95640 0.08562 0.22830
   5   0  -5  127.53   73.89   1-0.05281 0.62368 0.53491-0.57444-0.84325 0.53013
   5   0  -5  124.14   50.47   1-0.16147 0.73307-0.31468 0.27572-0.93536 0.62175
  -5   0   419559.12  564.83   1-0.36601-0.22119-0.92766 0.95899 0.07394 0.17720
   5   0  -420438.97  583.99   1 0.01092 0.57598 0.51896-0.55058-0.85472 0.60422
   5   0  -420483.65  495.04   1-0.05678 0.64416-0.44846 0.41729-0.89199 0.64103
  -5   0   349849.84 1211.16   1-0.34773-0.25555-0.93535 0.95885 0.06471 0.12364
   5   0  -349525.56 1247.29   1 0.08191 0.52104 0.49846-0.52218-0.86302 0.67515
   5   0  -348599.85 1093.15   1 0.05407 0.54936-0.57201 0.54863-0.81846 0.63023
  -5   0   2 1899.39  170.28   1-0.33473-0.28496-0.94047 0.95621 0.05888 0.06663
   5   0  -2 2538.43  359.12   1 0.15905 0.46006 0.47276-0.48860-0.86671 0.74135
   5   0  -2 2045.69   86.83   1 0.15964 0.45999-0.67483 0.65913-0.72049 0.59493
  -5   0   2 1741.61  163.45   1-0.48721-0.13303 0.23774-0.22211-0.84029 0.96590
  -5   0   1 1590.65  205.61   1-0.32727-0.30850-0.94331 0.95119 0.05515 0.00760
   5   0  -1 1820.15  302.28   1 0.24097 0.39422 0.44177-0.44969-0.86415 0.80147
   5   0  -1 1433.57  190.31   1 0.25129 0.38453-0.74878 0.74093-0.61333 0.55058
  -5   0   012430.33  478.47   1-0.32593-0.32593-0.94382 0.94382 0.05448-0.05448
   5   0   011839.21  433.80   1 0.32563 0.32563 0.40527-0.40527-0.85422 0.85422
   5   0   011741.40  373.03   1 0.32594 0.32594-0.79798 0.79798-0.50693 0.50693
  -5   0  -1 2083.48  169.47   1-0.33124-0.33671-0.94181 0.93394 0.05713-0.11989
   5   0   1 1599.24  147.24   1 0.41093 0.25666 0.36435-0.35647-0.83569 0.89835
   5   0   1 2218.62  348.86   1 0.38491 0.28286-0.82811 0.83597-0.40751 0.47024
  -5   0  -2  474.25  108.66   1-0.34360-0.34011-0.93702 0.92135 0.06264-0.18821
   5   0   2  418.16   90.00   1 0.49448 0.18919 0.31791-0.30215-0.80895 0.93429
   5   0   2  397.01   88.08   1 0.43129 0.25254-0.84446 0.86019-0.31758 0.44303
  -5   0  -3   85.64   82.92   1-0.36410-0.33569-0.92849 0.90499 0.07297-0.26133
  -5   0  -3   82.36  103.20   1-0.57481-0.12521-0.26662 0.24301 0.77362-0.96190
   5   0   3   77.58   48.99   1 0.46796 0.23194-0.85148 0.87508-0.23660 0.42477
  -5   0  -4   57.56   71.28   1-0.39346-0.32242-0.91512 0.88379 0.08789-0.33904
  -5   0  -4  483.58  159.07   1-0.64933-0.06678-0.21283 0.18134 0.73010-0.98114
   5   0   4   55.58   39.30   1 0.49736 0.21873-0.85201 0.88340-0.16340 0.41443
  -5   0  -5 1295.71  221.51   1-0.43284-0.29912-0.89495 0.85579 0.10813-0.42206
  -5   0  -5 1400.81  255.12   1-0.71702-0.01520-0.15696 0.11760 0.67914-0.99294
   5   0   5 1030.95  173.03   1 0.52117 0.21100-0.84797 0.88721-0.09649 0.41028
  -5   0  -6 1500.76  112.98   1-0.48393-0.26412-0.86465 0.81765 0.13482-0.51154
  -5   0  -6 1691.62  145.19   1-0.77687 0.02895-0.10037 0.05325 0.62160-0.99816
   5   0   6 1926.79  135.77   1 0.54070 0.20756-0.84049 0.88758-0.03468 0.41123
  -5   0  -7 5387.21  322.00   1-0.82837 0.06437-0.04290-0.01206 0.55853-0.99785
   5   0   7 6271.72  346.56   1 0.55681 0.20753-0.83031 0.88524 0.02304 0.41625
  -5  -1  12   55.93   85.97   1-0.58278 0.11852-0.79044 0.81699 0.18859 0.56433
   5   1 -12  134.37   79.03   1-0.33266 0.79700 0.57693-0.60394-0.74598-0.00554
   5   1 -12  178.39   94.73   1-0.49299 0.95763 0.25079-0.27681-0.83310 0.07946
  -5  -1  11 3150.28  212.90   1-0.53540 0.05514-0.82886 0.84720 0.16224 0.52840
   5   1 -11 2233.85  132.79   1-0.47819 0.95883 0.21649-0.23388-0.85115 0.16101
  -5  -1  10  809.32  168.91   1-0.48941-0.00693-0.86110 0.87161 0.13771 0.49014
   5   1 -10 1217.25  230.14   1-0.30266 0.79910 0.57484-0.58608-0.76022 0.13395
   5   1 -10  907.39  158.91   1-0.45579 0.95252 0.16909-0.17874-0.87387 0.24648
  -5  -1   9   58.00  102.87   1-0.44577-0.06665-0.88774 0.89041 0.11484 0.45023
   5   1  -9  390.07  147.40   1-0.27817 0.79065 0.57269-0.57603-0.77112 0.20748
   5   1  -9  318.96  112.39   1-0.42329 0.93609 0.10438-0.10628-0.89996 0.33530
  -5  -1   8 5155.13  281.84   1-0.40496-0.12355-0.90951 0.90434 0.09377 0.40851
   5   1  -8 5326.99  270.60   1-0.24657 0.77510 0.56934-0.56479-0.78424 0.28322
   5   1  -8 5283.78  218.94   1-0.37655 0.90543 0.01803-0.01220-0.92621 0.42430
  -5  -1   7  298.26  125.11   1-0.36743-0.17717-0.92704 0.91405 0.07465 0.36484
   5   1  -7  913.85  156.86   1-0.20731 0.75188 0.56430-0.55186-0.79911 0.36072
   5   1  -7  391.06   67.83   1-0.31033 0.85523-0.09459 0.10800-0.94590 0.50685
  -5  -1   6 5393.16  281.78   1-0.33364-0.22737-0.94089 0.92034 0.05833 0.31821
   5   1  -6 4560.06  227.66   1-0.15987 0.72048 0.55694-0.53661-0.81501 0.43925
   5   1  -6 5009.71  189.36   1-0.21919 0.78037-0.23444 0.25542-0.94709 0.57076
  -5  -1   538116.26 1162.11   1-0.30401-0.27309-0.95167 0.92325 0.04356 0.27023
   5   1  -538180.35 1151.03   1-0.10413 0.68067 0.54606-0.51791-0.83124 0.51812
   5   1  -536480.27 1048.18   1-0.10298 0.68019-0.39077 0.41953-0.91470 0.60110
  -5  -1   410897.54  378.40   1-0.27891-0.31427-0.95980 0.92351 0.03115 0.21988
   5   1  -410827.67  270.57   1 0.03037 0.56261-0.54702 0.58355-0.83656 0.58560
  -5  -1   3 4230.81  231.83   1-0.25875-0.35051-0.96570 0.92154 0.02124 0.16702
   5   1  -3 4802.28  543.50   1 0.03306 0.57556 0.51288-0.46892-0.85781 0.66994
   5   1  -3 4482.00  140.37   1 0.16276 0.44645-0.67758 0.72178-0.71720 0.52886
  -5  -1   3 3969.50  131.08   1-0.57547-0.03427 0.47750-0.52184-0.66394 0.85235
  -5  -1   2 1925.65  187.28   1-0.24394-0.38142-0.96968 0.91764 0.01400 0.11151
   5   1  -2 1684.38  348.53   1 0.11301 0.51166 0.48857-0.43670-0.86517 0.73992
   5   1  -2 1807.13  264.55   1 0.27425 0.35115-0.76509 0.81716-0.58258 0.45709
  -5  -1   1  257.90  119.88   1-0.23487-0.40658-0.97197 0.91206 0.00958 0.05317
   5   1  -1  130.94   88.99   1 0.19879 0.44202 0.45824-0.39848-0.86631 0.80362
   5   1  -1   47.00   28.23   1 0.35830 0.28315-0.81552 0.87543-0.45446 0.39171
  -5  -1   1  166.36   47.26   1-0.42452-0.21691 0.10676-0.16677-0.89909 0.96183
  -5  -1   015527.16  551.89   1-0.23198-0.42555-0.97268 0.90489 0.00818-0.00818
   5   1   016465.18  568.06   1 0.28847 0.36842 0.42187-0.35420-0.85953 0.85953
   5   1   015939.85  500.77   1 0.41889 0.23847-0.84082 0.90861-0.34284 0.34284
  -5  -1  -1  954.57  150.01   1-0.23577-0.43785-0.97175 0.89609 0.01002-0.07278
   5   1   1  935.29  116.58   1 0.37958 0.29365 0.38033-0.30475-0.84336 0.90603
   5   1   1 1037.01  148.67   1 0.46266 0.21077-0.85085 0.92651-0.24894 0.31167
  -5  -1  -2  917.86  152.78   1-0.24678-0.44292-0.96894 0.88541 0.01539-0.14091
   5   1   2  867.78  120.95   1 0.46958 0.21973 0.33237-0.24891-0.81793 0.94327
   5   1   2  917.76  143.71   1 0.49516 0.19442-0.85216 0.93559-0.16920 0.29472
  -5  -1  -3 2657.07  222.47   1-0.26569-0.44010-0.96374 0.87233 0.02465-0.21292
   5   1   3 3011.61  215.22   1 0.55605 0.14935 0.27965-0.18831-0.78268 0.97068
   5   1   3 2884.50  181.69   1 0.52014 0.18553-0.84825 0.93953-0.09956 0.28784
  -5  -1  -4  143.26  105.75   1-0.29336-0.42852-0.95523 0.85595 0.03828-0.28932
  -5  -1  -4  122.23   90.92   1-0.63747-0.08428-0.22188 0.12262 0.73782-0.98886
   5   1   4   22.87   43.39   1 0.53987 0.18189-0.84091 0.94004-0.03747 0.28850
  -5  -1  -5 7118.95  426.12   1-0.33095-0.40702-0.94192 0.83477 0.05699-0.37078
  -5  -1  -5 8111.62  494.29   1-0.71088-0.02697-0.16236 0.05522 0.68431-0.99810
   5   1   5 8395.38  492.23   1 0.55577 0.18206-0.83111 0.93808 0.01909 0.29469
  -5  -1  -6  717.89  160.89   1-0.37981-0.37389-0.92151 0.80669 0.08093-0.45765
  -5  -1  -6  864.66  199.80   1-0.77547 0.02192-0.10181-0.01309 0.62311-0.99967
  -5  -1  -7  812.20  168.28   1-0.83061 0.06098-0.04016-0.08259 0.55539-0.99471
  -5  -2  12  955.71  181.34   1-0.51970 0.04987-0.84038 0.79873 0.15381 0.59961
   5   2 -12 1815.52  216.20   1-0.37201 0.84243 0.57905-0.53811-0.72547-0.02697
   5   2 -12 1132.95  193.64   1-0.50104 0.97132 0.26936-0.22759-0.82243 0.06879
  -5  -2  11  174.82  131.26   1-0.46770-0.01820-0.87481 0.82532 0.12629 0.56436
   5   2 -11   95.35   79.65   1-0.36101 0.84706 0.57832-0.52977-0.73158 0.04268
   5   2 -11  301.54  104.25   1-0.48486 0.97126 0.23249-0.18291-0.84312 0.15229
  -5  -2  10  128.93   96.46   1-0.41809-0.08389-0.90282 0.84550 0.10052 0.52734
   5   2 -10  339.44  124.99   1-0.34372 0.84582 0.57754-0.52109-0.74047 0.11419
   5   2 -10  299.75  110.10   1-0.46039 0.96272 0.17860-0.12050-0.86956 0.24216
  -5  -2   9  326.54  129.34   1-0.37134-0.14673-0.92532 0.86017 0.07664 0.48843
   5   2  -9  142.93   91.11   1-0.32004 0.83818 0.57612-0.51179-0.75209 0.18845
   5   2  -9  119.27   68.48   1-0.42283 0.94124 0.10350-0.03765-0.90027 0.33562
  -5  -2   8  -26.96   96.97   1-0.32784-0.20666-0.94310 0.87051 0.05543 0.44663
   5   2  -8  150.43   98.58   1-0.28931 0.82350 0.57372-0.50149-0.76624 0.26523
   5   2  -8  137.28   59.03   1-0.36571 0.90019-0.00180 0.07519-0.93072 0.42894
  -5  -2   7 1015.59  165.64   1-0.28812-0.26247-0.95692 0.87646 0.03569 0.40362
   5   2  -7  872.01  122.50   1-0.25085 0.80108 0.56983-0.48971-0.78253 0.34414
   5   2  -7  873.42   57.52   1-0.27975 0.83028-0.14289 0.22404-0.94937 0.51032
  -5  -2   6 3053.79  210.53   1-0.25246-0.31421-0.96743 0.87910 0.01816 0.35839
   5   2  -6 2606.64  173.03   1-0.20402 0.77030 0.56383-0.47582-0.80028 0.42452
   5   2  -6 2565.75  108.10   1-0.15320 0.71999-0.32575 0.41444-0.93295 0.55663
  -5  -2   538389.83 1171.54   1-0.22122-0.36154-0.97521 0.87901 0.00295 0.31084
   5   2  -537997.89 1144.47   1-0.14830 0.73063 0.55494-0.45904-0.81856 0.50542
   5   2  -536122.64 1025.02   1 0.01517 0.56738-0.53058 0.62701-0.84749 0.53379
  -5  -2   4  313.52  132.50   1-0.19474-0.40410-0.98080 0.87672-0.00983 0.26086
   5   2  -4  364.82  107.21   1-0.08357 0.68182 0.54177-0.43805-0.83635 0.58585
   5   2  -4  208.76   28.80   1 0.20247 0.39633-0.71127 0.81537-0.67312 0.42200
  -5  -2   4  163.69   29.31   1-0.59906 0.00005 0.75979-0.86393-0.25267 0.50360
  -5  -2   318709.76  648.95   1-0.17337-0.44156-0.98465 0.87269-0.02008 0.20836
   5   2  -320575.41  676.66   1-0.00967 0.62396 0.52437-0.41274-0.85143 0.66355
   5   2  -318455.54  535.07   1 0.35214 0.26283-0.81238 0.92435-0.46479 0.27654
  -5  -2   2  811.75  153.89   1-0.15743-0.47359-0.98714 0.86731-0.02769 0.15321
   5   2  -2  843.56  125.46   1 0.07255 0.55778 0.50133-0.38180-0.86220 0.73695
   5   2  -2  680.04   94.02   1 0.44122 0.18968-0.84695 0.96680-0.29663 0.17119
  -5  -2   2  520.71   39.70   1-0.56202-0.06946 0.43274-0.55269-0.70488 0.83048
  -5  -2   1  890.90  137.20   1-0.14727-0.49983-0.98855 0.86086-0.03252 0.09528
   5   2  -1  977.52  220.77   1 0.16178 0.48467 0.47180-0.34436-0.86673 0.80405
   5   2  -1  819.22  113.68   1 0.48963 0.15734-0.85242 0.98014-0.18339 0.12067
  -5  -2   0 1908.67  142.09   1-0.14327-0.51993-0.98908 0.85351-0.03443 0.03443
   5   2   0 2229.26  223.81   1 0.25610 0.40642 0.43559-0.30024-0.86294 0.86294
   5   2   0 1885.38  159.53   1 0.51876 0.14432-0.84860 0.98408-0.10364 0.10364
  -5  -2  -1  447.70  134.42   1-0.14582-0.53346-0.98875 0.84530-0.03321-0.02954
   5   2   1  412.80   81.05   1 0.35291 0.32570 0.39249-0.24922-0.84935 0.91203
   5   2   1  493.26   58.69   1 0.53892 0.14025-0.84137 0.98470-0.04064 0.10340
  -5  -2  -2  370.86  104.01   1-0.15544-0.53993-0.98742 0.83611-0.02864-0.09687
   5   2   2  806.28   91.75   1 0.44916 0.24580 0.34383-0.19266-0.82464 0.94997
   5   2   2  565.54   74.89   1 0.55408 0.14117-0.83236 0.98353 0.01271 0.11279
  -5  -2  -3   13.05   79.58   1-0.17271-0.53875-0.98476 0.82556-0.02040-0.16787
   5   2   3  130.25   55.48   1 0.54226 0.16878 0.28855-0.12951-0.78910 0.97710
  -5  -2  -4  684.24  141.13   1-0.19843-0.52911-0.98008 0.81301-0.00805-0.24298
  -5  -2  -4  709.90  140.21   1-0.63020-0.09718-0.22733 0.06029 0.74239-0.99343
  -5  -2  -5  157.77   74.86   1-0.70938-0.03411-0.16367-0.01123 0.68555-0.99935
  -5  -2  -6  421.93  114.52   1-0.28001-0.47971-0.95947 0.77666 0.03169-0.40824
  -5  -2  -6  289.48  110.06   1-0.77861 0.01942-0.09857-0.08412 0.61970-0.99626
  -5  -2  -6  564.85  171.93   1-0.59029-0.16929 0.78495-0.96741-0.18812-0.18827
  -5  -2  -7  517.04  176.81   1-0.83709 0.06182-0.03210-0.15844 0.54610-0.98543
  -5  -2  -7  -65.55   75.51   1-0.59591-0.17974 0.77028-0.96057-0.22703-0.21209
  -5  -3  12 1746.53  171.60   1-0.45471-0.02075-0.88258 0.77310 0.11949 0.63393
   5   3 -12 1333.51  171.05   1-0.40487 0.88096 0.57967-0.47101-0.70714-0.04530
  -5  -3  11  849.10  223.26   1-0.39946-0.09209-0.91222 0.79491 0.09095 0.59969
   5   3 -11  490.75  145.54   1-0.39390 0.88603 0.57955-0.46302-0.71341 0.02366
  -5  -3  10 1525.23  292.66   1-0.34718-0.16046-0.93558 0.81043 0.06444 0.56342
   5   3 -10 1595.92  161.50   1-0.37727 0.88545 0.57920-0.45479-0.72262 0.09558
  -5  -3   9  721.86  148.26   1-0.29821-0.22586-0.95363 0.82113 0.04068 0.52414
   5   3  -9  689.13  126.89   1-0.35466 0.87847 0.57806-0.44604-0.73488 0.17123
  -5  -3   8 1084.68  148.97   1-0.25311-0.28705-0.96725 0.82688 0.01848 0.48358
   5   3  -8 1965.50  205.14   1-0.32474 0.86459 0.57644-0.43653-0.74983 0.24882
  -5  -3   7 3391.30  249.58   1-0.21208-0.34417-0.97725 0.82900-0.00147 0.44078
   5   3  -7 3447.17  217.48   1-0.28708 0.84298 0.57352-0.42572-0.76723 0.32884
  -5  -3   621778.05  764.60   1-0.17541-0.39692-0.98430 0.82818-0.01910 0.39566
   5   3  -621709.98  740.33   1-0.24091 0.81286 0.56868-0.41299-0.78648 0.41072
  -5  -3   5 1408.52  174.14   1-0.14341-0.44501-0.98906 0.82507-0.03436 0.34815
   5   3  -5 1847.76  206.38   1-0.18557 0.77356 0.56109-0.39751-0.80667 0.49354
  -5  -3   4 2830.47  238.16   1-0.11634-0.48817-0.99208 0.82022-0.04716 0.29819
   5   3  -4 2578.09  510.99   1-0.12065 0.72456 0.54932-0.37792-0.82685 0.57635
  -5  -3   3  297.10  126.86   1-0.09448-0.52598-0.99380 0.81387-0.05856 0.24685
   5   3  -3  461.46  102.60   1-0.04584 0.66579 0.53328-0.35398-0.84469 0.65681
  -5  -3   2 2089.92  186.91   1-0.07806-0.55850-0.99474 0.80703-0.06623 0.19176
   5   3  -2 2176.64  376.19   1 0.03829 0.59771 0.51140-0.32419-0.85848 0.73323
  -5  -3   1  115.42  108.03   1-0.06737-0.58528-0.99518 0.79968-0.07122 0.13398
   5   3  -1  193.07   63.01   1 0.13060 0.52148 0.48258-0.28748-0.86605 0.80337
  -5  -3   1  151.15   24.17   1-0.60641-0.04641 0.71841-0.91378-0.34080 0.40353
  -5  -3   0  182.59  100.41   1-0.06271-0.60604-0.99532 0.79203-0.07338 0.07338
   5   3   0  228.81   96.70   1 0.22926 0.43889 0.44645-0.24342-0.86493 0.86493
  -5  -3   0  144.12   33.11   1-0.59764-0.07123 0.76478-0.96798-0.24069 0.24069
  -5  -3  -1 1802.16  165.87   1-0.06442-0.62043-0.99527 0.78419-0.07259 0.00982
   5   3   1 1587.13  112.05   1 0.33157 0.35267 0.40254-0.19160-0.85324 0.91592
  -5  -3  -1 1624.48   85.93   1-0.59532-0.08961 0.77202-0.98305-0.22264 0.15990
  -5  -3  -2   15.10   86.40   1-0.07291-0.62803-0.99497 0.77610-0.06864-0.05688
   5   3   2  132.46   71.77   1 0.43406 0.26654 0.35207-0.13321-0.82923 0.95457
  -5  -3  -2  103.61   57.52   1-0.59586-0.10513 0.77042-0.98929-0.22668 0.10122
  -5  -3  -3 1939.78  174.46   1-0.08872-0.62831-0.99417 0.76751-0.06125-0.12703
   5   3   3 1755.89  128.05   1 0.53388 0.18281 0.29386-0.06712-0.79284 0.98085
  -5  -3  -3 2104.78  137.87   1-0.59765-0.11940 0.76475-0.99145-0.24075 0.05255
  -5  -3  -4  269.51  114.83   1-0.11254-0.62059-0.99238 0.75793-0.05007-0.20098
  -5  -3  -4   54.76   57.19   1-0.62849-0.10453-0.22860-0.00620 0.74346-0.99450
  -5  -3  -4  178.95   89.81   1-0.59991-0.13320 0.75651-0.99104-0.26035 0.00941
  -5  -3  -5  469.53  132.02   1-0.14536-0.60394-0.98881 0.74608-0.03343-0.28035
  -5  -3  -5  484.97  133.13   1-0.71347-0.03565-0.16009-0.08258 0.68214-0.99594
  -5  -3  -5  365.67  109.75   1-0.60224-0.14693 0.74632-0.98868-0.28337-0.03028
  -5  -3  -6   79.43   72.05   1-0.18853-0.57686-0.98198 0.73138-0.01282-0.36373
  -5  -3  -6  236.08   95.12   1-0.78719 0.02237-0.08959-0.16089 0.61015-0.98671
  -5  -3  -6  185.62  105.64   1-0.60435-0.15947 0.73494-0.98483-0.30758-0.06838
  -5  -4  12  522.79  188.74   1-0.39027-0.09084-0.91664 0.73934 0.08626 0.66717
   5   4 -12  488.24  179.41   1-0.43133 0.91307 0.57957-0.40319-0.69140-0.06104
  -5  -4  11 1456.26  157.22   1-0.33259-0.16497-0.94129 0.75675 0.05781 0.63253
  -5  -4  10  461.28  187.31   1-0.27875-0.23490-0.95986 0.76744 0.03107 0.59652
   5   4 -10  178.92  126.63   1-0.40451 0.91835 0.57967-0.38753-0.70734 0.08031
  -5  -4   9  223.04  153.28   1-0.22876-0.30098-0.97345 0.77317 0.00661 0.55821
   5   4  -9    6.90   72.29   1-0.38221 0.91209 0.57933-0.37931-0.71992 0.15558
  -5  -4   8 3814.30  226.85   1-0.18291-0.36291-0.98300 0.77484-0.01551 0.51759
  -5  -4   7 3264.44  296.22   1-0.14146-0.42045-0.98931 0.77328-0.03528 0.47460
   5   4  -7 2741.56  654.00   1-0.31626 0.87782 0.57586-0.36039-0.75389 0.31550
   5   4  -6  810.06  142.26   1-0.27070 0.84831 0.57196-0.34859-0.77432 0.39855
  -5  -4   5 1205.36  138.11   1-0.07271-0.52122-0.99498 0.76287-0.06873 0.38255
   5   4  -5 1722.41  149.94   1-0.21572 0.80937 0.56546-0.33420-0.79606 0.48292
  -5  -4   4  316.73  179.51   1-0.04575-0.56428-0.99564 0.75574-0.08125 0.33231
   5   4  -4  194.60   95.68   1-0.15065 0.76035 0.55535-0.31620-0.81785 0.56734
  -5  -4   3 3631.38  248.41   1-0.02400-0.60212-0.99553 0.74784-0.09128 0.27957
   5   4  -3 3015.43  378.89   1-0.07514 0.70076 0.53995-0.29297-0.83833 0.65046
  -5  -4   210431.21  452.91   1-0.00766-0.63456-0.99507 0.73960-0.09878 0.22431
   5   4  -2 9126.32  359.31   1 0.01068 0.63098 0.51903-0.26415-0.85468 0.72943
  -5  -4   1 6460.93  315.93   1 0.00306-0.66138-0.99460 0.73134-0.10368 0.16645
   5   4  -1 6565.22  263.81   1 0.10586 0.55185 0.49089-0.22810-0.86476 0.80213
  -5  -4   0  420.37  150.50   1 0.00795-0.68237-0.99434 0.72328-0.10591 0.10591
   5   4   0  153.58   73.12   1 0.20868 0.46510 0.45448-0.18378-0.86596 0.86596
  -5  -4  -1 1462.88  206.10   1 0.00672-0.69724-0.99441 0.71556-0.10535 0.04259
   5   4   1 1520.33  279.62   1 0.31641 0.37345 0.40948-0.13086-0.85568 0.91836
  -5  -4  -2 1073.40  191.69   1-0.00096-0.70564-0.99479 0.70816-0.10184-0.02368
   5   4   2 1015.23  144.49   1 0.42522 0.28103 0.35682-0.07026-0.83178 0.95712
  -5  -4  -3 8835.88  540.04   1-0.01557-0.70713-0.99534 0.70092-0.09515-0.09313
   5   4   3 8214.15  479.27   1 0.53194 0.19040 0.29508-0.00064-0.79370 0.98170
  -5  -4  -4  243.69  135.65   1-0.03771-0.70108-0.99566 0.69346-0.08496-0.16609
  -5  -4  -4  218.08   93.05   1-0.63345-0.10520-0.22490-0.07767 0.74037-0.99141
  -5  -4  -5 2015.65  156.80   1-0.06823-0.68666-0.99515 0.68515-0.07082-0.24300
  -5  -4  -5 2263.55  142.97   1-0.72432-0.03043-0.15044-0.16001 0.67284-0.98664
  -5  -4  -6  660.11  201.35   1-0.10835-0.66264-0.99274 0.67496-0.05204-0.32454
  -5  -5  11 1249.17  163.95   1-0.26940-0.23383-0.96266 0.71033 0.02647 0.66388
   5   5 -11 1514.85  174.17   1-0.44143 0.94487 0.57939-0.32740-0.68515-0.00458
  -5  -5  10 1484.04  143.21   1-0.21487-0.30444-0.97664 0.71644-0.00011 0.62771
   5   5 -10 1654.19  176.23   1-0.42557 0.94505 0.57964-0.31977-0.69490 0.06787
  -5  -5   9  838.07  208.18   1-0.16464-0.37076-0.98605 0.71798-0.02425 0.58909
   5   5  -9  682.31  170.91   1-0.40367 0.93920 0.57966-0.31192-0.70783 0.14350
  -5  -5   8  810.63  182.68   1-0.11889-0.43260-0.99184 0.71589-0.04596 0.54803
   5   5  -8  781.41  158.76   1-0.37496 0.92654 0.57913-0.30351-0.72387 0.22224
  -5  -5   7  207.87  122.29   1-0.07795-0.48946-0.99475 0.71045-0.06629 0.50564
   5   5  -7  234.19  105.98   1-0.33870 0.90593 0.57727-0.29411-0.74298 0.30459
  -5  -5   6  241.15  155.64   1-0.04165-0.54186-0.99566 0.70358-0.08314 0.45973
   5   5  -6  241.93  113.96   1-0.29359 0.87686 0.57409-0.28304-0.76433 0.38857
  -5  -5   5  166.15  124.15   1-0.01028-0.58932-0.99517 0.69530-0.09758 0.41140
   5   5  -5   52.38   67.47   1-0.23886 0.83818 0.56843-0.26949-0.78729 0.47415
  -5  -5   4 1090.13  199.45   1 0.01602-0.63172-0.99384 0.68618-0.10959 0.36065
   5   5  -4 1153.02  114.42   1-0.17366 0.78903 0.55922-0.25239-0.81062 0.56011
  -5  -5   3  523.62  192.08   1 0.03715-0.66895-0.99217 0.67672-0.11917 0.30747
   5   5  -3  115.42   57.23   1-0.09737 0.72865 0.54467-0.23002-0.83297 0.64509
  -5  -5   2 2417.18  232.63   1 0.05298-0.70088-0.99057 0.66733-0.12632 0.25185
   5   5  -2 1795.54  331.06   1-0.00990 0.65723 0.52443-0.20188-0.85139 0.72614
  -5  -5   1 5706.86  382.56   1 0.06337-0.72736-0.98935 0.65832-0.13099 0.19376
   5   5  -1 6444.00  365.78   1 0.08807 0.57529 0.49655-0.16609-0.86352 0.80090
  -5  -5   0  103.80  101.84   1 0.06815-0.74823-0.98875 0.64993-0.13313 0.13313
   5   5   0  290.96   79.12   1 0.19504 0.48437 0.45965-0.12127-0.86641 0.86641
  -5  -5  -1  611.21  139.25   1 0.06709-0.76327-0.98888 0.64228-0.13266 0.06989
   5   5   1  451.88  135.49   1 0.30830 0.38719 0.41313-0.06684-0.85689 0.91957
  -5  -5  -2  385.83  117.08   1 0.05991-0.77218-0.98977 0.63538-0.12943 0.00390
   5   5   2  370.45  105.96   1 0.42367 0.28822 0.35764-0.00338-0.83221 0.95755
  -5  -5  -3  249.77  105.49   1 0.04621-0.77458-0.99129 0.62911-0.12327-0.06502
   5   5   3   78.37   52.98   1 0.53767 0.19031 0.29147 0.07066-0.79117 0.97917
  -5  -5  -4 2255.96  189.94   1 0.02547-0.76994-0.99316 0.62319-0.11388-0.13717
  -5  -5  -5 3430.07  268.86   1-0.00306-0.75749-0.99489 0.61713-0.10088-0.21293
  -5  -6  11 1126.93  172.09   1-0.21114-0.29775-0.97745 0.65734-0.00192 0.69227
  -5  -6  10 1270.47  155.49   1-0.15678-0.36820-0.98723 0.65925-0.02800 0.65560
   5   6 -10 1169.16  146.12   1-0.44086 0.96600 0.57940-0.25181-0.68551 0.05847
  -5  -6   9  404.45  181.25   1-0.10731-0.43357-0.99283 0.65635-0.05253 0.61742
   5   6  -9  179.27   85.95   1-0.41916 0.96035 0.57969-0.24422-0.69875 0.13441
  -5  -6   8  435.72  157.86   1-0.06232-0.49466-0.99534 0.65107-0.07356 0.57568
   5   6  -8  265.49  121.33   1-0.39071 0.94795 0.57950-0.23615-0.71520 0.21357
  -5  -6   7 5039.71  387.03   1-0.02216-0.55091-0.99550 0.64344-0.09213 0.53148
   5   6  -7 3976.05  287.38   1-0.35472 0.92761 0.57806-0.22722-0.73485 0.29646
  -5  -6   6  910.51  187.42   1 0.01309-0.60226-0.99403 0.63418-0.10825 0.48484
   5   6  -6  520.20  124.46   1-0.30982 0.89876 0.57540-0.21667-0.75691 0.38115
  -5  -6   5 1867.56  171.74   1 0.04338-0.64865-0.99158 0.62394-0.12199 0.43581
   5   6  -5 2280.03  179.63   1-0.25513 0.86011 0.57031-0.20369-0.78079 0.46765
  -5  -6   4  764.62  190.07   1 0.06865-0.69002-0.98868 0.61326-0.13336 0.38442
   5   6  -4  993.07  154.47   1-0.18962 0.81065 0.56171-0.18720-0.80530 0.55479
  -5  -6   3 1278.43  221.69   1 0.08884-0.72630-0.98581 0.60260-0.14238 0.33068
   5   6  -3  927.46  199.61   1-0.11238 0.74932 0.54771-0.16538-0.82908 0.64121
  -5  -6   2  171.57  119.29   1 0.10387-0.75743-0.98335 0.59235-0.14907 0.27460
   5   6  -2  187.13   70.72   1-0.02315 0.67614 0.52778-0.13755-0.84906 0.72381
  -5  -6   1  386.91  150.09   1 0.11366-0.78332-0.98160 0.58281-0.15341 0.21618
   5   6  -1  510.19  142.20   1 0.07777 0.59126 0.49974-0.10160-0.86267 0.80005
  -5  -6   0  571.64  175.35   1 0.11809-0.80384-0.98077 0.57419-0.15537 0.15537
  -5  -6  -1  673.16  158.00   1 0.11697-0.81881-0.98098 0.56661-0.15487 0.09211
   5   6   1  677.11  177.73   1 0.30823 0.39289 0.41316 0.00079-0.85690 0.91958
  -5  -6  -2  614.35  176.16   1 0.11006-0.82800-0.98226 0.56010-0.15182 0.02629
   5   6   2 1140.30  272.67   1 0.43069 0.28685 0.35389 0.06807-0.83021 0.95555
  -5  -6  -3 6557.69  239.58   1 0.09703-0.83106-0.98450 0.55456-0.14603-0.04226
  -5  -6  -4 1500.17  165.53   1 0.07739-0.82753-0.98750 0.54976-0.13727-0.11378
  -5  -7  10 5945.12  396.30   1-0.10565-0.42480-0.99297 0.59651-0.05331 0.68096
   5   7 -10 5736.09  389.43   1-0.45077 0.98157 0.57914-0.18382-0.67925 0.05222
  -5  -7   9  520.80  150.73   1-0.05700-0.48955-0.99547 0.59122-0.07604 0.64092
  -5  -7   8 4603.29  277.68   1-0.01326-0.54938-0.99527 0.58323-0.09621 0.59833
   5   7  -8 5263.56  248.05   1-0.40060 0.96350 0.57964-0.16856-0.70959 0.20796
  -5  -7   7 2735.60  232.17   1 0.02554-0.60429-0.99316 0.57333-0.11392 0.55327
   5   7  -7 3810.54  234.49   1-0.36461 0.94316 0.57846-0.15994-0.72968 0.29129
  -5  -7   6  313.53  162.74   1 0.05942-0.65426-0.98983 0.56222-0.12921 0.50580
   5   7  -6  574.87  147.52   1-0.31963 0.91423 0.57610-0.14969-0.75229 0.37652
   5   7  -5 3356.38  220.84   1-0.26466 0.87531 0.57134-0.13704-0.77686 0.46372
  -5  -7   4 4307.24  338.79   1 0.11237-0.73940-0.98184 0.53865-0.15284 0.40390
   5   7  -4 4859.43  326.94   1-0.19853 0.82523 0.56304-0.12085-0.80222 0.55171
  -5  -7   3 3314.35  267.15   1 0.13142-0.77455-0.97812 0.52714-0.16125 0.34955
   5   7  -3 2765.43  508.23   1-0.12005 0.76266 0.54920-0.09921-0.82701 0.63914
   5   7  -2   53.30   70.90   1-0.02873 0.68739 0.52916-0.07126-0.84803 0.72278
   5   7  -1 1067.99  212.81   1-0.15445 0.82943 0.97303-0.50724 0.17129-0.23397
   5   7  -1  560.84  205.84   1 0.07550 0.59920 0.50043-0.03463-0.86247 0.79984
   5   7   0  155.78   85.49   1-0.15836 0.84944 0.97210-0.49851 0.17300-0.17300
   5   7   0  259.33   74.95   1 0.19166 0.49901 0.46092 0.01280-0.86649 0.86649
   5   7   1  106.27   44.08   1 0.31739 0.38936 0.40904 0.07259-0.85553 0.91821
   5   7   2 3362.57  252.83   1-0.15021 0.87349 0.97402-0.48483 0.16943-0.04407
  -5  -8   9  365.51  140.71   1-0.01407-0.53814-0.99529 0.52328-0.09584 0.66073
   5   8  -9  129.25  106.94   1-0.43360 0.98610 0.57954-0.10861-0.69001 0.12567
  -5  -8   8 7378.85  434.31   1 0.02811-0.59642-0.99295 0.51316-0.11508 0.61720
   5   8  -8 7531.94  433.27   1-0.40489 0.97344 0.57967-0.10087-0.70713 0.20550
   5   8  -7 1152.15  124.97   1-0.36858 0.95280 0.57860-0.09240-0.72757 0.28918
  -5  -8   6 2393.20  229.33   1 0.09765-0.69815-0.98440 0.48903-0.14631 0.52289
   5   8  -6 2458.03  161.17   1-0.32317 0.92343 0.57633-0.08225-0.75059 0.37483
   5   8  -5  134.76   86.31   1-0.26756 0.88387 0.57164-0.06966-0.77565 0.46251
   5   8  -4  148.32  125.31   1-0.14773 0.78011 0.97459-0.46455 0.16834-0.41906
   5   8  -4  111.75   65.47   1-0.20039 0.83275 0.56331-0.05344-0.80157 0.55106
   5   8  -3 1437.98  172.26   1-0.16553 0.81401 0.97034-0.45250 0.17614-0.36418
   5   8  -3 1044.23  284.59   1-0.12020 0.76847 0.54923-0.03156-0.82697 0.63910
   5   8  -2  243.55  128.49   1-0.17854 0.84312 0.96698-0.44134 0.18181-0.30717
   5   8  -2  186.31   66.38   1-0.02626 0.69058 0.52855-0.00298-0.84849 0.72324
   5   8  -1  208.11   94.58   1-0.18675 0.86743 0.96475-0.43131 0.18537-0.24805
   5   8   0 2205.13  203.64   1-0.19008 0.88686 0.96382-0.42258 0.18682-0.18682
   5   8   1  366.21   94.73   1-0.18841 0.90129 0.96429-0.41524 0.18609-0.12341
  -5  -9   7 1477.41  205.20   1 0.09761-0.68769-0.98441 0.42906-0.14629 0.58564
   5   9  -7 1312.78  158.16   1-0.36678 0.95666 0.57853-0.02466-0.72853 0.29014
  -5  -9   6  157.11  122.52   1 0.12830-0.73447-0.97876 0.41562-0.15988 0.53647
   5   9  -6  251.32  121.07   1-0.32054 0.92646 0.57616-0.01439-0.75185 0.37609
   5   9  -5  301.18  112.84   1-0.15429 0.77626 0.97307-0.40317 0.17122-0.48462
   5   9  -5  629.88  138.38   1-0.26381 0.88579 0.57125-0.00159-0.77721 0.46408
   5   9  -4 1501.76  185.42   1-0.17549 0.81356 0.96779-0.39009 0.18048-0.43120
   5   9  -4  974.22  178.18   1-0.19508 0.83309 0.56253 0.01501-0.80342 0.55291
   5   9  -3 4672.06  302.68   1-0.19206 0.84624 0.96326-0.37776 0.18768-0.37572
   5   9  -3 4989.24  298.78   1-0.11254 0.76647 0.54774 0.03760-0.82904 0.64116
   5   9  -2 1806.10  191.70   1-0.20404 0.87431 0.95977-0.36647 0.19285-0.31821
   5   9  -2  848.85  151.89   1-0.01521 0.68519 0.52578 0.06745-0.85047 0.72522
   5   9  -1  299.64  120.59   1-0.21141 0.89778 0.95753-0.35643 0.19603-0.25871
  -6   8   4 3147.71  300.22   1-0.84436 0.17233-0.40685 0.98018 0.34858-0.09763
   6  -8  -4 3053.73  240.01   1-0.07359 0.74633-0.42825-0.14448-0.90065 0.64969
  -6   8   3  199.33  115.68   1-0.84342 0.15528-0.40938 0.97487 0.34789-0.15968
  -6   8   3  255.17  163.80   1-0.59961-0.08909-0.24950 0.81531 0.76040-0.57212
   6  -8  -3   63.45   76.81   1-0.03076 0.71958-0.47897-0.08596-0.87728 0.68906
  -6   8   2  518.34  181.14   1-0.63153-0.07327-0.22634 0.78428 0.74157-0.61605
   6  -8  -2  621.35  200.34   1 0.01423 0.69064-0.52955-0.02759-0.84815 0.72267
  -6   8   1  690.62  235.53   1-0.84707 0.12671-0.39943 0.94925 0.35059-0.28786
  -6   8   1  519.98  186.73   1-0.66400-0.05690-0.20136 0.75143 0.72010-0.65734
   6  -8  -1  654.96  219.53   1 0.06067 0.66026-0.57882 0.02946-0.81319 0.75045
  -6   8   0   69.98   85.47   1-0.85178 0.11532-0.38607 0.92805 0.35414-0.35414
  -6   8   0  505.25  184.51   1-0.69649-0.04050-0.17474 0.71693 0.69595-0.69595
   6  -8   0  240.79  102.97   1 0.10706 0.62973-0.62626 0.08427-0.77222 0.77222
  -6   7   6  326.92  180.11   1-0.82213 0.17648-0.46190 0.98333 0.33276 0.04371
   6  -7  -6  225.32  107.63   1 0.44192 0.20386 0.34780-0.86899-0.82688 0.45087
   6  -7  -6   19.35   68.95   1-0.15824 0.80485-0.31901-0.20176-0.93444 0.55811
  -6   7   5  759.78  207.38   1-0.81662 0.15487-0.47424 0.98781 0.32895-0.01522
   6  -7  -5  782.36  154.62   1 0.47357 0.18829 0.33009-0.84339-0.81655 0.50321
   6  -7  -5  780.78  159.59   1-0.11880 0.78145-0.37068-0.14230-0.92112 0.60752
  -6   7   4 2351.12  218.33   1-0.81294 0.13510-0.48223 0.98795 0.32643-0.07545
   6  -7  -4 1848.79  179.77   1 0.50764 0.17031 0.31004-0.81547-0.80384 0.55317
   6  -7  -4 2294.35  237.15   1-0.07639 0.75476-0.42484-0.08020-0.90203 0.65107
  -6   7   3  692.28  229.58   1-0.81131 0.11737-0.48571 0.98357 0.32533-0.13709
   6  -7  -3  355.92  126.33   1 0.54351 0.15053 0.28776-0.78530-0.78853 0.60053
   6  -7  -3  217.49   91.70   1-0.03030 0.72474-0.47950-0.01774-0.87701 0.68879
  -6   7   2 1312.58  189.23   1-0.81192 0.10187-0.48442 0.97443 0.32574-0.20025
  -6   7   2  578.26  180.53   1-0.58051-0.12991-0.26274 0.75291 0.77068-0.64516
   6  -7  -2 1041.70  293.53   1 0.01797 0.69252-0.53363 0.04417-0.84552 0.72004
  -6   7   1  529.72  173.18   1-0.81491 0.08876-0.47799 0.96014 0.32778-0.26503
   6  -7  -1  507.19  149.30   1 0.06752 0.65903-0.58584 0.10418-0.80760 0.74486
  -6   7   0 1583.72  163.64   1-0.82037 0.07813-0.46589 0.94019 0.33154-0.33154
  -6   7   0 1343.26  159.98   1-0.65568-0.08695-0.20791 0.68233 0.72584-0.72584
   6  -7   0 1474.32  137.41   1 0.11675 0.62570-0.63552 0.16128-0.76320 0.76320
  -6   7  -1  367.06  127.88   1-0.82833 0.06999-0.44745 0.91390 0.33710-0.39985
  -6   7  -1  157.10  127.03   1-0.69265-0.06607-0.17797 0.64452 0.69896-0.76172
   6  -7   1  132.45   79.06   1 0.16598 0.59257-0.68041 0.21401-0.71378 0.77656
  -6   7  -2 1252.16  190.31   1-0.83871 0.06434-0.42179 0.88036 0.34444-0.46992
  -6   7  -2  696.47  238.33   1-0.72853-0.04630-0.14662 0.60530 0.66912-0.79464
   6  -7   2 1251.68  140.03   1 0.21374 0.56089-0.72036 0.26182-0.65983 0.78539
  -6   6   7 1471.85  175.40   1-0.79557 0.16033-0.51766 0.97918 0.31478 0.12443
   6  -6  -7 1350.70  135.09   1 0.33836 0.29684 0.39938-0.86085-0.85205 0.41329
   6  -6  -7 1368.75  142.29   1-0.20246 0.83866-0.25825-0.20259-0.94462 0.50557
  -6   6   6 3903.15  268.33   1-0.78648 0.13515-0.53484 0.98851 0.30883 0.06764
   6  -6  -6 3776.07  206.51   1 0.37175 0.27968 0.38421-0.83769-0.84509 0.46908
   6  -6  -6 3015.35  190.03   1-0.16416 0.81638-0.31106-0.14199-0.93610 0.55977
  -6   6   5  215.10  129.21   1-0.77930 0.11187-0.54786 0.99367 0.30418 0.00955
   6  -6  -5   94.38   99.45   1 0.40770 0.25981 0.36603-0.81164-0.83653 0.52319
   6  -6  -5   43.33   66.63   1-0.12143 0.78969-0.36731-0.07795-0.92213 0.60852
  -6   6   4  129.55  107.45   1-0.77430 0.09076-0.55665 0.99461 0.30097-0.04998
   6  -6  -4  124.92  101.26   1 0.44634 0.23725 0.34538-0.78310-0.82552 0.57484
   6  -6  -4  124.86   77.91   1-0.07537 0.75935-0.42608-0.01125-0.90153 0.65057
  -6   6   3  307.15  169.68   1-0.77173 0.07210-0.56108 0.99119 0.29933-0.11109
   6  -6  -3  257.24  134.48   1 0.48702 0.21266 0.32230-0.75214-0.81174 0.62373
   6  -6  -3  205.39  110.84   1-0.02551 0.72557-0.48502 0.05546-0.87413 0.68590
   6  -6  -2 1670.73  131.35   1 0.52906 0.18671 0.29689-0.71885-0.79495 0.66961
   6  -6  -2 1623.28  146.40   1 0.02646 0.68965-0.54282 0.12106-0.83943 0.71394
  -6   6   1  649.89  174.65   1-0.77480 0.04297-0.55578 0.97017 0.30129-0.23854
   6  -6  -1  880.02  207.21   1 0.07942 0.65275-0.59786 0.18390-0.79764 0.73490
  -6   6   0 4462.39  286.29   1-0.78079 0.03286-0.54519 0.95173 0.30514-0.30514
  -6   6   0 4770.62  335.84   1-0.61445-0.13381-0.23889 0.64554 0.75191-0.75191
   6  -6   0 4299.24  234.29   1 0.13162 0.61651-0.64946 0.24296-0.74891 0.74891
  -6   6  -1  395.91  145.12   1-0.78991 0.02588-0.52845 0.92714 0.31107-0.37381
   6  -6   1  326.57  129.27   1 0.18313 0.58108-0.69518 0.29654-0.69511 0.75789
  -6   6  -2  912.32  251.47   1-0.80219 0.02206-0.50458 0.89541 0.31918-0.44467
  -6   6  -2  512.38  190.18   1-0.69725-0.08322-0.17410 0.56500 0.69536-0.82088
   6  -6   2  651.38  181.51   1 0.23248 0.54781-0.73502 0.34423-0.63693 0.76249
  -6   6  -3 3217.47  271.03   1-0.81753 0.02130-0.47224 0.85522 0.32958-0.51782
  -6   6  -3 2807.35  267.59   1-0.73624-0.06032-0.13955 0.52258 0.66216-0.85044
   6  -6   3 2105.70  427.77   1 0.27922 0.51745-0.76849 0.38549-0.57571 0.76396
  -6   5   8  335.34  171.13   1-0.76849 0.14367-0.56660 0.96822 0.29727 0.20470
   6  -5  -8   65.96   83.15   1 0.23453 0.39021 0.44435-0.84607-0.86460 0.36315
   6  -5  -8  264.92  123.76   1-0.24491 0.87031-0.19571-0.20497-0.94958 0.44780
  -6   5   7  616.00  203.70   1-0.75529 0.11437-0.58824 0.98200 0.28895 0.15026
   6  -5  -7  507.23  186.79   1 0.26647 0.37436 0.43127-0.82507-0.86197 0.42320
   6  -5  -7  500.07  150.44   1-0.20841 0.85022-0.24984-0.14328-0.94559 0.50654
  -6   5   6 7203.71  373.40   1-0.74398 0.08695-0.60580 0.99171 0.28193 0.09454
   6  -5  -6 6017.94  758.40   1 0.30259 0.35432 0.41568-0.80156-0.85769 0.48161
   6  -5  -6 6559.89  284.19   1-0.16668 0.82453-0.30765-0.07768-0.93678 0.56045
  -6   5   5  359.50  171.07   1-0.73488 0.06176-0.61933 0.99739 0.27634 0.03738
   6  -5  -5  495.69  125.93   1 0.34238 0.33060 0.39749-0.77545-0.85133 0.53793
   6  -5  -5  279.12   96.52   1-0.12002 0.79389-0.36912-0.00842-0.92159 0.60799
  -6   5   4  299.37  114.93   1-0.72830 0.03908-0.62880 0.99900 0.27234-0.02135
   6  -5  -4  624.95  142.75   1 0.38583 0.30341 0.37720-0.74723-0.84192 0.59125
   6  -5  -4  480.08  119.76   1-0.06963 0.75924-0.43304 0.06339-0.89867 0.64771
  -6   5   3  887.54  212.14   1-0.72454 0.01922-0.63411 0.99646 0.27006-0.08182
   6  -5  -3  672.00  147.92   1 0.43103 0.27430 0.35371-0.71585-0.83011 0.64211
   6  -5  -3  485.34  117.92   1-0.01539 0.72107-0.49656 0.13470-0.86786 0.67964
  -6   5   2  316.95  161.81   1-0.72387 0.00244-0.63505 0.98955 0.26965-0.14415
   6  -5  -2  155.21   81.12   1 0.47786 0.24355 0.32762-0.68189-0.81504 0.68971
   6  -5  -2  262.62  101.21   1 0.04075 0.68097-0.55806 0.20399-0.82879 0.70331
  -6   5   1 2540.84  201.01   1-0.72653-0.01098-0.63131 0.97795 0.27126-0.20851
   6  -5  -1 2495.83  185.83   1 0.52554 0.21195 0.29908-0.64546-0.79646 0.73379
   6  -5  -1 2139.37  165.19   1 0.09686 0.64085-0.61637 0.26977-0.78147 0.71869
  -6   5   0 6467.46  370.04   1-0.73276-0.02085-0.62241 0.96120 0.27505-0.27505
  -6   5   0 5777.90  316.67   1-0.57339-0.18051-0.26758 0.60646 0.77435-0.77435
   6  -5   0 5759.16  299.77   1 0.15258 0.60122-0.66855 0.32981-0.72784 0.72784
  -6   5  -1  520.10  160.34   1-0.74274-0.02697-0.60768 0.93861 0.28116-0.34391
  -6   5  -1  259.66  166.86   1-0.62049-0.14950-0.23449 0.56549 0.74832-0.81108
   6  -5   1  224.37   84.34   1 0.20616 0.56373-0.71427 0.38338-0.66881 0.73159
  -6   5  -2  181.81   93.16   1-0.75660-0.02921-0.58615 0.90922 0.28977-0.41527
  -6   5  -2  111.63  122.27   1-0.66625-0.11985-0.19958 0.52270 0.71852-0.84404
   6  -5   2  318.95  100.50   1 0.25688 0.52936-0.75284 0.42975-0.60599 0.73149
  -6   5  -3  160.03  130.08   1-0.71002-0.09218-0.16311 0.47837 0.68502-0.87330
   6  -5   3  147.56   78.21   1 0.30374 0.49855-0.78454 0.46929-0.54058 0.72883
  -6   5  -4  622.78  208.67   1-0.79608-0.02193-0.51666 0.82403 0.31512-0.56611
  -6   5  -4 1201.71  187.70   1-0.75127-0.06703-0.12538 0.43276 0.64797-0.89901
   6  -5   4  459.53  192.32   1 0.34665 0.47169-0.80950 0.50210-0.47384 0.72484
  -6   4   9 1099.77  235.84   1-0.74214 0.12772-0.60858 0.95030 0.28079 0.28391
   6  -4  -9  665.27  172.21   1 0.13394 0.48036 0.48145-0.82342-0.86617 0.30204
   6  -4  -9  561.70  121.86   1-0.28489 0.89988-0.13490-0.20581-0.94901 0.38451
  -6   4   8 3055.15  256.96   1-0.72440 0.09388-0.63431 0.96817 0.26997 0.23199
   6  -4  -8 2175.62  317.79   1 0.16338 0.46699 0.47123-0.80527-0.86674 0.36529
   6  -4  -8 2405.78  160.77   1-0.25093 0.88197-0.18674-0.14622-0.94981 0.44804
  -6   4   7  682.58  191.71   1-0.70853 0.06173-0.65587 0.98194 0.26041 0.17879
   6  -4  -7 1175.16  332.46   1 0.19776 0.44870 0.45863-0.78475-0.86634 0.42757
   6  -4  -7 1072.98  228.58   1-0.21092 0.85835-0.24627-0.07913-0.94596 0.50692
  -6   4   6 5287.42  340.51   1-0.69478 0.03188-0.67352 0.99174 0.25225 0.12420
   6  -4  -6 4273.00  419.10   1 0.23672 0.42581 0.44348-0.76168-0.86445 0.48837
   6  -4  -6 5152.37  269.75   1-0.16499 0.82845-0.30993-0.00768-0.93633 0.56000
  -6   4   5 1152.09  239.89   1-0.68355 0.00455-0.68731 0.99767 0.24566 0.06805
   6  -4  -5  911.00  237.08   1 0.27979 0.39882 0.42562-0.73590-0.86055 0.54715
  -6   4   4  319.96  179.16   1-0.67517-0.01992-0.69725 0.99974 0.24077 0.01019
   6  -4  -4  299.69  120.88   1 0.32639 0.36830 0.40493-0.70730-0.85410 0.60338
   6  -4  -4  210.44   76.75   1-0.05791 0.75314-0.44711 0.14515-0.89260 0.64163
  -6   4   3  608.73  183.72   1-0.66997-0.04123-0.70328 0.99792 0.23775-0.04952
   6  -4  -3  584.80  148.55   1 0.37629 0.33468 0.38196-0.67641-0.84409 0.65609
   6  -4  -3  194.71   68.59   1 0.00144 0.70984-0.51546 0.22130-0.85690 0.66868
  -6   4   211090.86  691.90   1-0.66825-0.05906-0.70525 0.99203 0.23676-0.11127
   6  -4  -210013.35  598.59   1 0.42766 0.29940 0.35551-0.64208-0.83109 0.70575
  -6   4   1   95.05  112.58   1-0.67031-0.07310-0.70289 0.98181 0.23795-0.17521
   6  -4  -1  170.69   67.63   1 0.12229 0.62110-0.64075 0.36190-0.75794 0.69516
  -6   4   0 1804.14  348.55   1-0.67643-0.08308-0.69577 0.96683 0.24151-0.24151
   6  -4   0 2175.27  189.32   1 0.53293 0.22629 0.29446-0.56526-0.79326 0.79326
   6  -4   0 2268.06  185.63   1 0.18075 0.57872-0.69316 0.42216-0.69774 0.69774
  -6   4  -1 2333.57  192.21   1-0.68689-0.08872-0.68326 0.94646 0.24761-0.31036
  -6   4  -1 2386.33  208.30   1-0.58524-0.19038-0.25950 0.52273 0.76820-0.83096
   6  -4   1 2033.10  235.50   1 0.23610 0.53971-0.73745 0.47427-0.63278 0.69553
  -6   4  -2 2329.59  186.01   1-0.70193-0.08979-0.66446 0.91980 0.25648-0.38197
  -6   4  -2 3296.59  256.03   1-0.63603-0.15570-0.22297 0.47832 0.73874-0.86426
   6  -4   2 1943.23  383.25   1 0.28705 0.50482-0.77375 0.51841-0.56471 0.69021
  -6   4  -3  103.72   80.04   1-0.72171-0.08589-0.63805 0.88552 0.26834-0.45658
  -6   4  -3  204.11  119.76   1-0.68466-0.12317-0.18464 0.43212 0.70508-0.89336
   6  -4   3  123.82   65.76   1 0.33342 0.47449-0.80225 0.55476-0.49518 0.68343
  -6   4  -4  484.18  134.93   1-0.74644-0.07726-0.60205 0.84166 0.28345-0.53444
  -6   4  -4  179.22  112.02   1-0.73050-0.09343-0.14483 0.38444 0.66736-0.91840
  -6   3  10  481.99  169.99   1-0.71769 0.11368-0.64358 0.92539 0.26592 0.36154
   6  -3 -10  421.11  157.55   1 0.04053 0.56332 0.51077-0.79284-0.85876 0.23251
   6  -3 -10  348.62  133.07   1-0.32168 0.92624-0.07615-0.20460-0.94377 0.31655
  -6   3   9 1782.13  213.61   1-0.69518 0.07492-0.67302 0.94705 0.25249 0.31220
   6  -3  -9 1814.61  266.19   1 0.06604 0.55386 0.50330-0.77746-0.86158 0.29796
   6  -3  -9 1458.09  172.21   1-0.29087 0.91148-0.12554-0.14745-0.94848 0.38398
  -6   3   8 2427.96  209.64   1-0.67433 0.03797-0.69824 0.96441 0.24028 0.26166
   6  -3  -8 1278.61  314.11   1 0.09698 0.53897 0.49374-0.76000-0.86418 0.36318
   6  -3  -8 2651.31  190.48   1-0.25351 0.89017-0.18288-0.08235-0.94988 0.44810
  -6   3   7 1296.97  267.07   1-0.65556 0.00309-0.71943 0.97774 0.22945 0.20975
   6  -3  -7 1171.80  269.80   1 0.13303 0.51906 0.48176-0.74021-0.86614 0.42737
   6  -3  -7 1486.07  275.55   1-0.20907 0.86211-0.24891-0.00878-0.94569 0.50664
  -6   3   6 1628.84  271.36   1-0.63924-0.02932-0.73681 0.98727 0.22014 0.15632
   6  -3  -6 1271.83  300.40   1 0.17426 0.49390 0.46732-0.71785-0.86674 0.49065
   6  -3  -6 1791.80  337.26   1-0.15783 0.82691-0.31956 0.06965-0.93432 0.55799
  -6   3   5 1223.41  229.69   1-0.62574-0.05892-0.75052 0.99311 0.21250 0.10121
   6  -3  -5 1005.59  247.40   1 0.22009 0.46415 0.45006-0.69267-0.86544 0.55204
   6  -3  -5  765.19  137.81   1-0.10034 0.78545-0.39408 0.15197-0.91358 0.59997
  -6   3   4  675.54  162.96   1-0.61539-0.08537-0.76063 0.99536 0.20669 0.04427
   6  -3  -4 1027.12  167.16   1 0.26994 0.43038 0.42981-0.66450-0.86162 0.61089
   6  -3  -4  973.87  139.22   1-0.03838 0.73922-0.47014 0.23588-0.88175 0.63079
  -6   3   311263.43  477.48   1-0.60855-0.10831-0.76713 0.99400 0.20287-0.01464
   6  -3  -311184.67  442.24   1 0.32310 0.39329 0.40643-0.63321-0.85463 0.66659
   6  -3  -3 9624.26  354.53   1 0.02699 0.68991-0.54339 0.31692-0.83904 0.65082
  -6   3   226198.98 5714.86   1-0.60556-0.12741-0.76994 0.98895 0.20120-0.07571
   6  -3  -225929.95 5651.51   1 0.37915 0.35355 0.38055-0.59941-0.84346 0.71812
   6  -3  -225426.95  809.52   1 0.09256 0.64041-0.61215 0.39321-0.78529 0.65974
  -6   3   1 2219.01  245.60   1-0.60674-0.14233-0.76883 0.97999 0.20186-0.13912
   6  -3  -1 2903.32  196.57   1 0.43626 0.31253 0.35088-0.56186-0.82858 0.76591
   6  -3  -1 2367.45  146.24   1 0.15680 0.59225-0.67232 0.46122-0.72346 0.66068
  -6   3   0  218.10  133.84   1-0.61243-0.15274-0.76346 0.96676 0.20504-0.20504
   6  -3   0  198.16   91.02   1 0.49391 0.27096 0.31825-0.52135-0.80917 0.80917
   6  -3   0  427.29  103.53   1 0.21743 0.54771-0.72330 0.52005-0.65540 0.65540
  -6   3  -1  305.04  146.07   1-0.62297-0.15831-0.75326 0.94869 0.21094-0.27369
   6  -3   1  279.18  103.49   1 0.55110 0.22986 0.28287-0.47809-0.78502 0.84769
   6  -3   1   77.98   62.51   1 0.27337 0.50807-0.76449 0.56906-0.58379 0.64654
  -6   3  -2  299.47  107.00   1-0.63869-0.15870-0.73739 0.92497 0.21982-0.34531
  -6   3  -2  276.04  115.34   1-0.60710-0.19026-0.24418 0.43175 0.75617-0.88169
   6  -3   2  265.09   96.03   1 0.32364 0.47385-0.79664 0.60906-0.51050 0.63600
  -6   3  -3  249.44  102.64   1-0.65992-0.15357-0.71462 0.89434 0.23195-0.42019
  -6   3  -3  126.01  111.07   1-0.66065-0.15281-0.20401 0.38372 0.72243-0.91071
   6  -3   3  224.93   78.37   1 0.36834 0.44520-0.82042 0.64068-0.43730 0.62555
  -6   3  -4 2878.86  218.59   1-0.68701-0.14258-0.68313 0.85498 0.24768-0.49866
  -6   3  -4 2945.61  285.23   1-0.71115-0.11841-0.16212 0.33395 0.68408-0.93512
   6  -3   4 1872.73  433.26   1 0.40744 0.42186-0.83696 0.66505-0.36533 0.61622
  -6   3  -5  578.58  225.24   1-0.75801-0.08721-0.11928 0.28338 0.64123-0.95503
   6  -3   5    4.72   72.16   1 0.44189 0.40348-0.84710 0.68306-0.29518 0.60879
  -6   2  10  482.37  152.37   1-0.66878 0.05896-0.70464 0.91876 0.23707 0.39037
   6  -2 -10   50.76   74.85   1-0.02266 0.63218 0.52766-0.74205-0.84915 0.22290
   6  -2 -10  411.07  118.90   1-0.32745 0.93764-0.06667-0.14635-0.94251 0.31529
  -6   2   9  852.94  264.97   1-0.64281 0.01689-0.73309 0.93935 0.22217 0.34252
   6  -2  -9  872.48  236.10   1 0.00364 0.62193 0.52090-0.72740-0.85360 0.28998
   6  -2  -9 1029.14  288.08   1-0.29340 0.91964-0.12157-0.08370-0.94822 0.38372
  -6   2   8  668.45  175.92   1-0.61882-0.02320-0.75732 0.95572 0.20861 0.29333
   6  -2  -8  489.34  116.04   1-0.25163 0.89392-0.18570-0.01181-0.94983 0.44806
  -6   2   7  936.24  217.00   1-0.59718-0.06094-0.77764 0.96819 0.19655 0.24265
   6  -2  -7  848.63  217.40   1 0.07313 0.58453 0.50115-0.69184-0.86225 0.42388
   6  -2  -7  855.80  166.27   1-0.20140 0.86006-0.25974 0.06976-0.94444 0.50539
   6  -2  -6 1129.14  241.38   1 0.11608 0.55762 0.48756-0.67033-0.86533 0.48958
   6  -2  -6  811.35  143.74   1-0.14326 0.81795-0.33890 0.15672-0.92984 0.55351
  -6   2   5 1778.86  179.02   1-0.56245-0.12788-0.80755 0.98238 0.17746 0.13626
   6  -2  -5 1661.34  237.81   1 0.16399 0.52588 0.47101-0.64595-0.86674 0.55334
   6  -2  -5 2442.13  144.71   1-0.07805 0.76877-0.42168 0.24729-0.90337 0.58976
  -6   2   4 1381.94  253.15   1-0.55008-0.15635-0.81746 0.98443 0.17073 0.08024
   6  -2  -4 1009.42  243.83   1 0.21663 0.48932 0.45141-0.61843-0.86561 0.61489
   6  -2  -4 1628.37  123.67   1-0.00820 0.71467-0.50468 0.33812-0.86326 0.61230
  -6   2   3  722.46  192.66   1-0.54164-0.18066-0.82413 0.98328 0.16561 0.02274
   6  -2  -3  239.59  120.48   1 0.27314 0.44889 0.42846-0.58756-0.86128 0.67324
   6  -2  -3  309.48   96.89   1 0.06414 0.65838-0.58238 0.42361-0.81037 0.62215
  -6   2   217889.08  652.15   1-0.53720-0.20119-0.82751 0.97882 0.16321-0.03764
   6  -2  -220069.03  690.49   1 0.33265 0.40546 0.40204-0.55322-0.85305 0.72769
   6  -2  -219647.65  633.81   1 0.13515 0.60350-0.65272 0.50152-0.74544 0.61988
  -6   2   1 1248.45  256.38   1-0.53727-0.21720-0.82745 0.97094 0.16325-0.10046
   6  -2  -1  603.75   94.95   1 0.20250 0.55222-0.71130 0.56795-0.67308 0.61030
  -6   2   0  317.43  123.92   1-0.54222-0.22833-0.82368 0.95933 0.16592-0.16592
   6  -2   0  428.85  147.76   1 0.45683 0.31369 0.33957-0.47497-0.82219 0.82219
   6  -2   0  504.42  142.20   1 0.26418 0.50683-0.75806 0.62255-0.59627 0.59627
  -6   2  -1 1118.78  227.64   1-0.55237-0.23458-0.81566 0.94333 0.17197-0.23472
   6  -2   1  619.34  137.28   1 0.51895 0.26765 0.30315-0.43067-0.79923 0.86190
   6  -2   1  316.06   94.18   1 0.31890 0.46816-0.79384 0.66617-0.51779 0.58054
  -6   2  -2  592.51  157.43   1-0.56826-0.23479-0.80277 0.92258 0.18063-0.30611
  -6   2  -2 1224.18  243.98   1-0.58001-0.22299-0.26309 0.38290 0.77095-0.89647
   6  -2   2  940.36  205.38   1 0.36677 0.43634-0.81967 0.69984-0.44002 0.56551
  -6   2  -3  311.91  139.11   1-0.59027-0.22889-0.78386 0.89581 0.19272-0.38095
  -6   2  -3  171.80  119.94   1-0.63850-0.18060-0.22111 0.33304 0.73717-0.92545
   6  -2   3   77.74   71.25   1 0.40796 0.41094-0.83715 0.72516-0.36433 0.55249
  -6   2  -4  197.88   87.42   1-0.61889-0.21637-0.75725 0.86134 0.20865-0.45963
  -6   2  -4  497.02  195.36   1-0.69371-0.14148-0.17708 0.28114 0.69813-0.94917
   6  -2   4  369.32  142.83   1 0.44359 0.39138-0.84748 0.74336-0.29153 0.54242
  -6   2  -5  726.38  256.17   1-0.74488-0.10642-0.13147 0.22766 0.65410-0.96790
  -6   1  10  503.70  155.62   1-0.61524-0.00024-0.76078 0.90713 0.20661 0.42082
   6  -1 -10  277.53  142.48   1-0.07951 0.69470 0.54090-0.68762-0.83731 0.21107
   6  -1 -10  197.10   86.13   1-0.32977 0.94558-0.06285-0.08245-0.94196 0.31474
  -6   1   9 1351.53  168.42   1-0.58596-0.04562-0.78766 0.92616 0.19034 0.37435
   6  -1  -9  787.23  251.26   1-0.05279 0.68402 0.53491-0.67373-0.84325 0.27963
   6  -1  -9 1168.92  114.20   1-0.29140 0.92327-0.12472-0.01282-0.94843 0.38393
  -6   1   8 2681.59  238.46   1-0.55894-0.08875-0.81041 0.94105 0.17554 0.32640
   6  -1  -8 2849.86  455.43   1-0.02022 0.66750 0.52705-0.65796-0.84959 0.34859
   6  -1  -8 3129.76  175.24   1-0.24366 0.89158-0.19756 0.06777-0.94952 0.44774
  -6   1   7 3012.89  301.48   1-0.53475-0.12886-0.82935 0.95201 0.16189 0.27761
   6  -1  -7 2682.91  330.05   1 0.01823 0.64510 0.51699-0.64000-0.85579 0.41742
   6  -1  -7 2794.78  202.29   1-0.18557 0.84984-0.28183 0.15957-0.94134 0.50229
   6  -1  -6  178.33   92.16   1 0.06248 0.61690 0.50436-0.61947-0.86122 0.48547
   6  -1  -6  149.26   62.57   1-0.11804 0.79835-0.37165 0.25718-0.92083 0.54450
  -6   1   5  203.22  129.88   1-0.49523-0.20055-0.85727 0.96426 0.14079 0.17313
   6  -1  -5  181.58   94.83   1 0.11228 0.58314 0.48880-0.59600-0.86513 0.55201
   6  -1  -5  307.56   91.78   1-0.04294 0.73896-0.46481 0.35815-0.88436 0.57066
  -6   1   415308.05  586.15   1-0.48086-0.23101-0.86661 0.96577 0.13320 0.11794
   6  -1  -413314.53  484.79   1 0.16710 0.54447 0.46990-0.56924-0.86675 0.61603
   6  -1  -414367.66  470.93   1 0.03711 0.67496-0.55420 0.45534-0.83155 0.58058
  -6   1   3  618.21  182.91   1-0.47054-0.25741-0.87307 0.96440 0.12777 0.06058
   6  -1  -3  268.23  116.96   1 0.22654 0.50111 0.44753-0.53895-0.86509 0.67705
   6  -1  -3  260.39   70.17   1 0.11719 0.61104-0.63593 0.54464-0.76278 0.57445
  -6   1   2 2206.98  250.36   1-0.46463-0.27940-0.87668 0.96017 0.12468 0.00089
   6  -1  -2 2119.70  278.44   1 0.28958 0.45415 0.42139-0.50490-0.85939 0.73403
   6  -1  -2 2299.31  165.14   1 0.19319 0.55112-0.70362 0.62017-0.68380 0.55824
  -6   1   1 1518.27  228.41   1-0.46349-0.29662-0.87736 0.95302 0.12408-0.06130
   6  -1  -1 1702.84  133.31   1 0.35516 0.40465 0.39141-0.46700-0.84891 0.78622
   6  -1  -1 1577.80  276.21   1 0.26201 0.49857-0.75652 0.68092-0.59918 0.53643
  -6   1   0  422.19  142.83   1-0.46751-0.30869-0.87492 0.94275 0.12619-0.12619
   6  -1   0  396.64  138.45   1 0.42229 0.35387 0.35837-0.42607-0.83260 0.83260
   6  -1   0  364.66  125.85   1 0.32186 0.45477-0.79559 0.72784-0.51325 0.51325
  -6   1  -1  416.02  117.78   1-0.47710-0.31518-0.86899 0.92898 0.13122-0.19401
   6  -1   1  425.33  120.84   1 0.48924 0.30300 0.32100-0.38082-0.81092 0.87359
   6  -1   1  474.41  123.56   1 0.37291 0.41978-0.82256 0.76265-0.42933 0.49208
  -6   1  -2 5329.78  304.42   1-0.49271-0.31566-0.85894 0.91110 0.13945-0.26503
   6  -1   2 5369.14  298.01   1 0.55500 0.25333 0.28034-0.33228-0.78318 0.90851
   6  -1   2 5321.93  251.95   1 0.41575 0.39276-0.83981 0.78775-0.34909 0.47453
  -6   1  -3  138.23  115.38   1-0.51485-0.30960-0.84383 0.88815 0.15122-0.33958
  -6   1  -3  106.17  103.38   1-0.61874-0.20599-0.23578 0.27993 0.74937-0.93765
   6  -1   3   97.12   50.60   1 0.45183 0.37274-0.84914 0.80495-0.27347 0.46163
  -6   1  -4 1510.24  151.00   1-0.54417-0.29637-0.82218 0.85868 0.16698-0.41812
  -6   1  -4 1842.46  184.19   1-0.67869-0.16214-0.18954 0.22583 0.70953-0.96057
   6  -1   4 1171.44  213.88   1 0.48211 0.35853-0.85241 0.81608-0.20238 0.45327
  -6   1  -5  239.52  129.53   1-0.73423-0.12270-0.14141 0.16983 0.66400-0.97780
   6  -1   5  220.39   89.79   1 0.50766 0.34921-0.85084 0.82233-0.13544 0.44923
  -6   0  11 1519.37  199.65   1-0.59268-0.01236-0.78170 0.86816 0.19405 0.49612
   6   0 -11 2471.57  238.68   1-0.15067 0.75564 0.55536-0.64216-0.81784 0.12894
  -6   0  10  532.88  162.26   1-0.55816-0.06298-0.81103 0.88963 0.17512 0.45231
   6   0 -10  340.89   96.05   1-0.12995 0.75080 0.55109-0.63014-0.82426 0.19801
  -6   0   9  120.51  116.48   1-0.52607-0.11102-0.83577 0.90627 0.15723 0.40784
   6   0  -9  203.98  125.49   1-0.10306 0.73996 0.54584-0.61699-0.83152 0.26790
   6   0  -9  163.34   68.44   1-0.28305 0.92055-0.13777 0.06794-0.94915 0.38465
  -6   0   8  610.66  158.82   1-0.49623-0.15695-0.85661 0.91927 0.14132 0.36097
   6   0  -8  779.88  263.47   1-0.07018 0.72312 0.53885-0.60209-0.83946 0.33847
   6   0  -8  710.87  135.32   1-0.22636 0.88022-0.22409 0.16176-0.94791 0.44614
  -6   0   7  271.39  131.50   1-0.46929-0.19996-0.87384 0.92867 0.12712 0.31238
   6   0  -7  687.42  164.19   1-0.03115 0.70015 0.52975-0.58509-0.84757 0.40920
   6   0  -7  119.63   53.82   1-0.15729 0.82718-0.32028 0.26574-0.93417 0.49512
   6   0  -6  157.26   80.02   1 0.01401 0.67102 0.51813-0.56556-0.85518 0.47943
   6   0  -6  187.16   61.51   1-0.07625 0.76217-0.42388 0.37713-0.90249 0.52617
  -6   0   5  405.25  196.25   1-0.42554-0.27589-0.89889 0.93806 0.10436 0.20957
   6   0  -5  291.60  127.92   1 0.06520 0.63588 0.50355-0.54307-0.86150 0.54837
   6   0  -5  114.77   53.00   1 0.01313 0.68850-0.52835 0.48939-0.84891 0.53521
  -6   0   411457.44  502.92   1-0.40939-0.30812-0.90728 0.93861 0.09605 0.15509
   6   0  -410433.63  401.85   1 0.12193 0.59527 0.48548-0.51715-0.86570 0.61497
   6   0  -411660.23  381.86   1 0.10556 0.61226-0.62481 0.59341-0.77360 0.52249
  -6   0   3  298.10  138.43   1-0.39751-0.33609-0.91317 0.93667 0.08996 0.09839
   6   0  -3  250.25   79.45   1 0.18392 0.54936 0.46378-0.48754-0.86664 0.67860
   6   0  -3  216.47   56.16   1 0.19352 0.54037-0.70390 0.68035-0.68341 0.49508
  -6   0   221129.24 1123.50   1-0.39023-0.35945-0.91666 0.93233 0.08624 0.03932
   6   0  -222928.59 1182.50   1 0.25015 0.49922 0.43804-0.45387-0.86344 0.73808
   6   0  -221702.26 1088.18   1 0.27173 0.47842-0.76335 0.74766-0.58604 0.46054
  -6   0   1  344.87  173.20   1-0.38791-0.37785-0.91776 0.92559 0.08506-0.02227
   6   0  -1  215.17  115.35   1 0.31952 0.44592 0.40807-0.41599-0.85520 0.79252
   6   0  -1  267.46   85.55   1 0.33745 0.42876-0.80450 0.79666-0.48876 0.42601
  -6   0   0 4818.83  300.42   1-0.39092-0.39092-0.91633 0.91633 0.08660-0.08660
   6   0   0 4544.18  243.08   1 0.39090 0.39090 0.37464-0.37464-0.84073 0.84073
   6   0   0 4870.37  264.54   1 0.39102 0.39102-0.83067 0.83067-0.39633 0.39633
  -6   0  -1 5800.66  382.11   1-0.39969-0.39824-0.91211 0.90428 0.09107-0.15386
   6   0   1 5986.56  394.10   1 0.46255 0.33534 0.33635-0.32847-0.82030 0.88297
   6   0   1 5223.96  332.73   1 0.43434 0.36376-0.84527 0.85314-0.31121 0.37393
  -6   0  -2  -24.95   91.79   1-0.41467-0.39935-0.90459 0.88892 0.09876-0.22433
   6   0   2  153.19   93.72   1 0.53322 0.28076 0.29428-0.27852-0.79313 0.91847
   6   0   2  110.58   60.35   1 0.46932 0.34485-0.85162 0.86735-0.23340 0.35884
  -6   0  -3 1417.58  183.67   1-0.43643-0.39367-0.89298 0.86948 0.10999-0.29835
  -6   0  -3 1038.53  234.85   1-0.60193-0.22843-0.24785 0.22424 0.75910-0.94738
   6   0   3  960.19  266.55   1 0.49780 0.33256-0.85197 0.87552-0.16224 0.35052
  -6   0  -4  431.65  144.19   1-0.46567-0.38051-0.87604 0.84471 0.12522-0.37637
  -6   0  -4  265.95  117.74   1-0.66664-0.17982-0.19926 0.16777 0.71824-0.96928
   6   0   4  104.01   56.41   1 0.52113 0.32531-0.84798 0.87937-0.09663 0.34766
  -6   0  -5  192.69  134.87   1-0.72655-0.13601-0.14842 0.10906 0.67088-0.98468
   6   0   5  163.90   76.44   1 0.54042 0.32210-0.84063 0.87987-0.03560 0.34938
  -6  -1  11  212.91  116.75   1-0.53671-0.07385-0.82787 0.84621 0.16295 0.52769
   6   1 -11  -11.27   72.44   1-0.19471 0.80535 0.56248-0.58160-0.80355 0.11465
  -6  -1  10 3293.01  287.83   1-0.49914-0.12751-0.85466 0.86516 0.14286 0.48500
   6   1 -10 3459.90  279.38   1-0.17369 0.80037 0.55922-0.57046-0.81061 0.18434
  -6  -1   9  331.68  171.38   1-0.46406-0.17867-0.87702 0.87969 0.12438 0.44069
   6   1  -9  441.09  146.16   1-0.14683 0.78955 0.55468-0.55802-0.81900 0.25535
  -6  -1   8  251.43  154.92   1-0.43184-0.22698-0.89550 0.89034 0.10761 0.39467
   6   1  -8  187.79   77.70   1-0.11413 0.77274 0.54805-0.54362-0.82861 0.32762
  -6  -1   7  549.79  186.44   1-0.40280-0.27210-0.91058 0.89758 0.09267 0.34683
   6   1  -7  652.90  137.10   1-0.07478 0.74944 0.53987-0.52753-0.83841 0.40004
   6   1  -6  452.91  119.43   1-0.02896 0.71967 0.52922-0.50897-0.84798 0.47224
  -6  -1   5  239.34  130.56   1-0.35554-0.35153-0.93213 0.90347 0.06865 0.24527
  -6  -1   411282.55  484.55   1-0.33811-0.38544-0.93915 0.90285 0.06058 0.19045
   6   1  -410687.78  863.19   1 0.08175 0.64105 0.49851-0.46246-0.86301 0.61251
  -6  -1   3  853.55  196.17   1-0.32498-0.41467-0.94417 0.90001 0.05400 0.13427
   6   1  -3  992.01  215.03   1 0.14580 0.59311 0.47739-0.43347-0.86650 0.67846
  -6  -1   2 2093.60  254.55   1-0.31658-0.43915-0.94725 0.89521 0.04981 0.07570
   6   1  -2 1657.62  305.74   1 0.21490 0.54009 0.45208-0.40024-0.86570 0.74033
  -6  -1   1  723.28  191.82   1-0.31325-0.45857-0.94844 0.88853 0.04815 0.01460
   6   1  -1  281.53   98.77   1 0.28781 0.48327 0.42216-0.36241-0.85961 0.79693
  -6  -1   0  394.14  148.31   1-0.31534-0.47257-0.94770 0.87991 0.04919-0.04919
   6   1   0  477.55  128.02   1 0.36324 0.42420 0.38837-0.32067-0.84688 0.84688
  -6  -1  -1  505.30  143.62   1-0.32324-0.48075-0.94482 0.86916 0.05314-0.11590
   6   1   1  449.77  128.33   1 0.43947 0.36406 0.34914-0.27356-0.82762 0.89029
  -6  -1  -2  391.62  150.04   1-0.33743-0.48265-0.93941 0.85588 0.06024-0.18575
   6   1   2  454.12  117.86   1 0.51499 0.30463 0.30557-0.22211-0.80087 0.92620
  -6  -1  -3  481.53  177.35   1-0.35812-0.47763-0.93104 0.83972 0.06995-0.25831
  -6  -1  -3  156.77  125.51   1-0.58868-0.24731-0.25713 0.16574 0.76637-0.95465
   6   1   3   28.09   32.14   1 0.54239 0.29363-0.83962 0.93090-0.02895 0.21722
  -6  -1  -4  424.63  124.58   1-0.38671-0.46512-0.91832 0.81916 0.08445-0.33560
  -6  -1  -4  416.39  139.13   1-0.65816-0.19394-0.20597 0.10671 0.72415-0.97519
  -6  -2  10 3416.76  303.36   1-0.43907-0.19322-0.89152 0.83419 0.11136 0.51650
   6   2 -10 2422.64  193.56   1-0.21153 0.84388 0.56489-0.50844-0.79759 0.17131
  -6  -2   9  267.12  168.65   1-0.40182-0.24656-0.91106 0.84591 0.09217 0.47290
  -6  -2   8  634.48  160.75   1-0.36772-0.29674-0.92691 0.85393 0.07480 0.42748
   6   2  -8  373.51  111.75   1-0.15179 0.81622 0.55555-0.48332-0.81750 0.31648
  -6  -2   7  660.04  198.20   1-0.33716-0.34380-0.93952 0.85906 0.06010 0.37921
   6   2  -7  635.87  169.68   1-0.11252 0.79284 0.54773-0.46772-0.82904 0.39067
  -6  -2   6  177.66  124.85   1-0.31029-0.38676-0.94949 0.86116 0.04668 0.32987
   6   2  -6  186.45   87.95   1-0.06624 0.76261 0.53798-0.45006-0.84034 0.46460
  -6  -2   5  911.10  210.95   1-0.28742-0.42572-0.95715 0.86094 0.03534 0.27844
   6   2  -5 1177.17  279.72   1-0.01314 0.72556 0.52526-0.42944-0.85083 0.53771
  -6  -2   4 3517.46  242.92   1-0.26881-0.46041-0.96283 0.85875 0.02618 0.22485
   6   2  -4 3391.20  604.43   1 0.04665 0.68181 0.50901-0.40528-0.85949 0.60899
  -6  -2   3 3307.77  257.02   1-0.25475-0.49056-0.96681 0.85486 0.01928 0.16899
   6   2  -3 2382.01  427.96   1 0.11274 0.63177 0.48865-0.37702-0.86515 0.67728
  -6  -2   2  553.08  191.71   1-0.24550-0.51590-0.96928 0.84945 0.01476 0.11075
   6   2  -2  608.27  191.47   1 0.18435 0.57627 0.46363-0.34411-0.86663 0.74127
  -6  -2   112314.32  746.97   1-0.24136-0.53613-0.97035 0.84265 0.01274 0.05001
   6   2  -112767.61  739.35   1 0.26056 0.51614 0.43374-0.30631-0.86253 0.79985
  -6  -2   0 4343.94  308.33   1-0.24265-0.55092-0.97002 0.83444 0.01337-0.01337
   6   2   0 3819.34  288.10   1 0.33988 0.45290 0.39866-0.26331-0.85178 0.85178
  -6  -2  -1 2678.91  215.36   1-0.24975-0.55991-0.96816 0.82471 0.01684-0.07960
   6   2   1 3631.18  225.46   1 0.42060 0.38857 0.35927-0.21599-0.83307 0.89574
  -6  -2  -2  120.22   90.68   1-0.26309-0.56266-0.96448 0.81316 0.02337-0.14889
   6   2   2  241.11  113.94   1 0.50095 0.32431 0.31406-0.16290-0.80647 0.93181
  -6  -2  -3  237.53  126.75   1-0.28322-0.55862-0.95847 0.79928 0.03327-0.22155
  -6  -2  -3  358.57  148.18   1-0.57963-0.26200-0.26335 0.10418 0.77114-0.95942
  -6  -2  -4 1228.50  155.90   1-0.31084-0.54708-0.94930 0.78223 0.04695-0.29799
  -6  -2  -4 1796.38  193.39   1-0.65390-0.20383-0.20930 0.04226 0.72705-0.97809
  -6  -3  10  390.57  149.42   1-0.37979-0.25815-0.92152 0.79637 0.08093 0.54693
   6   3 -10  907.38  141.17   1-0.24332 0.88133 0.56896-0.44484-0.78553 0.15926
  -6  -3   9  261.57  125.65   1-0.34095-0.31349-0.93803 0.80553 0.06200 0.50282
   6   3  -9  304.58  129.69   1-0.21666 0.87072 0.56559-0.43357-0.79571 0.23206
  -6  -3   8 1769.37  166.90   1-0.30560-0.36493-0.95112 0.81075 0.04435 0.45771
   6   3  -8 1555.94  170.71   1-0.18373 0.85383 0.56081-0.42090-0.80729 0.30627
  -6  -3   7 2263.34  205.96   1-0.27394-0.41268-0.96131 0.81307 0.02870 0.41061
   6   3  -7 1948.35  166.16   1-0.14413 0.83027 0.55420-0.40640-0.81980 0.38141
  -6  -3   6   24.83  114.00   1-0.24619-0.45652-0.96910 0.81298 0.01510 0.36145
   6   3  -6  217.97  113.90   1-0.09770 0.79973 0.54474-0.38915-0.83288 0.45714
  -6  -3   5  491.11  146.18   1-0.22260-0.49620-0.97490 0.81091 0.00362 0.31017
   6   3  -5  565.29  187.76   1-0.04389 0.76197 0.53282-0.36933-0.84508 0.53196
  -6  -3   4 3713.91  319.77   1-0.20338-0.53150-0.97908 0.80721-0.00567 0.25670
   6   3  -4 4215.96  486.83   1 0.01707 0.71705 0.51730-0.34590-0.85563 0.60513
  -6  -3   3 4323.41  332.99   1-0.18877-0.56221-0.98193 0.80220-0.01270 0.20098
   6   3  -3 4770.12  579.94   1 0.08492 0.66525 0.49753-0.31823-0.86327 0.67540
  -6  -3   2  254.43  162.71   1-0.17899-0.58807-0.98369 0.79608-0.01739 0.14291
   6   3  -2  222.83  115.48   1 0.15895 0.60730 0.47280-0.28561-0.86671 0.74135
  -6  -3   1  209.74  151.61   1-0.17432-0.60883-0.98449 0.78900-0.01963 0.08239
   6   3  -1   10.50   56.81   1 0.23831 0.54402 0.44284-0.24773-0.86434 0.80166
  -6  -3   0 1338.41  262.63   1-0.17503-0.62421-0.98437 0.78101-0.01929 0.01929
   6   3   0  769.66  186.86   1 0.32148 0.47693 0.40718-0.20415-0.85489 0.85489
  -6  -3  -1  170.75  105.56   1-0.18145-0.63387-0.98326 0.77203-0.01621-0.04654
   6   3   1   61.12   55.94   1 0.40657 0.40825 0.36662-0.15564-0.83683 0.89949
  -6  -3  -2 2027.94  189.45   1-0.19400-0.63741-0.98094 0.76184-0.01018-0.11533
   6   3   2 1614.14  130.82   1 0.49175 0.33916 0.31953-0.10066-0.80998 0.93532
  -6  -3  -3  111.58   85.66   1-0.21319-0.63431-0.97700 0.75003-0.00093-0.18734
  -6  -3  -3  283.62  125.11   1-0.57549-0.27177-0.26616 0.03922 0.77328-0.96156
  -6  -4  10  735.69  241.33   1-0.32269-0.32133-0.94502 0.75261 0.05286 0.57472
   6   4 -10  513.23  187.64   1-0.26928 0.91295 0.57182-0.38001-0.77492 0.14865
  -6  -4   9  281.26  127.58   1-0.28291-0.37720-0.95857 0.75828 0.03312 0.53170
  -6  -4   8  922.31  237.97   1-0.24682-0.42938-0.96893 0.76077 0.01541 0.48666
   6   4  -8  951.64  229.03   1-0.20977 0.88553 0.56464-0.35706-0.79822 0.29721
  -6  -4   7  387.03  173.70   1-0.21461-0.47767-0.97669 0.76066-0.00024 0.43955
   6   4  -7  228.29   91.14   1-0.17005 0.86186 0.55863-0.34316-0.81178 0.37339
   6   4  -6 1880.37  236.39   1-0.12327 0.83096 0.54982-0.32656-0.82613 0.45038
  -6  -4   5 1177.84  224.41   1-0.16263-0.56184-0.98636 0.75458-0.02522 0.33901
   6   4  -5 1191.28  283.75   1-0.06881 0.79255 0.53855-0.30738-0.83977 0.52665
  -6  -4   4 1677.53  176.98   1-0.14320-0.59735-0.98909 0.74944-0.03446 0.28549
   6   4  -4 1575.53  414.27   1-0.00674 0.74653 0.52362-0.28455-0.85192 0.60142
  -6  -4   3  -88.85  100.27   1-0.12841-0.62823-0.99085 0.74332-0.04146 0.22974
   6   4  -3  102.70   59.63   1 0.06276 0.69307 0.50428-0.25730-0.86125 0.67338
  -6  -4   2  276.71  113.58   1-0.11843-0.65429-0.99188 0.73648-0.04617 0.17169
   6   4  -2  294.15   95.00   1 0.13911 0.63277 0.47970-0.22483-0.86633 0.74097
  -6  -4   1  885.90  229.35   1-0.11350-0.67532-0.99235 0.72908-0.04850 0.11126
   6   4  -1  548.18  187.26   1 0.22155 0.56641 0.44949-0.18671-0.86537 0.80269
  -6  -4   0  676.25  202.81   1-0.11384-0.69106-0.99232 0.72117-0.04834 0.04834
   6   4   0  581.00  192.40   1 0.30853 0.49551 0.41303-0.14233-0.85685 0.85685
  -6  -4  -1  351.73  148.40   1-0.11977-0.70121-0.99175 0.71273-0.04554-0.01721
   6   4   1   86.49   52.39   1 0.39801 0.42245 0.37102-0.09234-0.83899 0.90166
  -6  -4  -2   54.94   86.24   1-0.13166-0.70542-0.99049 0.70359-0.03993-0.08558
   6   4   2   72.21   49.12   1 0.48812 0.34843 0.32166-0.03510-0.81133 0.93667
  -6  -4  -3  176.74   97.02   1-0.14997-0.70320-0.98819 0.69343-0.03124-0.15702
  -6  -4  -3  125.88   73.68   1-0.57707-0.27583-0.26509-0.02961 0.77247-0.96074
  -6  -5   9 1664.56  179.21   1-0.22886-0.43692-0.97343 0.70536 0.00666 0.55817
   6   5  -9 2146.24  227.74   1-0.26303 0.92841 0.57117-0.30379-0.77754 0.21389
  -6  -5   8  555.62  137.11   1-0.19254-0.48932-0.98122 0.70528-0.01089 0.51296
   6   5  -8  554.86  143.97   1-0.23004 0.91147 0.56734-0.29207-0.79069 0.28968
  -6  -5   7  619.19  191.80   1-0.16028-0.53767-0.98671 0.70290-0.02633 0.46565
   6   5  -7  507.35  139.34   1-0.19014 0.88761 0.56179-0.27864-0.80512 0.36673
   6   5  -613972.26  343.04   1-0.14284 0.85636 0.55397-0.26292-0.82018 0.44442
  -6  -5   5  448.54  130.54   1-0.10854-0.62141-0.99273 0.69285-0.05195 0.36577
   6   5  -5  906.28  248.07   1-0.08780 0.81721 0.54267-0.24384-0.83533 0.52221
  -6  -5   4 1211.70  315.42   1-0.08926-0.65678-0.99413 0.68647-0.06100 0.31206
   6   5  -4 1095.16  294.67   1-0.02462 0.77007 0.52814-0.22140-0.84879 0.59829
  -6  -5   3 -204.88  108.67   1-0.07459-0.68755-0.99490 0.67945-0.06785 0.25615
   6   5  -3  179.65   80.18   1 0.04655 0.71495 0.50904-0.19439-0.85948 0.67160
  -6  -5   2  464.09  169.78   1-0.06468-0.71356-0.99527 0.67203-0.07247 0.19800
   6   5  -2  206.76   82.36   1 0.12522 0.65229 0.48439-0.16185-0.86584 0.74048
  -6  -5   1   92.14  104.70   1-0.05971-0.73462-0.99541 0.66438-0.07478 0.13754
   6   5  -1   17.38   35.37   1 0.21077 0.58282 0.45367-0.12322-0.86588 0.80320
  -6  -5   0  586.46  163.35   1-0.05989-0.75054-0.99540 0.65658-0.07469 0.07469
   6   5   0  118.93   80.82   1 0.30165 0.50802 0.41609-0.07772-0.85782 0.85782
  -6  -5  -1 1238.03  167.86   1-0.06549-0.76103-0.99524 0.64863-0.07209 0.00933
   6   5   1 1536.66  137.70   1 0.39567 0.43044 0.37222-0.02584-0.83957 0.90224
  -6  -5  -2  354.97  149.64   1-0.07684-0.76578-0.99480 0.64040-0.06680-0.05871
   6   5   2  175.36   81.67   1 0.49091 0.35129 0.32002 0.03423-0.81030 0.93563
  -6  -6   8  611.96  206.61   1-0.14358-0.54395-0.98904 0.64531-0.03428 0.53635
   6   6  -8  811.57  128.74   1-0.24467 0.93177 0.56912-0.22618-0.78500 0.28398
  -6  -6   7 1355.28  184.48   1-0.11166-0.59196-0.99251 0.64091-0.04936 0.48868
   6   6  -7 1894.12  172.69   1-0.20447 0.90760 0.56390-0.21306-0.80013 0.36173
   6   6  -6 6181.10  361.09   1-0.15666 0.87584 0.55639-0.19766-0.81601 0.44024
  -6  -6   5 1837.47  191.61   1-0.06084-0.67478-0.99538 0.62774-0.07425 0.38808
   6   6  -5 1842.99  396.14   1-0.10079 0.83586 0.54538-0.17886-0.83210 0.51898
  -6  -6   4  503.58  225.11   1-0.04199-0.70972-0.99566 0.62023-0.08299 0.33405
  -6  -6   3  361.49  211.83   1-0.02769-0.74011-0.99559 0.61238-0.08958 0.27787
   6   6  -3  334.28  128.41   1 0.03656 0.73060 0.51189-0.12957-0.85826 0.67039
  -6  -6   2 2282.29  208.48   1-0.01807-0.76583-0.99540 0.60440-0.09400 0.21953
   6   6  -2 1522.61  300.15   1 0.11779 0.66541 0.48699-0.09677-0.86542 0.74017
  -6  -6   1   28.03  103.65   1-0.01328-0.78672-0.99527 0.59648-0.09620 0.15897
   6   6  -1   -0.01   45.64   1 0.20649 0.59272 0.45531-0.05718-0.86605 0.80337
  -6  -6   0 4954.25  354.66   1-0.01348-0.80261-0.99527 0.58869-0.09611 0.09611
   6   6   0 4270.12  592.75   1 0.30150 0.51380 0.41616-0.01011-0.85784 0.85784
  -6  -7   6  443.36  202.55   1-0.04236-0.68283-0.99566 0.56805-0.08282 0.45941
   6   7  -6  393.10  164.00   1-0.16459 0.88944 0.55773-0.13133-0.81353 0.43776
  -6  -7   5  906.88  189.71   1-0.01973-0.72155-0.99544 0.56004-0.09324 0.40707
   6   7  -5  190.17   83.99   1-0.10769 0.84842 0.54677-0.11259-0.83032 0.51720
  -6  -7   4 1794.54  209.38   1-0.00151-0.75586-0.99482 0.55163-0.10159 0.35265
   6   7  -4  809.31  212.49   1-0.04186 0.79864 0.53234-0.09025-0.84549 0.59499
  -6  -7   3 1036.35  170.74   1 0.01221-0.78569-0.99409 0.54311-0.10786 0.29615
   6   7  -3 1194.01  271.05   1 0.03309 0.73973 0.51287-0.06288-0.85782 0.66995
  -6  -7   2 4751.05  351.15   1 0.02138-0.81095-0.99347 0.53470-0.11202 0.23755
   6   7  -2 3064.54  565.27   1 0.11706 0.67181 0.48724-0.02934-0.86538 0.74013
  -7   4   5  390.95  193.80   1-0.68932-0.12004-0.68030 0.99065 0.24904 0.06467
   7  -4  -5  646.15  208.40   1 0.34680 0.46206 0.39540-0.70569-0.85051 0.53711
   7  -4  -5  377.32  129.81   1-0.00366 0.81315-0.50977 0.20002-0.86030 0.54659
  -7   4   4 1066.89  190.57   1-0.68351-0.14195-0.68736 0.98985 0.24563 0.00533
   7  -4  -4 1006.04  168.68   1 0.38822 0.43697 0.37600-0.67832-0.84136 0.59069
   7  -4  -4  474.30  156.66   1 0.04886 0.77669-0.56657 0.26462-0.82255 0.57159
  -7   4   3  816.38  193.90   1-0.68068-0.16089-0.69075 0.98539 0.24398-0.05575
   7  -4  -3  252.88  112.96   1 0.43141 0.40986 0.35350-0.64794-0.83000 0.64200
   7  -4  -3  170.80   73.93   1 0.10207 0.73950-0.62144 0.32690-0.77677 0.58844
  -7   4   2  807.93  159.81   1-0.68105-0.17662-0.69031 0.97709 0.24419-0.11871
   7  -4  -2  672.76  222.40   1 0.47630 0.38105 0.32852-0.61508-0.81559 0.69026
   7  -4  -2  450.84  151.20   1 0.15548 0.70218-0.67114 0.38445-0.72483 0.59927
  -7   4   1 5113.76  388.17   1-0.68485-0.18892-0.68574 0.96466 0.24642-0.18368
   7  -4  -1 5334.80  383.48   1 0.52226 0.35119 0.30111-0.57979-0.79785 0.73518
   7  -4  -1 6054.67  382.61   1 0.20740 0.66634-0.71528 0.43643-0.66734 0.60456
  -7   3   6  384.91  165.94   1-0.64889-0.15004-0.72665 0.97710 0.22563 0.15082
   7  -3  -6  137.00   79.44   1 0.25720 0.54122 0.43513-0.68567-0.86284 0.48676
   7  -3  -6  126.01   67.34   1-0.03542 0.83446-0.47358 0.22374-0.88003 0.50358
  -7   3   5  477.03  216.41   1-0.63880-0.17622-0.73727 0.97986 0.21989 0.09382
   7  -3  -5  210.82   82.22   1 0.29785 0.51665 0.41777-0.66039-0.85833 0.54493
   7  -3  -5   83.86   46.27   1 0.01989 0.79521-0.53571 0.29366-0.84416 0.53045
  -7   3   4  466.80  143.57   1-0.63170-0.19943-0.74454 0.97928 0.21587 0.03510
   7  -3  -4  374.40  114.56   1 0.34168 0.48890 0.39782-0.63252-0.85146 0.60074
   7  -3  -4  347.09   93.62   1 0.07720 0.75397-0.59563 0.36137-0.79953 0.54857
  -7   3   3  907.37  199.19   1-0.62784-0.21939-0.74843 0.97530 0.21369-0.02545
   7  -3  -3 1315.47  164.52   1 0.38855 0.45837 0.37584-0.60258-0.84129 0.65328
   7  -3  -3 1298.66  122.96   1 0.13450 0.71275-0.65212 0.42533-0.74608 0.55774
  -7   3   2 2216.28  207.72   1-0.62749-0.23585-0.74878 0.96779 0.21349-0.08800
   7  -3  -2 2645.33  212.11   1 0.43694 0.42606 0.35051-0.56938-0.82838 0.70304
   7  -3  -2 1890.02  140.39   1 0.19078 0.67255-0.70162 0.48267-0.68653 0.56097
  -7   3   1  303.92  141.71   1-0.63090-0.24854-0.74535 0.95651 0.21541-0.15267
   7  -3  -1  338.41  143.26   1 0.48663 0.39246 0.32253-0.53351-0.81188 0.74921
   7  -3  -1   61.85   46.99   1 0.24456 0.63515-0.74381 0.53270-0.62203 0.55928
  -7   3   0   94.44  102.19   1-0.63832-0.25722-0.73776 0.94106 0.21962-0.21962
   7  -3   0  276.72  123.52   1 0.53687 0.35830 0.29197-0.49508-0.79152 0.79152
   7  -3   0  345.58  122.48   1 0.29429 0.60148-0.77850 0.57523-0.55436 0.55436
  -7   2   7 2227.51  237.46   1-0.61077-0.17771-0.76504 0.95558 0.20411 0.23509
   7  -2  -7 2279.09  596.76   1 0.17011 0.61786 0.46882-0.65959-0.86675 0.42799
  -7   2   6  379.27  165.90   1-0.59618-0.20841-0.77855 0.96124 0.19599 0.18047
   7  -2  -6  144.17   96.61   1 0.20906 0.59499 0.45433-0.63719-0.86595 0.48986
  -7   2   5  184.76  129.73   1-0.58453-0.23617-0.78891 0.96374 0.18955 0.12416
   7  -2  -5  204.45  113.62   1 0.25198 0.56814 0.43728-0.61222-0.86329 0.54989
  -7   2   4  309.95  150.68   1-0.57609-0.26070-0.79618 0.96315 0.18492 0.06605
   7  -2  -4  135.82   66.07   1 0.29843 0.53777 0.41752-0.58454-0.85826 0.60753
  -7   2   3 1852.15  194.61   1-0.57115-0.28175-0.80036 0.95946 0.18221 0.00601
   7  -2  -3 2151.47  185.31   1 0.34785 0.50443 0.39490-0.55401-0.85032 0.66227
  -7   2   2  163.97  113.13   1-0.56998-0.29903-0.80134 0.95259 0.18156-0.05608
  -7   2   1  140.97  112.11   1-0.57284-0.31227-0.79894 0.94233 0.18313-0.12039
   7  -2  -1  207.61  117.59   1 0.45319 0.43154 0.34159-0.48488-0.82336 0.76069
  -7   2   0 3240.93  274.70   1-0.58002-0.32118-0.79282 0.92835 0.18707-0.18707
   7  -2   0 3361.85  274.41   1 0.50722 0.39359 0.31029-0.44569-0.80401 0.80401
  -7   1   7  738.79  264.60   1-0.55704-0.23712-0.81194 0.93472 0.17451 0.26469
   7  -1  -7   25.64   73.47   1 0.12415 0.66945 0.48474-0.60784-0.86579 0.42703
  -7   1   6 1619.24  201.40   1-0.54083-0.26917-0.82474 0.93957 0.16517 0.21154
   7  -1  -6 2125.09  369.66   1 0.16475 0.64493 0.47074-0.58592-0.86675 0.49066
  -7   1   5   66.60  121.01   1-0.52764-0.29844-0.83462 0.94161 0.15807 0.15585
   7  -1  -5  174.78   81.61   1 0.20966 0.61610 0.45410-0.56136-0.86592 0.55252
  -7   1   4  258.06  139.56   1-0.51789-0.32429-0.84168 0.94083 0.15284 0.09829
   7  -1  -4  187.19   68.99   1 0.25846 0.58337 0.43461-0.53396-0.86273 0.61200
  -7   1   3 1422.74  227.13   1-0.51183-0.34642-0.84595 0.93727 0.14961 0.03874
   7  -1  -3 1061.73  247.42   1 0.31061 0.54730 0.41210-0.50353-0.85655 0.66851
  -7   1   2  165.94  112.78   1-0.50976-0.36458-0.84739 0.93088 0.14851-0.02294
   7  -1  -2  187.37  112.54   1 0.36574 0.50855 0.38715-0.47061-0.84636 0.72103
  -7   1   1  275.34  161.77   1-0.51196-0.37847-0.84586 0.92152 0.14968-0.08689
   7  -1  -1   24.93   74.90   1 0.42242 0.46796 0.35831-0.43389-0.83256 0.76990
  -7   1   0  455.14  211.83   1-0.51872-0.38779-0.84108 0.90890 0.15329-0.15329
   7  -1   0  293.94  112.51   1 0.48013 0.42633 0.32631-0.39401-0.81424 0.81424
   7   0  -7   -8.28   73.38   1 0.08282 0.71639 0.49818-0.55352-0.86310 0.42473
  -7   0   6  214.63  138.48   1-0.48377-0.33188-0.86475 0.91175 0.13473 0.24198
   7   0  -6  269.72  117.16   1 0.12463 0.69067 0.48458-0.53209-0.86581 0.48973
  -7   0   5  555.50  151.86   1-0.46922-0.36252-0.87388 0.91305 0.12708 0.18684
   7   0  -5  465.64  136.71   1 0.17128 0.66011 0.46840-0.50799-0.86675 0.55335
  -7   0   4  396.70  188.34   1-0.45828-0.38954-0.88048 0.91181 0.12135 0.12978
   7   0  -4  428.32  112.31   1 0.22219 0.62527 0.44924-0.48091-0.86533 0.61461
  -7   0   3  987.89  215.31   1-0.45121-0.41269-0.88462 0.90812 0.11767 0.07068
   7   0  -3  836.67  235.97   1 0.27685 0.58669 0.42687-0.45063-0.86088 0.67284
  -7   0   2  232.33  124.24   1-0.44830-0.43169-0.88630 0.90196 0.11615 0.00941
   7   0  -2   65.41   73.55   1 0.33458 0.54504 0.40114-0.41697-0.85272 0.72736
  -7   0   1  220.15  123.79   1-0.44982-0.44626-0.88542 0.89326 0.11694-0.05416
   7   0  -1  194.94  113.54   1 0.39478 0.50124 0.37268-0.38056-0.83979 0.77712
  -7   0   0  275.24  127.52   1-0.45608-0.45608-0.88178 0.88178 0.12021-0.12021
   7   0   0  401.94  143.00   1 0.45605 0.45605 0.34000-0.34000-0.82244 0.82244
  -7  -1   7  245.31  173.57   1-0.44567-0.35954-0.88780 0.87480 0.11479 0.32471
   7   1  -7   27.98   83.31   1 0.04603 0.75884 0.50919-0.49685-0.85942 0.42104
  -7  -1   6  241.53  145.61   1-0.42644-0.39485-0.89841 0.87758 0.10482 0.27188
  -7  -1   5  763.09  197.58   1-0.41073-0.42665-0.90660 0.87794 0.09673 0.21719
   7   1  -5  753.10  209.54   1 0.13717 0.69984 0.48035-0.45227-0.86627 0.55287
   7   1  -4  150.86   81.86   1 0.19000 0.66309 0.46153-0.42553-0.86653 0.61581
  -7  -1   3  229.29  126.81   1-0.39084-0.47871-0.91637 0.87204 0.08655 0.10180
   7   1  -3  311.26  139.68   1 0.24698 0.62219 0.43933-0.39541-0.86370 0.67566
  -7  -1   2  243.33  130.61   1-0.38718-0.49846-0.91810 0.86594 0.08468 0.04088
   7   1  -2  115.36   83.53   1 0.30744 0.57781 0.41352-0.36168-0.85701 0.73165
  -7  -1   1  139.91  118.86   1-0.38806-0.51366-0.91769 0.85769 0.08513-0.02235
   7   1  -1  171.90  109.58   1 0.37072 0.53094 0.38471-0.32489-0.84531 0.78264
  -7  -1   0  199.97  151.29   1-0.39379-0.52401-0.91496 0.84714 0.08806-0.08806
   7   1   0  390.93  133.46   1 0.43546 0.48229 0.35132-0.28362-0.82882 0.82882
  -7  -2   6  567.20  229.91   1-0.37014-0.45681-0.92585 0.83720 0.07603 0.30068
   7   2  -6  168.25   92.28   1 0.05830 0.76828 0.50560-0.41769-0.86079 0.48504
  -7  -2   5 4515.48  401.01   1-0.35352-0.48951-0.93297 0.83649 0.06763 0.24629
   7   2  -5 3656.23  624.57   1 0.10780 0.73483 0.49026-0.39444-0.86487 0.55175
  -7  -2   4 3614.78  270.30   1-0.34106-0.51853-0.93798 0.83390 0.06206 0.18897
   7   2  -4 3086.62  516.53   1 0.16221 0.69650 0.47164-0.36796-0.86673 0.61601
  -7  -2   3 6550.18  414.01   1-0.33247-0.54321-0.94134 0.82938 0.05775 0.13052
   7   2  -3 5212.10  684.98   1 0.22136 0.65344 0.44956-0.33797-0.86538 0.67734
  -7  -2   2  809.21  186.40   1-0.32824-0.56353-0.94295 0.82312 0.05563 0.06988
   7   2  -2  797.88  285.82   1 0.28443 0.60645 0.42362-0.30411-0.86002 0.73466
  -7  -2   1  210.98  155.28   1-0.32861-0.57925-0.94281 0.81511 0.05582 0.00693
   7   2  -1  300.60  138.20   1 0.35056 0.55639 0.39361-0.26618-0.84980 0.78712
  -7  -3   5 2351.44  245.93   1-0.29910-0.55008-0.95333 0.78934 0.04112 0.27266
   7   3  -5 1459.08  268.53   1 0.08310 0.76520 0.49810-0.33460-0.86312 0.55000
  -7  -3   4 1335.17  223.95   1-0.28587-0.57939-0.95764 0.78577 0.03458 0.21645
   7   3  -4 1547.94  371.20   1 0.13913 0.72522 0.47969-0.30834-0.86633 0.61561
  -7  -3   3  748.05  262.47   1-0.27681-0.60454-0.96045 0.78071 0.03011 0.15816
   7   3  -3  802.45  202.34   1 0.20034 0.68008 0.45765-0.27838-0.86626 0.67822
;
_shelx_hkl_checksum              43515
loop_
_space_group_symop_operation_xyz
'x, y, z'
'-x, -y, -z'
loop_
_atom_site_label
_atom_site_type_symbol
_atom_site_fract_x
_atom_site_fract_y
_atom_site_fract_z
_atom_site_U_iso_or_equiv
_atom_site_adp_type
_atom_site_occupancy
_atom_site_site_symmetry_order
_atom_site_calc_flag
_atom_site_refinement_flags_posn
_atom_site_refinement_flags_occupancy
_atom_site_disorder_assembly
_atom_site_disorder_group
F1 F 0.1950(2) 1.16712(11) 1.08268(11) 0.0417(3) Uani 1 1 d . . . .
F2 F 0.4556(4) 0.42212(19) 0.28885(19) 0.0581(7) Uani 0.696(4) 1 d . P A 1
N1 N 0.4109(3) 0.94759(15) 0.61408(14) 0.0344(4) Uani 1 1 d . . . .
N2 N 0.3556(3) 0.85494(17) 0.51199(16) 0.0398(4) Uani 1 1 d . . . .
C1 C 0.3730(3) 1.04495(16) 0.80574(15) 0.0256(4) Uani 1 1 d . . . .
C2 C 0.2408(3) 1.06046(16) 0.89559(16) 0.0278(4) Uani 1 1 d . . . .
H2A H 0.0991 1.0080 0.8886 0.033 Uiso 1 1 calc R . . .
C3 C 0.3231(3) 1.15446(17) 0.99458(17) 0.0296(4) Uani 1 1 d . . . .
C4 C 0.5282(3) 1.23682(17) 1.01040(17) 0.0317(4) Uani 1 1 d . . . .
H4 H 0.5765 1.3004 1.0778 0.038 Uiso 1 1 calc R . . .
C5 C 0.6605(3) 1.22092(18) 0.92114(17) 0.0326(4) Uani 1 1 d . . . .
H5 H 0.8006 1.2748 0.9287 0.039 Uiso 1 1 calc R . . .
C6 C 0.5865(3) 1.12634(17) 0.82172(16) 0.0297(4) Uani 1 1 d . . . .
H6 H 0.6798 1.1162 0.7641 0.036 Uiso 1 1 calc R . . .
C7 C 0.2898(3) 0.94578(16) 0.69668(16) 0.0265(4) Uani 1 1 d . . . .
C8 C 0.0756(3) 0.85079(17) 0.68904(17) 0.0303(4) Uani 1 1 d . . . .
H8A H -0.0744 0.8939 0.6754 0.036 Uiso 1 1 calc R . . .
H8B H 0.0963 0.8172 0.7664 0.036 Uiso 1 1 calc R . . .
C9 C 0.0529(3) 0.74037(17) 0.58556(17) 0.0319(4) Uani 1 1 d . . . .
H9A H 0.1644 0.6773 0.6136 0.038 Uiso 1 1 calc R . . .
H9B H -0.1128 0.6995 0.5633 0.038 Uiso 1 1 calc R . . .
C10 C 0.1123(4) 0.78780(17) 0.47411(17) 0.0330(4) Uani 1 1 d . . . .
H10 H -0.0071 0.8476 0.4435 0.040 Uiso 1 1 calc R . . .
C11 C 0.1058(3) 0.67978(16) 0.37198(16) 0.0301(4) Uani 1 1 d . . . .
C12 C -0.0946(4) 0.65627(17) 0.27216(18) 0.0352(4) Uani 1 1 d . . . .
H12 H -0.2233 0.7086 0.2664 0.042 Uiso 1 1 calc R . . .
C13 C -0.1045(4) 0.55514(19) 0.18078(19) 0.0411(5) Uani 1 1 d . . . .
H13 H -0.2410 0.5405 0.1144 0.049 Uiso 0.696(4) 1 calc R P A 1
C14 C 0.0816(4) 0.47578(18) 0.18538(19) 0.0400(5) Uani 1 1 d . . . .
H14 H 0.0737 0.4081 0.1235 0.048 Uiso 1 1 calc R . . .
C15 C 0.2795(4) 0.50010(19) 0.2846(2) 0.0401(5) Uani 1 1 d . . . .
H15 H 0.4075 0.4473 0.2893 0.048 Uiso 0.304(4) 1 calc R P A 2
C16 C 0.2968(4) 0.59987(19) 0.37815(18) 0.0356(4) Uani 1 1 d . . . .
H16 H 0.4339 0.6136 0.4443 0.043 Uiso 1 1 calc R . . .
F2A F -0.2758(9) 0.5287(4) 0.0866(4) 0.0537(15) Uani 0.304(4) 1 d . P A 2
H2 H 0.403(5) 0.886(2) 0.454(2) 0.051(7) Uiso 1 1 d . . . .
loop_
_atom_site_aniso_label
_atom_site_aniso_U_11
_atom_site_aniso_U_22
_atom_site_aniso_U_33
_atom_site_aniso_U_23
_atom_site_aniso_U_13
_atom_site_aniso_U_12
F1 0.0470(7) 0.0406(6) 0.0410(7) -0.0053(5) 0.0241(5) -0.0005(5)
F2 0.0485(12) 0.0542(13) 0.0670(14) -0.0068(10) 0.0090(10) 0.0233(9)
N1 0.0409(9) 0.0320(8) 0.0297(8) -0.0030(6) 0.0139(7) -0.0108(7)
N2 0.0497(10) 0.0394(9) 0.0297(9) -0.0068(7) 0.0188(8) -0.0180(8)
C1 0.0252(8) 0.0250(8) 0.0265(8) 0.0048(6) 0.0051(7) 0.0030(6)
C2 0.0274(8) 0.0253(8) 0.0312(9) 0.0038(7) 0.0085(7) 0.0017(6)
C3 0.0333(9) 0.0279(8) 0.0307(9) 0.0049(7) 0.0133(7) 0.0050(7)
C4 0.0362(10) 0.0272(8) 0.0291(9) -0.0004(7) 0.0055(7) 0.0010(7)
C5 0.0280(9) 0.0330(9) 0.0342(10) 0.0042(7) 0.0047(7) -0.0050(7)
C6 0.0270(8) 0.0328(9) 0.0294(9) 0.0040(7) 0.0082(7) -0.0013(7)
C7 0.0264(8) 0.0252(8) 0.0290(9) 0.0060(7) 0.0084(7) 0.0004(6)
C8 0.0288(9) 0.0304(9) 0.0325(9) 0.0012(7) 0.0125(7) -0.0045(7)
C9 0.0327(9) 0.0289(9) 0.0341(10) 0.0017(7) 0.0111(8) -0.0055(7)
C10 0.0376(10) 0.0280(9) 0.0318(9) -0.0001(7) 0.0084(8) -0.0008(7)
C11 0.0372(10) 0.0240(8) 0.0304(9) 0.0026(7) 0.0127(8) -0.0037(7)
C12 0.0381(10) 0.0278(9) 0.0390(11) 0.0059(8) 0.0076(8) 0.0013(7)
C13 0.0489(12) 0.0331(10) 0.0361(11) 0.0025(8) 0.0036(9) -0.0061(9)
C14 0.0557(12) 0.0270(9) 0.0355(10) -0.0042(8) 0.0138(9) -0.0038(8)
C15 0.0423(11) 0.0342(10) 0.0467(12) 0.0027(9) 0.0175(9) 0.0065(8)
C16 0.0329(10) 0.0379(10) 0.0329(10) 0.0011(8) 0.0045(8) -0.0016(8)
F2A 0.065(3) 0.038(2) 0.040(2) -0.0061(17) -0.017(2) 0.0029(19)
loop_
_atom_type_symbol
_atom_type_description
_atom_type_scat_dispersion_real
_atom_type_scat_dispersion_imag
_atom_type_scat_source
C C 0.0033 0.0016 'International Tables Vol C Tables 4.2.6.8 and 6.1.1.4'
H H 0.0000 0.0000 'International Tables Vol C Tables 4.2.6.8 and 6.1.1.4'
F F 0.0171 0.0103 'International Tables Vol C Tables 4.2.6.8 and 6.1.1.4'
N N 0.0061 0.0033 'International Tables Vol C Tables 4.2.6.8 and 6.1.1.4'
loop_
_geom_angle_atom_site_label_1
_geom_angle_atom_site_label_2
_geom_angle_atom_site_label_3
_geom_angle
C7 N1 N2 120.22(15)
N1 N2 C10 119.08(16)
C2 C1 C6 117.92(16)
C2 C1 C7 120.94(15)
C6 C1 C7 121.13(15)
C3 C2 C1 119.04(16)
F1 C3 C2 118.48(16)
F1 C3 C4 117.65(16)
C4 C3 C2 123.87(16)
C3 C4 C5 117.03(17)
C6 C5 C4 120.85(17)
C5 C6 C1 121.25(17)
N1 C7 C1 115.88(15)
N1 C7 C8 124.43(16)
C1 C7 C8 119.69(15)
C7 C8 C9 111.74(14)
C10 C9 C8 110.75(15)
N2 C10 C9 108.18(16)
N2 C10 C11 109.46(15)
C11 C10 C9 112.27(15)
C12 C11 C10 120.15(17)
C12 C11 C16 118.70(17)
C16 C11 C10 121.13(17)
C11 C12 C13 120.24(19)
C14 C13 C12 121.8(2)
F2A C13 C12 124.4(3)
F2A C13 C14 113.8(3)
C15 C14 C13 117.45(18)
F2 C15 C14 116.88(19)
F2 C15 C16 120.4(2)
C14 C15 C16 122.69(19)
C15 C16 C11 119.12(18)
loop_
_geom_bond_atom_site_label_1
_geom_bond_atom_site_label_2
_geom_bond_distance
F1 C3 1.362(2)
F2 C15 1.319(3)
N1 N2 1.383(2)
N1 C7 1.284(2)
N2 C10 1.453(3)
C1 C2 1.397(2)
C1 C6 1.404(2)
C1 C7 1.483(2)
C2 C3 1.375(3)
C3 C4 1.373(3)
C4 C5 1.391(3)
C5 C6 1.378(3)
C7 C8 1.509(2)
C8 C9 1.527(2)
C9 C10 1.516(3)
C10 C11 1.515(2)
C11 C12 1.382(3)
C11 C16 1.396(3)
C12 C13 1.383(3)
C13 C14 1.372(3)
C13 F2A 1.248(4)
C14 C15 1.370(3)
C15 C16 1.382(3)
loop_
_geom_hbond_atom_site_label_D
_geom_hbond_atom_site_label_H
_geom_hbond_atom_site_label_A
_geom_hbond_distance_DH
_geom_hbond_distance_HA
_geom_hbond_distance_DA
_geom_hbond_angle_DHA
_geom_hbond_site_symmetry_A
N2 H2 N1 0.85(3) 2.31(3) 3.080(2) 150(2) 2_676
loop_
_geom_torsion_atom_site_label_1
_geom_torsion_atom_site_label_2
_geom_torsion_atom_site_label_3
_geom_torsion_atom_site_label_4
_geom_torsion
F1 C3 C4 C5 178.57(16)
F2 C15 C16 C11 -179.1(2)
N1 N2 C10 C9 -49.8(2)
N1 N2 C10 C11 -172.39(16)
N1 C7 C8 C9 12.0(3)
N2 N1 C7 C1 176.61(16)
N2 N1 C7 C8 -3.0(3)
N2 C10 C11 C12 -138.07(18)
N2 C10 C11 C16 43.9(2)
C1 C2 C3 F1 -178.83(15)
C1 C2 C3 C4 1.0(3)
C1 C7 C8 C9 -167.62(15)
C2 C1 C6 C5 -1.7(3)
C2 C1 C7 N1 173.55(16)
C2 C1 C7 C8 -6.8(2)
C2 C3 C4 C5 -1.3(3)
C3 C4 C5 C6 0.1(3)
C4 C5 C6 C1 1.4(3)
C6 C1 C2 C3 0.5(2)
C6 C1 C7 N1 -6.2(2)
C6 C1 C7 C8 173.42(16)
C7 N1 N2 C10 23.4(3)
C7 C1 C2 C3 -179.33(15)
C7 C1 C6 C5 178.12(16)
C7 C8 C9 C10 -38.4(2)
C8 C9 C10 N2 55.9(2)
C8 C9 C10 C11 176.75(15)
C9 C10 C11 C12 101.8(2)
C9 C10 C11 C16 -76.2(2)
C10 C11 C12 C13 -177.89(17)
C10 C11 C16 C15 178.01(17)
C11 C12 C13 C14 -0.2(3)
C11 C12 C13 F2A -178.5(3)
C12 C11 C16 C15 0.0(3)
C12 C13 C14 C15 0.1(3)
C13 C14 C15 F2 179.1(2)
C13 C14 C15 C16 0.0(3)
C14 C15 C16 C11 -0.1(3)
C16 C11 C12 C13 0.2(3)
F2A C13 C14 C15 178.6(3)
