#------------------------------------------------------------------------------
#$Date: 2015-12-09 15:33:01 +0200 (Wed, 09 Dec 2015) $
#$Revision: 171117 $
#$URL: svn://www.crystallography.net/cod/cif/7/03/70/7037017.cif $
#------------------------------------------------------------------------------
#
# This file is available in the Crystallography Open Database (COD),
# http://www.crystallography.net/
#
# All data on this site have been placed in the public domain by the
# contributors.
#
data_7037017
loop_
_publ_author_name
'Lin, Xinsong'
'Tabassum, Danisa'
'Mar, Arthur'
_publ_section_title
;
 Narrowing the gap: from semiconductor to semimetal in the homologous
 series of rare-earth zinc arsenides RE2-yZn4As4&#x00B7;n(REAs) and
 Mn-substituted derivatives RE2-yMnxZn4-xAs4&#x00B7;n(REAs) (RE = La-Nd,
 Sm, Gd).
;
_journal_issue                   46
_journal_name_full
'Dalton transactions (Cambridge, England : 2003)'
_journal_page_first              20254
_journal_page_last               20264
_journal_paper_doi               10.1039/c5dt03596a
_journal_volume                  44
_journal_year                    2015
_chemical_formula_structural     'Sm5.33 Mn0.57 Zn3.43 As8'
_chemical_formula_sum            'As8 Mn0.57 Sm5.33 Zn3.43'
_chemical_formula_weight         1656.80
_chemical_name_common
'samarium manganese zinc arsenide (5.3/0.6/3.4/8)'
_chemical_name_systematic
'samarium manganese zinc arsenide (5.3/0.6/3.4/8)'
_space_group_crystal_system      trigonal
_space_group_IT_number           166
_space_group_name_Hall           '-R 3 2"'
_space_group_name_H-M_alt        'R -3 m :H'
_symmetry_space_group_name_Hall  '-R 3 2"'
_symmetry_space_group_name_H-M   'R -3 m :H'
_atom_sites_solution_primary     direct
_atom_sites_solution_secondary   difmap
_audit_creation_method           SHELXL-2013
_cell_angle_alpha                90
_cell_angle_beta                 90
_cell_angle_gamma                120
_cell_formula_units_Z            3
_cell_length_a                   4.1691(9)
_cell_length_b                   4.1691(9)
_cell_length_c                   81.965(17)
_cell_measurement_reflns_used    2616
_cell_measurement_temperature    296(2)
_cell_measurement_theta_max      32.77
_cell_measurement_theta_min      5.22
_cell_volume                     1233.8(5)
_computing_cell_refinement       'Bruker SAINT 7.68A (Bruker, 2009)'
_computing_data_collection       'Bruker APEX 2 (Bruker, 2008)'
_computing_data_reduction        'Bruker SAINT 7.68A'
_computing_molecular_graphics    'ATOMS 5.1 (Dowty, 1999)'
_computing_publication_material  'Bruker SHELXTL'
_computing_structure_refinement  'Bruker SHELXTL'
_computing_structure_solution    'Bruker SHELXTL'
_diffrn_ambient_temperature      296(2)
_diffrn_measured_fraction_theta_full 0.997
_diffrn_measured_fraction_theta_max 0.993
_diffrn_measurement_device_type  'Bruker PLATFORM/SMART APEX II CCD'
_diffrn_measurement_method       '\w and \f scans'
_diffrn_radiation_type           MoK\a
_diffrn_radiation_wavelength     0.71073
_diffrn_reflns_av_R_equivalents  0.0391
_diffrn_reflns_av_unetI/netI     0.0199
_diffrn_reflns_laue_measured_fraction_full 0.997
_diffrn_reflns_laue_measured_fraction_max 0.993
_diffrn_reflns_limit_h_max       6
_diffrn_reflns_limit_h_min       -6
_diffrn_reflns_limit_k_max       6
_diffrn_reflns_limit_k_min       -6
_diffrn_reflns_limit_l_max       124
_diffrn_reflns_limit_l_min       -124
_diffrn_reflns_number            6025
_diffrn_reflns_point_group_measured_fraction_full 0.997
_diffrn_reflns_point_group_measured_fraction_max 0.993
_diffrn_reflns_theta_full        25.242
_diffrn_reflns_theta_max         33.266
_diffrn_reflns_theta_min         1.491
_diffrn_source                   'fine-focus sealed tube'
_exptl_absorpt_coefficient_mu    39.972
_exptl_absorpt_correction_T_max  0.6750
_exptl_absorpt_correction_T_min  0.2383
_exptl_absorpt_correction_type   numerical
_exptl_absorpt_process_details   'Bruker SHELXTL (Sheldrick, 2013)'
_exptl_crystal_colour            black
_exptl_crystal_density_diffrn    6.690
_exptl_crystal_density_method    'not measured'
_exptl_crystal_description       irregular
_exptl_crystal_F_000             2136
_exptl_crystal_size_max          0.058
_exptl_crystal_size_mid          0.037
_exptl_crystal_size_min          0.012
_refine_diff_density_max         2.330
_refine_diff_density_min         -3.338
_refine_diff_density_rms         0.317
_refine_ls_extinction_coef       0.000237(19)
_refine_ls_extinction_expression Fc^*^=kFc[1+0.001xFc^2^\l^3^/sin(2\q)]^-1/4^
_refine_ls_extinction_method     SHELXL
_refine_ls_goodness_of_fit_ref   1.110
_refine_ls_hydrogen_treatment    undef
_refine_ls_matrix_type           full
_refine_ls_number_parameters     33
_refine_ls_number_reflns         726
_refine_ls_number_restraints     0
_refine_ls_restrained_S_all      1.110
_refine_ls_R_factor_all          0.0337
_refine_ls_R_factor_gt           0.0247
_refine_ls_shift/su_max          0.002
_refine_ls_shift/su_mean         0.000
_refine_ls_structure_factor_coef Fsqd
_refine_ls_weighting_details
'w=1/[\s^2^(Fo^2^)+(0.0146P)^2^+30.0042P] where P=(Fo^2^+2Fc^2^)/3'
_refine_ls_weighting_scheme      calc
_refine_ls_wR_factor_gt          0.0495
_refine_ls_wR_factor_ref         0.0529
_reflns_Friedel_coverage         0.000
_reflns_number_gt                621
_reflns_number_total             726
_reflns_threshold_expression     'I > 2\s(I)'
_cod_data_source_file            c5dt03596a9.cif
_cod_data_source_block           Sm6-x(Mn,Zn)4As8
_cod_depositor_comments
'Adding full bibliography for 7037017--7037025.cif.'
_cod_original_cell_volume        1233.8(6)
_cod_database_code               7037017
_shelx_space_group_comment
;
The symmetry employed for this shelxl refinement is uniquely defined
by the following loop, which should always be used as a source of
symmetry information in preference to the above space-group names.
They are only intended as comments.
;
_shelx_estimated_absorpt_t_min   0.205
_shelx_estimated_absorpt_t_max   0.646
_shelxl_version_number           2013-4
_shelx_res_file
;
TITL Sm5.3Mn0.6Zn3.4As8 R-3m lsf final refinement
CELL 0.71073   4.16910   4.16910  81.96490  90.0000  90.0000 120.0000
ZERR    3.00   0.00090   0.00090   0.01710   0.0000   0.0000   0.0000
LATT  3
SYMM -Y, X-Y, Z
SYMM -X+Y, -X, Z
SYMM Y, X, -Z
SYMM X-Y, -Y, -Z
SYMM -X, -X+Y, -Z
SFAC MN ZN AS SM
UNIT 1.7 10.3 24 16
TEMP 23
SIZE 0.012 0.037 0.058

L.S. 4
ACTA

EADP ZN2 MN2
WGHT    0.014600   30.004200
EXTI    0.000237
FVAR       0.02216   0.71021
SM1   4    0.000000    0.000000    0.291725    10.16667    0.00799    0.00799 =
         0.01072    0.00000    0.00000    0.00400
SM2   4    0.000000    0.000000    0.416698    10.16667    0.00911    0.00911 =
         0.01287    0.00000    0.00000    0.00455
SM3   4    0.000000    0.000000    0.500000     0.02767    0.02148    0.02148 =
         0.02063    0.00000    0.00000    0.01074
SM4   4    0.000000    0.000000    0.000000    10.08333    0.00788    0.00788 =
         0.01059    0.00000    0.00000    0.00394
ZN1   2    0.000000    0.000000    0.115979    10.16667    0.01930    0.01930 =
         0.02062    0.00000    0.00000    0.00965
ZN2   2    0.000000    0.000000    0.194451    20.16667    0.01757    0.01757 =
         0.04127    0.00000    0.00000    0.00879
MN2   1    0.000000    0.000000    0.180861   -20.16667    0.01757    0.01757 =
         0.04127    0.00000    0.00000    0.00879
AS1   3    0.000000    0.000000    0.062901    10.16667    0.00781    0.00781 =
         0.01020    0.00000    0.00000    0.00391
AS2   3    0.000000    0.000000    0.146565    10.16667    0.01431    0.01431 =
         0.01839    0.00000    0.00000    0.00716
AS3   3    0.000000    0.000000    0.228345    10.16667    0.00921    0.00921 =
         0.01358    0.00000    0.00000    0.00461
AS4   3    0.000000    0.000000    0.354304    10.16667    0.00774    0.00774 =
         0.01130    0.00000    0.00000    0.00387
HKLF 4

REM  Sm5.3Mn0.6Zn3.4As8 R-3m lsf final refinement
REM R1 =  0.0247 for     621 Fo > 4sig(Fo)  and  0.0337 for all     726 data
REM     33 parameters refined using      0 restraints

END

WGHT      0.0146     30.0045

REM Highest difference peak  2.330,  deepest hole -3.338,  1-sigma level  0.317
Q1    1   0.0718  0.1435  0.3450  10.50000  0.05    1.68
Q2    1   0.0000  0.0000  0.3823  10.16667  0.05    1.61
Q3    1   0.3333 -0.3333  0.1157  10.16667  0.05    1.60
Q4    1   0.0000  0.0000  0.3369  10.16667  0.05    1.34
Q5    1   0.0000  0.0000  0.4834  10.16667  0.05    1.25
Q6    1   0.0000  0.0000  0.4096  10.16667  0.05    1.18
Q7    1  -0.1407 -0.0703  0.3593  10.50000  0.05    1.17
Q8    1   0.1063  0.2126  0.1199  10.50000  0.05    1.13
Q9    1   0.0694  0.1387  0.2344  10.50000  0.05    1.05
Q10   1  -0.1128 -0.2256  0.3560  10.50000  0.05    1.04
Q11   1   0.0000  0.0000  0.2778  10.16667  0.05    1.03
Q12   1  -0.0905 -0.1810  0.0567  10.50000  0.05    1.02
Q13   1   0.0695  0.1389  0.2503  10.50000  0.05    1.01
Q14   1  -0.0799  0.0799  0.2953  10.50000  0.05    1.01
Q15   1   0.0448  0.0895  0.3974  10.50000  0.05    0.98
Q16   1   0.0000  0.0000  0.0762  10.16667  0.05    0.96
Q17   1  -0.1366 -0.2732  0.3441  10.50000  0.05    0.95
Q18   1   0.1651  0.0825  0.4331  10.50000  0.05    0.94
Q19   1   0.2534 -0.2534  0.1414  10.50000  0.05    0.93
Q20   1  -0.0814  0.0814  0.0054  10.50000  0.05    0.91
;
_shelx_res_checksum              38205
_shelx_hkl_file
;
   1  -1-124    4.20    1.16
  -1   0-124    5.03    1.27
   0   0-123    8.64    1.68
   0  -1-122    2.94    0.97
   1   0-122    3.23    0.75
   1  -1-121    3.47    0.65
  -1   0-121    4.25    0.79
   0   1-121    4.64    0.84
   1  -2-120    5.78    1.40
   0   0-120    6.64    0.97
   0  -1-119    4.36    0.86
   1   0-119    3.85    0.78
  -1   1-119    2.78    0.67
   1  -1-118    0.52    0.40
  -1   0-118    0.68    0.49
   0   1-118   -0.44    0.35
   1  -2-117    0.63    0.57
   2  -1-117    0.03    0.78
   0   0-117    0.41    0.38
  -2   1-117    0.71    0.76
   1   1-117   -0.54    0.52
  -1   2-117    0.58    0.75
   2  -2-116    0.31    0.88
   0  -1-116    1.83    0.64
  -2   0-116    1.92    0.98
   1   0-116    1.48    0.57
  -1   1-116    2.50    0.63
   0   2-116    0.46    0.81
   1  -1-115    0.25    0.36
  -1   0-115    0.24    0.39
   0   1-115    0.38    0.44
  -2   2-115    0.97    0.75
   1  -2-114   -0.17    0.51
  -1  -1-114    0.67    0.71
   2  -1-114    0.15    0.49
   0   0-114    0.05    0.36
  -2   1-114    0.18    0.36
   1   1-114    0.01    0.40
  -1   2-114    0.43    0.47
   2  -2-113   46.18    2.61
   0  -1-113   55.03    2.69
  -2   0-113   48.40    2.49
   1   0-113   53.42    3.74
  -1   1-113   57.24    2.65
   0   2-113   49.00    2.47
   0  -2-112    0.60    0.83
   1  -1-112    0.60    0.49
  -1   0-112    0.15    0.41
   2   0-112    0.12    0.49
   0   1-112    0.76    0.46
  -2   2-112    0.18    0.50
   1  -2-111    0.19    0.52
  -1  -1-111    1.13    0.83
   2  -1-111    0.70    0.52
   0   0-111    0.32    0.37
  -2   1-111    0.77    0.37
   1   1-111    0.53    0.60
  -1   2-111    0.20    0.46
   2  -2-110   55.05    2.87
   0  -1-110   72.48    3.11
  -2   0-110   61.10    2.81
   1   0-110   71.22    3.02
  -1   1-110   61.72    2.88
  -3   2-110   41.69    3.94
   0   2-110   48.78    3.67
   2  -3-109    0.75    0.78
   0  -2-109    0.67    0.75
   3  -2-109    1.31    0.92
  -2  -1-109    0.75    0.63
   1  -1-109    0.27    0.42
  -1   0-109    0.38    0.42
   2   0-109    0.78    0.55
  -3   1-109   -0.15    0.50
   0   1-109    0.58    0.43
  -2   2-109    0.68    0.41
   1   2-109    0.11    0.68
  -1   3-109    0.15    0.95
   1  -2-108    0.83    0.55
  -1  -1-108   -0.30    0.66
   2  -1-108    0.49    0.50
   0   0-108    0.80    0.44
  -2   1-108    1.32    0.45
   1   1-108    0.26    0.60
  -1   2-108    0.88    0.52
   1  -3-107    1.55    1.17
  -1  -2-107    0.80    0.66
   2  -2-107    1.78    0.70
   0  -1-107    2.28    0.60
   3  -1-107    0.93    0.61
  -2   0-107    1.69    0.60
   1   0-107    2.32    0.62
  -1   1-107    2.13    0.59
   2   1-107    0.89    0.60
  -3   2-107    1.41    0.66
   0   2-107    0.52    0.48
  -2   3-107    0.96    1.08
   2  -3-106    4.92    1.10
   0  -2-106    6.09    1.51
   3  -2-106    4.87    0.99
  -2  -1-106    4.83    1.02
   1  -1-106    6.07    0.91
  -1   0-106    6.24    0.88
   2   0-106    7.93    1.06
  -3   1-106    5.65    0.94
   0   1-106    5.10    0.82
  -2   2-106    6.69    0.86
   1   2-106    4.33    0.85
  -1   3-106    4.03    0.92
   1  -2-105    1.22    0.59
  -1  -1-105   -0.14    0.48
   2  -1-105    0.02    0.36
  -3   0-105   -0.53    0.83
   0   0-105    0.79    0.43
   3   0-105    0.47    0.85
  -2   1-105    0.26    0.35
   1   1-105    0.54    0.60
  -1   2-105    0.30    0.45
  -3   3-105    1.12    0.97
   0   3-105    0.69    0.73
   1  -3-104    1.44    1.14
  -1  -2-104    0.74    0.70
   2  -2-104    0.31    0.52
   0  -1-104    1.24    0.51
   3  -1-104    0.27    0.55
  -2   0-104    0.10    0.45
   1   0-104    0.30    0.40
  -1   1-104    0.40    0.44
   2   1-104    1.12    0.61
  -3   2-104    0.34    0.51
   0   2-104    0.10    0.44
  -2   3-104    1.05    1.10
   2  -3-103    9.57    1.46
   0  -2-103   13.62    2.25
   3  -2-103   12.14    1.47
  -2  -1-103   15.70    1.66
   1  -1-103   16.34    1.48
  -1   0-103   14.36    1.35
   2   0-103   13.64    1.45
  -3   1-103    9.98    1.25
   0   1-103   13.76    1.31
  -2   2-103   12.99    1.44
   1   2-103   12.83    1.39
  -1   3-103   10.40    2.19
   0  -3-102    0.24    1.00
   3  -3-102    0.19    0.70
   1  -2-102   -0.08    0.47
  -1  -1-102    0.33    0.47
   2  -1-102    0.38    0.38
  -3   0-102    0.29    0.59
   0   0-102    0.43    0.40
   3   0-102    0.70    0.59
  -2   1-102   -0.19    0.29
   1   1-102    0.04    0.38
  -1   2-102    0.21    0.42
  -3   3-102   -0.40    0.53
   0   3-102   -0.41    0.55
   1  -3-101    0.18    0.93
  -1  -2-101    0.86    0.69
   2  -2-101    0.95    0.46
   0  -1-101    1.59    0.56
   3  -1-101    0.03    0.51
  -2   0-101    0.78    0.52
   1   0-101    2.47    0.57
  -1   1-101    2.10    0.58
   2   1-101    2.01    0.68
  -3   2-101    1.40    0.62
   0   2-101    1.54    0.59
  -2   3-101    1.07    0.82
   2  -3-100    1.40    0.73
   0  -2-100    0.28    0.79
   3  -2-100    0.21    0.54
  -2  -1-100   -0.10    0.51
   1  -1-100    0.41    0.42
  -1   0-100    0.33    0.33
   2   0-100    1.12    0.54
  -3   1-100    0.39    0.47
   0   1-100   -0.05    0.36
  -2   2-100    0.30    0.45
   1   2-100    0.36    0.48
  -1   3-100    0.22    0.57
   0  -3 -99    0.76    1.08
   3  -3 -99    1.38    0.78
  -2  -2 -99    1.25    1.13
   1  -2 -99    1.65    0.64
  -1  -1 -99    1.61    0.63
   2  -1 -99    2.00    0.53
  -3   0 -99    1.09    0.65
   0   0 -99    4.00    0.70
   3   0 -99    2.20    0.77
  -2   1 -99    0.64    0.38
   1   1 -99    2.37    0.60
  -1   2 -99    1.64    0.58
  -3   3 -99    0.17    0.61
   0   3 -99    3.07    1.13
   1  -3 -98    1.18    1.08
  -1  -2 -98    0.83    0.61
   2  -2 -98    0.02    0.37
   0  -1 -98    1.03    0.46
   3  -1 -98    0.42    0.55
  -2   0 -98   -0.06    0.39
   1   0 -98    1.85    0.53
  -1   1 -98    0.65    0.42
   2   1 -98    0.00    0.43
  -3   2 -98    0.26    0.53
   0   2 -98    0.32    0.44
  -2   3 -98    0.96    0.71
   2  -3 -97    0.03    0.53
   0  -2 -97    0.37    0.77
   3  -2 -97    0.55    0.53
  -2  -1 -97    0.48    0.57
   1  -1 -97    0.61    0.44
  -1   0 -97    0.33    0.29
   2   0 -97    0.72    0.46
  -3   1 -97    0.82    0.49
   0   1 -97    0.97    0.44
  -2   2 -97    0.27    0.49
   1   2 -97    0.12    0.44
  -1   3 -97    0.40    0.59
   0  -3 -96  100.17    6.65
   3  -3 -96  108.78    4.54
  -2  -2 -96   97.25    5.94
   1  -2 -96  142.15    5.47
   4  -2 -96   88.24    5.40
  -1  -1 -96  152.74    4.36
   2  -1 -96  155.35    4.41
  -3   0 -96  112.57    4.45
   0   0 -96  179.71    5.95
   3   0 -96  105.24    4.35
  -2   1 -96  145.68    4.30
   1   1 -96  144.33    5.10
  -4   2 -96   86.05    5.30
  -1   2 -96  140.37    5.40
   2   2 -96   75.21    5.19
  -3   3 -96  106.28    4.69
   0   3 -96   98.14    5.82
  -2   4 -96   80.56    5.83
   3  -4 -95   -1.72    0.77
   1  -3 -95   -0.03    0.77
  -1  -2 -95    0.08    0.55
   2  -2 -95   -0.19    0.32
   0  -1 -95    0.28    0.37
   3  -1 -95   -0.16    0.41
  -2   0 -95    0.10    0.32
   1   0 -95    0.03    0.33
  -1   1 -95    0.46    0.31
   2   1 -95    0.16    0.46
  -3   2 -95   -0.14    0.43
   0   2 -95   -0.22    0.38
  -2   3 -95    0.49    0.60
   1   3 -95   -0.24    0.87
  -1   4 -95   -0.52    0.59
  -1  -3 -94    0.06    0.70
   2  -3 -94    0.32    0.53
   0  -2 -94    1.07    0.57
   3  -2 -94    0.39    0.48
  -2  -1 -94    0.58    0.53
   1  -1 -94    1.01    0.47
   4  -1 -94    0.83    0.93
  -1   0 -94    1.14    0.36
   2   0 -94   -0.04    0.34
  -3   1 -94    0.12    0.41
   0   1 -94    0.40    0.33
  -2   2 -94    0.37    0.51
   1   2 -94    0.63    0.49
  -1   3 -94    0.78    0.88
   2  -4 -93   18.12    2.72
   0  -3 -93   16.57    1.85
   3  -3 -93   18.16    1.80
  -2  -2 -93   17.62    1.85
   1  -2 -93   21.24    1.88
   4  -2 -93   16.76    1.72
  -1  -1 -93   27.74    1.49
   2  -1 -93   26.49    1.60
  -3   0 -93   22.16    1.88
   0   0 -93   37.05    1.87
   3   0 -93   18.05    1.76
  -2   1 -93   26.72    1.56
   1   1 -93   25.93    1.63
  -4   2 -93   16.62    1.70
  -1   2 -93   24.07    1.98
   2   2 -93   17.92    2.54
  -3   3 -93   18.70    2.02
   0   3 -93   20.69    2.43
  -2   4 -93   14.60    1.78
   3  -4 -92    1.62    0.77
   1  -3 -92    1.04    0.93
  -1  -2 -92    0.94    0.64
   2  -2 -92    0.87    0.42
   0  -1 -92    1.72    0.51
   3  -1 -92    0.94    0.53
  -2   0 -92    1.33    0.44
   1   0 -92    0.97    0.42
  -1   1 -92    1.06    0.36
   2   1 -92    0.72    0.49
  -3   2 -92    1.04    0.59
   0   2 -92    1.20    0.53
  -2   3 -92    1.13    0.71
   1   3 -92   -0.02    0.85
  -1   4 -92   -0.63    0.82
   1  -4 -91    0.54    1.00
  -1  -3 -91   -0.49    0.60
   2  -3 -91    0.39    0.51
   0  -2 -91    0.99    0.43
   3  -2 -91   -0.23    0.42
  -2  -1 -91   -0.17    0.48
   1  -1 -91    0.31    0.42
   4  -1 -91   -0.48    0.50
  -1   0 -91    0.96    0.33
   2   0 -91    0.51    0.40
  -3   1 -91    0.23    0.41
   0   1 -91    0.21    0.34
   3   1 -91   -0.06    0.80
  -2   2 -91    0.26    0.52
   1   2 -91   -0.24    0.39
  -4   3 -91   -0.31    0.53
  -1   3 -91    0.58    0.90
  -3   4 -91    0.32    0.67
   2  -4 -90    4.63    1.45
   0  -3 -90    6.49    1.15
   3  -3 -90    7.59    1.14
  -2  -2 -90    4.09    0.99
   1  -2 -90    4.46    0.84
   4  -2 -90    4.73    0.91
  -1  -1 -90    9.71    0.91
   2  -1 -90    7.42    0.84
  -3   0 -90    6.07    1.01
   0   0 -90   11.26    1.11
   3   0 -90    6.62    1.07
  -2   1 -90    9.28    1.11
   1   1 -90    8.13    0.98
  -4   2 -90    4.67    0.93
  -1   2 -90    8.68    1.21
   2   2 -90    2.73    1.16
  -3   3 -90    5.39    1.12
   0   3 -90    5.12    1.00
  -2   4 -90    4.32    1.01
   3  -4 -89   12.22    1.50
   1  -3 -89   10.30    1.31
   4  -3 -89   12.36    2.14
  -1  -2 -89   13.35    1.57
   2  -2 -89   12.80    1.11
  -3  -1 -89   11.81    2.31
   0  -1 -89   17.29    1.46
   3  -1 -89   12.88    1.41
  -2   0 -89   16.64    1.17
   1   0 -89   16.85    1.39
  -4   1 -89   11.88    2.08
  -1   1 -89   16.83    1.13
   2   1 -89    9.72    1.23
  -3   2 -89   15.90    1.59
   0   2 -89   14.69    1.46
  -2   3 -89   11.66    1.48
   1   3 -89   10.11    1.88
  -1   4 -89   12.68    2.28
   1  -4 -88    0.43    0.87
  -1  -3 -88    0.20    0.69
   2  -3 -88    0.30    0.47
   0  -2 -88    1.07    0.46
   3  -2 -88    0.69    0.46
  -2  -1 -88    0.80    0.53
   1  -1 -88    1.17    0.50
   4  -1 -88   -0.32    0.46
  -1   0 -88    1.06    0.34
   2   0 -88    0.50    0.43
  -3   1 -88    1.30    0.56
   0   1 -88    1.28    0.46
   3   1 -88    0.40    0.82
  -2   2 -88   -0.17    0.46
   1   2 -88    0.89    0.50
  -4   3 -88    0.89    0.72
  -1   3 -88   -0.04    0.77
  -3   4 -88    0.38    0.61
   2  -4 -87    0.69    0.83
   0  -3 -87    0.36    0.60
   3  -3 -87   -0.37    0.43
  -2  -2 -87    0.24    0.60
   1  -2 -87    0.12    0.43
   4  -2 -87    0.28    0.46
  -1  -1 -87   -0.08    0.28
   2  -1 -87   -0.20    0.31
  -3   0 -87    0.33    0.48
   0   0 -87    0.16    0.29
   3   0 -87    0.42    0.50
  -2   1 -87    0.00    0.35
   1   1 -87    0.46    0.40
  -4   2 -87   -0.11    0.49
  -1   2 -87   -0.05    0.48
   2   2 -87    0.98    0.85
  -3   3 -87    0.47    0.61
   0   3 -87    0.21    0.49
  -2   4 -87   -0.39    0.47
   0  -4 -86    2.58    1.49
   3  -4 -86    3.15    0.83
   1  -3 -86    3.73    0.83
   4  -3 -86    6.45    1.54
  -1  -2 -86    3.13    0.84
   2  -2 -86    4.57    0.66
  -3  -1 -86    3.59    1.38
   0  -1 -86    6.50    0.71
   3  -1 -86    3.26    0.67
  -2   0 -86    6.28    0.70
   1   0 -86    7.70    0.91
  -4   1 -86    7.02    1.67
  -1   1 -86    5.86    0.67
   2   1 -86    2.99    0.75
  -3   2 -86    3.60    0.87
   0   2 -86    4.91    0.84
  -2   3 -86    5.04    1.00
   1   3 -86    3.72    1.29
  -1   4 -86    2.92    1.17
   1  -4 -85    1.66    1.06
  -1  -3 -85    2.46    0.86
   2  -3 -85    4.90    0.87
   0  -2 -85    5.81    0.78
   3  -2 -85    5.14    0.86
  -2  -1 -85    3.82    0.86
   1  -1 -85    8.04    1.02
   4  -1 -85    2.45    0.75
  -1   0 -85    8.88    0.80
   2   0 -85    5.34    0.88
  -3   1 -85    4.63    0.82
   0   1 -85    9.24    1.03
   3   1 -85    1.92    0.97
  -2   2 -85    6.05    1.00
   1   2 -85    5.55    0.87
  -4   3 -85    1.69    0.81
  -1   3 -85    7.48    1.12
  -3   4 -85    3.02    0.91
   2  -4 -84    1.85    0.66
   0  -3 -84    1.38    0.66
   3  -3 -84    1.21    0.56
  -2  -2 -84    2.01    0.78
   1  -2 -84    3.12    0.55
   4  -2 -84    0.63    0.50
  -1  -1 -84    3.00    0.55
   2  -1 -84    1.71    0.46
  -3   0 -84    2.21    0.70
   0   0 -84    2.79    0.56
   3   0 -84    1.51    0.63
  -2   1 -84    1.56    0.52
   1   1 -84    3.78    0.68
  -4   2 -84    0.69    0.56
  -1   2 -84    1.79    0.67
   2   2 -84    0.82    0.84
  -3   3 -84    0.24    0.57
   0   3 -84    1.34    0.60
  -2   4 -84    0.33    0.57
   0  -4 -83    0.00    0.62
   3  -4 -83    0.15    0.52
   1  -3 -83   -0.02    0.40
   4  -3 -83    0.38    0.47
  -1  -2 -83   -0.03    0.48
   2  -2 -83   -0.35    0.25
  -3  -1 -83    0.71    0.96
   0  -1 -83    0.05    0.27
   3  -1 -83    0.22    0.39
  -2   0 -83   -0.09    0.26
   1   0 -83    0.01    0.29
   4   0 -83   -0.75    0.51
  -4   1 -83   -0.24    0.68
  -1   1 -83   -0.02    0.25
   2   1 -83    0.14    0.40
  -3   2 -83   -0.47    0.42
   0   2 -83    0.63    0.47
  -2   3 -83   -0.25    0.47
   1   3 -83   -0.17    0.73
  -4   4 -83    0.47    0.87
  -1   4 -83    0.25    0.77
   1  -4 -82   49.55    3.85
   4  -4 -82   39.60    3.73
  -1  -3 -82   46.69    2.89
   2  -3 -82   72.13    3.11
   0  -2 -82   77.59    2.79
   3  -2 -82   69.67    2.98
  -2  -1 -82   69.08    3.24
   1  -1 -82   96.93    3.86
   4  -1 -82   51.55    2.54
  -1   0 -82  100.35    3.05
   2   0 -82   75.21    3.30
  -3   1 -82   68.73    3.08
   0   1 -82   95.35    3.71
   3   1 -82   50.40    2.56
  -2   2 -82   81.07    3.63
   1   2 -82   71.13    2.99
  -4   3 -82   48.79    3.04
  -1   3 -82   68.73    3.14
  -3   4 -82   41.71    2.80
   2  -4 -81    1.23    0.57
   0  -3 -81    0.93    0.62
   3  -3 -81    1.37    0.55
  -2  -2 -81    0.49    0.61
   1  -2 -81    2.17    0.47
   4  -2 -81    1.01    0.51
  -1  -1 -81    2.96    0.53
   2  -1 -81    2.18    0.46
  -3   0 -81    2.23    0.69
   0   0 -81    4.06    0.50
   3   0 -81    0.89    0.55
  -2   1 -81    2.65    0.64
   1   1 -81    3.68    0.66
  -4   2 -81    0.64    0.59
  -1   2 -81    2.43    0.69
   2   2 -81    1.49    0.83
  -3   3 -81    0.85    0.64
   0   3 -81    0.73    0.56
  -2   4 -81    1.00    0.62
   0  -4 -80    1.96    0.80
   3  -4 -80    2.49    0.73
   1  -3 -80    1.94    0.56
   4  -3 -80    1.56    0.61
  -1  -2 -80    3.04    0.82
   2  -2 -80    2.32    0.48
  -3  -1 -80    1.35    1.06
   0  -1 -80    3.32    0.51
   3  -1 -80    2.65    0.63
  -2   0 -80    2.35    0.46
   1   0 -80    6.24    0.80
   4   0 -80    1.19    0.61
  -4   1 -80    0.24    0.77
  -1   1 -80    2.58    0.59
   2   1 -80    1.12    0.51
  -3   2 -80    2.46    0.76
   0   2 -80    3.28    0.71
  -2   3 -80    1.94    0.67
   1   3 -80    1.63    0.93
  -4   4 -80    1.71    0.82
  -1   4 -80    0.46    0.79
   1  -4 -79   72.15    4.73
   4  -4 -79   67.90    4.29
  -1  -3 -79   69.06    3.40
   2  -3 -79  102.87    3.90
   0  -2 -79  104.50    3.41
   3  -2 -79  102.85    3.79
  -2  -1 -79  101.19    4.14
   1  -1 -79  128.02    4.85
   4  -1 -79   72.13    3.11
  -4   0 -79   53.20    4.55
  -1   0 -79  147.37    3.93
   2   0 -79  100.63    4.04
  -3   1 -79   97.73    3.93
   0   1 -79  136.04    4.78
   3   1 -79   64.95    3.05
  -2   2 -79  110.93    4.43
   1   2 -79   93.75    3.73
  -4   3 -79   63.24    3.38
  -1   3 -79  104.66    4.01
  -3   4 -79   69.90    3.42
   2  -4 -78    0.26    0.43
   0  -3 -78    0.54    0.55
   3  -3 -78    0.16    0.40
  -2  -2 -78    0.19    0.54
   1  -2 -78    0.00    0.28
   4  -2 -78   -0.20    0.35
  -1  -1 -78    0.08    0.31
   2  -1 -78    0.04    0.28
  -3   0 -78    0.27    0.47
   0   0 -78    0.48    0.27
   3   0 -78   -0.25    0.37
  -2   1 -78    0.04    0.34
   1   1 -78    0.10    0.30
  -4   2 -78    0.53    0.52
  -1   2 -78   -0.12    0.38
   2   2 -78   -0.21    0.61
  -3   3 -78   -1.00    0.38
   0   3 -78    0.24    0.44
  -2   4 -78    0.01    0.42
   0  -4 -77    0.89    0.67
   3  -4 -77    0.99    0.54
   1  -3 -77    1.67    0.53
   4  -3 -77    0.75    0.48
  -1  -2 -77    1.91    0.67
   2  -2 -77    1.90    0.43
   5  -2 -77    0.94    0.83
  -3  -1 -77   -0.35    0.76
   0  -1 -77    2.12    0.45
   3  -1 -77    2.32    0.57
  -2   0 -77    1.30    0.38
   1   0 -77    2.10    0.51
   4   0 -77    1.08    0.54
  -4   1 -77    1.63    1.00
  -1   1 -77    2.81    0.62
   2   1 -77    2.04    0.57
  -3   2 -77    0.83    0.56
   0   2 -77    2.05    0.57
   3   2 -77    0.21    0.87
  -2   3 -77    0.48    0.47
   1   3 -77    1.24    0.83
  -4   4 -77    1.13    0.73
  -1   4 -77    1.22    0.57
   1  -4 -76   13.14    1.49
   4  -4 -76    8.03    1.60
  -1  -3 -76    9.09    1.30
   2  -3 -76   18.36    1.50
   5  -3 -76    7.90    1.56
   0  -2 -76   19.86    1.33
   3  -2 -76   16.60    1.39
  -2  -1 -76   14.31    1.51
   1  -1 -76   25.73    1.83
   4  -1 -76   11.74    1.02
  -4   0 -76    5.80    1.74
  -1   0 -76   31.31    1.29
   2   0 -76   19.10    1.58
  -3   1 -76   20.77    1.68
   0   1 -76   25.78    1.26
   3   1 -76   10.44    1.19
  -2   2 -76   20.86    1.79
   1   2 -76   16.82    1.45
  -4   3 -76   11.56    1.50
  -1   3 -76   14.64    1.43
   2   3 -76    9.81    1.75
  -3   4 -76    9.30    1.30
  -2   5 -76    8.18    1.86
   2  -4 -75    8.27    1.05
   0  -3 -75    9.97    1.25
   3  -3 -75   11.22    1.17
  -2  -2 -75    5.73    1.04
   1  -2 -75   11.20    0.92
   4  -2 -75    6.06    0.81
  -1  -1 -75   11.74    0.95
   2  -1 -75   12.39    0.97
  -3   0 -75    9.80    1.23
   0   0 -75   15.93    0.92
   3   0 -75   10.23    1.15
  -2   1 -75   12.59    1.25
   1   1 -75   13.52    1.13
  -4   2 -75   10.66    1.34
  -1   2 -75   12.96    1.31
   2   2 -75    8.14    1.48
  -3   3 -75    6.98    1.13
   0   3 -75    8.62    1.10
  -2   4 -75    7.90    1.07
   0  -4 -74   -0.25    0.56
   3  -4 -74    1.47    0.55
   1  -3 -74    0.28    0.30
   4  -3 -74   -0.21    0.39
  -1  -2 -74    0.62    0.51
   2  -2 -74    1.03    0.35
   5  -2 -74    0.31    0.47
  -3  -1 -74    0.40    0.87
   0  -1 -74    0.85    0.34
   3  -1 -74    0.87    0.43
  -2   0 -74    1.03    0.37
   1   0 -74    0.27    0.32
   4   0 -74    1.09    0.50
  -4   1 -74    0.16    0.68
  -1   1 -74    0.00    0.31
   2   1 -74    0.10    0.36
  -3   2 -74    0.71    0.53
   0   2 -74    0.32    0.36
   3   2 -74    1.33    0.92
  -2   3 -74    0.99    0.49
   1   3 -74    0.35    0.66
  -4   4 -74    0.57    0.64
  -1   4 -74    0.47    0.44
   3  -5 -73   11.10    1.24
   1  -4 -73   16.94    1.63
   4  -4 -73   10.58    1.78
  -1  -3 -73   14.46    1.47
   2  -3 -73   23.23    1.65
   5  -3 -73    8.84    1.13
   0  -2 -73   25.99    1.42
   3  -2 -73   20.03    1.51
  -2  -1 -73   18.49    1.73
   1  -1 -73   32.69    1.80
   4  -1 -73   14.02    1.08
  -4   0 -73    9.97    2.17
  -1   0 -73   32.98    1.37
   2   0 -73   24.99    1.79
  -3   1 -73   22.40    1.77
   0   1 -73   34.91    1.42
   3   1 -73   11.44    1.25
  -2   2 -73   26.20    2.02
   1   2 -73   22.62    1.69
  -4   3 -73   13.46    1.62
  -1   3 -73   23.30    1.70
   2   3 -73   11.06    1.80
  -3   4 -73   12.63    1.45
  -2   5 -73   11.28    2.03
   2  -4 -72    6.27    0.89
   0  -3 -72    7.01    1.04
   3  -3 -72    7.66    0.93
  -2  -2 -72    6.03    0.93
   1  -2 -72    8.80    0.77
   4  -2 -72    7.14    0.93
  -1  -1 -72    8.27    0.80
   2  -1 -72    6.76    0.69
  -3   0 -72    5.83    0.98
   0   0 -72   10.17    0.77
   3   0 -72    4.66    0.74
  -2   1 -72    8.65    1.04
   1   1 -72    8.56    0.92
  -4   2 -72    5.21    1.03
  -1   2 -72    5.67    0.85
   2   2 -72    5.77    1.26
  -3   3 -72    6.34    1.07
   0   3 -72    5.42    0.87
  -5   4 -72    1.38    1.28
  -2   4 -72    4.77    0.88
   2  -5 -71    4.49    1.27
   0  -4 -71    4.48    0.97
   3  -4 -71    5.68    0.89
  -2  -3 -71    4.65    1.70
   1  -3 -71   12.01    0.94
   4  -3 -71    7.09    0.93
  -1  -2 -71    8.86    1.18
   2  -2 -71   13.27    0.93
   5  -2 -71    5.34    0.89
  -3  -1 -71    5.55    1.63
   0  -1 -71   17.85    1.14
   3  -1 -71   10.72    1.10
  -2   0 -71   12.80    0.97
   1   0 -71   18.98    1.35
   4   0 -71    6.04    0.93
  -4   1 -71    9.50    1.83
  -1   1 -71   16.26    1.35
   2   1 -71   10.18    1.10
  -3   2 -71   10.41    1.30
   0   2 -71   11.63    0.92
   3   2 -71    3.35    0.77
  -5   3 -71    4.26    1.06
  -2   3 -71   10.42    1.19
   1   3 -71    6.47    1.35
  -4   4 -71    4.41    1.02
  -1   4 -71    8.01    1.07
  -3   5 -71    2.13    1.12
   3  -5 -70    1.11    0.55
   1  -4 -70    1.58    0.62
   4  -4 -70    0.95    0.71
  -1  -3 -70    1.09    0.57
   2  -3 -70    2.63    0.55
   5  -3 -70    1.22    0.54
  -3  -2 -70    1.08    1.04
   0  -2 -70    3.24    0.52
   3  -2 -70    2.78    0.45
  -2  -1 -70    1.33    0.59
   1  -1 -70    5.47    0.81
   4  -1 -70    1.29    0.38
  -4   0 -70    1.80    1.20
  -1   0 -70    4.50    0.54
   2   0 -70    2.34    0.55
  -3   1 -70    2.43    0.66
   0   1 -70    4.82    0.59
   3   1 -70    1.27    0.52
  -5   2 -70    1.25    0.75
  -2   2 -70    3.37    0.73
   1   2 -70    2.96    0.63
  -4   3 -70    1.90    0.62
  -1   3 -70    2.40    0.58
   2   3 -70    0.89    0.69
  -3   4 -70    1.28    0.55
  -2   5 -70    1.92    1.09
   1  -5 -69    3.38    1.53
   4  -5 -69    3.75    1.22
   2  -4 -69    5.64    0.83
   0  -3 -69    7.56    1.01
   3  -3 -69    5.67    0.80
  -2  -2 -69    5.02    0.92
   1  -2 -69    8.78    0.64
   4  -2 -69    4.74    0.76
  -1  -1 -69    8.61    0.82
   2  -1 -69    8.83    0.77
   5  -1 -69    2.34    0.99
  -3   0 -69    6.95    1.03
   0   0 -69   11.41    0.82
   3   0 -69    5.35    0.81
  -5   1 -69    2.48    1.28
  -2   1 -69   10.56    1.15
   1   1 -69    9.37    0.96
   4   1 -69    2.05    1.02
  -4   2 -69    4.80    0.79
  -1   2 -69   10.27    1.09
   2   2 -69    5.03    0.78
  -3   3 -69    8.47    0.92
   0   3 -69    4.58    1.10
  -5   4 -69    2.17    0.95
  -2   4 -69    4.21    1.22
  -1   5 -69    3.21    1.18
   2  -5 -68    7.57    1.59
   0  -4 -68   10.51    1.32
   3  -4 -68   12.04    1.20
  -2  -3 -68    4.63    1.64
   1  -3 -68   16.43    1.08
   4  -3 -68   11.34    1.13
  -1  -2 -68   17.26    1.58
   2  -2 -68   21.50    1.11
   5  -2 -68    9.25    1.13
  -3  -1 -68   10.02    2.03
   0  -1 -68   28.89    1.29
   3  -1 -68   18.65    1.40
  -2   0 -68   23.13    1.69
   1   0 -68   30.87    1.54
   4   0 -68    7.70    1.00
  -4   1 -68   12.47    1.45
  -1   1 -68   27.17    1.73
   2   1 -68   17.18    1.43
  -3   2 -68   16.42    1.27
   0   2 -68   23.56    1.44
   3   2 -68    6.66    0.97
  -5   3 -68    9.51    1.44
  -2   3 -68   13.84    1.32
   1   3 -68    7.06    0.97
  -4   4 -68    5.87    0.91
  -1   4 -68   10.76    1.67
  -3   5 -68    6.30    1.61
   3  -5 -67    0.77    0.50
   1  -4 -67    2.15    0.69
   4  -4 -67    2.76    0.94
  -1  -3 -67    3.61    0.78
   2  -3 -67    5.40    0.75
   5  -3 -67    1.72    0.57
  -3  -2 -67    1.43    1.12
   0  -2 -67    5.16    0.62
   3  -2 -67    4.86    0.56
  -2  -1 -67    3.75    0.80
   1  -1 -67    5.40    0.80
   4  -1 -67    2.74    0.49
  -4   0 -67    2.72    0.83
  -1   0 -67    8.92    0.75
   2   0 -67    5.14    0.77
  -3   1 -67    4.71    0.66
   0   1 -67    8.73    0.78
   3   1 -67    3.21    0.67
  -5   2 -67    1.84    0.79
  -2   2 -67    5.44    0.87
   1   2 -67    4.02    0.71
  -4   3 -67    1.88    0.59
  -1   3 -67    4.61    0.74
   2   3 -67    0.65    0.69
  -3   4 -67    2.22    0.78
  -2   5 -67    0.36    0.78
   1  -5 -66    1.12    0.67
   4  -5 -66    0.14    0.45
   2  -4 -66    0.69    0.40
   0  -3 -66    0.47    0.43
   3  -3 -66    0.73    0.29
  -2  -2 -66    1.27    0.55
   1  -2 -66    0.94    0.26
   4  -2 -66    0.68    0.40
  -1  -1 -66    0.99    0.37
   2  -1 -66    1.09    0.33
   5  -1 -66    0.22    0.68
  -3   0 -66    0.39    0.37
   0   0 -66    1.24    0.33
   3   0 -66    0.08    0.32
  -5   1 -66    0.18    0.73
  -2   1 -66    0.48    0.42
   1   1 -66    0.67    0.39
   4   1 -66    1.17    0.82
  -4   2 -66    0.17    0.42
  -1   2 -66    0.79    0.42
   2   2 -66    0.15    0.35
  -3   3 -66    0.59    0.44
   0   3 -66    0.65    0.57
  -5   4 -66   -0.70    0.66
  -2   4 -66    0.91    0.55
  -4   5 -66   -1.16    0.97
  -1   5 -66   -0.85    0.61
   2  -5 -65   41.20    3.23
   0  -4 -65   48.50    2.53
   3  -4 -65   56.26    2.46
  -2  -3 -65   39.60    4.24
   1  -3 -65   75.37    2.37
   4  -3 -65   54.90    2.35
  -1  -2 -65   68.96    3.11
   2  -2 -65   90.04    2.59
   5  -2 -65   40.44    2.13
  -3  -1 -65   52.98    2.81
   0  -1 -65   95.51    2.95
   3  -1 -65   70.78    2.82
  -2   0 -65   83.32    2.72
   1   0 -65   92.79    3.47
   4   0 -65   46.49    2.30
  -4   1 -65   54.78    2.81
  -1   1 -65   92.70    3.73
   2   1 -65   66.47    2.87
  -3   2 -65   70.33    2.61
   0   2 -65   87.88    3.27
   3   2 -65   40.68    2.13
  -5   3 -65   41.80    2.99
  -2   3 -65   72.41    2.51
   1   3 -65   52.74    2.38
  -4   4 -65   43.15    2.30
  -1   4 -65   43.40    3.34
  -3   5 -65   39.46    2.89
   3  -5 -64    7.09    0.96
   1  -4 -64   12.27    1.31
   4  -4 -64    9.70    1.06
  -1  -3 -64   10.42    1.24
   2  -3 -64   20.62    1.44
   5  -3 -64    8.11    1.01
  -3  -2 -64    5.58    1.65
   0  -2 -64   28.70    1.27
   3  -2 -64   19.42    1.05
  -2  -1 -64   19.96    1.31
   1  -1 -64   29.28    1.67
   4  -1 -64   13.46    0.99
  -4   0 -64    7.25    1.19
  -1   0 -64   37.57    1.43
   2   0 -64   25.90    1.56
  -3   1 -64   24.46    1.46
   0   1 -64   35.27    1.48
   3   1 -64   10.92    1.13
  -5   2 -64    9.64    1.44
  -2   2 -64   24.84    1.38
   1   2 -64   22.93    1.59
  -4   3 -64   12.64    1.22
  -1   3 -64   20.50    2.15
   2   3 -64    6.37    1.29
  -3   4 -64   14.19    1.57
  -2   5 -64    9.92    1.82
   1  -5 -63    1.71    0.70
   4  -5 -63    0.48    0.46
  -1  -4 -63    1.59    1.19
   2  -4 -63    2.11    0.51
   5  -4 -63    0.73    0.71
   0  -3 -63    1.67    0.56
   3  -3 -63    2.66    0.41
  -2  -2 -63    1.77    0.51
   1  -2 -63    6.75    0.52
   4  -2 -63    1.82    0.48
  -4  -1 -63    0.96    0.75
  -1  -1 -63    5.91    0.66
   2  -1 -63    6.15    0.60
   5  -1 -63    0.94    0.52
  -3   0 -63    3.20    0.59
   0   0 -63    9.94    0.74
   3   0 -63    4.29    0.66
  -5   1 -63    1.88    0.91
  -2   1 -63    5.67    0.65
   1   1 -63    6.25    0.77
   4   1 -63    0.97    0.53
  -4   2 -63    1.24    0.52
  -1   2 -63    6.08    0.80
   2   2 -63    2.98    0.60
  -3   3 -63    2.18    0.54
   0   3 -63    3.64    0.63
  -5   4 -63    0.05    0.52
  -2   4 -63    2.76    0.73
  -4   5 -63    1.43    0.85
  -1   5 -63    1.46    0.89
   2  -5 -62   85.46    5.03
   0  -4 -62  107.99    4.26
   3  -4 -62  123.88    4.35
  -2  -3 -62   80.24    5.61
   1  -3 -62  188.28    4.90
   4  -3 -62  122.32    4.22
  -1  -2 -62  186.54    6.36
   2  -2 -62  240.80    5.76
   5  -2 -62   80.25    3.31
  -3  -1 -62  120.61    4.91
   0  -1 -62  264.15    7.09
   3  -1 -62  182.54    5.85
  -2   0 -62  229.06    6.07
   1   0 -62  292.32    8.58
   4   0 -62  106.19    3.94
  -4   1 -62  121.22    4.87
  -1   1 -62  272.66    8.92
   2   1 -62  181.64    5.97
  -3   2 -62  179.33    5.26
   0   2 -62  226.97    7.26
   3   2 -62   85.14    3.37
  -5   3 -62   83.54    4.01
  -2   3 -62  181.40    6.35
   1   3 -62  116.71    4.21
  -4   4 -62  103.89    3.66
  -1   4 -62  115.44    4.53
  -3   5 -62   77.11    3.85
   3  -5 -61    5.03    0.80
   1  -4 -61    7.95    1.05
   4  -4 -61    6.24    0.86
  -1  -3 -61    8.34    1.01
   2  -3 -61   13.80    1.13
   5  -3 -61    4.68    0.76
  -3  -2 -61    2.69    0.87
   0  -2 -61   18.82    1.02
   3  -2 -61   14.36    0.90
  -2  -1 -61   15.27    1.13
   1  -1 -61   25.02    1.14
   4  -1 -61    8.94    0.78
  -4   0 -61    4.54    1.00
  -1   0 -61   24.61    1.12
   2   0 -61   17.45    1.04
  -3   1 -61   13.18    1.08
   0   1 -61   25.59    1.20
   3   1 -61    7.80    0.93
  -5   2 -61    4.77    1.09
  -2   2 -61   15.39    1.11
   1   2 -61   11.82    1.11
  -4   3 -61    5.19    0.84
  -1   3 -61   13.75    1.20
   2   3 -61    5.44    1.17
  -3   4 -61   10.16    1.35
  -2   5 -61    3.91    0.94
   1  -5 -60    5.08    0.95
   4  -5 -60    4.38    0.81
  -1  -4 -60    3.39    1.41
   2  -4 -60    7.84    0.88
   5  -4 -60    2.10    0.93
   0  -3 -60   10.90    1.12
   3  -3 -60    9.74    0.74
  -2  -2 -60    7.99    0.85
   1  -2 -60   17.05    0.72
   4  -2 -60    8.50    0.74
  -4  -1 -60    3.17    0.93
  -1  -1 -60   15.55    0.83
   2  -1 -60   17.11    0.98
   5  -1 -60    3.03    0.69
  -3   0 -60    9.04    0.91
   0   0 -60   22.59    1.06
   3   0 -60   10.44    0.99
  -5   1 -60    4.00    1.05
  -2   1 -60   15.61    1.09
   1   1 -60   18.21    1.33
   4   1 -60    2.50    0.66
  -4   2 -60    5.23    0.80
  -1   2 -60   17.07    1.02
   2   2 -60    5.35    0.78
  -3   3 -60    7.95    0.86
   0   3 -60    9.14    0.95
  -5   4 -60    3.11    0.83
  -2   4 -60    5.74    0.95
   1   4 -60    3.68    1.44
  -4   5 -60    1.69    0.90
  -1   5 -60    2.99    1.03
   2  -5 -59    3.00    0.74
   0  -4 -59    2.28    0.64
   3  -4 -59    2.99    0.61
  -2  -3 -59    4.55    1.04
   1  -3 -59    7.59    0.67
   4  -3 -59    4.57    0.69
  -1  -2 -59    7.65    0.79
   2  -2 -59   10.02    0.71
   5  -2 -59    2.74    0.50
  -3  -1 -59    4.00    0.91
   0  -1 -59   11.52    0.89
   3  -1 -59    7.46    0.82
  -2   0 -59    9.49    0.81
   1   0 -59   11.05    0.98
   4   0 -59    3.62    0.68
  -4   1 -59    4.39    0.95
  -1   1 -59   12.88    0.87
   2   1 -59    6.97    0.83
  -3   2 -59    6.41    0.80
   0   2 -59   10.49    0.73
   3   2 -59    2.76    0.63
  -5   3 -59    3.08    0.95
  -2   3 -59    9.03    1.05
   1   3 -59    5.44    0.76
  -4   4 -59    2.95    0.93
  -1   4 -59    3.31    0.72
  -3   5 -59    1.52    0.74
   3  -5 -58    3.88    0.73
   1  -4 -58    4.13    0.77
   4  -4 -58    5.15    0.78
  -1  -3 -58    5.12    0.69
   2  -3 -58    5.55    0.70
   5  -3 -58    5.55    0.80
  -3  -2 -58    2.83    0.90
   0  -2 -58    6.36    0.60
   3  -2 -58    5.52    0.54
  -2  -1 -58    4.61    0.65
   1  -1 -58    7.66    0.60
   4  -1 -58    3.45    0.50
  -4   0 -58    5.01    1.00
  -1   0 -58    7.12    0.59
   2   0 -58    5.63    0.56
  -3   1 -58    7.13    0.81
   0   1 -58    7.60    0.84
   3   1 -58    4.58    0.69
  -5   2 -58    3.94    0.96
  -2   2 -58    6.55    0.71
   1   2 -58    4.48    0.68
  -4   3 -58    4.78    0.79
  -1   3 -58    5.96    0.79
   2   3 -58    4.11    1.02
  -3   4 -58    4.82    0.96
   0   4 -58    2.77    1.17
  -2   5 -58    5.61    1.04
   1  -5 -57    1.34    0.57
   4  -5 -57    0.83    0.48
  -1  -4 -57    0.62    0.85
   2  -4 -57    1.67    0.36
   5  -4 -57    1.80    0.80
   0  -3 -57    2.17    0.45
   3  -3 -57    2.46    0.38
  -2  -2 -57    2.57    0.51
   1  -2 -57    5.72    0.45
   4  -2 -57    1.61    0.37
  -4  -1 -57    0.31    0.68
  -1  -1 -57    4.39    0.46
   2  -1 -57    5.13    0.51
   5  -1 -57    1.21    0.50
  -3   0 -57    2.06    0.52
   0   0 -57    6.84    0.60
   3   0 -57    2.35    0.49
  -5   1 -57   -0.27    0.64
  -2   1 -57    4.25    0.56
   1   1 -57    4.73    0.70
   4   1 -57    0.61    0.44
  -4   2 -57    2.16    0.63
  -1   2 -57    5.17    0.53
   2   2 -57    1.57    0.45
  -3   3 -57    2.22    0.70
   0   3 -57    1.98    0.51
  -5   4 -57    1.06    0.65
  -2   4 -57    2.02    0.64
   1   4 -57    1.02    0.66
  -4   5 -57    0.46    0.73
  -1   5 -57    0.92    0.59
   2  -5 -56    0.80    0.53
   0  -4 -56    2.64    0.62
   3  -4 -56    2.67    0.56
  -2  -3 -56    1.24    0.78
   1  -3 -56    3.89    0.48
   4  -3 -56    2.18    0.48
  -1  -2 -56    4.44    0.59
   2  -2 -56    4.43    0.45
   5  -2 -56    2.69    0.49
  -3  -1 -56    2.67    0.71
   0  -1 -56    5.37    0.59
   3  -1 -56    4.10    0.58
  -2   0 -56    5.82    0.65
   1   0 -56    5.01    0.65
   4   0 -56    2.02    0.53
  -4   1 -56    2.58    0.73
  -1   1 -56    5.78    0.57
   2   1 -56    2.98    0.56
  -3   2 -56    3.70    0.63
   0   2 -56    4.59    0.48
   3   2 -56    1.66    0.52
  -5   3 -56    1.38    0.79
  -2   3 -56    3.37    0.71
   1   3 -56    2.63    0.55
  -4   4 -56    1.45    0.73
  -1   4 -56    3.05    0.67
  -3   5 -56    1.73    0.81
   0  -5 -55    4.15    1.15
   3  -5 -55    6.64    0.90
   1  -4 -55    9.33    1.05
   4  -4 -55    8.54    0.97
  -1  -3 -55    8.12    0.84
   2  -3 -55   12.34    1.01
   5  -3 -55    6.28    0.86
  -3  -2 -55    4.57    1.06
   0  -2 -55   13.39    0.72
   3  -2 -55   11.84    0.74
  -2  -1 -55   10.82    0.91
   1  -1 -55   15.76    0.81
   4  -1 -55    9.84    0.78
  -4   0 -55    7.20    1.19
  -1   0 -55   15.32    0.84
   2   0 -55   12.46    0.80
  -3   1 -55   11.42    0.98
   0   1 -55   14.86    0.77
   3   1 -55    8.94    0.94
  -5   2 -55    6.36    1.25
  -2   2 -55   12.93    0.96
   1   2 -55   11.34    0.85
  -4   3 -55    7.18    0.88
  -1   3 -55   11.66    1.08
   2   3 -55    4.63    0.79
  -3   4 -55    8.69    1.21
   0   4 -55    7.05    1.14
  -2   5 -55    4.22    0.92
   1  -5 -54    1.50    0.57
   4  -5 -54    2.10    0.61
  -1  -4 -54    2.49    0.88
   2  -4 -54    1.91    0.40
   5  -4 -54    0.47    0.61
   0  -3 -54    2.96    0.50
   3  -3 -54    2.27    0.37
  -2  -2 -54    2.45    0.50
   1  -2 -54    4.67    0.39
   4  -2 -54    2.50    0.41
  -4  -1 -54    0.38    0.63
  -1  -1 -54    4.74    0.47
   2  -1 -54    4.03    0.44
   5  -1 -54    0.79    0.47
  -3   0 -54    1.83    0.51
   0   0 -54    8.02    0.65
   3   0 -54    3.12    0.54
  -5   1 -54    1.04    0.82
  -2   1 -54    3.73    0.55
   1   1 -54    5.32    0.72
   4   1 -54    1.04    0.48
  -4   2 -54    2.50    0.60
  -1   2 -54    4.60    0.51
   2   2 -54    1.63    0.44
  -3   3 -54    2.95    0.73
  -5   4 -54    1.03    0.62
  -2   4 -54    1.42    0.55
   1   4 -54    0.24    0.62
  -4   5 -54    1.91    0.90
  -1   5 -54    0.45    1.00
   2  -5 -53    1.50    0.58
   0  -4 -53    3.47    0.61
   3  -4 -53    3.41    0.60
  -2  -3 -53    2.43    0.83
   1  -3 -53    6.55    0.52
   4  -3 -53    2.55    0.51
  -1  -2 -53    5.24    0.62
   2  -2 -53    7.53    0.57
   5  -2 -53    2.62    0.47
  -3  -1 -53    3.66    0.87
   0  -1 -53    8.25    0.49
   3  -1 -53    5.77    0.67
  -2   0 -53    6.85    0.67
   1   0 -53    8.92    0.56
   4   0 -53    3.51    0.62
  -4   1 -53    2.59    0.81
  -1   1 -53    8.43    0.68
   2   1 -53    6.08    0.72
  -3   2 -53    4.84    0.66
   0   2 -53    6.42    0.56
   3   2 -53    1.77    0.53
  -5   3 -53    1.81    0.82
  -2   3 -53    4.97    0.82
   1   3 -53    2.21    0.70
  -4   4 -53    3.24    0.94
  -1   4 -53    3.42    0.72
  -3   5 -53    1.19    0.69
   0   5 -53    1.15    1.23
   0  -5 -52    1.25    0.80
   3  -5 -52    1.00    0.47
   1  -4 -52    3.99    0.62
   4  -4 -52    2.11    0.53
  -1  -3 -52    3.75    0.59
   2  -3 -52    5.57    0.54
   5  -3 -52    2.27    0.56
  -3  -2 -52    2.23    0.82
   0  -2 -52    8.58    0.55
   3  -2 -52    5.73    0.51
  -2  -1 -52    5.80    0.67
   1  -1 -52   12.29    0.67
   4  -1 -52    3.78    0.50
  -4   0 -52    1.97    0.76
  -1   0 -52   11.74    0.77
   2   0 -52    8.71    0.64
  -3   1 -52    5.40    0.71
   0   1 -52   11.42    0.64
   3   1 -52    3.96    0.64
  -5   2 -52    2.51    0.91
  -2   2 -52    7.85    0.73
   1   2 -52    6.25    0.62
  -4   3 -52    2.96    0.64
  -1   3 -52    5.64    0.75
   2   3 -52    1.74    0.54
  -3   4 -52    2.29    0.72
   0   4 -52    1.63    1.02
  -2   5 -52    1.38    0.63
   1  -5 -51   12.71    1.36
   4  -5 -51   14.31    1.34
  -1  -4 -51   15.20    1.75
   2  -4 -51   22.47    1.16
   5  -4 -51   14.30    1.88
   0  -3 -51   28.31    1.33
   3  -3 -51   29.45    1.13
  -2  -2 -51   23.05    1.27
   1  -2 -51   46.43    1.25
   4  -2 -51   21.21    1.08
  -4  -1 -51   14.13    1.70
  -1  -1 -51   45.37    1.40
   2  -1 -51   45.42    1.47
   5  -1 -51   12.07    1.18
  -3   0 -51   28.29    1.52
   0   0 -51   67.76    2.09
   3   0 -51   29.74    1.41
  -5   1 -51   14.49    1.80
  -2   1 -51   46.46    1.75
   1   1 -51   46.45    1.54
   4   1 -51   11.31    1.17
  -4   2 -51   25.42    1.64
  -1   2 -51   45.85    1.94
   2   2 -51   21.37    1.43
  -3   3 -51   27.40    2.08
  -5   4 -51   14.67    1.41
  -2   4 -51   20.74    1.72
   1   4 -51   12.56    1.38
  -4   5 -51   14.39    1.80
  -1   5 -51   14.80    2.40
   2  -5 -50    0.03    0.40
   0  -4 -50   -0.03    0.31
   3  -4 -50    0.06    0.27
  -2  -3 -50    0.01    0.54
   1  -3 -50   -0.11    0.16
   4  -3 -50    0.12    0.25
  -1  -2 -50   -0.04    0.23
   2  -2 -50    0.14    0.16
   5  -2 -50    0.08    0.26
  -3  -1 -50    0.18    0.48
   0  -1 -50   -0.10    0.14
   3  -1 -50   -0.04    0.20
  -5   0 -50   -0.44    0.71
  -2   0 -50    0.18    0.28
   1   0 -50    0.01    0.17
   4   0 -50    0.10    0.29
  -4   1 -50    0.56    0.51
  -1   1 -50    0.25    0.23
   2   1 -50   -0.12    0.22
  -3   2 -50    1.11    0.41
   0   2 -50    0.05    0.30
   3   2 -50    0.03    0.33
  -5   3 -50   -0.55    0.59
  -2   3 -50   -0.10    0.35
   1   3 -50    0.26    0.39
  -4   4 -50   -0.14    0.54
  -1   4 -50    0.17    0.64
  -3   5 -50    0.53    0.56
   0   5 -50   -0.50    1.08
   0  -5 -49    1.17    0.68
   3  -5 -49    2.29    0.54
   1  -4 -49    3.51    0.58
   4  -4 -49    2.12    0.51
  -1  -3 -49    2.55    0.48
   2  -3 -49    6.88    0.58
   5  -3 -49    2.53    0.58
  -3  -2 -49    1.76    0.75
   0  -2 -49    9.49    0.56
   3  -2 -49    5.43    0.49
  -2  -1 -49    6.29    0.67
   1  -1 -49   11.90    0.64
   4  -1 -49    3.95    0.50
  -4   0 -49    1.37    0.70
  -1   0 -49   13.00    0.76
   2   0 -49    8.53    0.61
   5   0 -49    1.11    0.73
  -3   1 -49    6.80    0.78
   0   1 -49   12.09    0.65
   3   1 -49    3.57    0.58
  -5   2 -49    2.20    0.88
  -2   2 -49    8.77    0.75
   1   2 -49    5.81    0.59
  -4   3 -49    3.36    0.67
  -1   3 -49    7.16    0.67
   2   3 -49    2.48    0.59
  -3   4 -49    3.25    0.81
   0   4 -49    1.83    1.06
  -5   5 -49    0.49    1.38
  -2   5 -49    2.35    0.72
   1  -5 -48  111.80    3.64
   4  -5 -48  107.26    3.93
  -1  -4 -48  109.81    4.68
   2  -4 -48  181.66    4.80
   5  -4 -48  102.01    5.47
   0  -3 -48  224.08    5.85
   3  -3 -48  228.65    5.56
  -2  -2 -48  183.54    5.06
   1  -2 -48  357.75    7.14
   4  -2 -48  176.54    4.61
  -4  -1 -48  108.99    4.63
  -1  -1 -48  341.05    7.42
   2  -1 -48  356.26    8.21
   5  -1 -48  104.61    5.53
  -3   0 -48  218.04    6.12
   0   0 -48  467.96   10.98
   3   0 -48  221.07    5.47
  -5   1 -48  107.26    4.74
  -2   1 -48  351.37    8.82
   1   1 -48  348.11    8.44
   4   1 -48  103.74    3.89
  -4   2 -48  183.28    5.32
  -1   2 -48  352.35    8.44
   2   2 -48  179.62    5.68
  -3   3 -48  210.01    7.55
  -5   4 -48  110.49    3.88
  -2   4 -48  181.50    6.34
   1   4 -48   97.86    5.40
  -4   5 -48   98.73    4.75
  -1   5 -48   89.84    6.11
   2  -5 -47    0.86    0.46
   0  -4 -47    1.69    0.45
   3  -4 -47    1.98    0.46
  -2  -3 -47    1.81    0.71
   1  -3 -47    4.97    0.44
   4  -3 -47    2.55    0.48
  -1  -2 -47    3.98    0.51
   2  -2 -47    5.92    0.47
   5  -2 -47    0.88    0.34
  -3  -1 -47    1.91    0.67
   0  -1 -47    8.50    0.50
   3  -1 -47    4.34    0.55
  -5   0 -47    0.43    0.76
  -2   0 -47    5.84    0.63
   1   0 -47    9.27    0.53
   4   0 -47    1.64    0.45
  -4   1 -47    2.17    0.72
  -1   1 -47    7.93    0.65
   2   1 -47    4.39    0.58
  -3   2 -47    3.32    0.57
   0   2 -47    5.31    0.80
   3   2 -47    1.21    0.45
  -5   3 -47    2.22    0.86
  -2   3 -47    2.87    0.63
   1   3 -47    1.91    0.60
  -4   4 -47    1.04    0.63
  -1   4 -47    1.67    0.63
  -3   5 -47    1.05    0.66
   0   5 -47    1.22    0.88
   0  -5 -46    0.13    0.44
   3  -5 -46    0.38    0.36
   1  -4 -46    0.45    0.30
   4  -4 -46   -0.15    0.27
  -1  -3 -46   -0.07    0.26
   2  -3 -46    0.18    0.20
   5  -3 -46   -0.46    0.27
  -3  -2 -46   -0.01    0.52
   0  -2 -46    0.06    0.15
   3  -2 -46    0.00    0.17
  -2  -1 -46   -0.13    0.19
   1  -1 -46    0.00    0.14
   4  -1 -46   -0.02    0.19
  -4   0 -46    0.26    0.53
  -1   0 -46    0.13    0.22
   2   0 -46   -0.08    0.16
   5   0 -46   -0.20    0.38
  -3   1 -46    0.21    0.34
   0   1 -46   -0.10    0.15
   3   1 -46    0.44    0.29
  -5   2 -46    0.06    0.61
  -2   2 -46   -0.22    0.32
   1   2 -46   -0.02    0.20
  -4   3 -46   -0.27    0.36
  -1   3 -46   -0.26    0.22
   2   3 -46   -0.17    0.30
  -3   4 -46    0.36    0.45
   0   4 -46    0.08    0.81
  -5   5 -46   -0.40    0.83
  -2   5 -46   -0.24    0.42
   1  -5 -45   15.96    1.30
   4  -5 -45   14.75    1.32
  -1  -4 -45   14.76    1.71
   2  -4 -45   25.76    1.14
   5  -4 -45   15.28    1.86
   0  -3 -45   30.86    1.33
   3  -3 -45   32.64    1.16
   6  -3 -45   11.72    1.76
  -2  -2 -45   25.30    1.31
   1  -2 -45   48.89    1.26
   4  -2 -45   26.38    1.08
  -4  -1 -45   14.19    1.65
  -1  -1 -45   49.35    1.43
   2  -1 -45   48.16    1.47
   5  -1 -45   14.33    1.27
  -3   0 -45   28.48    1.52
   0   0 -45   68.22    1.98
   3   0 -45   32.15    1.19
  -5   1 -45   15.84    1.81
  -2   1 -45   47.64    1.79
   1   1 -45   50.31    1.56
   4   1 -45   14.61    1.29
  -4   2 -45   25.23    1.65
  -1   2 -45   50.91    1.58
   2   2 -45   26.06    1.34
  -6   3 -45   15.55    2.66
  -3   3 -45   26.60    2.05
  -5   4 -45   14.79    1.97
  -2   4 -45   25.81    1.72
   1   4 -45   16.13    1.57
  -4   5 -45   15.05    1.82
  -1   5 -45   14.06    2.34
   2  -5 -44    1.87    0.58
   5  -5 -44    1.64    0.76
   0  -4 -44    1.47    0.45
   3  -4 -44    2.22    0.46
  -2  -3 -44    1.14    0.63
   1  -3 -44    3.43    0.36
   4  -3 -44    1.58    0.38
  -1  -2 -44    4.22    0.53
   2  -2 -44    5.00    0.35
   5  -2 -44    0.99    0.34
  -3  -1 -44    1.14    0.58
   0  -1 -44    7.32    0.45
   3  -1 -44    3.46    0.49
  -5   0 -44    1.68    0.86
  -2   0 -44    5.01    0.41
   1   0 -44    6.96    0.48
   4   0 -44    1.44    0.44
  -4   1 -44    1.89    0.73
  -1   1 -44    7.12    0.60
   2   1 -44    3.56    0.52
  -3   2 -44    4.38    0.62
   3   2 -44    2.17    0.52
  -5   3 -44    1.72    0.86
  -2   3 -44    3.58    0.65
   1   3 -44    2.05    0.46
  -4   4 -44    0.99    0.71
  -1   4 -44    0.78    0.54
  -3   5 -44    1.96    0.77
   0   5 -44    1.40    0.89
   0  -5 -43    0.94    0.48
   3  -5 -43    1.24    0.45
   1  -4 -43    1.27    0.41
   4  -4 -43    1.33    0.42
  -1  -3 -43    2.60    0.48
   2  -3 -43    3.84    0.43
   5  -3 -43    1.36    0.46
  -3  -2 -43    1.68    0.69
   0  -2 -43    4.51    0.37
   3  -2 -43    2.86    0.35
  -2  -1 -43    3.66    0.39
   1  -1 -43    7.40    0.47
   4  -1 -43    1.96    0.36
  -4   0 -43    2.48    0.82
  -1   0 -43    6.98    0.59
   2   0 -43    5.69    0.45
   5   0 -43    0.83    0.43
  -3   1 -43    3.54    0.61
   0   1 -43    6.57    0.47
   3   1 -43    1.58    0.40
  -5   2 -43    1.81    0.81
  -2   2 -43    3.77    0.68
   1   2 -43    3.42    0.42
  -4   3 -43    3.38    0.85
  -1   3 -43    3.38    0.63
   2   3 -43    1.64    0.49
  -3   4 -43    1.77    0.63
   0   4 -43    1.96    1.04
  -5   5 -43   -0.07    0.87
  -2   5 -43    0.95    0.56
   1  -5 -42    0.58    0.43
   4  -5 -42    0.39    0.39
  -1  -4 -42    0.28    0.64
   2  -4 -42    0.42    0.24
   5  -4 -42    0.14    0.47
   0  -3 -42    0.41    0.26
   3  -3 -42    0.42    0.21
   6  -3 -42    0.92    0.75
  -2  -2 -42    0.37    0.31
   1  -2 -42    0.29    0.13
   4  -2 -42    0.47    0.22
  -4  -1 -42    0.42    0.65
  -1  -1 -42    0.23    0.20
   2  -1 -42    0.33    0.16
   5  -1 -42    0.72    0.40
  -3   0 -42   -0.02    0.29
   0   0 -42    0.72    0.23
   3   0 -42    0.53    0.22
  -5   1 -42    0.32    0.67
  -2   1 -42    0.55    0.32
   1   1 -42    0.30    0.28
   4   1 -42    0.01    0.31
  -4   2 -42    0.26    0.39
  -1   2 -42    0.40    0.22
   2   2 -42    0.13    0.24
  -6   3 -42    0.75    1.26
  -3   3 -42   -0.04    0.40
  -5   4 -42    0.09    0.81
  -2   4 -42    1.44    0.54
   1   4 -42    0.24    0.50
  -4   5 -42    0.66    0.68
  -1   5 -42    0.61    0.68
   2  -5 -41   19.92    1.61
   5  -5 -41   12.29    1.76
   0  -4 -41   23.72    1.36
   3  -4 -41   27.88    1.44
  -2  -3 -41   22.24    1.99
   1  -3 -41   41.51    1.27
   4  -3 -41   28.23    1.38
  -1  -2 -41   45.81    1.61
   2  -2 -41   56.21    1.38
   5  -2 -41   20.01    1.16
  -3  -1 -41   27.45    2.08
   0  -1 -41   77.80    1.83
   3  -1 -41   41.30    1.69
  -5   0 -41   15.83    1.80
  -2   0 -41   54.14    1.53
   1   0 -41   75.57    2.08
   4   0 -41   22.39    1.50
  -4   1 -41   27.95    2.22
  -1   1 -41   72.75    2.22
   2   1 -41   43.22    1.73
  -3   2 -41   44.91    1.78
   3   2 -41   19.13    2.02
  -5   3 -41   20.42    2.11
  -2   3 -41   41.90    2.05
   1   3 -41   26.77    1.38
  -4   4 -41   25.22    2.23
  -1   4 -41   27.78    2.05
  -3   5 -41   19.94    1.90
   0   5 -41   11.60    2.38
   0  -5 -40   -0.03    0.40
   3  -5 -40    0.84    0.39
   1  -4 -40    0.51    0.32
   4  -4 -40    0.62    0.34
  -1  -3 -40    0.66    0.32
   2  -3 -40    0.39    0.22
   5  -3 -40   -0.19    0.29
  -3  -2 -40    0.50    0.55
   0  -2 -40    0.59    0.18
   3  -2 -40    0.36    0.17
  -2  -1 -40    0.43    0.22
   1  -1 -40    0.62    0.16
   4  -1 -40    0.31    0.22
  -4   0 -40    0.59    0.62
  -1   0 -40    0.74    0.26
   2   0 -40    0.69    0.19
   5   0 -40    0.33    0.37
  -3   1 -40    0.67    0.38
   0   1 -40    0.93    0.20
   3   1 -40    0.28    0.25
  -5   2 -40    0.23    0.65
  -2   2 -40    0.50    0.29
   1   2 -40    0.24    0.30
  -4   3 -40    0.61    0.61
  -1   3 -40    0.37    0.36
   2   3 -40    0.05    0.32
  -3   4 -40    1.65    0.58
   0   4 -40    0.42    0.45
  -5   5 -40    0.06    0.93
  -2   5 -40    0.90    0.93
   1  -5 -39    4.04    0.69
   4  -5 -39    3.12    0.64
  -1  -4 -39    2.46    0.80
   2  -4 -39    6.72    0.62
   5  -4 -39    2.32    0.53
   0  -3 -39   11.49    0.85
   3  -3 -39    9.97    0.65
   6  -3 -39    1.40    0.76
  -2  -2 -39    8.47    0.79
   1  -2 -39   21.47    0.67
   4  -2 -39    6.38    0.53
  -4  -1 -39    2.87    0.89
  -1  -1 -39   21.80    0.81
   2  -1 -39   21.39    0.79
   5  -1 -39    1.91    0.46
  -3   0 -39   11.70    0.92
   0   0 -39   36.49    1.25
   3   0 -39    9.12    0.64
  -5   1 -39    2.37    0.89
  -2   1 -39   23.27    0.79
   1   1 -39   22.89    1.15
   4   1 -39    3.10    0.60
  -4   2 -39    7.99    0.91
  -1   2 -39   21.27    0.88
   2   2 -39    7.26    0.73
  -3   3 -39   10.86    1.26
   0   3 -39    9.89    0.78
   3   3 -39    1.19    0.75
  -5   4 -39    5.19    1.29
  -2   4 -39    8.33    0.84
   1   4 -39    3.39    0.78
  -4   5 -39    3.42    0.97
  -1   5 -39    3.53    0.98
   4  -6 -38   -0.23    0.53
   2  -5 -38    0.01    0.38
   5  -5 -38   -0.49    0.46
   0  -4 -38    0.23    0.30
   3  -4 -38    0.26    0.29
   6  -4 -38    0.05    0.67
  -2  -3 -38    0.85    0.62
   1  -3 -38    0.21    0.15
   4  -3 -38    0.39    0.27
  -1  -2 -38    0.26    0.23
   2  -2 -38    0.22    0.13
   5  -2 -38    0.52    0.27
  -3  -1 -38    0.43    0.31
   0  -1 -38    0.27    0.13
   3  -1 -38    0.23    0.21
  -5   0 -38    1.14    0.74
  -2   0 -38   -0.07    0.15
   1   0 -38    0.39    0.17
   4   0 -38    0.09    0.27
  -4   1 -38    0.10    0.51
  -1   1 -38    0.09    0.19
   2   1 -38    0.03    0.15
  -3   2 -38    0.22    0.47
   3   2 -38    0.63    0.53
  -5   3 -38    0.02    0.72
  -2   3 -38    0.02    0.26
   1   3 -38    0.40    0.28
  -4   4 -38    0.00    0.53
  -1   4 -38    0.18    0.49
  -3   5 -38    0.58    0.55
   0   5 -38    1.14    1.17
   0  -5 -37    3.47    0.70
   3  -5 -37    5.55    0.65
   1  -4 -37    8.36    0.79
   4  -4 -37    7.81    0.84
  -1  -3 -37    9.99    0.84
   2  -3 -37   17.74    0.81
   5  -3 -37    4.61    0.69
  -3  -2 -37    6.59    0.79
   0  -2 -37   24.74    0.80
   3  -2 -37   17.82    0.76
  -2  -1 -37   18.30    0.79
   1  -1 -37   36.58    0.96
   4  -1 -37   10.09    0.71
  -4   0 -37    7.99    1.20
  -1   0 -37   39.80    1.37
   2   0 -37   26.47    0.87
   5   0 -37    2.57    0.62
  -3   1 -37   19.33    1.31
   0   1 -37   37.22    1.43
   3   1 -37    9.37    0.87
  -5   2 -37    6.54    1.25
  -2   2 -37   24.10    1.50
   1   2 -37   16.78    1.05
  -4   3 -37    9.12    1.38
  -1   3 -37   17.78    0.88
   2   3 -37    4.46    0.71
  -6   4 -37    4.87    1.84
  -3   4 -37    9.09    1.19
   0   4 -37    6.69    0.90
  -5   5 -37    3.69    1.27
  -2   5 -37    3.90    1.38
   3  -6 -36    3.81    1.44
   1  -5 -36    5.38    0.79
   4  -5 -36    5.45    0.77
  -1  -4 -36    5.54    1.09
   2  -4 -36   10.55    0.76
   5  -4 -36    6.92    0.80
  -3  -3 -36    6.57    1.27
   0  -3 -36   13.37    0.92
   3  -3 -36   14.30    0.70
   6  -3 -36    4.20    0.75
  -2  -2 -36    9.61    0.85
   1  -2 -36   27.18    0.77
   4  -2 -36   11.65    0.73
  -4  -1 -36    4.36    0.94
  -1  -1 -36   30.07    0.91
   2  -1 -36   26.49    0.90
   5  -1 -36    5.63    0.75
  -3   0 -36   15.95    1.03
   0   0 -36   42.33    1.39
   3   0 -36   14.39    0.76
  -5   1 -36    5.78    1.16
  -2   1 -36   28.63    0.90
   1   1 -36   29.50    1.03
   4   1 -36    5.31    0.73
  -4   2 -36   12.59    1.09
  -1   2 -36   26.35    1.01
   2   2 -36   10.63    0.86
  -3   3 -36   16.59    1.52
   0   3 -36   14.76    0.87
   3   3 -36    3.49    1.01
  -5   4 -36    4.14    1.18
  -2   4 -36   10.50    1.24
   1   4 -36    5.19    0.91
  -4   5 -36    5.09    1.12
  -1   5 -36    5.72    1.14
   4  -6 -35    0.64    0.74
   2  -5 -35    2.62    0.61
   5  -5 -35    2.90    0.89
   0  -4 -35    3.60    0.57
   3  -4 -35    5.24    0.56
   6  -4 -35    2.27    0.85
  -2  -3 -35    1.45    0.69
   1  -3 -35   10.11    0.59
   4  -3 -35    6.52    0.70
  -4  -2 -35    1.85    0.98
  -1  -2 -35   10.03    0.73
   2  -2 -35   15.19    0.53
   5  -2 -35    2.80    0.42
  -3  -1 -35    5.95    0.67
   0  -1 -35   21.48    0.68
   3  -1 -35    8.89    0.59
  -5   0 -35    2.03    0.82
  -2   0 -35   14.42    0.68
   1   0 -35   22.21    0.76
   4   0 -35    5.06    0.64
  -4   1 -35    5.59    1.03
  -1   1 -35   21.20    0.86
   2   1 -35   10.56    0.64
  -3   2 -35    9.77    1.21
   3   2 -35    3.14    0.83
  -5   3 -35    3.73    1.07
  -2   3 -35   10.30    0.80
   1   3 -35    5.33    0.64
  -4   4 -35    2.21    0.78
  -1   4 -35    5.29    0.92
  -3   5 -35    4.21    0.91
   0   5 -35    2.62    1.39
   0  -5 -34   66.14    2.58
   3  -5 -34   91.26    2.89
   1  -4 -34  137.83    4.11
   4  -4 -34  117.53    4.02
  -1  -3 -34  141.66    4.09
   2  -3 -34  236.60    4.91
   5  -3 -34   94.51    3.39
  -3  -2 -34   92.70    3.13
   0  -2 -34  312.37    6.46
   3  -2 -34  234.67    5.63
  -2  -1 -34  236.16    5.17
   1  -1 -34  444.17    8.55
   4  -1 -34  142.87    3.70
  -4   0 -34  118.35    4.76
  -1   0 -34  432.49   10.39
   2   0 -34  315.68    7.17
   5   0 -34   67.44    2.77
  -3   1 -34  240.96    5.32
   0   1 -34  427.05   12.38
   3   1 -34  139.85    4.55
  -5   2 -34   98.13    4.39
  -2   2 -34  318.77    7.66
   1   2 -34  230.04    5.67
  -4   3 -34  152.87    5.86
  -1   3 -34  235.13    5.82
   2   3 -34   90.79    3.41
  -3   4 -34  150.89    5.47
   0   4 -34  115.10    4.19
  -5   5 -34   67.90    4.09
  -2   5 -34   97.85    4.23
   3  -6 -33    0.14    0.55
   1  -5 -33    0.20    0.36
   4  -5 -33    0.78    0.39
  -1  -4 -33    0.64    0.57
   2  -4 -33    0.92    0.29
   5  -4 -33    0.26    0.32
  -3  -3 -33    0.28    0.47
   0  -3 -33    1.33    0.34
   3  -3 -33    0.80    0.22
   6  -3 -33    0.64    0.44
  -2  -2 -33    1.43    0.40
   1  -2 -33    2.10    0.19
   4  -2 -33    0.64    0.22
  -4  -1 -33    0.29    0.59
  -1  -1 -33    1.96    0.21
   2  -1 -33    1.80    0.22
   5  -1 -33    0.75    0.37
  -3   0 -33    2.15    0.41
   0   0 -33    2.86    0.35
   3   0 -33    1.73    0.28
  -5   1 -33    1.69    0.77
  -2   1 -33    2.48    0.26
   1   1 -33    2.14    0.29
   4   1 -33    0.58    0.34
  -4   2 -33    1.07    0.45
  -1   2 -33    2.24    0.32
   2   2 -33    0.55    0.29
  -6   3 -33   -0.10    1.25
  -3   3 -33    1.21    0.52
   0   3 -33    1.15    0.30
   3   3 -33    0.58    0.45
  -5   4 -33    0.21    0.83
  -2   4 -33    0.01    0.45
   1   4 -33    0.33    0.51
  -4   5 -33    0.71    0.67
  -1   5 -33    0.87    0.76
  -3   6 -33   -0.50    1.24
   4  -6 -32    0.25    0.63
   2  -5 -32    1.71    0.51
   5  -5 -32    0.46    0.62
   0  -4 -32    1.47    0.39
   3  -4 -32    2.50    0.41
   6  -4 -32    0.75    0.48
  -2  -3 -32    1.21    0.60
   1  -3 -32    4.97    0.40
   4  -3 -32    2.89    0.49
  -4  -2 -32    2.23    1.04
  -1  -2 -32    4.38    0.49
   2  -2 -32    6.77    0.38
   5  -2 -32    2.30    0.38
  -3  -1 -32    3.82    0.56
   0  -1 -32    8.83    0.42
   3  -1 -32    4.72    0.41
  -5   0 -32    2.29    0.83
  -2   0 -32    6.27    0.47
   1   0 -32    8.93    0.46
   4   0 -32    3.61    0.58
  -4   1 -32    2.02    0.71
  -1   1 -32    9.40    0.44
   2   1 -32    4.28    0.40
  -3   2 -32    4.86    0.61
   3   2 -32    3.03    0.58
  -5   3 -32    0.52    0.73
  -2   3 -32    6.25    0.61
   1   3 -32    3.42    0.53
  -4   4 -32    2.55    0.85
  -1   4 -32    3.18    0.77
  -3   5 -32    0.87    0.52
   0   5 -32    1.56    1.16
   2  -6 -31   50.54    4.10
   0  -5 -31   58.88    2.42
   3  -5 -31   79.31    2.60
   1  -4 -31  120.54    3.57
   4  -4 -31   99.87    3.54
  -1  -3 -31  116.83    3.51
   2  -3 -31  184.10    3.91
   5  -3 -31   81.04    3.05
  -3  -2 -31   84.74    2.88
   0  -2 -31  235.23    4.97
   3  -2 -31  184.65    4.49
  -2  -1 -31  186.56    4.16
   1  -1 -31  309.86    6.18
   4  -1 -31  120.36    3.16
  -4   0 -31  100.46    4.19
  -1   0 -31  309.58    6.43
   2   0 -31  235.92    5.47
   5   0 -31   58.43    2.57
  -3   1 -31  183.46    4.29
   0   1 -31  308.87   12.76
   3   1 -31  118.72    3.91
  -5   2 -31   83.75    3.97
  -2   2 -31  240.44    7.13
   1   2 -31  185.24    4.53
  -4   3 -31  118.29    5.03
  -1   3 -31  186.53    4.69
   2   3 -31   79.02    3.04
  -3   4 -31  121.51    4.74
   0   4 -31   97.59    3.68
  -5   5 -31   67.29    4.00
  -2   5 -31   81.00    3.85
   3  -6 -30    2.23    0.70
   1  -5 -30    2.63    0.56
   4  -5 -30    1.92    0.52
  -1  -4 -30    0.84    0.63
   2  -4 -30    4.67    0.49
   5  -4 -30    2.15    0.52
  -3  -3 -30    0.58    0.52
   0  -3 -30    7.44    0.67
   3  -3 -30    9.13    0.53
   6  -3 -30    1.26    0.50
  -2  -2 -30    6.68    0.66
   1  -2 -30   18.20    0.51
   4  -2 -30    6.15    0.52
  -4  -1 -30    2.37    0.70
  -1  -1 -30   17.96    0.55
   2  -1 -30   17.23    0.63
   5  -1 -30    2.59    0.53
  -3   0 -30    9.46    0.78
   0   0 -30   27.28    0.99
   3   0 -30    8.11    0.56
  -5   1 -30    4.16    1.03
  -2   1 -30   17.09    0.69
   1   1 -30   16.51    0.71
   4   1 -30    2.89    0.55
  -4   2 -30    6.99    0.81
  -1   2 -30   19.45    0.98
   2   2 -30    5.53    0.61
  -6   3 -30    4.82    1.90
  -3   3 -30    9.21    0.89
   0   3 -30    9.51    0.71
   3   3 -30    1.93    0.60
  -5   4 -30    1.99    1.04
  -2   4 -30    5.62    0.95
   1   4 -30    3.76    0.80
  -4   5 -30    1.38    0.78
  -1   5 -30    1.14    0.73
  -3   6 -30    0.40    0.64
   4  -6 -29    0.03    0.42
   2  -5 -29    0.19    0.36
   5  -5 -29   -0.05    0.43
   0  -4 -29    0.35    0.29
   3  -4 -29    0.99    0.26
   6  -4 -29    0.09    0.41
  -2  -3 -29   -0.15    0.32
   1  -3 -29    3.31    0.34
   4  -3 -29    1.15    0.34
  -4  -2 -29    1.11    0.78
  -1  -2 -29    3.22    0.35
   2  -2 -29    5.55    0.34
   5  -2 -29    0.28    0.24
  -3  -1 -29    1.48    0.38
   0  -1 -29    9.26    0.41
   3  -1 -29    3.19    0.34
  -5   0 -29    0.19    1.09
  -2   0 -29    5.68    0.44
   1   0 -29   10.48    0.41
   4   0 -29    0.81    0.32
  -4   1 -29    1.18    0.59
  -1   1 -29   10.77    0.48
   2   1 -29    3.49    0.34
  -3   2 -29    3.17    0.53
   3   2 -29    0.36    0.31
  -5   3 -29    0.17    0.68
  -2   3 -29    3.19    0.48
   1   3 -29    0.76    0.31
  -4   4 -29    0.40    0.61
  -1   4 -29    0.54    0.51
   2   4 -29    0.40    0.63
  -3   5 -29    0.39    0.51
   0   5 -29   -1.03    0.77
  -2   6 -29   -0.12    1.25
   2  -6 -28    1.81    1.07
   0  -5 -28    4.90    0.75
   3  -5 -28    6.22    0.65
  -2  -4 -28    3.45    1.04
   1  -4 -28    9.65    0.85
   4  -4 -28    8.13    0.85
  -1  -3 -28   10.46    0.83
   2  -3 -28   18.06    0.62
   5  -3 -28    7.39    0.83
  -3  -2 -28    7.20    0.83
   0  -2 -28   23.40    0.77
   3  -2 -28   19.83    0.64
  -2  -1 -28   17.65    0.75
   1  -1 -28   36.45    1.01
   4  -1 -28   10.49    0.69
  -4   0 -28    8.93    0.86
  -1   0 -28   37.49    1.02
   2   0 -28   24.10    0.76
   5   0 -28    3.99    0.69
  -3   1 -28   18.48    0.90
   3   1 -28   10.60    0.88
  -5   2 -28    8.09    1.28
  -2   2 -28   28.19    1.10
   1   2 -28   18.86    0.77
  -4   3 -28   10.99    1.50
  -1   3 -28   19.77    0.91
   2   3 -28    6.25    0.78
  -3   4 -28   11.30    1.06
   0   4 -28    8.27    0.96
  -5   5 -28    3.21    1.21
  -2   5 -28    6.46    1.21
   3  -6 -27   10.12    1.26
   1  -5 -27   11.99    1.10
   4  -5 -27   14.74    1.23
  -1  -4 -27   13.64    1.57
   2  -4 -27   28.91    1.16
   5  -4 -27   17.98    1.32
  -3  -3 -27    7.78    1.00
   0  -3 -27   37.46    1.44
   3  -3 -27   39.22    1.13
   6  -3 -27   11.06    1.11
  -2  -2 -27   30.23    1.38
   1  -2 -27   73.14    1.50
   4  -2 -27   29.75    1.09
  -4  -1 -27   16.73    1.24
  -1  -1 -27   74.00    1.53
   2  -1 -27   72.05    1.88
   5  -1 -27   15.15    1.19
  -3   0 -27   37.01    1.55
   0   0 -27  112.99    2.91
   3   0 -27   37.41    1.21
  -5   1 -27   15.59    1.69
  -2   1 -27   73.46    1.85
   1   1 -27   72.19    2.40
   4   1 -27   15.55    1.21
  -4   2 -27   30.15    1.58
  -1   2 -27   71.97    1.95
   2   2 -27   29.99    1.33
  -6   3 -27   11.26    2.63
  -3   3 -27   35.20    2.10
   0   3 -27   39.46    1.51
   3   3 -27    9.29    1.06
  -5   4 -27   17.63    2.19
  -2   4 -27   29.49    2.11
   1   4 -27   10.59    1.23
  -4   5 -27   17.55    1.91
  -1   5 -27   11.42    1.56
  -3   6 -27    9.26    1.41
   4  -6 -26    5.07    0.79
   2  -5 -26   11.64    1.57
   5  -5 -26    6.21    1.17
   0  -4 -26   12.85    1.02
   3  -4 -26   19.54    1.02
   6  -4 -26    5.62    0.85
  -2  -3 -26   10.14    1.00
   1  -3 -26   37.10    1.12
   4  -3 -26   18.11    1.10
  -4  -2 -26    3.63    1.14
  -1  -2 -26   35.67    1.16
   2  -2 -26   56.20    1.35
   5  -2 -26   11.51    0.80
  -3  -1 -26   17.71    1.17
   0  -1 -26   87.16    1.94
   3  -1 -26   37.23    1.19
  -5   0 -26    4.96    1.98
  -2   0 -26   55.09    1.52
   1   0 -26   86.48    2.66
   4   0 -26   12.05    1.02
  -4   1 -26   20.90    1.19
  -1   1 -26   88.06    2.28
   2   1 -26   36.58    1.15
  -3   2 -26   35.14    1.58
   3   2 -26   11.02    1.01
  -5   3 -26    9.53    1.53
  -2   3 -26   38.11    1.47
   1   3 -26   19.04    1.06
  -4   4 -26   17.48    1.82
  -1   4 -26   19.71    1.71
   2   4 -26    6.42    1.38
  -3   5 -26   11.87    1.19
   0   5 -26    5.89    1.76
  -2   6 -26    3.93    1.73
   2  -6 -25    4.49    0.89
   0  -5 -25    3.77    0.68
   3  -5 -25    7.66    0.73
  -2  -4 -25    3.75    1.04
   1  -4 -25    9.97    0.85
   4  -4 -25    7.50    0.80
  -1  -3 -25   10.50    0.82
   2  -3 -25   15.26    0.56
   5  -3 -25    7.03    0.81
  -3  -2 -25    7.41    0.84
   0  -2 -25   21.02    0.69
   3  -2 -25   16.35    0.57
  -2  -1 -25   16.70    0.67
   1  -1 -25   31.90    0.89
   4  -1 -25    9.99    0.67
  -4   0 -25    9.54    0.89
  -1   0 -25   31.67    0.90
   2   0 -25   20.98    0.66
   5   0 -25    4.56    0.74
  -3   1 -25   16.40    0.82
   3   1 -25   10.02    0.85
  -5   2 -25    7.43    1.25
  -2   2 -25   22.20    1.02
   1   2 -25   16.63    0.72
   4   2 -25    3.78    1.01
  -4   3 -25   11.19    1.49
  -1   3 -25   14.61    0.79
   2   3 -25    5.33    0.72
  -3   4 -25    9.49    0.99
   0   4 -25    6.73    0.86
  -5   5 -25    6.88    1.46
  -2   5 -25    5.67    1.10
  -4   6 -25    4.31    1.40
   3  -6 -24    4.95    0.89
   1  -5 -24    4.48    0.68
   4  -5 -24    3.85    0.59
  -1  -4 -24    2.36    0.76
   2  -4 -24    4.36    0.48
   5  -4 -24    3.80    0.58
  -3  -3 -24    3.97    0.74
   0  -3 -24    4.52    0.51
   3  -3 -24    5.49    0.40
   6  -3 -24    3.55    0.66
  -2  -2 -24    4.89    0.60
   1  -2 -24    7.51    0.31
   4  -2 -24    4.27    0.43
  -4  -1 -24    4.82    0.70
  -1  -1 -24    7.76    0.33
   2  -1 -24    7.44    0.40
   5  -1 -24    4.75    0.68
  -3   0 -24    4.62    0.56
   0   0 -24    8.41    0.56
   3   0 -24    4.70    0.41
  -5   1 -24    5.48    1.03
  -2   1 -24    7.81    0.50
   1   1 -24    6.67    0.56
   4   1 -24    4.85    0.69
  -4   2 -24    5.46    0.72
  -1   2 -24    8.29    0.43
   2   2 -24    3.19    0.44
  -6   3 -24    2.91    1.72
  -3   3 -24    4.88    0.70
   0   3 -24    5.36    0.52
   3   3 -24    1.90    0.53
  -5   4 -24    5.53    1.36
  -2   4 -24    6.46    1.00
   1   4 -24    2.96    0.70
  -4   5 -24    2.99    0.92
  -1   5 -24    5.00    1.07
  -3   6 -24    2.00    1.57
   4  -6 -23    8.13    1.02
   2  -5 -23   20.61    1.57
   5  -5 -23   15.88    1.87
   0  -4 -23   26.66    1.40
   3  -4 -23   33.33    1.30
   6  -4 -23   12.52    1.20
  -2  -3 -23   19.31    1.38
   1  -3 -23   60.44    1.61
   4  -3 -23   34.52    1.50
  -4  -2 -23   11.82    1.16
  -1  -2 -23   59.99    1.65
   2  -2 -23   87.28    1.93
   5  -2 -23   23.27    1.05
  -3  -1 -23   34.92    1.52
   0  -1 -23  133.66    2.84
   3  -1 -23   60.11    1.72
  -5   0 -23   14.71    2.87
  -2   0 -23   87.15    2.13
   1   0 -23  129.22    3.17
   4   0 -23   25.90    1.33
  -4   1 -23   34.98    1.55
  -1   1 -23  133.78    3.34
   2   1 -23   61.04    1.68
  -3   2 -23   66.56    2.22
   3   2 -23   18.52    1.35
  -5   3 -23   23.01    2.22
  -2   3 -23   61.94    2.60
   1   3 -23   32.85    1.48
  -4   4 -23   31.27    2.42
  -1   4 -23   35.22    1.99
   2   4 -23    9.84    1.64
  -3   5 -23   22.73    1.63
   0   5 -23   14.72    2.47
  -2   6 -23   12.54    1.83
   2  -6 -22    0.40    0.50
   0  -5 -22    0.38    0.39
   3  -5 -22    0.12    0.25
  -2  -4 -22   -0.50    0.58
   1  -4 -22    0.78    0.32
   4  -4 -22    0.60    0.31
  -1  -3 -22    1.29    0.35
   2  -3 -22    1.47    0.19
   5  -3 -22    1.03    0.38
  -3  -2 -22    0.70    0.40
   0  -2 -22    2.08    0.21
   3  -2 -22    1.40    0.19
   6  -2 -22    0.12    0.48
  -2  -1 -22    1.66    0.23
   1  -1 -22    3.07    0.19
   4  -1 -22    0.86    0.25
  -4   0 -22    0.98    0.38
  -1   0 -22    3.38    0.27
   2   0 -22    2.43    0.25
   5   0 -22    0.28    0.34
  -3   1 -22    1.60    0.33
   3   1 -22    0.69    0.28
  -5   2 -22    0.99    0.62
  -2   2 -22    1.10    0.29
   1   2 -22    1.38    0.24
   4   2 -22    0.19    0.41
  -4   3 -22    0.24    0.46
  -1   3 -22    1.49    0.29
   2   3 -22    0.42    0.33
  -6   4 -22    0.27    1.57
  -3   4 -22    0.68    0.41
   0   4 -22    0.98    0.43
  -5   5 -22    1.44    0.95
  -2   5 -22    1.11    0.70
  -4   6 -22    0.35    0.82
   3  -6 -21    3.81    0.81
   1  -5 -21    5.97    0.78
   4  -5 -21    5.32    0.75
  -1  -4 -21    5.22    1.02
   2  -4 -21   10.45    0.72
   5  -4 -21    6.93    0.79
  -3  -3 -21    3.54    0.76
   0  -3 -21   12.05    0.83
   3  -3 -21   12.75    0.59
   6  -3 -21    4.41    1.05
  -2  -2 -21   10.81    0.89
   1  -2 -21   23.57    0.60
   4  -2 -21    9.85    0.65
  -4  -1 -21    5.49    0.76
  -1  -1 -21   23.12    0.60
   2  -1 -21   22.82    0.73
   5  -1 -21    6.03    0.75
  -3   0 -21   12.59    0.91
   0   0 -21   33.26    1.39
   3   0 -21   12.91    0.65
  -5   1 -21    7.67    2.11
  -2   1 -21   23.74    1.06
   1   1 -21   22.64    0.96
   4   1 -21    6.51    0.64
  -4   2 -21   11.57    1.04
  -1   2 -21   23.50    0.80
   2   2 -21   10.66    0.68
  -6   3 -21    2.44    1.61
  -3   3 -21   13.35    1.09
   0   3 -21   12.91    0.70
   3   3 -21    4.07    0.72
  -5   4 -21    4.64    1.25
  -2   4 -21   11.15    1.28
   1   4 -21    5.33    0.88
  -4   5 -21    8.05    1.33
  -1   5 -21    3.96    1.06
  -3   6 -21    4.75    1.42
   4  -6 -20    5.40    0.83
   2  -5 -20    7.87    0.92
   5  -5 -20    6.08    1.16
   0  -4 -20   10.41    0.91
   3  -4 -20   13.63    0.86
   6  -4 -20    5.49    0.83
  -2  -3 -20    8.99    0.93
   1  -3 -20   22.73    0.81
   4  -3 -20   12.67    0.76
  -4  -2 -20    4.26    1.06
  -1  -2 -20   21.97    0.83
   2  -2 -20   32.59    0.85
   5  -2 -20    8.96    0.69
  -3  -1 -20   12.09    0.95
   0  -1 -20   49.73    1.18
   3  -1 -20   22.19    0.82
  -5   0 -20    4.59    1.94
  -2   0 -20   34.84    1.01
   1   0 -20   50.42    1.30
   4   0 -20   11.89    0.95
  -4   1 -20   14.29    1.06
  -1   1 -20   50.29    1.44
   2   1 -20   22.71    0.78
  -6   2 -20    2.02    1.49
  -3   2 -20   23.52    1.28
   3   2 -20    8.97    0.92
  -5   3 -20    9.58    1.51
  -2   3 -20   24.48    1.51
   1   3 -20   13.02    0.95
  -4   4 -20    9.18    1.12
  -1   4 -20   14.60    0.99
   2   4 -20    2.78    0.99
  -3   5 -20   13.28    1.69
   0   5 -20    4.22    1.47
  -2   6 -20    4.51    1.31
   2  -6 -19    0.07    0.48
   0  -5 -19    0.23    0.36
   3  -5 -19    0.18    0.27
  -2  -4 -19    0.34    0.60
   1  -4 -19    0.07    0.27
   4  -4 -19    0.38    0.23
  -1  -3 -19   -0.19    0.18
   2  -3 -19    0.36    0.13
   5  -3 -19    0.26    0.29
  -3  -2 -19    0.18    0.34
   0  -2 -19    0.54    0.12
   3  -2 -19    0.42    0.13
   6  -2 -19   -0.36    0.42
  -2  -1 -19    0.07    0.14
   1  -1 -19    0.30    0.09
   4  -1 -19    0.21    0.17
  -4   0 -19    0.05    0.31
  -1   0 -19    0.21    0.14
   2   0 -19    0.13    0.12
   5   0 -19    0.06    0.26
  -3   1 -19    0.48    0.25
   3   1 -19    0.06    0.21
  -5   2 -19    0.48    0.65
  -2   2 -19    0.48    0.22
   1   2 -19    0.45    0.16
   4   2 -19   -0.22    0.36
  -4   3 -19    0.28    0.46
  -1   3 -19    0.20    0.20
   2   3 -19    0.12    0.31
  -6   4 -19    0.17    1.41
  -3   4 -19   -0.15    0.35
   0   4 -19    0.00    0.33
  -5   5 -19    0.70    0.92
  -2   5 -19    0.35    0.61
  -4   6 -19    0.27    0.71
   3  -6 -18    0.78    0.52
   1  -5 -18    1.34    0.45
   4  -5 -18    0.13    0.31
  -1  -4 -18    1.14    0.62
   2  -4 -18    0.56    0.22
   5  -4 -18    0.12    0.30
  -3  -3 -18   -0.15    0.47
   0  -3 -18    0.67    0.28
   3  -3 -18    1.07    0.19
   6  -3 -18    0.39    0.56
  -2  -2 -18    0.82    0.33
   1  -2 -18    1.85    0.15
   4  -2 -18    0.52    0.20
  -4  -1 -18    0.83    0.43
  -1  -1 -18    1.32    0.18
   2  -1 -18    1.79    0.19
   5  -1 -18    0.62    0.35
  -3   0 -18    0.95    0.32
   0   0 -18    3.38    0.40
   3   0 -18    1.19    0.21
  -5   1 -18    0.87    1.15
  -2   1 -18    2.41    0.37
   1   1 -18    2.20    0.22
   4   1 -18    0.16    0.25
  -4   2 -18    0.99    0.45
  -1   2 -18    2.07    0.24
   2   2 -18    1.44    0.26
  -6   3 -18    0.95    1.45
  -3   3 -18    1.25    0.45
   0   3 -18    1.79    0.29
   3   3 -18    0.15    0.39
  -5   4 -18   -0.65    0.79
  -2   4 -18    1.00    0.57
   1   4 -18    0.53    0.45
  -4   5 -18    0.15    0.55
  -1   5 -18    0.19    0.64
  -3   6 -18   -0.63    0.84
   4  -6 -17   63.78    2.82
   2  -5 -17  100.27    3.97
   5  -5 -17   77.30    4.36
   0  -4 -17  123.46    3.79
   3  -4 -17  159.25    4.24
   6  -4 -17   72.31    2.86
  -2  -3 -17  105.18    3.50
   1  -3 -17  251.05    5.45
   4  -3 -17  163.13    4.07
  -4  -2 -17   68.28    3.59
  -1  -2 -17  251.75    5.49
   2  -2 -17  349.20    6.88
   5  -2 -17  110.40    2.98
  -3  -1 -17  155.87    4.50
   0  -1 -17  493.29    9.83
   3  -1 -17  260.65    5.96
  -5   0 -17   62.43    6.29
  -2   0 -17  343.75    7.16
   1   0 -17  502.06   11.02
   4   0 -17  124.49    4.11
  -4   1 -17  158.73    4.56
  -1   1 -17  479.72   11.46
   2   1 -17  254.03    5.90
  -6   2 -17   65.99    6.49
  -3   2 -17  257.27    6.70
   0   2 -17  345.36    9.50
   3   2 -17  105.05    3.75
  -5   3 -17  111.53    4.90
  -2   3 -17  252.90    8.06
   1   3 -17  157.59    4.93
  -4   4 -17  133.15    5.26
  -1   4 -17  158.16    4.40
   2   4 -17   64.54    3.09
  -3   5 -17  109.89    4.80
   0   5 -17   79.14    3.32
  -2   6 -17   54.19    3.92
   2  -6 -16    0.32    0.46
   0  -5 -16    0.95    0.63
   3  -5 -16    0.17    0.25
  -2  -4 -16   -0.22    0.59
   1  -4 -16    0.23    0.27
   4  -4 -16    0.44    0.23
  -1  -3 -16    0.42    0.22
   2  -3 -16    0.11    0.12
   5  -3 -16    0.71    0.34
  -3  -2 -16    0.65    0.38
   0  -2 -16    0.08    0.09
   3  -2 -16    0.22    0.11
   6  -2 -16    0.20    0.49
  -2  -1 -16    0.36    0.15
   1  -1 -16    0.01    0.07
   4  -1 -16    0.59    0.21
  -4   0 -16    1.03    0.38
  -1   0 -16    0.03    0.12
   2   0 -16    0.08    0.10
   5   0 -16    0.64    0.31
  -3   1 -16    0.26    0.23
   3   1 -16    0.16    0.21
  -5   2 -16    0.11    0.94
  -2   2 -16    0.35    0.24
   1   2 -16    0.25    0.14
   4   2 -16    0.29    0.40
  -4   3 -16   -0.12    0.40
  -1   3 -16    0.27    0.21
   2   3 -16    0.48    0.33
  -6   4 -16   -0.44    1.43
  -3   4 -16   -0.16    0.32
   0   4 -16    0.61    0.39
  -5   5 -16    0.54    0.86
  -2   5 -16   -0.54    0.55
  -4   6 -16    0.05    0.76
   3  -6 -15   -0.28    0.41
   1  -5 -15    0.51    0.35
   4  -5 -15   -0.08    0.26
  -1  -4 -15    0.25    0.52
   2  -4 -15    0.74    0.24
   5  -4 -15    0.08    0.31
  -3  -3 -15    0.19    0.48
   0  -3 -15    0.29    0.22
   3  -3 -15    0.45    0.17
   6  -3 -15    0.25    0.50
  -2  -2 -15    0.61    0.30
   1  -2 -15    0.96    0.11
   4  -2 -15   -0.02    0.14
  -4  -1 -15    0.62    0.36
  -1  -1 -15    1.17    0.17
   2  -1 -15    0.86    0.12
   5  -1 -15    0.30    0.30
  -3   0 -15    0.65    0.30
   0   0 -15    1.36    0.28
   3   0 -15    0.38    0.16
  -5   1 -15    0.56    0.57
  -2   1 -15    1.08    0.31
   1   1 -15    1.19    0.15
   4   1 -15    0.21    0.26
  -4   2 -15    0.63    0.43
  -1   2 -15    0.79    0.17
   2   2 -15    0.62    0.21
  -6   3 -15   -0.45    1.32
  -3   3 -15    0.61    0.38
   0   3 -15    0.40    0.18
   3   3 -15    0.23    0.43
  -5   4 -15   -0.37    0.78
  -2   4 -15    0.51    0.48
   1   4 -15   -0.24    0.34
  -4   5 -15   -0.03    0.49
  -1   5 -15   -0.23    0.56
  -3   6 -15    0.20    0.95
   4  -6 -14   57.48    2.19
   2  -5 -14   86.06    3.47
   5  -5 -14   63.61    3.93
   0  -4 -14  100.99    3.29
   3  -4 -14  133.27    3.67
   6  -4 -14   54.04    2.44
  -2  -3 -14   86.22    3.04
   1  -3 -14  203.91    4.51
   4  -3 -14  133.97    3.49
  -4  -2 -14   51.85    3.11
  -1  -2 -14  207.70    4.55
   2  -2 -14  287.25    5.05
   5  -2 -14   93.73    2.58
  -3  -1 -14  129.66    3.91
   0  -1 -14  405.15    8.06
   3  -1 -14  205.79    4.90
  -5   0 -14   69.68    3.48
  -2   0 -14  280.95    5.93
   1   0 -14  402.80    9.01
   4   0 -14  105.57    3.58
  -4   1 -14  139.73    3.99
  -1   1 -14  402.51    9.44
   2   1 -14  209.19    4.84
  -6   2 -14   55.07    5.86
  -3   2 -14  207.48    5.62
   0   2 -14  283.33    7.86
   3   2 -14   84.39    3.20
  -5   3 -14   91.23    3.30
  -2   3 -14  201.62    6.72
   1   3 -14  133.55    4.24
  -4   4 -14  110.88    4.65
  -1   4 -14  132.11    4.44
   2   4 -14   52.38    2.73
  -3   5 -14   87.67    4.21
   0   5 -14   65.15    2.98
  -2   6 -14   48.25    3.62
   2  -6 -13   -0.02    0.41
   0  -5 -13    0.14    0.60
   3  -5 -13    0.10    0.22
  -2  -4 -13   -0.19    0.54
   1  -4 -13    0.51    0.28
   4  -4 -13    0.10    0.19
  -1  -3 -13    0.39    0.23
   2  -3 -13    1.37    0.19
   5  -3 -13   -0.02    0.25
  -3  -2 -13    0.03    0.30
   0  -2 -13    3.71    0.27
   3  -2 -13    1.85    0.21
   6  -2 -13   -0.42    0.41
  -2  -1 -13    2.07    0.24
   1  -1 -13    7.25    0.26
   4  -1 -13    0.09    0.17
  -4   0 -13    0.31    0.33
  -1   0 -13    7.36    0.38
   2   0 -13    4.12    0.30
   5   0 -13    0.15    0.26
  -3   1 -13    2.41    0.26
   3   1 -13    0.62    0.26
  -5   2 -13    1.26    0.63
  -2   2 -13    3.61    0.46
   1   2 -13    1.83    0.24
   4   2 -13   -0.22    0.33
  -4   3 -13    0.48    0.48
  -1   3 -13    2.15    0.38
   2   3 -13    0.20    0.28
  -6   4 -13   -0.48    1.36
  -3   4 -13    0.04    0.33
   0   4 -13    0.38    0.36
  -5   5 -13    0.51    0.81
  -2   5 -13    1.12    0.70
  -4   6 -13   -0.47    0.68
   3  -6 -12    0.38    0.44
   1  -5 -12    1.46    0.47
   4  -5 -12    0.02    0.28
  -1  -4 -12    0.32    0.49
   2  -4 -12    0.96    0.27
   5  -4 -12    0.37    0.32
  -3  -3 -12   -0.07    0.44
   0  -3 -12    0.73    0.24
   3  -3 -12    1.02    0.20
   6  -3 -12    1.00    0.65
  -2  -2 -12    0.42    0.28
   1  -2 -12    1.54    0.14
   4  -2 -12    0.83    0.22
  -4  -1 -12    0.47    0.36
  -1  -1 -12    1.62    0.19
   2  -1 -12    1.45    0.14
   5  -1 -12    0.34    0.32
  -3   0 -12    1.12    0.33
   0   0 -12    2.79    0.31
   3   0 -12    0.88    0.20
  -5   1 -12    0.71    0.60
  -2   1 -12    1.94    0.21
   1   1 -12    1.79    0.19
   4   1 -12    0.56    0.26
  -4   2 -12    1.45    0.52
  -1   2 -12    1.76    0.22
   2   2 -12    0.30    0.19
  -6   3 -12   -1.14    1.18
  -3   3 -12    0.84    0.41
   0   3 -12    1.11    0.23
   3   3 -12    0.33    0.40
  -5   4 -12    1.25    0.94
  -2   4 -12    0.81    0.51
   1   4 -12    0.54    0.45
  -4   5 -12    0.86    0.65
  -1   5 -12   -0.53    0.58
  -3   6 -12    0.02    0.91
   4  -6 -11    0.52    0.40
   2  -5 -11    3.09    0.62
   5  -5 -11    1.92    0.53
   0  -4 -11    4.00    0.52
   3  -4 -11    6.46    0.59
   6  -4 -11    0.58    0.45
  -2  -3 -11    3.29    0.60
   1  -3 -11   10.20    0.52
   4  -3 -11    6.73    0.53
  -4  -2 -11    1.07    0.73
  -1  -2 -11   10.67    0.55
   2  -2 -11   14.34    0.40
   5  -2 -11    3.53    0.44
  -3  -1 -11    6.26    0.66
   0  -1 -11   23.47    0.62
   3  -1 -11    9.80    0.56
  -5   0 -11    2.57    0.88
  -2   0 -11   14.47    0.55
   1   0 -11   25.28    1.16
   4   0 -11    4.27    0.59
  -4   1 -11    5.85    0.69
  -1   1 -11   24.61    0.83
   2   1 -11    9.58    0.68
  -6   2 -11    2.58    1.64
  -3   2 -11   10.19    0.94
   0   2 -11   14.05    0.64
   3   2 -11    4.04    0.60
  -5   3 -11    6.16    1.11
  -2   3 -11   12.12    0.69
   1   3 -11    4.39    0.56
  -4   4 -11    4.51    0.86
  -1   4 -11    6.18    0.73
   2   4 -11    0.70    0.56
  -3   5 -11    3.97    1.06
   0   5 -11    2.02    0.64
  -2   6 -11    2.51    1.04
   2  -6 -10    6.60    1.00
   0  -5 -10    5.90    1.09
   3  -5 -10    9.50    0.78
  -2  -4 -10    6.21    1.17
   1  -4 -10   14.86    1.04
   4  -4 -10   15.04    0.86
  -1  -3 -10   16.86    0.84
   2  -3 -10   27.82    0.82
   5  -3 -10   12.70    1.02
  -3  -2 -10   12.62    1.04
   0  -2 -10   41.91    1.09
   3  -2 -10   27.39    0.79
   6  -2 -10    6.51    1.27
  -2  -1 -10   28.95    1.20
   1  -1 -10   64.99    1.39
   4  -1 -10   17.65    0.80
  -4   0 -10   12.60    1.01
  -1   0 -10   66.79    1.54
   2   0 -10   41.12    1.17
   5   0 -10    9.12    0.78
  -3   1 -10   30.96    0.86
   3   1 -10   15.98    0.97
  -5   2 -10   11.29    1.38
  -2   2 -10   43.67    1.14
   1   2 -10   26.48    0.91
   4   2 -10    7.55    0.94
  -4   3 -10   16.71    1.40
  -1   3 -10   29.88    1.24
   2   3 -10    9.71    0.92
  -6   4 -10    8.39    2.65
  -3   4 -10   17.26    1.75
   0   4 -10   15.22    1.21
  -5   5 -10    7.23    1.49
  -2   5 -10   12.27    1.55
  -4   6 -10    5.33    1.06
   3  -6  -9   -0.02    0.41
   1  -5  -9    0.21    0.30
   4  -5  -9    0.72    0.33
  -1  -4  -9    0.74    0.54
   2  -4  -9    0.45    0.22
   5  -4  -9    0.31    0.31
  -3  -3  -9   -0.17    0.43
   0  -3  -9    0.04    0.19
   3  -3  -9    0.11    0.14
   6  -3  -9    0.01    0.51
  -2  -2  -9   -0.22    0.22
   1  -2  -9    0.07    0.06
   4  -2  -9   -0.14    0.13
  -4  -1  -9   -0.05    0.51
  -1  -1  -9   -0.07    0.09
   2  -1  -9    0.02    0.07
   5  -1  -9   -0.08    0.26
  -3   0  -9    0.41    0.19
   0   0  -9    0.20    0.13
   3   0  -9    0.04    0.13
  -5   1  -9    0.81    0.65
  -2   1  -9    0.12    0.12
   1   1  -9    0.13    0.08
   4   1  -9   -0.15    0.21
  -4   2  -9    0.01    0.38
  -1   2  -9    0.09    0.13
   2   2  -9   -0.08    0.16
  -6   3  -9   -0.93    1.25
  -3   3  -9   -0.30    0.29
   0   3  -9    0.01    0.16
   3   3  -9   -0.27    0.33
  -5   4  -9    0.87    0.72
  -2   4  -9    0.53    0.46
   1   4  -9   -0.15    0.37
  -4   5  -9    0.51    0.59
  -1   5  -9   -0.06    0.56
  -3   6  -9   -0.31    0.85
   4  -6  -8    0.42    0.41
   2  -5  -8    0.42    0.34
   5  -5  -8    0.16    0.36
   0  -4  -8    0.85    0.32
   3  -4  -8    0.40    0.22
   6  -4  -8    0.12    0.40
  -2  -3  -8    0.41    0.36
   1  -3  -8    0.48    0.16
   4  -3  -8    0.33    0.21
  -4  -2  -8   -0.02    0.59
  -1  -2  -8    0.38    0.16
   2  -2  -8    0.77    0.10
   5  -2  -8    0.20    0.22
  -3  -1  -8    0.21    0.29
   0  -1  -8    1.05    0.10
   3  -1  -8    0.56    0.16
  -5   0  -8    0.64    0.66
  -2   0  -8    0.90    0.14
   1   0  -8    0.96    0.12
   4   0  -8    1.01    0.33
  -4   1  -8    0.50    0.25
  -1   1  -8    0.99    0.20
   2   1  -8    0.15    0.17
  -6   2  -8    0.55    1.40
  -3   2  -8    0.45    0.18
   0   2  -8    0.47    0.16
   3   2  -8    0.08    0.28
  -5   3  -8    0.51    0.67
  -2   3  -8    0.66    0.29
   1   3  -8    0.41    0.27
  -4   4  -8   -0.06    0.51
  -1   4  -8    0.27    0.34
   2   4  -8    0.19    0.54
  -3   5  -8    1.05    0.76
   0   5  -8    0.17    0.47
  -2   6  -8   -0.18    0.79
   2  -6  -7    9.01    1.15
   0  -5  -7   11.68    1.49
   3  -5  -7   15.51    1.02
  -2  -4  -7   11.33    1.47
   1  -4  -7   20.66    1.15
   4  -4  -7   17.81    0.91
  -1  -3  -7   22.74    0.95
   2  -3  -7   33.49    0.94
   5  -3  -7   15.69    1.16
  -3  -2  -7   17.15    1.21
   0  -2  -7   46.84    1.06
   3  -2  -7   32.59    0.90
   6  -2  -7    9.96    1.54
  -2  -1  -7   35.03    1.01
   1  -1  -7   68.90    1.45
   4  -1  -7   21.14    0.87
  -4   0  -7   18.23    1.11
  -1   0  -7   70.77    1.38
   2   0  -7   46.95    1.26
   5   0  -7   10.50    0.82
  -3   1  -7   35.81    0.96
   3   1  -7   20.76    0.89
  -5   2  -7   18.20    1.73
  -2   2  -7   47.90    1.26
   1   2  -7   35.03    1.04
   4   2  -7    9.79    1.07
  -4   3  -7   23.54    1.66
  -1   3  -7   33.60    1.40
   2   3  -7   13.00    1.10
  -6   4  -7    7.15    2.45
  -3   4  -7   19.47    1.86
   0   4  -7   18.97    1.39
  -5   5  -7    9.85    1.44
  -2   5  -7   13.42    1.65
  -4   6  -7    7.43    1.23
   3  -6  -6    0.51    0.51
   1  -5  -6    0.81    0.39
   4  -5  -6    0.62    0.33
  -1  -4  -6    1.18    0.61
   2  -4  -6    1.06    0.29
   5  -4  -6    2.13    0.47
  -3  -3  -6    0.96    0.51
   0  -3  -6    3.17    0.39
   3  -3  -6    2.43    0.27
   6  -3  -6    1.31    0.70
  -2  -2  -6    1.58    0.35
   1  -2  -6    1.63    0.14
   4  -2  -6    1.41    0.25
  -4  -1  -6    0.96    0.55
  -1  -1  -6    1.74    0.19
   2  -1  -6    1.70    0.15
   5  -1  -6    0.20    0.29
  -3   0  -6    1.65    0.28
   0   0  -6    0.22    0.15
   3   0  -6    0.99    0.19
  -5   1  -6    0.96    0.61
  -2   1  -6    1.98    0.23
   1   1  -6    1.97    0.16
   4   1  -6    0.62    0.29
  -4   2  -6    1.63    0.49
  -1   2  -6    1.72    0.22
   2   2  -6    1.10    0.32
  -6   3  -6    2.07    1.65
  -3   3  -6    1.36    0.45
   0   3  -6    1.67    0.27
   3   3  -6    0.48    0.43
  -5   4  -6    0.69    0.84
  -2   4  -6    1.49    0.61
   1   4  -6    1.14    0.49
  -4   5  -6    1.35    0.69
  -1   5  -6    0.98    0.66
  -3   6  -6    0.79    0.98
   1  -6  -5    0.07    0.64
   4  -6  -5    0.27    0.39
   2  -5  -5    0.88    0.40
   5  -5  -5    0.39    0.39
   0  -4  -5    1.53    0.37
   3  -4  -5    1.88    0.33
   6  -4  -5    0.27    0.39
  -2  -3  -5    1.61    0.49
   1  -3  -5    4.10    0.35
   4  -3  -5    2.47    0.35
  -4  -2  -5    1.57    0.80
  -1  -2  -5    4.23    0.36
   2  -2  -5    5.24    0.23
   5  -2  -5    1.52    0.31
  -3  -1  -5    2.58    0.45
   0  -1  -5    8.29    0.26
   3  -1  -5    3.78    0.33
  -5   0  -5    0.74    0.71
  -2   0  -5    5.69    0.26
   1   0  -5    8.50    0.30
   4   0  -5    1.59    0.38
  -4   1  -5    2.76    0.38
  -1   1  -5    8.40    0.39
   2   1  -5    3.39    0.39
  -6   2  -5    1.98    1.44
  -3   2  -5    3.98    0.36
   0   2  -5    5.11    0.27
   3   2  -5    0.63    0.37
  -5   3  -5    1.00    0.72
  -2   3  -5    4.97    0.51
   1   3  -5    2.63    0.43
  -4   4  -5    1.21    0.56
  -1   4  -5    2.83    0.53
   2   4  -5    1.03    0.55
  -3   5  -5    0.41    0.70
   0   5  -5    0.88    0.57
  -2   6  -5    1.79    0.98
   2  -6  -4    0.41    0.49
   0  -5  -4   -0.15    0.55
   3  -5  -4   -0.39    0.18
  -2  -4  -4    0.21    0.45
   1  -4  -4    0.41    0.20
   4  -4  -4   -0.01    0.18
  -1  -3  -4    0.09    0.20
   2  -3  -4    0.45    0.13
   5  -3  -4    0.02    0.25
  -3  -2  -4    0.18    0.31
   0  -2  -4    0.90    0.13
   3  -2  -4    0.39    0.12
   6  -2  -4    0.97    0.62
  -2  -1  -4    0.76    0.15
   1  -1  -4    2.50    0.12
   4  -1  -4    0.07    0.16
  -4   0  -4   -0.02    0.28
  -1   0  -4    2.89    0.17
   2   0  -4    0.80    0.14
   5   0  -4   -0.16    0.26
  -3   1  -4    0.71    0.17
   0   1  -4    2.47    0.20
   3   1  -4    0.10    0.18
  -5   2  -4   -0.73    0.48
  -2   2  -4    1.53    0.23
   1   2  -4    0.70    0.16
   4   2  -4   -0.10    0.34
  -4   3  -4    0.62    0.50
  -1   3  -4    0.49    0.26
   2   3  -4    0.05    0.27
  -6   4  -4   -0.62    1.39
  -3   4  -4    0.43    0.57
   0   4  -4   -0.17    0.30
  -5   5  -4    0.57    0.76
  -2   5  -4    0.14    0.54
  -4   6  -4    0.47    0.66
   3  -6  -3    4.04    0.83
   1  -5  -3    4.44    0.68
   4  -5  -3    5.33    0.65
  -1  -4  -3    5.29    0.95
   2  -4  -3    6.52    0.57
   5  -4  -3    4.73    0.69
  -3  -3  -3    5.10    1.15
   0  -3  -3    6.00    0.55
   3  -3  -3    5.92    0.42
   6  -3  -3    3.83    0.97
  -2  -2  -3    6.24    0.65
   1  -2  -3    6.66    0.37
   4  -2  -3    8.12    0.55
  -4  -1  -3    8.13    1.23
  -1  -1  -3   10.58    0.75
   2  -1  -3    5.63    0.27
   5  -1  -3    3.82    0.60
  -3   0  -3    5.95    0.47
   3   0  -3    4.71    0.51
  -5   1  -3    5.93    1.09
  -2   1  -3    6.84    0.39
   1   1  -3    6.10    0.27
   4   1  -3    6.01    0.58
  -4   2  -3    7.61    0.87
  -1   2  -3    6.40    0.65
   2   2  -3    4.97    0.60
  -6   3  -3    2.66    1.72
  -3   3  -3    7.41    0.81
   0   3  -3    5.56    0.46
   3   3  -3    4.21    0.76
  -5   4  -3    5.59    1.34
  -2   4  -3    7.81    1.06
   1   4  -3    4.23    0.76
  -4   5  -3    6.62    1.02
  -1   5  -3    4.64    1.01
  -3   6  -3    4.49    1.37
   1  -6  -2   -0.62    0.54
   4  -6  -2    0.25    0.37
   2  -5  -2    0.96    0.31
   5  -5  -2    0.90    0.42
   0  -4  -2    0.88    0.36
   3  -4  -2    1.53    0.32
   6  -4  -2    0.24    0.38
  -2  -3  -2    0.76    0.37
   1  -3  -2    3.15    0.31
   4  -3  -2    1.19    0.27
  -4  -2  -2    0.37    0.65
  -1  -2  -2    3.58    0.33
   2  -2  -2    5.13    0.23
   5  -2  -2    0.75    0.33
  -3  -1  -2    2.71    0.44
   0  -1  -2    8.83    0.27
   3  -1  -2    3.57    0.32
  -5   0  -2    0.38    0.63
  -2   0  -2    5.45    0.37
   1   0  -2    9.03    0.31
   4   0  -2    0.60    0.24
  -4   1  -2    1.75    0.32
  -1   1  -2    9.73    0.46
   2   1  -2    3.05    0.30
  -6   2  -2    0.87    0.77
  -3   2  -2    3.32    0.34
   0   2  -2    5.23    0.26
   3   2  -2    1.11    0.38
  -5   3  -2    0.46    0.66
  -2   3  -2    3.58    0.44
   1   3  -2    1.27    0.34
  -4   4  -2    0.49    0.55
  -1   4  -2    2.15    0.48
   2   4  -2    0.03    0.44
  -3   5  -2    1.06    0.77
   0   5  -2    0.53    0.48
  -5   6  -2    0.73    2.30
  -2   6  -2    0.36    0.89
   2  -6  -1    0.04    0.43
   0  -5  -1   -0.17    0.46
   3  -5  -1   -0.16    0.22
  -2  -4  -1   -0.07    0.42
   1  -4  -1    0.50    0.21
   4  -4  -1   -0.03    0.18
  -1  -3  -1    0.19    0.20
   2  -3  -1    1.08    0.17
   5  -3  -1    0.25    0.28
  -3  -2  -1    0.54    0.35
   0  -2  -1    2.09    0.19
   3  -2  -1    1.02    0.16
   6  -2  -1    0.03    0.48
  -2  -1  -1    1.12    0.23
   1  -1  -1    4.74    0.16
   4  -1  -1    0.31    0.17
  -4   0  -1   -0.03    0.26
  -1   0  -1    4.61    0.26
   2   0  -1    1.77    0.18
   5   0  -1    0.29    0.29
  -6   1  -1    1.17    1.17
  -3   1  -1    1.01    0.23
   0   1  -1    4.71    0.26
   3   1  -1   -0.09    0.16
  -5   2  -1   -0.10    0.54
  -2   2  -1    2.31    0.32
   1   2  -1    1.19    0.18
   4   2  -1    0.03    0.36
  -4   3  -1   -0.40    0.40
  -1   3  -1    1.18    0.31
   2   3  -1   -0.25    0.23
  -6   4  -1   -0.84    1.31
  -3   4  -1    0.44    0.51
   0   4  -1   -0.22    0.29
  -5   5  -1   -1.09    0.87
  -2   5  -1   -0.08    0.59
  -4   6  -1    0.24    0.68
   3  -6   0  150.75    5.56
   1  -5   0  200.03    5.90
   4  -5   0  206.43    6.72
  -1  -4   0  209.36    7.47
   2  -4   0  416.71    9.77
   5  -4   0  221.42    6.60
  -3  -3   0  158.66    6.25
   0  -3   0  532.48   10.75
   3  -3   0  540.19   12.00
   6  -3   0  158.36    7.30
  -2  -2   0  414.34   10.09
   1  -2   0  915.66   15.94
   4  -2   0  420.10    9.39
  -4  -1   0  220.44    7.55
  -1  -1   0  922.76   15.97
   2  -1   0  961.04   17.48
   5  -1   0  212.76    6.55
  -3   0   0  519.75   10.73
   3   0   0  534.74   14.55
  -5   1   0  216.68    7.51
  -2   1   0  859.30   17.99
   1   1   0  965.57   19.93
   4   1   0  211.08    5.30
  -4   2   0  390.61   10.29
  -1   2   0  850.65   20.49
   2   2   0  416.80   11.58
  -6   3   0  157.26    6.19
  -3   3   0  508.81   15.61
   0   3   0  522.89   11.99
   3   3   0  148.51    5.16
  -5   4   0  203.25    8.02
  -2   4   0  384.06   12.57
   1   4   0  208.74    6.86
  -4   5   0  210.34    6.47
  -1   5   0  209.77    5.91
  -3   6   0  128.55    6.32
   1  -6   1    0.57    0.64
   4  -6   1   -0.18    0.32
   2  -5   1    0.09    0.22
   5  -5   1    0.10    0.32
   0  -4   1    0.05    0.24
   3  -4   1    0.16    0.21
   6  -4   1    0.16    0.37
  -2  -3   1   -0.10    0.31
   1  -3   1    0.91    0.21
   4  -3   1    0.07    0.17
  -4  -2   1   -0.42    0.62
  -1  -2   1    0.95    0.19
   2  -2   1    2.17    0.15
   5  -2   1    0.33    0.27
  -3  -1   1    0.16    0.25
   0  -1   1    4.61    0.16
   3  -1   1    1.35    0.18
  -5   0   1   -0.04    0.58
  -2   0   1    1.83    0.23
   1   0   1    4.45    0.21
   4   0   1    0.20    0.20
  -4   1   1    0.53    0.24
  -1   1   1    4.85    0.37
   2   1   1    1.26    0.20
  -6   2   1   -0.20    0.67
  -3   2   1    0.79    0.24
   0   2   1    2.06    0.15
   3   2   1   -0.14    0.24
  -5   3   1   -0.54    0.57
  -2   3   1    1.01    0.32
   1   3   1    0.11    0.21
  -4   4   1   -0.25    0.46
  -1   4   1    0.75    0.35
   2   4   1   -0.17    0.48
  -3   5   1    0.26    0.73
   0   5   1   -0.31    0.45
  -5   6   1    0.15    2.19
  -2   6   1    0.26    0.83
   2  -6   2    0.24    0.44
   0  -5   2    0.01    0.47
   3  -5   2    1.15    0.34
  -2  -4   2    0.35    0.48
   1  -4   2    1.50    0.28
   4  -4   2    1.04    0.27
  -1  -3   2    2.01    0.32
   2  -3   2    3.02    0.27
   5  -3   2    0.63    0.32
  -3  -2   2    0.28    0.30
   0  -2   2    4.67    0.27
   3  -2   2    3.29    0.26
   6  -2   2   -0.46    0.41
  -2  -1   2    3.62    0.35
   1  -1   2    9.21    0.24
   4  -1   2    1.10    0.31
  -4   0   2    1.26    0.40
  -1   0   2    9.24    0.35
   2   0   2    4.35    0.28
   5   0   2    0.09    0.28
  -6   1   2    0.23    1.02
  -3   1   2    4.17    0.39
   0   1   2    8.97    0.38
   3   1   2    0.95    0.25
  -5   2   2    2.16    0.73
  -2   2   2    5.50    0.50
   1   2   2    3.35    0.28
   4   2   2    0.06    0.39
  -4   3   2    3.37    0.72
  -1   3   2    3.67    0.48
   2   3   2    0.98    0.37
  -6   4   2   -0.11    0.90
  -3   4   2    1.40    0.65
   0   4   2    0.92    0.39
  -5   5   2    0.45    1.14
  -2   5   2    0.10    0.57
  -4   6   2   -0.02    0.65
   3  -6   3    4.06    0.82
   1  -5   3    3.94    0.63
   4  -5   3    4.41    0.67
  -1  -4   3    5.12    0.86
   2  -4   3    4.55    0.48
   5  -4   3    6.09    0.77
  -3  -3   3    6.51    1.32
   0  -3   3    5.89    0.42
   3  -3   3    5.66    0.46
   6  -3   3    4.91    1.09
  -2  -2   3    6.20    0.64
   1  -2   3    5.57    0.27
   4  -2   3    6.36    0.50
  -4  -1   3    5.83    1.03
  -1  -1   3    5.69    0.27
   2  -1   3    5.35    0.28
   5  -1   3    5.31    0.70
  -3   0   3    6.66    0.49
   3   0   3    5.54    0.56
  -5   1   3    3.98    0.97
  -2   1   3    7.04    0.41
   1   1   3    7.45    0.35
   4   1   3    6.37    0.61
  -4   2   3    8.51    0.87
  -1   2   3    8.02    0.48
   2   2   3    5.93    0.66
  -6   3   3    3.65    1.09
  -3   3   3    7.63    0.79
   0   3   3    7.66    0.53
   3   3   3    3.23    0.66
  -5   4   3    6.09    1.37
  -2   4   3    8.17    0.78
   1   4   3    4.88    0.80
  -4   5   3    5.18    0.95
  -1   5   3    5.79    0.79
  -3   6   3    3.59    1.22
   1  -6   4    0.24    0.58
   4  -6   4   -0.12    0.32
   2  -5   4   -0.27    0.20
   5  -5   4    0.00    0.32
   0  -4   4   -0.22    0.22
   3  -4   4    0.12    0.21
   6  -4   4    0.13    0.35
  -2  -3   4    0.37    0.35
   1  -3   4    0.69    0.15
   4  -3   4    0.05    0.17
  -4  -2   4    0.56    0.66
  -1  -2   4    0.53    0.18
   2  -2   4    1.24    0.12
   5  -2   4   -0.24    0.23
  -3  -1   4   -0.15    0.19
   0  -1   4    2.47    0.13
   3  -1   4    0.62    0.15
  -5   0   4   -0.26    0.55
  -2   0   4    1.03    0.18
   1   0   4    2.30    0.15
   4   0   4    0.21    0.20
  -4   1   4   -0.04    0.25
  -1   1   4    2.83    0.18
   2   1   4    0.51    0.16
  -6   2   4    0.26    0.70
  -3   2   4    0.44    0.21
   0   2   4    0.90    0.17
   3   2   4   -0.15    0.24
  -5   3   4   -0.53    0.59
  -2   3   4    0.31    0.26
   1   3   4    0.21    0.22
  -4   4   4    0.21    0.47
  -1   4   4   -0.24    0.24
   2   4   4    0.20    0.51
  -3   5   4   -0.19    0.60
   0   5   4    0.00    0.47
  -2   6   4    0.94    0.88
   2  -6   5    1.12    0.54
   0  -5   5    1.25    0.68
   3  -5   5    1.07    0.35
  -2  -4   5    1.30    0.57
   1  -4   5    2.76    0.35
   4  -4   5    1.34    0.31
  -1  -3   5    2.54    0.35
   2  -3   5    3.96    0.31
   5  -3   5    1.23    0.40
  -3  -2   5    1.94    0.47
   0  -2   5    5.18    0.29
   3  -2   5    4.15    0.29
   6  -2   5    0.39    0.61
  -2  -1   5    4.09    0.38
   1  -1   5    8.04    0.28
   4  -1   5    2.42    0.40
  -4   0   5    1.70    0.43
  -1   0   5    8.31    0.32
   2   0   5    5.16    0.28
   5   0   5    1.17    0.43
  -3   1   5    3.92    0.38
   0   1   5    8.10    0.31
   3   1   5    2.72    0.35
  -5   2   5    0.33    0.64
  -2   2   5    6.84    0.57
   1   2   5    4.26    0.31
   4   2   5    0.26    0.42
  -4   3   5    2.56    0.67
  -1   3   5    5.07    0.53
   2   3   5    1.50    0.41
  -6   4   5    1.04    0.99
  -3   4   5    1.98    0.75
   0   4   5    1.23    0.43
  -5   5   5    1.27    1.12
  -2   5   5    1.97    0.75
  -4   6   5    0.36    0.75
   3  -6   6    0.34    0.44
   1  -5   6    0.86    0.43
   4  -5   6    0.28    0.33
  -1  -4   6    1.18    0.58
   2  -4   6    1.10    0.27
   5  -4   6    0.87    0.34
  -3  -3   6   -0.11    0.66
   0  -3   6    1.07    0.20
   3  -3   6    1.73    0.26
   6  -3   6    0.70    0.59
  -2  -2   6    1.77    0.39
   1  -2   6    1.73    0.16
   4  -2   6    1.20    0.26
  -4  -1   6    1.04    0.66
  -1  -1   6    1.55    0.15
   2  -1   6    1.74    0.15
   5  -1   6    1.05    0.40
  -3   0   6    1.30    0.24
   0   0   6    1.99    0.24
   3   0   6    1.70    0.27
  -5   1   6    0.86    0.65
  -2   1   6    1.54    0.24
   1   1   6    1.71    0.18
   4   1   6    0.69    0.36
  -4   2   6    1.04    0.43
  -1   2   6    1.54    0.25
   2   2   6    2.09    0.40
  -6   3   6   -0.38    0.68
  -3   3   6    1.93    0.46
   0   3   6    2.65    0.33
   3   3   6    0.66    0.46
  -5   4   6    1.23    0.87
  -2   4   6    2.59    0.49
   1   4   6    1.25    0.48
  -4   5   6    1.29    0.65
  -1   5   6    2.31    0.56
  -3   6   6    0.52    0.99
   4  -6   7    9.63    0.94
   2  -5   7   16.16    1.03
   5  -5   7   11.45    1.14
   0  -4   7   18.30    1.05
   3  -4   7   21.85    0.81
   6  -4   7   11.64    1.15
  -2  -3   7   15.36    1.20
   1  -3   7   33.30    0.89
   4  -3   7   20.73    0.90
  -4  -2   7    9.68    1.45
  -1  -2   7   34.40    1.04
   2  -2   7   46.74    1.00
   5  -2   7   15.39    1.15
  -3  -1   7   21.45    0.94
   0  -1   7   69.00    1.04
   3  -1   7   34.30    0.91
  -5   0   7   13.51    1.63
  -2   0   7   45.69    1.22
   1   0   7   68.16    1.41
   4   0   7   17.58    0.90
  -4   1   7   22.68    1.17
  -1   1   7   67.83    1.54
   2   1   7   33.08    1.06
  -6   2   7   11.86    1.65
  -3   2   7   35.49    1.17
   0   2   7   46.55    1.31
   3   2   7   17.69    1.28
  -5   3   7   15.87    1.82
  -2   3   7   35.40    1.34
   1   3   7   22.85    1.13
  -4   4   7   20.64    1.58
  -1   4   7   21.00    1.28
   2   4   7    9.11    1.17
  -3   5   7   16.04    1.84
   0   5   7   11.38    1.26
  -2   6   7    8.37    1.54
   2  -6   8    0.00    0.44
   0  -5   8    0.77    0.56
   3  -5   8    0.31    0.26
  -2  -4   8   -0.18    0.43
   1  -4   8    0.55    0.21
   4  -4   8    0.30    0.22
  -1  -3   8    0.33    0.30
   2  -3   8    0.81    0.17
   5  -3   8    0.07    0.27
  -3  -2   8    0.45    0.56
   0  -2   8    0.57    0.10
   3  -2   8    0.45    0.13
   6  -2   8    0.18    0.50
  -2  -1   8    0.66    0.19
   1  -1   8    0.93    0.09
   4  -1   8    0.55    0.20
  -4   0   8    0.89    0.34
  -1   0   8    0.71    0.10
   2   0   8    0.70    0.11
   5   0   8    0.31    0.35
  -3   1   8    0.28    0.19
   0   1   8    0.73    0.12
   3   1   8    0.41    0.18
  -5   2   8   -0.18    0.49
  -2   2   8    0.08    0.23
   1   2   8    0.28    0.13
   4   2   8    0.28    0.36
  -4   3   8    0.46    0.48
  -1   3   8    1.22    0.32
   2   3   8    0.11    0.29
  -6   4   8    0.16    0.91
  -3   4   8    1.18    0.65
   0   4   8    1.00    0.39
  -5   5   8   -0.03    1.09
  -2   5   8   -0.03    0.54
  -4   6   8   -0.31    1.01
   3  -6   9   -0.33    0.36
   1  -5   9   -0.13    0.30
   4  -5   9    0.02    0.30
  -1  -4   9    0.03    0.36
   2  -4   9    0.08    0.19
   5  -4   9    0.23    0.30
  -3  -3   9    0.03    0.69
   0  -3   9    0.04    0.12
   3  -3   9   -0.07    0.13
   6  -3   9    0.21    0.55
  -2  -2   9    0.00    0.23
   1  -2   9    0.02    0.05
   4  -2   9    0.18    0.17
  -4  -1   9    0.10    0.51
  -1  -1   9    0.00    0.08
   2  -1   9    0.03    0.07
   5  -1   9    0.15    0.30
  -3   0   9    0.01    0.16
   0   0   9   -0.01    0.07
   3   0   9   -0.14    0.12
  -5   1   9   -0.39    0.49
  -2   1   9    0.07    0.13
   1   1   9    0.00    0.09
   4   1   9    0.32    0.29
  -4   2   9    0.20    0.25
  -1   2   9    0.03    0.11
   2   2   9   -0.16    0.22
  -6   3   9    0.06    0.71
  -3   3   9   -0.04    0.23
   0   3   9    0.22    0.19
   3   3   9   -0.06    0.40
  -5   4   9    0.45    0.84
  -2   4   9    1.32    0.39
   1   4   9    0.07    0.35
  -4   5   9    0.28    0.54
  -1   5   9    0.53    0.44
  -3   6   9   -0.32    0.87
   4  -6  10    7.42    0.83
   2  -5  10   11.54    0.86
   5  -5  10    9.56    1.04
   0  -4  10   15.22    1.03
   3  -4  10   16.94    0.76
   6  -4  10    5.86    0.86
  -2  -3  10   10.17    0.96
   1  -3  10   28.03    0.80
   4  -3  10   16.36    0.85
  -4  -2  10    8.16    1.38
  -1  -2  10   28.65    0.91
   2  -2  10   42.41    1.01
   5  -2  10   10.67    0.93
  -3  -1  10   16.74    0.84
   0  -1  10   66.35    1.00
   3  -1  10   28.77    0.94
  -5   0  10    8.30    1.28
  -2   0  10   43.13    1.14
   1   0  10   65.88    1.35
   4   0  10   12.69    0.81
  -4   1  10   17.42    1.02
  -1   1  10   66.09    1.50
   2   1  10   27.82    0.93
  -6   2  10    8.11    1.38
  -3   2  10   31.38    1.10
   0   2  10   41.27    1.21
   3   2  10    7.47    0.82
  -5   3  10   11.63    1.56
  -2   3  10   28.21    1.24
   1   3  10   18.05    0.91
  -4   4  10   15.38    1.40
  -1   4  10   14.51    1.16
   2   4  10    8.38    1.09
  -3   5  10    8.74    1.47
   0   5  10    6.11    0.96
  -2   6  10    7.11    1.42
   2  -6  11    0.95    0.55
   0  -5  11    1.18    0.63
   3  -5  11    3.05    0.48
  -2  -4  11    0.76    0.49
   1  -4  11    5.20    0.48
   4  -4  11    3.41    0.43
  -1  -3  11    7.50    0.73
   2  -3  11    9.67    0.48
   5  -3  11    3.01    0.52
  -3  -2  11    5.44    0.98
   0  -2  11   14.55    0.41
   3  -2  11   10.23    0.46
   6  -2  11    0.98    0.68
  -2  -1  11    9.89    0.54
   1  -1  11   23.71    0.69
   4  -1  11    5.72    0.49
  -4   0  11    4.93    0.62
  -1   0  11   25.43    0.65
   2   0  11   14.05    0.44
   5   0  11    1.05    0.43
  -3   1  11    9.58    0.54
   0   1  11   24.34    0.69
   3   1  11    6.79    0.54
  -5   2  11    3.24    0.86
  -2   2  11   14.55    0.90
   1   2  11   10.24    0.47
   4   2  11    2.05    0.56
  -4   3  11    7.36    0.93
  -1   3  11   10.45    0.82
   2   3  11    2.32    0.49
  -6   4  11    2.45    1.08
  -3   4  11    8.19    1.20
   0   4  11    4.34    0.67
  -5   5  11    1.15    1.12
  -2   5  11    1.17    0.70
  -4   6  11    1.10    1.21
   3  -6  12    0.20    0.44
   1  -5  12    0.35    0.34
   4  -5  12    0.83    0.38
  -1  -4  12    0.07    0.34
   2  -4  12    0.76    0.25
   5  -4  12    0.21    0.32
  -3  -3  12    0.07    0.71
   0  -3  12    1.10    0.20
   3  -3  12    1.13    0.24
   6  -3  12    0.14    0.56
  -2  -2  12    0.74    0.30
   1  -2  12    1.33    0.12
   4  -2  12    0.86    0.23
  -4  -1  12   -0.09    0.52
  -1  -1  12    1.50    0.14
   2  -1  12    1.68    0.16
   5  -1  12    0.00    0.30
  -3   0  12    1.31    0.24
   0   0  12    2.37    0.18
   3   0  12    0.91    0.21
  -5   1  12    0.62    0.60
  -2   1  12    1.62    0.25
   1   1  12    1.23    0.16
   4   1  12    0.34    0.30
  -4   2  12    1.10    0.36
  -1   2  12    1.51    0.20
   2   2  12    0.68    0.30
  -6   3  12    0.61    0.80
  -3   3  12    1.44    0.35
   0   3  12    1.58    0.27
   3   3  12    0.39    0.45
  -5   4  12    0.48    0.86
  -2   4  12    1.60    0.43
   1   4  12    0.58    0.41
  -4   5  12    0.75    0.61
  -1   5  12    1.93    0.57
  -3   6  12    0.98    0.99
   4  -6  13   -0.03    0.37
   2  -5  13    0.12    0.24
   5  -5  13   -0.07    0.31
   0  -4  13    0.70    0.30
   3  -4  13    0.12    0.17
   6  -4  13   -0.31    0.34
  -2  -3  13    0.23    0.36
   1  -3  13    1.78    0.22
   4  -3  13    0.41    0.21
  -4  -2  13    0.29    0.63
  -1  -2  13    1.89    0.22
   2  -2  13    3.51    0.24
   5  -2  13   -0.09    0.26
  -3  -1  13    0.55    0.23
   0  -1  13    7.57    0.21
   3  -1  13    1.66    0.20
  -5   0  13    0.10    0.39
  -2   0  13    4.02    0.31
   1   0  13    7.65    0.25
   4   0  13    0.39    0.22
  -4   1  13    0.51    0.30
  -1   1  13    7.57    0.35
   2   1  13    1.77    0.24
  -6   2  13    0.27    0.66
  -3   2  13    1.54    0.31
   0   2  13    3.59    0.30
   3   2  13   -0.01    0.27
  -5   3  13    0.21    0.64
  -2   3  13    1.75    0.37
   1   3  13    0.29    0.23
  -4   4  13    1.14    0.56
  -1   4  13    0.85    0.35
   2   4  13    0.85    0.56
  -3   5  13    0.46    0.66
   0   5  13   -0.09    0.42
  -2   6  13    1.45    0.96
   2  -6  14   48.91    2.59
   0  -5  14   67.94    3.33
   3  -5  14   86.10    2.74
  -2  -4  14   58.99    3.26
   1  -4  14  135.71    3.26
   4  -4  14  106.87    2.96
  -1  -3  14  140.33    3.94
   2  -3  14  206.62    4.37
   5  -3  14   85.12    3.15
  -3  -2  14   90.19    3.87
   0  -2  14  284.53    4.71
   3  -2  14  210.14    4.27
   6  -2  14   56.16    3.52
  -2  -1  14  208.15    4.51
   1  -1  14  412.28    7.84
   4  -1  14  136.34    3.43
  -4   0  14  107.55    3.28
  -1   0  14  402.51    7.96
   2   0  14  283.28    5.54
   5   0  14   64.90    2.69
  -3   1  14  207.68    4.52
   0   1  14  402.59    7.76
   3   1  14  134.30    3.46
  -5   2  14   87.22    3.92
  -2   2  14  276.70    5.85
   1   2  14  209.50    6.04
   4   2  14   53.73    2.49
  -4   3  14  139.95    5.48
  -1   3  14  215.85    6.24
   2   3  14   89.02    3.21
  -6   4  14   57.35    3.66
  -3   4  14  132.24    5.27
   0   4  14  107.71    3.82
  -5   5  14   61.96    6.25
  -2   5  14   87.45    4.06
  -4   6  14   56.85    4.26
   3  -6  15    0.57    0.38
   1  -5  15   -0.11    0.30
   4  -5  15    0.34    0.32
  -1  -4  15    0.22    0.36
   2  -4  15    0.89    0.25
   5  -4  15    0.26    0.30
  -3  -3  15    0.25    0.75
   0  -3  15    0.69    0.19
   3  -3  15    0.64    0.19
   6  -3  15   -0.21    0.52
  -2  -2  15    0.85    0.26
   1  -2  15    1.01    0.12
   4  -2  15    0.22    0.17
  -4  -1  15    0.21    0.36
  -1  -1  15    0.82    0.11
   2  -1  15    1.04    0.11
   5  -1  15   -0.05    0.28
  -3   0  15    0.60    0.20
   0   0  15    1.29    0.15
   3   0  15    0.46    0.19
  -5   1  15    1.38    0.66
  -2   1  15    1.14    0.17
   1   1  15    0.84    0.14
   4   1  15    0.36    0.33
  -4   2  15    0.80    0.33
  -1   2  15    1.02    0.19
   2   2  15    0.66    0.29
  -6   3  15   -0.44    0.66
  -3   3  15    1.17    0.40
   0   3  15    0.29    0.18
   3   3  15    0.30    0.44
  -5   4  15    0.74    0.78
  -2   4  15    0.73    0.36
   1   4  15    0.63    0.43
  -4   5  15    1.04    0.61
  -1   5  15    0.63    0.46
  -3   6  15    1.89    1.03
   4  -6  16   -0.09    0.37
   2  -5  16    0.29    0.27
   5  -5  16    0.53    0.42
   0  -4  16    0.90    0.34
   3  -4  16    0.36    0.18
   6  -4  16    1.14    0.47
  -2  -3  16    0.61    0.37
   1  -3  16    0.24    0.14
   4  -3  16    0.15    0.19
  -4  -2  16   -0.43    0.66
  -1  -2  16    0.28    0.13
   2  -2  16    0.09    0.09
   5  -2  16    0.47    0.31
  -3  -1  16    0.45    0.30
   0  -1  16    0.08    0.06
   3  -1  16    0.35    0.13
  -5   0  16    0.86    0.44
  -2   0  16    0.12    0.11
   1   0  16    0.01    0.06
   4   0  16    0.13    0.20
  -4   1  16    0.70    0.31
  -1   1  16    0.36    0.13
   2   1  16    0.29    0.15
  -6   2  16    1.54    0.86
  -3   2  16   -0.05    0.22
   0   2  16    0.12    0.13
   3   2  16    0.46    0.33
  -5   3  16    0.98    0.76
  -2   3  16   -0.05    0.27
   1   3  16   -0.05    0.20
  -4   4  16    0.76    0.56
  -1   4  16    0.42    0.34
   2   4  16    0.66    0.55
  -3   5  16    1.36    0.72
   0   5  16    0.43    0.44
  -2   6  16    1.18    0.95
   2  -6  17   63.98    4.43
   0  -5  17   75.58    3.61
   3  -5  17  101.31    3.16
  -2  -4  17   61.31    3.46
   1  -4  17  162.01    3.77
   4  -4  17  129.10    3.42
  -1  -3  17  161.17    4.49
   2  -3  17  255.28    5.29
   5  -3  17  108.35    3.70
  -3  -2  17  111.63    4.47
   0  -2  17  344.72    4.88
   3  -2  17  261.33    5.18
   6  -2  17   60.17    3.84
  -2  -1  17  259.84    5.44
   1  -1  17  495.75    9.56
   4  -1  17  164.80    4.98
  -4   0  17  125.13    3.73
  -1   0  17  496.50    8.69
   2   0  17  348.93    6.72
   5   0  17   72.80    2.93
  -3   1  17  249.44    5.44
   0   1  17  494.93    9.46
   3   1  17  161.93    4.02
  -5   2  17  106.17    4.49
  -2   2  17  336.28    7.05
   1   2  17  255.00    7.31
   4   2  17   65.39    2.81
  -4   3  17  159.56    6.15
  -1   3  17  254.82    7.49
   2   3  17  107.13    3.72
  -6   4  17   66.50    3.98
  -3   4  17  160.26    6.01
   0   4  17  121.46    4.33
  -5   5  17   73.59    6.05
  -2   5  17  100.66    4.52
  -4   6  17   65.79    6.18
   3  -6  18    0.42    0.36
   1  -5  18    0.70    0.38
   4  -5  18    0.82    0.38
  -1  -4  18    0.35    0.39
   2  -4  18    0.66    0.25
   5  -4  18    0.14    0.29
  -3  -3  18    1.09    0.77
   0  -3  18    0.95    0.21
   3  -3  18    1.22    0.25
   6  -3  18   -0.51    0.41
  -2  -2  18    0.88    0.26
   1  -2  18    1.45    0.14
   4  -2  18    0.77    0.23
  -4  -1  18    0.15    0.34
  -1  -1  18    1.81    0.15
   2  -1  18    1.95    0.15
   5  -1  18    0.65    0.32
  -3   0  18    1.21    0.33
   0   0  18    3.05    0.21
   3   0  18    0.98    0.21
  -5   1  18    0.61    0.40
  -2   1  18    2.56    0.22
   1   1  18    1.94    0.20
   4   1  18    0.37    0.36
  -4   2  18    0.91    0.35
  -1   2  18    2.28    0.25
   2   2  18    0.83    0.31
  -6   3  18    0.95    0.83
  -3   3  18    0.35    0.35
   0   3  18    1.27    0.26
   3   3  18    0.08    0.41
  -5   4  18    0.62    0.85
  -2   4  18    1.47    0.43
   1   4  18    0.29    0.39
  -4   5  18    0.07    0.59
  -1   5  18    0.63    0.46
  -3   6  18    1.08    0.99
   4  -6  19   -0.10    0.36
   2  -5  19    0.46    0.27
   5  -5  19    0.11    0.38
   0  -4  19    0.34    0.28
   3  -4  19    0.37    0.20
   6  -4  19    0.28    0.41
  -2  -3  19    0.56    0.36
   1  -3  19    0.27    0.15
   4  -3  19    0.23    0.20
  -4  -2  19   -0.53    0.61
  -1  -2  19    0.19    0.13
   2  -2  19    0.42    0.11
   5  -2  19    0.32    0.29
  -3  -1  19    0.11    0.26
   0  -1  19    0.33    0.08
   3  -1  19    0.33    0.12
  -5   0  19    0.41    0.43
  -2   0  19    0.31    0.10
   1   0  19    0.33    0.09
   4   0  19    0.29    0.22
  -4   1  19    0.63    0.33
  -1   1  19    0.39    0.15
   2   1  19    0.24    0.14
  -6   2  19    0.25    0.79
  -3   2  19    0.04    0.23
   0   2  19    0.64    0.17
   3   2  19    0.22    0.32
  -5   3  19    0.49    0.66
  -2   3  19   -0.26    0.25
   1   3  19    0.10    0.20
  -4   4  19    0.28    0.65
  -1   4  19    0.27    0.34
   2   4  19    0.10    0.48
  -3   5  19   -0.42    0.60
   0   5  19    0.35    0.45
  -2   6  19    0.07    0.77
   2  -6  20    4.84    0.88
   0  -5  20    6.25    1.08
   3  -5  20    7.16    0.69
  -2  -4  20    3.83    1.10
   1  -4  20   12.51    0.74
   4  -4  20   10.15    0.74
  -1  -3  20   12.08    0.94
   2  -3  20   21.18    0.74
   5  -3  20    8.53    0.87
  -3  -2  20    7.66    1.11
   0  -2  20   31.13    0.62
   3  -2  20   23.41    0.72
   6  -2  20    3.96    1.02
  -2  -1  20   22.60    0.82
   1  -1  20   49.96    1.14
   4  -1  20   11.62    0.91
  -4   0  20   10.54    0.93
  -1   0  20   52.17    1.81
   2   0  20   30.97    0.80
   5   0  20    3.47    0.64
  -3   1  20   23.07    1.06
   0   1  20   49.69    1.12
   3   1  20   12.65    0.75
  -5   2  20    9.84    1.32
  -2   2  20   31.13    0.97
   1   2  20   24.08    1.06
   4   2  20    3.34    0.69
  -4   3  20   15.47    1.71
  -1   3  20   21.20    1.11
   2   3  20    7.34    0.70
  -6   4  20    7.07    1.49
  -3   4  20   12.94    1.52
   0   4  20   10.73    1.04
  -5   5  20    5.60    1.41
  -2   5  20    9.50    1.32
  -4   6  20    4.43    1.48
   3  -6  21    5.13    0.70
   1  -5  21    5.99    0.74
   4  -5  21    6.65    0.83
  -1  -4  21    7.15    0.82
   2  -4  21    9.74    0.72
   5  -4  21    5.61    0.74
  -3  -3  21    3.71    1.04
   0  -3  21   14.22    0.51
   3  -3  21   12.60    0.72
   6  -3  21    2.49    0.85
  -2  -2  21   11.59    0.73
   1  -2  21   24.39    0.62
   4  -2  21   10.37    0.66
  -4  -1  21    4.75    0.66
  -1  -1  21   23.69    0.57
   2  -1  21   23.35    0.56
   5  -1  21    5.93    0.74
  -3   0  21   13.25    0.90
   0   0  21   38.24    0.84
   3   0  21   11.40    0.62
  -5   1  21    6.65    0.81
  -2   1  21   23.46    0.67
   1   1  21   23.68    0.74
   4   1  21    4.53    0.68
  -4   2  21    9.40    0.83
  -1   2  21   24.99    0.77
   2   2  21    9.19    0.81
  -6   3  21    3.11    1.07
  -3   3  21   15.81    1.12
   0   3  21   14.02    0.71
   3   3  21    3.20    0.67
  -5   4  21    2.97    1.11
  -2   4  21   11.78    0.95
   1   4  21    7.33    0.93
  -4   5  21    6.55    1.42
  -1   5  21    4.95    0.73
  -3   6  21    3.80    1.23
   4  -6  22    0.57    0.43
   2  -5  22    0.39    0.27
   5  -5  22   -0.03    0.35
   0  -4  22    0.51    0.31
   3  -4  22    0.74    0.23
   6  -4  22    0.39    0.42
  -2  -3  22    0.76    0.40
   1  -3  22    1.38    0.21
   4  -3  22    1.15    0.28
  -4  -2  22   -0.02    0.70
  -1  -2  22    1.59    0.21
   2  -2  22    2.33    0.22
   5  -2  22    0.39    0.31
  -3  -1  22    0.78    0.32
   0  -1  22    3.35    0.16
   3  -1  22    1.81    0.20
  -5   0  22    0.41    0.45
  -2   0  22    1.70    0.17
   1   0  22    2.93    0.19
   4   0  22    1.33    0.29
  -4   1  22    1.16    0.38
  -1   1  22    3.25    0.28
   2   1  22    1.43    0.23
  -6   2  22    0.30    0.72
  -3   2  22    1.65    0.31
   0   2  22    2.74    0.28
   3   2  22    0.03    0.28
  -5   3  22    0.01    0.63
  -2   3  22    1.27    0.37
   1   3  22    0.71    0.26
  -4   4  22    0.40    0.76
  -1   4  22    0.90    0.42
   2   4  22    0.49    0.51
  -3   5  22   -0.01    0.68
   0   5  22    0.18    0.48
  -2   6  22    0.70    0.84
   2  -6  23   11.75    1.29
   0  -5  23   13.19    1.52
   3  -5  23   20.59    1.24
  -2  -4  23   11.36    1.65
   1  -4  23   33.25    1.19
   4  -4  23   24.81    1.08
  -1  -3  23   30.65    1.45
   2  -3  23   61.23    1.56
   5  -3  23   19.54    1.35
  -3  -2  23   21.81    1.43
   0  -2  23   84.90    1.39
   3  -2  23   62.25    1.49
   6  -2  23   11.67    1.67
  -2  -1  23   60.85    1.63
   1  -1  23  137.39    2.72
   4  -1  23   32.10    1.47
  -4   0  23   27.94    1.44
  -1   0  23  133.53    3.31
   2   0  23   86.39    1.86
   5   0  23   11.81    1.12
  -3   1  23   61.02    2.00
   0   1  23  135.20    2.73
   3   1  23   33.77    1.19
  -5   2  23   17.70    1.81
  -2   2  23   90.07    2.12
   1   2  23   59.92    2.11
   4   2  23    8.85    1.05
  -4   3  23   32.32    2.48
  -1   3  23   62.18    2.27
   2   3  23   23.52    1.18
  -6   4  23   12.30    1.83
  -3   4  23   32.37    1.77
   0   4  23   25.44    1.55
  -5   5  23   12.39    1.92
  -2   5  23   17.64    1.82
  -4   6  23    6.48    1.55
   3  -6  24    2.67    0.56
   1  -5  24    4.84    0.67
   4  -5  24    5.61    0.76
  -1  -4  24    4.48    0.71
   2  -4  24    4.21    0.49
   5  -4  24    4.13    0.65
  -3  -3  24    3.21    0.99
   0  -3  24    6.58    0.38
   3  -3  24    4.50    0.43
   6  -3  24    2.38    0.82
  -2  -2  24    4.92    0.47
   1  -2  24    7.38    0.35
   4  -2  24    5.09    0.45
  -4  -1  24    4.15    0.67
  -1  -1  24    6.97    0.30
   2  -1  24    7.76    0.30
   5  -1  24    5.51    0.71
  -3   0  24    4.39    0.53
   0   0  24    8.29    0.37
   3   0  24    5.24    0.44
  -5   1  24    4.28    0.66
  -2   1  24    8.32    0.37
   1   1  24    7.38    0.39
   4   1  24    4.52    0.66
  -4   2  24    5.11    0.62
  -1   2  24    7.82    0.48
   2   2  24    4.22    0.55
  -6   3  24    4.64    1.17
  -3   3  24    5.24    0.69
   0   3  24    5.02    0.46
   3   3  24    4.33    0.65
  -5   4  24    2.96    1.00
  -2   4  24    4.08    0.60
   1   4  24    4.78    0.79
  -4   5  24    4.20    1.22
  -1   5  24    4.45    0.71
  -3   6  24    4.19    1.30
   4  -6  25    2.42    0.61
   2  -5  25    6.38    0.67
   5  -5  25    3.29    0.67
   0  -4  25    7.38    0.73
   3  -4  25   10.42    0.72
   6  -4  25    4.11    0.73
  -2  -3  25    7.33    1.14
   1  -3  25   16.46    0.53
   4  -3  25    9.31    0.68
  -4  -2  25    2.57    1.46
  -1  -2  25   16.33    0.61
   2  -2  25   21.52    0.67
   5  -2  25    7.15    0.79
  -3  -1  25   10.58    0.90
   0  -1  25   31.94    0.59
   3  -1  25   15.84    0.56
  -5   0  25    5.52    0.83
  -2   0  25   21.11    0.61
   1   0  25   31.09    0.77
   4   0  25    8.82    0.65
  -4   1  25   11.89    0.93
  -1   1  25   32.31    0.90
   2   1  25   16.60    0.67
  -6   2  25    4.33    1.14
  -3   2  25   16.87    0.83
   0   2  25   22.08    0.78
   3   2  25    5.84    0.75
  -5   3  25    7.29    1.29
  -2   3  25   16.23    1.07
   1   3  25   11.61    0.77
  -4   4  25    7.97    1.37
  -1   4  25   11.76    1.05
   2   4  25    4.10    1.30
  -3   5  25    4.11    1.00
   0   5  25    2.77    0.72
  -2   6  25    0.42    1.28
   2  -6  26    4.99    1.21
   0  -5  26    5.06    1.02
   3  -5  26   11.03    0.89
  -2  -4  26    6.54    1.89
   1  -4  26   19.04    0.89
   4  -4  26   13.25    0.88
  -1  -3  26   20.35    1.23
   2  -3  26   36.02    1.08
   5  -3  26   10.44    0.98
  -3  -2  26   12.21    1.06
   0  -2  26   55.51    0.99
   3  -2  26   38.10    1.03
   6  -2  26    5.51    1.18
  -2  -1  26   38.80    1.14
   1  -1  26   86.49    1.90
   4  -1  26   20.80    1.15
  -4   0  26   14.45    1.10
  -1   0  26   87.58    1.73
   2   0  26   57.46    1.30
   5   0  26    7.49    0.88
  -3   1  26   38.48    1.44
   0   1  26   88.42    1.87
   3   1  26   19.02    0.87
  -5   2  26   12.64    1.50
  -2   2  26   57.70    1.52
   1   2  26   36.42    1.22
   4   2  26    5.38    1.17
  -4   3  26   21.59    1.35
  -1   3  26   37.29    1.61
   2   3  26   11.69    0.88
  -6   4  26    5.39    1.30
  -3   4  26   20.45    1.46
   0   4  26   16.06    1.25
  -5   5  26    5.12    2.10
  -2   5  26    8.99    0.98
  -4   6  26    3.72    1.30
   3  -6  27   11.07    1.00
   1  -5  27   13.46    1.13
   4  -5  27   15.19    1.29
  -1  -4  27   16.72    1.29
   2  -4  27   29.79    1.21
   5  -4  27   13.80    1.17
  -3  -3  27   10.93    1.58
   0  -3  27   41.01    0.99
   3  -3  27   37.12    1.26
   6  -3  27    9.60    1.50
  -2  -2  27   29.83    1.12
   1  -2  27   73.14    1.36
   4  -2  27   29.09    1.08
  -4  -1  27   14.46    1.20
  -1  -1  27   72.70    1.39
   2  -1  27   72.95    1.45
   5  -1  27   15.27    1.22
  -3   0  27   34.97    1.44
   0   0  27  112.21    2.16
   3   0  27   38.68    1.25
  -5   1  27   17.88    1.30
  -2   1  27   72.20    1.80
   1   1  27   73.15    1.86
   4   1  27   16.29    1.23
  -4   2  27   31.49    1.44
  -1   2  27   76.31    1.79
   2   2  27   28.81    1.38
  -6   3  27   10.03    1.52
  -3   3  27   39.78    1.69
   0   3  27   37.90    1.27
   3   3  27    8.89    0.90
  -5   4  27   17.39    1.98
  -2   4  27   27.42    1.46
   1   4  27   15.98    1.39
  -4   5  27   17.26    2.97
  -1   5  27   15.06    1.26
  -3   6  27   10.68    1.72
   4  -6  28    0.68    0.66
   2  -5  28    6.97    0.71
   5  -5  28    5.30    0.83
   0  -4  28    9.36    0.81
   3  -4  28   10.25    0.73
   6  -4  28    3.56    0.66
  -2  -3  28    7.76    1.19
   1  -3  28   18.81    0.58
   4  -3  28   11.90    0.77
  -4  -2  28    4.68    1.69
  -1  -2  28   18.26    0.65
   2  -2  28   25.61    0.76
   5  -2  28    7.64    0.82
  -3  -1  28   11.59    0.93
   0  -1  28   36.93    0.67
   3  -1  28   17.99    0.61
  -5   0  28    4.16    0.74
  -2   0  28   24.59    0.67
   1   0  28   36.24    0.89
   4   0  28   10.19    0.72
  -4   1  28   10.80    0.88
  -1   1  28   38.27    1.03
   2   1  28   18.69    0.74
  -6   2  28    3.06    1.01
  -3   2  28   18.69    0.79
   0   2  28   25.95    0.68
   3   2  28    6.22    0.77
  -5   3  28    7.80    1.29
  -2   3  28   21.65    1.24
   1   3  28   10.98    0.75
  -4   4  28    9.94    1.49
  -1   4  28   10.09    0.99
   2   4  28    4.46    1.21
  -3   5  28    7.88    1.28
   0   5  28    3.54    0.80
  -2   6  28    4.44    1.94
   2  -6  29   -0.05    0.64
   0  -5  29    0.07    0.52
   3  -5  29    0.75    0.33
  -2  -4  29   -0.60    0.97
   1  -4  29    1.01    0.28
   4  -4  29    0.51    0.25
  -1  -3  29    0.86    0.34
   2  -3  29    3.16    0.33
   5  -3  29    0.04    0.28
  -3  -2  29    0.73    0.41
   0  -2  29    5.56    0.27
   3  -2  29    3.63    0.31
  -2  -1  29    3.40    0.34
   1  -1  29    9.45    0.35
   4  -1  29    1.20    0.35
  -4   0  29    0.46    0.36
  -1   0  29    9.91    0.43
   2   0  29    5.80    0.33
   5   0  29    0.00    0.36
  -3   1  29    3.30    0.48
   0   1  29    9.75    0.39
   3   1  29    1.35    0.29
  -5   2  29    0.90    0.65
  -2   2  29    6.23    0.45
   1   2  29    3.62    0.39
   4   2  29   -0.26    0.54
  -4   3  29    1.71    0.47
  -1   3  29    3.23    0.53
   2   3  29    0.89    0.35
  -6   4  29    0.39    0.92
  -3   4  29    1.07    0.50
   0   4  29    1.18    0.46
  -5   5  29    0.67    0.92
  -2   5  29   -0.18    0.38
  -4   6  29   -1.03    1.39
   3  -6  30    1.86    0.50
   1  -5  30    3.72    0.68
   4  -5  30    2.71    0.59
  -1  -4  30    3.54    0.66
   2  -4  30    5.49    0.55
   5  -4  30    3.49    0.61
  -3  -3  30    0.89    0.79
   0  -3  30    8.60    0.46
   3  -3  30    8.37    0.60
   6  -3  30    1.47    0.70
  -2  -2  30    6.08    0.53
   1  -2  30   17.91    0.47
   4  -2  30    6.93    0.54
  -4  -1  30    2.24    0.54
  -1  -1  30   17.82    0.46
   2  -1  30   17.62    0.52
   5  -1  30    3.28    0.58
  -3   0  30    8.61    0.74
   0   0  30   28.36    0.80
   3   0  30    7.05    0.52
  -5   1  30    2.21    0.56
  -2   1  30   17.74    0.69
   1   1  30   17.14    0.63
   4   1  30    3.06    0.58
  -4   2  30    5.20    0.63
  -1   2  30   17.37    0.66
   2   2  30    5.42    0.62
  -6   3  30    2.57    0.99
  -3   3  30    8.80    0.87
   0   3  30    7.63    0.57
   3   3  30    1.50    0.46
  -5   4  30    1.99    0.88
  -2   4  30    5.04    0.65
   1   4  30    3.42    0.68
  -4   5  30    2.17    1.01
  -1   5  30    3.03    0.67
  -3   6  30    1.70    0.97
   4  -6  31   48.13    3.44
   2  -5  31   81.89    2.64
   5  -5  31   60.70    2.71
   0  -4  31   98.49    3.05
   3  -4  31  117.72    3.24
   6  -4  31   51.00    3.45
  -2  -3  31   80.03    3.71
   1  -3  31  186.31    3.55
   4  -3  31  122.80    3.23
  -4  -2  31   54.77    4.35
  -1  -2  31  181.38    3.29
   2  -2  31  233.30    4.83
   5  -2  31   81.14    3.02
  -3  -1  31  113.30    3.50
   0  -1  31  310.22    4.42
   3  -1  31  189.89    3.82
  -5   0  31   57.83    2.47
  -2   0  31  231.30    4.97
   1   0  31  310.95    6.08
   4   0  31   97.99    2.74
  -4   1  31  117.86    3.51
  -1   1  31  312.64    6.31
   2   1  31  186.09    4.43
  -6   2  31   60.93    4.38
  -3   2  31  186.75    4.16
   0   2  31  237.70    4.72
   3   2  31   81.00    3.06
  -5   3  31   82.81    3.85
  -2   3  31  183.29    4.94
   1   3  31  119.67    3.24
  -4   4  31  107.58    6.38
  -1   4  31  111.41    4.07
   2   4  31   52.90    3.82
  -3   5  31   83.75    3.90
   0   5  31   58.96    2.83
   2  -6  32    1.62    0.75
   0  -5  32    0.75    0.61
   3  -5  32    1.37    0.38
  -2  -4  32    1.21    1.16
   1  -4  32    4.07    0.44
   4  -4  32    3.14    0.45
  -1  -3  32    2.87    0.51
   2  -3  32    4.69    0.39
   5  -3  32    1.55    0.44
  -3  -2  32    1.35    0.47
   0  -2  32    6.52    0.30
   3  -2  32    5.17    0.37
  -2  -1  32    4.45    0.34
   1  -1  32    8.01    0.35
   4  -1  32    3.35    0.51
  -4   0  32    2.18    0.49
  -1   0  32    8.56    0.37
   2   0  32    6.59    0.36
   5   0  32    0.82    0.46
  -3   1  32    4.62    0.42
   0   1  32   10.05    0.41
   3   1  32    3.43    0.40
  -5   2  32    0.92    0.59
  -2   2  32    7.57    0.51
   1   2  32    4.58    0.43
   4   2  32    1.24    0.73
  -4   3  32    3.84    0.62
  -1   3  32    4.81    0.47
   2   3  32    1.18    0.36
  -6   4  32    1.50    1.25
  -3   4  32    3.53    0.67
   0   4  32    3.10    0.61
  -5   5  32    1.89    1.11
  -2   5  32    2.24    0.57
  -4   6  32    2.36    1.77
   3  -6  33    0.71    0.44
   1  -5  33    0.27    0.36
   4  -5  33    0.78    0.37
  -1  -4  33    0.71    0.45
   2  -4  33    0.85    0.28
   5  -4  33    0.68    0.39
  -3  -3  33    0.40    1.04
   0  -3  33    1.12    0.20
   3  -3  33    1.07    0.27
   6  -3  33    0.16    0.56
  -2  -2  33    1.08    0.37
   1  -2  33    2.16    0.18
   4  -2  33    0.63    0.23
  -4  -1  33    0.91    0.42
  -1  -1  33    2.10    0.19
   2  -1  33    2.19    0.20
   5  -1  33    0.47    0.36
  -3   0  33    1.06    0.33
   0   0  33    3.84    0.28
   3   0  33    0.90    0.23
  -5   1  33    0.80    0.43
  -2   1  33    2.02    0.27
   1   1  33    1.99    0.20
   4   1  33    0.85    0.38
  -4   2  33    0.79    0.35
  -1   2  33    2.58    0.30
   2   2  33    1.38    0.37
  -6   3  33    0.01    0.77
  -3   3  33    1.66    0.48
   0   3  33    1.56    0.30
   3   3  33    0.50    0.39
  -5   4  33    0.70    0.79
  -2   4  33    1.62    0.45
   1   4  33    0.77    0.46
  -4   5  33    0.46    0.81
  -1   5  33    0.52    0.44
  -3   6  33    1.15    1.61
   2  -5  34   90.59    2.90
   5  -5  34   58.81    2.77
   0  -4  34  114.63    3.45
   3  -4  34  141.98    3.79
  -2  -3  34   99.98    4.17
   1  -3  34  240.51    4.46
   4  -3  34  145.60    3.77
  -4  -2  34   60.66    4.57
  -1  -2  34  233.13    4.11
   2  -2  34  308.14    6.29
   5  -2  34   93.41    3.38
  -3  -1  34  137.66    4.06
   0  -1  34  426.74    6.48
   3  -1  34  238.64    4.79
  -5   0  34   63.33    2.62
  -2   0  34  305.64    6.43
   1   0  34  433.20    7.50
   4   0  34  114.85    3.90
  -4   1  34  136.56    4.05
  -1   1  34  432.53    7.68
   2   1  34  237.18    5.55
  -6   2  34   49.20    4.08
  -3   2  34  239.35    5.16
   0   2  34  309.69    6.17
   3   2  34   93.11    3.42
  -5   3  34   90.02    4.14
  -2   3  34  233.09    6.08
   1   3  34  143.49    3.77
  -4   4  34  116.81    6.91
  -1   4  34  139.23    4.79
   2   4  34   61.08    4.07
  -3   5  34   90.51    4.19
   0   5  34   62.54    2.96
   0  -5  35    1.17    0.62
   3  -5  35    3.37    0.57
   1  -4  35    5.82    0.59
   4  -4  35    3.44    0.47
  -1  -3  35    4.78    0.51
   2  -3  35    9.00    0.64
   5  -3  35    2.89    0.53
  -3  -2  35    2.05    0.53
   0  -2  35   14.38    0.43
   3  -2  35    9.61    0.53
  -2  -1  35    9.14    0.60
   1  -1  35   20.54    0.58
   4  -1  35    4.82    0.61
  -4   0  35    3.72    0.61
  -1   0  35   20.47    0.60
   2   0  35   14.74    0.52
   5   0  35    2.20    0.56
  -3   1  35    9.95    0.63
   0   1  35   21.27    0.64
   3   1  35    5.01    0.49
  -5   2  35    2.77    0.60
  -2   2  35   15.61    0.72
   1   2  35    9.78    0.64
   4   2  35    0.50    0.70
  -4   3  35    5.35    0.71
  -1   3  35   10.55    0.72
   2   3  35    2.96    0.47
  -3   4  35    4.11    0.74
   0   4  35    3.61    0.65
  -5   5  35    0.72    0.98
  -2   5  35    3.63    0.66
  -4   6  35    0.73    1.46
   3  -6  36    2.13    0.88
   1  -5  36    3.98    0.72
   4  -5  36    6.00    0.83
  -1  -4  36    5.45    0.79
   2  -4  36   10.72    0.70
   5  -4  36    5.08    0.74
  -3  -3  36    4.93    1.62
   0  -3  36   14.34    0.50
   3  -3  36   14.30    0.84
  -2  -2  36    9.41    0.87
   1  -2  36   26.92    0.67
   4  -2  36    9.66    0.69
  -4  -1  36    5.46    0.78
  -1  -1  36   27.56    0.69
   2  -1  36   27.86    0.76
   5  -1  36    4.57    0.68
  -3   0  36   13.81    0.95
   0   0  36   44.33    1.03
   3   0  36   15.07    0.70
  -5   1  36    5.38    0.76
  -2   1  36   27.03    0.90
   1   1  36   28.07    0.78
   4   1  36    4.67    0.68
  -4   2  36   11.25    0.93
  -1   2  36   29.07    0.92
   2   2  36    8.76    0.82
  -3   3  36   14.48    1.15
   0   3  36   13.85    0.78
   3   3  36    4.63    0.79
  -5   4  36    4.29    1.10
  -2   4  36   11.04    0.96
   1   4  36    5.09    0.81
  -4   5  36    4.00    1.13
  -1   5  36    7.09    0.88
  -3   6  36    4.37    1.92
   2  -5  37    5.42    0.64
   5  -5  37    3.56    0.72
   0  -4  37    7.65    0.75
   3  -4  37   10.01    0.74
   6  -4  37    3.12    1.02
  -2  -3  37    3.84    0.85
   1  -3  37   18.47    0.64
   4  -3  37   10.32    0.75
  -4  -2  37    2.38    1.30
  -1  -2  37   18.41    0.60
   2  -2  37   25.44    0.82
   5  -2  37    6.39    0.77
  -3  -1  37    8.27    0.81
   0  -1  37   37.11    0.78
   3  -1  37   18.79    0.77
  -5   0  37    3.05    0.69
  -2   0  37   24.02    0.88
   1   0  37   37.46    0.84
   4   0  37    7.54    0.77
  -4   1  37    8.38    0.81
  -1   1  37   38.84    0.94
   2   1  37   18.84    0.75
  -3   2  37   18.02    0.85
   0   2  37   25.81    0.76
   3   2  37    6.07    0.77
  -5   3  37    3.30    0.89
  -2   3  37   18.85    1.17
   1   3  37    9.92    0.74
  -4   4  37    9.09    1.36
  -1   4  37    7.92    0.92
  -3   5  37    7.08    1.18
   0   5  37    3.69    0.81
  -2   6  37    1.03    1.45
   0  -5  38    0.99    0.64
   3  -5  38    0.58    0.36
   1  -4  38    0.22    0.21
   4  -4  38    0.27    0.25
  -1  -3  38   -0.14    0.21
   2  -3  38   -0.09    0.17
   5  -3  38    0.41    0.33
  -3  -2  38    0.52    0.44
   0  -2  38    0.00    0.10
   3  -2  38    0.07    0.14
  -2  -1  38   -0.02    0.17
   1  -1  38    0.18    0.12
   4  -1  38    0.29    0.27
  -4   0  38    0.50    0.31
  -1   0  38    0.18    0.11
   2   0  38    0.10    0.12
   5   0  38    0.79    0.41
  -3   1  38   -0.06    0.17
   0   1  38    0.40    0.14
   3   1  38   -0.04    0.19
  -5   2  38    0.26    0.40
  -2   2  38   -0.01    0.17
   1   2  38   -0.14    0.16
  -4   3  38   -0.12    0.35
  -1   3  38    0.16    0.23
   2   3  38   -0.19    0.25
  -3   4  38    0.66    0.46
   0   4  38    0.66    0.41
  -5   5  38    3.03    1.66
  -2   5  38    0.09    0.39
  -4   6  38    0.12    1.49
   3  -6  39    1.82    0.86
   1  -5  39    3.80    0.70
   4  -5  39    3.86    0.68
  -1  -4  39    4.58    1.00
   2  -4  39    7.80    0.60
   5  -4  39    4.31    0.70
  -3  -3  39    2.18    1.24
   0  -3  39   11.26    0.46
   3  -3  39   10.34    0.71
  -2  -2  39    8.53    0.82
   1  -2  39   22.36    0.64
   4  -2  39    7.64    0.60
  -4  -1  39    3.77    0.69
  -1  -1  39   21.83    0.61
   2  -1  39   21.84    0.66
   5  -1  39    2.91    0.58
  -3   0  39   10.54    0.82
   0   0  39   36.21    0.91
   3   0  39    9.95    0.62
  -5   1  39    3.52    0.65
  -2   1  39   21.74    0.81
   1   1  39   22.06    0.68
   4   1  39    3.96    0.65
  -4   2  39    6.78    0.74
  -1   2  39   21.89    0.79
   2   2  39    7.58    0.63
  -3   3  39   10.41    0.97
   0   3  39   10.85    0.74
   3   3  39    2.65    0.69
  -5   4  39    2.20    0.91
  -2   4  39    8.65    0.87
   1   4  39    1.99    0.59
  -4   5  39    5.18    1.17
  -1   5  39    3.21    0.67
  -3   6  39    0.01    1.27
   2  -5  40    0.18    0.29
   5  -5  40    0.12    0.34
   0  -4  40    0.08    0.30
   3  -4  40    0.57    0.26
  -2  -3  40    0.51    0.41
   1  -3  40    0.38    0.15
   4  -3  40    0.27    0.24
  -1  -2  40    0.35    0.15
   2  -2  40    0.49    0.17
   5  -2  40    0.66    0.35
  -3  -1  40    0.73    0.35
   0  -1  40    1.04    0.16
   3  -1  40    0.32    0.17
  -5   0  40    0.91    0.67
  -2   0  40    0.63    0.20
   1   0  40    0.82    0.12
   4   0  40    0.35    0.30
  -4   1  40    0.93    0.39
  -1   1  40    0.66    0.16
   2   1  40    0.52    0.19
  -3   2  40    0.64    0.23
   0   2  40    0.47    0.20
   3   2  40    0.13    0.34
  -5   3  40    0.46    0.62
  -2   3  40    0.53    0.34
   1   3  40    0.41    0.25
  -4   4  40   -0.33    0.59
  -1   4  40    0.61    0.39
  -3   5  40   -0.10    0.60
   0   5  40    0.62    0.54
   0  -5  41   15.65    1.61
   3  -5  41   19.16    1.46
   1  -4  41   26.68    1.20
   4  -4  41   22.17    1.17
  -1  -3  41   30.63    1.17
   2  -3  41   41.75    1.46
   5  -3  41   17.85    1.34
  -3  -2  41   18.92    1.41
   0  -2  41   55.04    1.04
   3  -2  41   44.28    1.23
  -2  -1  41   41.11    1.32
   1  -1  41   77.92    1.80
   4  -1  41   28.83    1.39
  -4   0  41   21.22    1.39
  -1   0  41   74.61    1.80
   2   0  41   55.98    1.37
   5   0  41   12.59    1.68
  -3   1  41   43.21    1.34
   0   1  41   76.31    1.76
   3   1  41   24.89    1.33
  -5   2  41   19.13    1.35
  -2   2  41   57.52    1.58
   1   2  41   43.88    1.41
  -4   3  41   29.08    1.55
  -1   3  41   42.65    1.50
   2   3  41   18.58    1.16
  -3   4  41   30.31    1.77
   0   4  41   21.32    1.59
  -5   5  41    9.10    2.41
  -2   5  41   20.67    1.50
   3  -6  42    0.00    0.71
   1  -5  42    0.63    0.44
   4  -5  42    0.52    0.40
  -1  -4  42    0.06    0.61
   2  -4  42    0.27    0.22
   5  -4  42    0.30    0.38
  -3  -3  42    0.03    0.93
   0  -3  42    0.44    0.15
   3  -3  42    0.33    0.20
  -2  -2  42    0.05    0.30
   1  -2  42    0.27    0.13
   4  -2  42    0.38    0.23
  -4  -1  42    0.32    0.45
  -1  -1  42    0.04    0.10
   2  -1  42    0.24    0.13
   5  -1  42    0.32    0.33
  -3   0  42    0.07    0.19
   0   0  42    0.26    0.14
   3   0  42    0.38    0.20
  -5   1  42    0.33    0.51
  -2   1  42    0.20    0.17
   1   1  42    0.29    0.13
   4   1  42    0.68    0.37
  -4   2  42    0.47    0.35
  -1   2  42   -0.03    0.17
   2   2  42    0.24    0.21
  -3   3  42    0.51    0.42
   0   3  42    0.46    0.25
   3   3  42    0.17    0.60
  -5   4  42    1.27    1.24
  -2   4  42    0.50    0.39
   1   4  42    0.14    0.40
  -4   5  42    0.60    0.82
  -1   5  42    0.00    0.42
   2  -5  43    0.70    0.35
   5  -5  43    0.25    0.29
   0  -4  43    2.08    0.46
   3  -4  43    1.91    0.38
  -2  -3  43    1.05    0.46
   1  -3  43    3.65    0.32
   4  -3  43    1.85    0.36
  -1  -2  43    3.36    0.29
   2  -2  43    4.84    0.39
   5  -2  43    0.64    0.38
  -3  -1  43    1.24    0.42
   0  -1  43    6.23    0.39
   3  -1  43    3.55    0.38
  -5   0  43    1.06    0.70
  -2   0  43    4.28    0.39
   1   0  43    6.51    0.29
   4   0  43    0.60    0.34
  -4   1  43    2.11    0.46
  -1   1  43    6.85    0.36
   2   1  43    3.39    0.37
  -3   2  43    3.94    0.43
   0   2  43    4.29    0.42
   3   2  43    1.05    0.38
  -5   3  43    0.98    1.02
  -2   3  43    3.69    0.55
   1   3  43    1.89    0.36
  -4   4  43    0.71    0.67
  -1   4  43    1.81    0.53
  -3   5  43    0.70    0.74
   0   5  43    1.14    0.63
   0  -5  44    1.56    0.69
   3  -5  44    1.55    0.48
   1  -4  44    2.36    0.41
   4  -4  44    2.32    0.41
  -1  -3  44    1.75    0.37
   2  -3  44    3.43    0.43
   5  -3  44    2.40    0.53
  -3  -2  44    1.63    0.53
   0  -2  44    4.85    0.28
   3  -2  44    3.01    0.33
  -2  -1  44    3.26    0.38
   1  -1  44    6.92    0.44
   4  -1  44    2.47    0.46
  -4   0  44    2.16    0.48
  -1   0  44    6.59    0.35
   2   0  44    4.24    0.34
   5   0  44    1.54    0.74
  -3   1  44    4.16    0.42
   0   1  44    7.10    0.42
   3   1  44    1.80    0.40
  -5   2  44    1.20    0.61
  -2   2  44    4.99    0.46
   1   2  44    3.84    0.41
  -4   3  44    3.48    0.60
  -1   3  44    4.15    0.50
   2   3  44    1.28    0.39
  -3   4  44    2.08    0.56
   0   4  44    0.50    0.43
  -5   5  44    2.05    1.53
  -2   5  44    1.61    0.57
   3  -6  45    7.90    1.55
   1  -5  45   16.17    1.43
   4  -5  45   12.98    1.24
  -1  -4  45   14.82    1.67
   2  -4  45   25.09    1.08
   5  -4  45   13.90    1.24
  -3  -3  45   13.75    2.37
   0  -3  45   30.75    0.78
   3  -3  45   32.11    1.23
  -2  -2  45   25.54    1.49
   1  -2  45   50.10    1.18
   4  -2  45   25.70    1.06
  -4  -1  45   14.79    1.27
  -1  -1  45   47.81    1.08
   2  -1  45   51.19    1.26
   5  -1  45   14.81    1.23
  -3   0  45   29.38    1.14
   0   0  45   63.70    1.60
   3   0  45   32.03    1.13
  -5   1  45   17.56    1.67
  -2   1  45   48.21    1.38
   1   1  45   49.68    1.25
   4   1  45   14.48    1.19
  -4   2  45   25.59    1.39
  -1   2  45   48.71    1.38
   2   2  45   26.06    1.10
  -3   3  45   30.14    1.60
   0   3  45   31.32    1.22
  -5   4  45   11.50    2.39
  -2   4  45   26.16    1.55
   1   4  45   14.94    1.40
  -4   5  45   10.07    2.37
  -1   5  45   15.14    1.29
   2  -5  46   -0.44    0.24
   5  -5  46    0.08    0.34
   0  -4  46   -0.20    0.27
   3  -4  46    0.02    0.23
  -2  -3  46   -0.30    0.35
   1  -3  46    0.10    0.14
   4  -3  46    0.02    0.21
  -1  -2  46    0.01    0.13
   2  -2  46    0.12    0.15
   5  -2  46   -0.11    0.30
  -3  -1  46   -0.25    0.23
   0  -1  46   -0.01    0.13
   3  -1  46   -0.06    0.16
  -5   0  46    0.49    0.64
  -2   0  46    0.04    0.16
   1   0  46    0.32    0.10
   4   0  46   -0.31    0.24
  -4   1  46    0.11    0.31
  -1   1  46    0.07    0.12
   2   1  46    0.06    0.15
  -3   2  46    0.38    0.21
   0   2  46    0.14    0.18
   3   2  46    0.17    0.31
  -5   3  46    0.14    0.84
  -2   3  46    0.18    0.30
   1   3  46   -0.05    0.22
  -4   4  46   -0.07    0.95
  -1   4  46    0.46    0.35
  -3   5  46    0.18    0.54
   0   5  46    0.19    0.55
   0  -5  47    1.67    0.76
   3  -5  47    0.58    0.42
   1  -4  47    1.37    0.37
   4  -4  47    1.33    0.37
  -1  -3  47    3.04    0.42
   2  -3  47    3.69    0.45
   5  -3  47    0.80    0.40
  -3  -2  47    1.38    0.50
   0  -2  47    6.00    0.32
   3  -2  47    3.82    0.42
  -2  -1  47    4.14    0.44
   1  -1  47    8.10    0.50
   4  -1  47    1.94    0.42
  -4   0  47    1.80    0.63
  -1   0  47    9.11    0.41
   2   0  47    6.18    0.41
   5   0  47    1.47    0.76
  -3   1  47    3.34    0.40
   0   1  47    8.33    0.48
   3   1  47    2.86    0.51
  -5   2  47    1.91    0.66
  -2   2  47    5.58    0.48
   1   2  47    3.25    0.41
  -4   3  47    4.07    0.81
  -1   3  47    4.52    0.47
   2   3  47    2.85    0.49
  -3   4  47    2.26    0.61
   0   4  47    2.03    0.56
  -2   5  47    0.98    0.57
   1  -5  48  109.30    5.90
   4  -5  48  104.26    4.04
  -1  -4  48  107.86    4.50
   2  -4  48  184.74    4.82
   5  -4  48  106.22    3.25
   0  -3  48  225.39    3.52
   3  -3  48  222.70    5.55
  -2  -2  48  180.77    5.03
   1  -2  48  349.60    6.38
   4  -2  48  180.89    4.61
  -4  -1  48  104.98    4.41
  -1  -1  48  348.67    6.44
   2  -1  48  345.60    7.00
   5  -1  48  100.72    3.74
  -3   0  48  217.08    4.93
   0   0  48  462.03    9.17
   3   0  48  230.61    5.46
  -5   1  48  104.08    4.31
  -2   1  48  351.23    7.26
   1   1  48  360.64    7.00
   4   1  48   84.58    5.20
  -4   2  48  178.10    6.16
  -1   2  48  357.09    7.25
   2   2  48  180.06    4.62
  -3   3  48  226.61    6.07
   0   3  48  226.62    5.53
  -5   4  48   97.19    6.69
  -2   4  48  181.88    5.08
   1   4  48  101.75    4.01
  -1   5  48  103.63    3.54
   2  -5  49    1.77    0.47
   5  -5  49    2.73    0.66
   0  -4  49    2.47    0.49
   3  -4  49    3.38    0.49
  -2  -3  49    2.18    0.59
   1  -3  49    5.59    0.43
   4  -3  49    2.98    0.44
  -1  -2  49    6.63    0.41
   2  -2  49    6.72    0.50
   5  -2  49    1.51    0.46
  -3  -1  49    4.42    0.65
   0  -1  49   10.76    0.55
   3  -1  49    5.81    0.51
  -5   0  49    0.90    0.80
  -2   0  49    7.27    0.52
   1   0  49   11.84    0.44
   4   0  49    1.47    0.42
  -4   1  49    2.25    0.65
  -1   1  49   12.11    0.66
   2   1  49    5.97    0.43
  -3   2  49    6.05    0.53
   0   2  49    8.70    0.62
   3   2  49    1.83    0.50
  -5   3  49    3.95    1.31
  -2   3  49    5.39    0.65
   1   3  49    3.51    0.50
  -4   4  49    1.86    0.77
  -1   4  49    3.32    0.58
  -3   5  49    1.25    0.75
   0   5  49    2.74    1.09
   0  -5  50   -0.55    0.55
   3  -5  50   -0.10    0.30
   1  -4  50    0.24    0.26
   4  -4  50    0.15    0.25
  -1  -3  50    0.28    0.33
   2  -3  50    0.24    0.22
   5  -3  50   -0.04    0.31
  -3  -2  50    0.03    0.49
   0  -2  50    0.13    0.13
   3  -2  50    0.16    0.17
  -2  -1  50   -0.04    0.20
   1  -1  50    0.06    0.14
   4  -1  50    0.02    0.24
  -4   0  50    0.09    0.46
  -1   0  50   -0.17    0.10
   2   0  50    0.21    0.15
  -3   1  50   -0.14    0.18
   0   1  50    0.30    0.16
   3   1  50   -0.16    0.22
  -5   2  50    0.16    0.50
  -2   2  50   -0.10    0.19
   1   2  50    0.13    0.19
  -4   3  50   -0.29    0.42
  -1   3  50   -0.08    0.21
   2   3  50   -0.05    0.29
  -3   4  50    0.85    0.59
   0   4  50    0.00    0.37
  -2   5  50   -0.60    0.50
   1  -5  51   14.43    1.32
   4  -5  51   10.70    1.19
  -1  -4  51   12.72    1.58
   2  -4  51   21.76    1.24
   5  -4  51   11.34    0.97
   0  -3  51   27.97    0.76
   3  -3  51   28.69    1.19
  -2  -2  51   22.78    1.41
   1  -2  51   46.76    1.17
   4  -2  51   22.15    1.09
  -4  -1  51   13.95    1.58
  -1  -1  51   44.97    1.18
   2  -1  51   44.50    1.23
   5  -1  51   10.11    1.07
  -3   0  51   26.60    1.09
   0   0  51   70.31    1.71
   3   0  51   28.29    1.09
  -5   1  51   13.37    1.49
  -2   1  51   45.73    1.33
   1   1  51   44.01    1.21
   4   1  51   13.36    1.71
  -4   2  51   21.59    1.22
  -1   2  51   47.38    1.35
   2   2  51   22.34    1.10
  -3   3  51   28.98    2.07
   0   3  51   27.18    1.16
  -5   4  51   16.28    2.78
  -2   4  51   23.52    1.49
   1   4  51   15.02    1.38
  -4   5  51    8.90    2.33
  -1   5  51   11.55    1.17
   2  -5  52    3.11    0.65
   5  -5  52    1.22    0.60
   0  -4  52    2.61    0.64
   3  -4  52    3.07    0.47
  -2  -3  52    1.62    0.56
   1  -3  52    6.33    0.51
   4  -3  52    2.84    0.45
  -1  -2  52    6.33    0.42
   2  -2  52    7.92    0.55
   5  -2  52    2.21    0.54
  -3  -1  52    5.31    0.87
   0  -1  52   12.01    0.56
   3  -1  52    6.56    0.53
  -2   0  52    8.01    0.55
   1   0  52   11.39    0.61
   4   0  52    3.49    0.59
  -4   1  52    4.02    0.78
  -1   1  52   10.80    0.65
   2   1  52    5.50    0.50
  -3   2  52    6.75    0.67
   0   2  52    7.14    0.58
   3   2  52    1.93    0.51
  -5   3  52    2.02    1.18
  -2   3  52    5.94    0.68
   1   3  52    2.61    0.45
  -4   4  52    1.56    0.73
  -1   4  52    4.45    0.65
  -3   5  52    1.22    0.75
   0  -5  53   -0.16    1.07
   3  -5  53    1.88    0.54
   1  -4  53    4.06    0.56
   4  -4  53    2.77    0.49
  -1  -3  53    2.00    0.50
   2  -3  53    5.65    0.58
   5  -3  53    2.42    0.56
  -3  -2  53    1.08    0.68
   0  -2  53    6.92    0.39
   3  -2  53    4.96    0.51
  -2  -1  53    4.96    0.49
   1  -1  53    9.42    0.57
   4  -1  53    2.63    0.52
  -4   0  53    2.49    0.73
  -1   0  53    9.13    0.59
   2   0  53    6.50    0.46
  -3   1  53    6.03    0.64
   0   1  53    9.13    0.54
   3   1  53    3.46    0.55
  -5   2  53    2.32    0.74
  -2   2  53    6.19    0.64
   1   2  53    5.50    0.51
  -4   3  53    3.27    0.78
  -1   3  53    5.52    0.51
   2   3  53    2.96    0.62
  -3   4  53    6.49    0.95
   0   4  53    2.30    0.63
  -2   5  53    2.00    0.73
   1  -5  54    0.97    0.51
   4  -5  54    1.06    0.49
  -1  -4  54    0.76    0.72
   2  -4  54    1.71    0.39
   5  -4  54    1.27    0.44
   0  -3  54    2.83    0.28
   3  -3  54    3.08    0.44
  -2  -2  54    2.24    0.40
   1  -2  54    5.29    0.39
   4  -2  54    3.31    0.44
  -4  -1  54    0.98    0.67
  -1  -1  54    5.36    0.40
   2  -1  54    4.91    0.40
   5  -1  54    1.79    0.53
  -3   0  54    3.46    0.51
   0   0  54    7.19    0.47
   3   0  54    3.27    0.39
  -5   1  54    1.25    0.64
  -2   1  54    4.44    0.54
   1   1  54    4.53    0.36
   4   1  54    1.62    0.74
  -4   2  54    1.94    0.45
  -1   2  54    4.81    0.37
   2   2  54    1.90    0.46
  -3   3  54    2.07    0.67
   0   3  54    2.68    0.42
  -5   4  54    1.03    1.23
  -2   4  54    2.88    0.71
   1   4  54    0.92    0.55
  -4   5  54    0.28    1.25
  -1   5  54    1.14    0.62
   2  -5  55    6.29    0.90
   5  -5  55    2.34    1.02
   0  -4  55    7.46    1.01
   3  -4  55    8.14    0.77
  -2  -3  55    6.60    1.10
   1  -3  55   10.66    0.68
   4  -3  55    6.31    0.79
  -1  -2  55   10.58    0.63
   2  -2  55   11.70    0.69
   5  -2  55    6.32    0.84
  -3  -1  55    8.42    1.12
   0  -1  55   15.21    0.65
   3  -1  55   11.42    0.76
  -2   0  55   14.28    0.94
   1   0  55   15.60    0.69
   4   0  55    8.58    0.90
  -4   1  55    7.26    1.02
  -1   1  55   15.73    0.80
   2   1  55   11.35    0.73
  -3   2  55   10.44    0.86
   0   2  55   13.19    0.80
   3   2  55    6.04    0.83
  -5   3  55    5.95    1.68
  -2   3  55   11.89    1.22
   1   3  55    8.09    0.73
  -4   4  55    6.48    1.14
  -1   4  55    6.28    0.90
  -3   5  55    5.22    1.10
   3  -5  56    1.74    0.55
   1  -4  56    2.02    0.43
   4  -4  56    1.78    0.44
  -1  -3  56    2.53    0.43
   2  -3  56    4.70    0.55
   5  -3  56    1.22    0.45
  -3  -2  56    0.74    0.58
   0  -2  56    4.89    0.35
   3  -2  56    4.81    0.51
  -2  -1  56    3.79    0.54
   1  -1  56    7.06    0.50
   4  -1  56    3.10    0.56
  -4   0  56    1.51    0.60
  -1   0  56    6.18    0.50
   2   0  56    4.48    0.40
  -3   1  56    4.60    0.59
   0   1  56    6.48    0.47
   3   1  56    2.11    0.48
  -5   2  56    1.45    0.66
  -2   2  56    5.10    0.60
   1   2  56    5.09    0.52
  -4   3  56    2.68    0.74
  -1   3  56    3.99    0.54
   2   3  56    2.02    0.57
  -3   4  56    1.53    0.68
   0   4  56    2.64    0.67
  -2   5  56    1.83    0.75
   1  -5  57    0.89    0.53
   4  -5  57    1.11    0.51
  -1  -4  57    1.46    1.15
   2  -4  57    1.05    0.35
   5  -4  57    0.89    0.47
   0  -3  57    2.91    0.28
   3  -3  57    2.52    0.41
  -2  -2  57    1.62    0.40
   1  -2  57    4.72    0.37
   4  -2  57    2.17    0.40
  -4  -1  57    1.21    0.66
  -1  -1  57    4.68    0.44
   2  -1  57    4.82    0.48
   5  -1  57    0.62    0.42
  -3   0  57    1.84    0.43
   0   0  57    8.21    0.51
   3   0  57    2.77    0.48
  -5   1  57    0.22    0.60
  -2   1  57    5.72    0.60
   1   1  57    4.85    0.39
   4   1  57    1.39    0.73
  -4   2  57    1.57    0.41
  -1   2  57    5.11    0.44
   2   2  57    0.79    0.36
  -3   3  57    1.15    0.57
   0   3  57    2.46    0.42
  -5   4  57    1.18    1.20
  -2   4  57    1.77    0.64
   1   4  57    0.42    0.50
  -4   5  57    0.06    1.26
  -1   5  57    0.51    0.58
   2  -5  58    4.46    0.79
   0  -4  58    5.72    0.89
   3  -4  58    3.72    0.55
  -2  -3  58    3.26    0.84
   1  -3  58    7.59    0.59
   4  -3  58    2.91    0.56
  -1  -2  58    5.63    0.47
   2  -2  58    6.56    0.59
   5  -2  58    3.29    0.65
  -3  -1  58    4.73    0.85
   0  -1  58    7.73    0.47
   3  -1  58    5.64    0.54
  -2   0  58    6.04    0.62
   1   0  58    7.28    0.52
   4   0  58    4.79    0.71
  -4   1  58    5.03    0.88
  -1   1  58    7.89    0.56
   2   1  58    5.93    0.54
  -3   2  58    5.35    0.63
   0   2  58    6.25    0.57
   3   2  58    4.84    0.76
  -5   3  58    2.89    0.85
  -2   3  58    5.07    0.83
   1   3  58    3.51    0.51
  -4   4  58    4.89    1.03
  -1   4  58    4.27    0.77
  -3   5  58    3.42    0.96
   3  -5  59    1.83    0.55
   1  -4  59    5.66    0.68
   4  -4  59    2.04    0.46
  -1  -3  59    3.68    0.57
   2  -3  59    7.23    0.70
   5  -3  59    3.47    0.67
  -3  -2  59    3.67    0.90
   0  -2  59    9.86    0.58
   3  -2  59    7.83    0.66
  -2  -1  59    6.83    0.69
   1  -1  59   13.43    0.73
   4  -1  59    4.53    0.68
  -4   0  59    4.21    0.89
  -1   0  59   13.01    0.74
   2   0  59    8.49    0.57
  -3   1  59    7.17    0.73
   0   1  59   14.43    0.68
   3   1  59    4.87    0.70
  -5   2  59    2.19    0.74
  -2   2  59   10.23    0.83
   1   2  59    7.77    0.66
  -4   3  59    3.92    0.86
  -1   3  59    7.25    0.71
   2   3  59    3.01    0.59
  -3   4  59    3.20    0.86
   0   4  59    3.39    0.70
  -2   5  59    1.86    0.79
   1  -5  60    3.94    0.81
   4  -5  60    3.49    0.75
  -1  -4  60    1.23    1.17
   2  -4  60    6.20    0.68
   5  -4  60    3.87    0.73
   0  -3  60    9.23    0.48
   3  -3  60    9.33    0.78
  -2  -2  60    7.03    0.78
   1  -2  60   16.56    0.76
   4  -2  60    6.95    0.67
  -4  -1  60    3.67    0.94
  -1  -1  60   14.69    0.83
   2  -1  60   16.19    0.93
   5  -1  60    2.63    0.61
  -3   0  60    9.63    0.86
   0   0  60   24.40    0.83
   3   0  60    9.42    0.87
  -5   1  60    2.07    0.76
  -2   1  60   14.75    0.99
   1   1  60   17.09    0.94
   4   1  60    3.70    0.98
  -4   2  60    4.59    0.62
  -1   2  60   15.73    0.78
   2   2  60    8.31    0.89
  -3   3  60    9.97    1.21
   0   3  60    9.96    0.80
  -5   4  60    1.61    1.30
  -2   4  60    7.26    1.04
   1   4  60    2.93    0.72
  -4   5  60    5.31    1.87
  -1   5  60    3.24    0.81
   2  -5  61    4.62    0.78
   0  -4  61    3.62    0.71
   3  -4  61    8.64    0.84
  -2  -3  61    4.33    0.95
   1  -3  61   13.95    0.82
   4  -3  61    6.81    0.84
  -1  -2  61   13.13    0.83
   2  -2  61   17.72    1.03
   5  -2  61    4.87    0.79
  -3  -1  61    6.44    0.99
   0  -1  61   25.79    0.82
   3  -1  61   15.20    0.92
  -2   0  61   16.83    1.06
   1   0  61   24.69    0.93
   4   0  61    4.68    0.71
  -4   1  61    8.50    0.87
  -1   1  61   25.46    0.94
   2   1  61   13.52    0.85
  -3   2  61   13.30    1.01
   0   2  61   17.94    0.93
   3   2  61    6.12    0.86
  -5   3  61    5.28    1.04
  -2   3  61   12.02    1.24
   1   3  61    8.24    0.77
  -4   4  61    5.94    1.11
  -1   4  61    7.82    1.00
  -3   5  61    3.03    0.95
   3  -5  62   83.40    4.88
   1  -4  62  121.64    4.45
   4  -4  62   96.39    3.19
  -1  -3  62  123.49    3.61
   2  -3  62  188.07    4.97
   5  -3  62   78.78    3.29
  -3  -2  62   82.37    3.78
   0  -2  62  231.68    4.49
   3  -2  62  188.83    4.79
  -2  -1  62  188.22    4.99
   1  -1  62  290.38    5.94
   4  -1  62  122.80    4.20
  -4   0  62  106.39    4.27
  -1   0  62  281.01    5.95
   2   0  62  234.33    4.92
  -3   1  62  179.87    4.97
   0   1  62  286.23    5.86
   3   1  62  122.28    4.18
  -5   2  62   86.07    3.70
  -2   2  62  224.44    5.92
   1   2  62  185.15    5.85
  -4   3  62  110.77    4.65
  -1   3  62  186.40    4.91
   2   3  62   83.83    3.35
  -3   4  62  122.29    6.53
   0   4  62  112.35    5.74
  -2   5  62   83.22    3.82
   1  -5  63    0.97    0.75
   4  -5  63    1.38    0.55
  -1  -4  63    1.27    1.15
   2  -4  63    2.98    0.50
   5  -4  63    1.38    0.52
   0  -3  63    4.17    0.43
   3  -3  63    3.64    0.52
  -2  -2  63    2.78    0.53
   1  -2  63    7.30    0.66
   4  -2  63    2.74    0.45
  -4  -1  63    1.13    0.73
  -1  -1  63    5.28    0.50
   2  -1  63    5.14    0.55
   5  -1  63    1.25    0.53
  -3   0  63    3.03    0.53
   0   0  63    9.53    0.57
   3   0  63    3.30    0.57
  -5   1  63    1.47    0.72
  -2   1  63    5.51    0.62
   1   1  63    6.13    0.58
   4   1  63    0.53    0.52
  -4   2  63    2.73    0.53
  -1   2  63    6.84    0.55
   2   2  63    1.87    0.49
  -3   3  63    2.66    0.71
   0   3  63    4.60    0.57
  -5   4  63    1.01    1.22
  -2   4  63    2.68    0.76
   1   4  63    1.03    0.80
  -4   5  63    3.51    1.62
  -1   5  63    1.33    0.68
   2  -5  64    6.41    0.96
   3  -4  64   11.65    1.00
  -2  -3  64    8.79    1.29
   1  -3  64   19.64    1.02
   4  -3  64   11.73    1.13
  -1  -2  64   22.12    1.10
   2  -2  64   25.08    1.13
   5  -2  64    9.54    1.53
  -3  -1  64   10.97    0.98
   0  -1  64   34.83    1.18
   3  -1  64   19.21    1.09
  -2   0  64   26.92    1.27
   1   0  64   37.45    1.19
   4   0  64    8.88    0.99
  -4   1  64   10.81    0.99
  -1   1  64   33.74    1.15
   2   1  64   21.67    1.03
  -3   2  64   21.22    1.30
   0   2  64   26.54    1.12
   3   2  64    5.85    0.87
  -5   3  64    8.90    1.29
  -2   3  64   18.02    2.23
   1   3  64   10.97    1.12
  -4   4  64   10.32    1.35
  -1   4  64   10.88    1.22
  -3   5  64    4.95    1.11
   3  -5  65   41.38    2.33
   1  -4  65   50.93    2.51
   4  -4  65   47.59    1.93
  -1  -3  65   53.71    2.03
   2  -3  65   72.31    2.43
   5  -3  65   40.21    2.11
  -3  -2  65   46.89    2.75
   0  -2  65   85.86    2.29
   3  -2  65   73.23    2.31
  -2  -1  65   72.29    2.44
   1  -1  65  101.79    2.45
   4  -1  65   50.27    2.30
  -4   0  65   45.93    2.52
  -1   0  65  100.22    2.46
   2   0  65   91.45    2.21
  -3   1  65   75.33    2.48
   0   1  65   97.56    2.79
   3   1  65   54.98    2.30
  -5   2  65   41.81    2.55
  -2   2  65   86.63    2.73
   1   2  65   77.65    2.86
  -4   3  65   47.77    2.64
  -1   3  65   73.20    2.39
   2   3  65   37.69    2.96
  -3   4  65   53.69    3.78
   0   4  65   45.36    2.32
  -2   5  65   41.36    2.85
   1  -5  66   -0.21    0.66
   2  -4  66    0.78    0.34
   5  -4  66    0.24    0.45
   0  -3  66    0.78    0.26
   3  -3  66    0.44    0.33
  -2  -2  66    0.66    0.38
   1  -2  66    1.13    0.32
   4  -2  66    0.51    0.30
  -4  -1  66    0.61    1.04
  -1  -1  66    1.00    0.28
   2  -1  66    1.16    0.29
   5  -1  66   -0.16    0.39
  -3   0  66    0.31    0.30
   0   0  66    1.17    0.31
   3   0  66    0.22    0.32
  -5   1  66    0.67    0.89
  -2   1  66    0.70    0.30
   1   1  66    0.66    0.26
  -4   2  66    0.39    0.36
  -1   2  66    0.85    0.28
   2   2  66    0.44    0.39
  -3   3  66    1.14    0.59
   0   3  66    1.09    0.37
  -2   4  66    0.43    0.56
  -1   5  66    0.42    0.89
   2  -5  67    1.38    0.55
   3  -4  67    3.19    0.56
  -2  -3  67    1.14    0.71
   1  -3  67    4.21    0.48
   4  -3  67    2.69    0.60
  -1  -2  67    4.31    0.50
   2  -2  67    5.44    0.59
   5  -2  67    1.77    0.56
  -3  -1  67    3.41    0.61
   0  -1  67    9.14    0.65
   3  -1  67    5.12    0.56
  -2   0  67    6.99    0.69
   1   0  67    8.04    0.59
   4   0  67    2.19    0.56
  -4   1  67    2.69    0.55
  -1   1  67    7.86    0.59
   2   1  67    3.82    0.61
  -3   2  67    5.39    0.65
   0   2  67    6.31    0.61
   3   2  67    1.66    0.53
  -5   3  67    1.79    0.78
  -2   3  67    3.56    0.75
   1   3  67    1.50    0.51
  -4   4  67    1.77    0.78
  -1   4  67    2.33    0.68
  -3   5  67    2.84    0.92
   3  -5  68    2.77    1.03
   1  -4  68    8.02    1.09
   4  -4  68    6.36    0.78
  -1  -3  68   12.39    1.02
   2  -3  68   16.06    1.12
   5  -3  68    6.25    0.94
  -3  -2  68    7.26    1.19
   0  -2  68   19.79    1.02
   3  -2  68   16.01    1.04
  -2  -1  68   16.64    1.16
   1  -1  68   27.85    1.07
   4  -1  68   11.50    1.13
  -4   0  68    5.46    1.01
  -1   0  68   29.67    1.07
   2   0  68   21.35    0.91
  -3   1  68   16.30    1.16
   0   1  68   29.65    1.22
   3   1  68    9.60    1.00
  -5   2  68    7.61    1.17
  -2   2  68   21.58    1.28
   1   2  68   15.51    1.26
  -4   3  68    7.97    1.15
  -1   3  68   17.81    1.16
   2   3  68    7.58    1.00
  -3   4  68    9.04    1.27
   0   4  68    8.95    1.12
  -2   5  68    5.90    1.16
   1  -5  69    3.54    1.15
   2  -4  69    6.06    0.73
   0  -3  69    6.43    0.71
   3  -3  69    7.16    0.89
  -2  -2  69    5.08    0.71
   1  -2  69    9.86    0.82
   4  -2  69    3.98    0.52
  -1  -1  69    9.22    0.67
   2  -1  69    8.21    0.74
   5  -1  69    1.50    0.83
  -3   0  69    6.42    0.76
   0   0  69   11.57    0.80
   3   0  69    5.47    0.75
  -2   1  69    9.69    0.81
   1   1  69    9.35    0.75
  -4   2  69    6.55    0.77
  -1   2  69    9.53    0.68
   2   2  69    4.92    0.76
  -3   3  69    5.56    0.93
   0   3  69    6.79    0.71
  -2   4  69    6.31    1.08
  -1   5  69    4.53    1.46
   2  -5  70    1.20    0.61
   3  -4  70    0.59    0.39
  -2  -3  70    0.50    0.70
   1  -3  70    2.94    0.43
   4  -3  70    1.09    0.44
  -1  -2  70    2.64    0.42
   2  -2  70    2.95    0.46
   5  -2  70    1.92    0.86
  -3  -1  70    1.56    0.46
   0  -1  70    4.06    0.45
   3  -1  70    2.57    0.45
  -2   0  70    3.62    0.52
   1   0  70    4.33    0.46
   4   0  70    1.37    0.50
  -4   1  70    1.52    0.46
  -1   1  70    4.50    0.46
   2   1  70    3.00    0.58
  -3   2  70    1.62    0.44
   0   2  70    3.27    0.49
   3   2  70    1.89    0.61
  -5   3  70    0.85    0.71
  -2   3  70    2.44    0.70
   1   3  70    1.68    0.54
  -4   4  70    0.10    0.61
  -1   4  70    1.66    0.68
  -3   5  70    1.23    0.88
   3  -5  71    5.05    0.93
   1  -4  71    7.08    0.80
   4  -4  71    6.61    1.41
  -1  -3  71    9.11    1.07
   2  -3  71   11.95    0.97
   5  -3  71    4.60    1.18
  -3  -2  71    4.06    1.02
   0  -2  71   14.54    0.87
   3  -2  71   11.41    0.89
  -2  -1  71   10.62    0.92
   1  -1  71   17.46    0.90
   4  -1  71    6.97    0.89
  -4   0  71    4.20    0.92
  -1   0  71   17.08    0.86
   2   0  71   12.35    0.75
  -3   1  71   11.20    0.95
   0   1  71   18.40    1.06
   3   1  71    6.63    1.27
  -5   2  71    4.30    0.98
  -2   2  71   13.26    1.00
   1   2  71   10.77    1.05
  -4   3  71    7.67    1.16
  -1   3  71   12.72    1.00
   2   3  71    5.38    0.89
  -3   4  71    6.91    1.15
   0   4  71    3.58    1.11
  -2   5  71    4.52    1.11
   2  -4  72    4.56    0.66
   0  -3  72    5.97    0.70
   3  -3  72    6.81    0.90
  -2  -2  72    6.09    0.77
   1  -2  72    7.41    0.70
   4  -2  72    5.02    0.63
  -1  -1  72    7.46    0.61
   2  -1  72    5.23    0.62
  -3   0  72    6.70    0.77
   0   0  72    8.74    0.70
   3   0  72    5.73    0.74
  -2   1  72    8.53    0.77
   1   1  72    8.04    0.70
  -4   2  72    7.18    0.84
  -1   2  72    7.81    0.62
   2   2  72    6.59    0.90
  -3   3  72    5.51    0.95
   0   3  72    6.23    0.89
  -2   4  72    6.83    1.06
   2  -5  73    9.49    1.28
   3  -4  73   10.74    1.03
  -2  -3  73   11.66    1.48
   1  -3  73   20.03    1.26
   4  -3  73   14.07    1.31
  -1  -2  73   21.42    1.32
   2  -2  73   28.15    1.32
   5  -2  73    9.24    1.59
  -3  -1  73   12.48    1.11
   0  -1  73   33.34    1.19
   3  -1  73   21.28    1.23
  -2   0  73   27.97    1.40
   1   0  73   32.22    1.34
   4   0  73   11.51    1.74
  -4   1  73   13.71    1.14
  -1   1  73   35.31    1.18
   2   1  73   20.94    1.46
  -3   2  73   22.27    1.38
   0   2  73   25.93    1.78
   3   2  73    9.83    1.18
  -5   3  73    7.78    1.28
  -2   3  73   17.78    1.61
   1   3  73   13.29    1.29
  -4   4  73   14.08    1.60
  -1   4  73   12.70    1.43
  -3   5  73    6.33    1.22
   1  -4  74    0.47    0.39
   4  -4  74    0.35    0.42
  -1  -3  74    0.25    0.44
   2  -3  74    0.56    0.43
  -3  -2  74   -0.30    0.90
   0  -2  74   -0.03    0.22
   3  -2  74    0.90    0.34
  -2  -1  74    0.84    0.39
   1  -1  74    0.48    0.23
   4  -1  74    0.83    0.42
  -4   0  74    0.51    0.59
  -1   0  74    0.59    0.23
   2   0  74    0.32    0.24
  -3   1  74    0.44    0.35
   0   1  74    1.04    0.32
   3   1  74    0.26    0.53
  -5   2  74    0.49    1.01
  -2   2  74    0.16    0.30
   1   2  74    0.09    0.34
  -4   3  74    0.40    0.59
  -1   3  74    0.29    0.34
   2   3  74    0.53    0.52
  -3   4  74    0.56    0.67
   0   4  74   -0.02    0.62
  -2   5  74    0.32    0.74
   2  -4  75    8.61    0.86
   0  -3  75   11.10    0.96
   3  -3  75    6.63    0.93
  -2  -2  75    9.43    0.91
   1  -2  75   11.11    0.90
   4  -2  75    6.22    0.72
  -1  -1  75   11.59    0.94
   2  -1  75   10.71    0.89
  -3   0  75   10.42    0.96
   0   0  75   14.69    0.93
   3   0  75    9.84    1.04
  -2   1  75   12.34    0.94
   1   1  75   12.09    0.90
  -4   2  75    8.46    0.91
  -1   2  75   12.11    0.79
   2   2  75    7.19    0.94
  -3   3  75    8.57    1.17
   0   3  75    6.15    0.92
  -2   4  75    5.80    1.05
   2  -5  76    7.30    1.71
   3  -4  76    9.68    0.98
  -2  -3  76   12.35    2.16
   1  -3  76   17.47    1.20
   4  -3  76    9.97    1.17
  -1  -2  76   15.05    1.15
   2  -2  76   19.97    1.23
  -3  -1  76   11.34    1.06
   0  -1  76   26.54    1.20
   3  -1  76   15.33    1.10
  -2   0  76   19.56    1.23
   1   0  76   26.06    1.23
   4   0  76    6.86    1.44
  -4   1  76   11.80    1.08
  -1   1  76   27.10    1.03
   2   1  76   18.86    1.38
  -3   2  76   15.83    1.19
   0   2  76   21.75    1.63
   3   2  76    5.02    1.29
  -5   3  76    9.79    2.06
  -2   3  76   16.68    1.58
   1   3  76   11.82    1.25
  -4   4  76   12.30    1.52
  -1   4  76   11.15    1.37
  -3   5  76    9.04    2.00
   1  -4  77    0.48    0.39
   4  -4  77    0.54    0.48
  -1  -3  77    0.71    0.51
   2  -3  77    1.68    0.56
  -3  -2  77    2.20    1.33
   0  -2  77    2.47    0.41
   3  -2  77    0.95    0.34
  -2  -1  77    0.72    0.36
   1  -1  77    2.93    0.39
   4  -1  77    0.66    0.46
  -4   0  77   -0.17    0.61
  -1   0  77    1.40    0.37
   2   0  77    2.30    0.36
  -3   1  77    1.67    0.45
   0   1  77    1.75    0.37
   3   1  77    0.18    0.53
  -2   2  77    1.27    0.39
   1   2  77    0.77    0.41
  -4   3  77    0.48    0.63
  -1   3  77    1.53    0.45
   2   3  77    0.26    0.70
  -3   4  77    0.01    0.60
   0   4  77    0.17    0.74
  -2   5  77   -0.43    1.03
   2  -4  78    0.31    0.35
   0  -3  78   -0.04    0.31
   3  -3  78   -0.29    0.33
  -2  -2  78    0.03    0.38
   1  -2  78   -0.15    0.24
   4  -2  78    0.24    0.32
  -1  -1  78    0.16    0.28
   2  -1  78   -0.30    0.23
  -3   0  78   -0.37    0.30
   0   0  78    0.61    0.25
   3   0  78    0.06    0.34
  -2   1  78    0.32    0.28
   1   1  78    0.07    0.25
  -4   2  78    0.34    0.40
  -1   2  78    0.26    0.30
   2   2  78    0.34    0.43
  -3   3  78   -0.11    0.46
   0   3  78    0.17    0.42
  -2   4  78   -0.16    0.58
   3  -4  79   63.79    4.32
   1  -3  79   95.15    3.11
   4  -3  79   63.52    2.98
  -1  -2  79   92.10    3.07
   2  -2  79  109.18    3.32
  -3  -1  79   72.93    2.66
   0  -1  79  140.24    3.82
   3  -1  79   95.25    3.07
  -2   0  79  112.64    3.32
   1   0  79  134.03    3.76
   4   0  79   55.89    3.92
  -4   1  79   69.92    2.60
  -1   1  79  139.25    3.82
   2   1  79   96.95    3.62
  -3   2  79  101.85    3.18
   0   2  79  113.29    4.13
  -2   3  79   96.73    3.98
   1   3  79   66.55    3.02
  -4   4  79   61.94    3.16
  -1   4  79   68.35    3.24
   1  -4  80    1.37    0.63
   4  -4  80    1.07    0.60
  -1  -3  80    0.79    0.56
   2  -3  80    1.42    0.52
   0  -2  80    3.86    0.48
   3  -2  80    1.44    0.42
  -2  -1  80    2.55    0.52
   1  -1  80    3.74    0.44
   4  -1  80    1.00    0.48
  -4   0  80    0.50    0.61
  -1   0  80    4.02    0.54
   2   0  80    4.27    0.71
  -3   1  80    1.27    0.44
   0   1  80    2.99    0.46
   3   1  80    1.72    0.80
  -2   2  80    2.76    0.50
   1   2  80    1.87    0.57
  -4   3  80    1.41    0.70
  -1   3  80    2.14    0.66
  -3   4  80    1.41    0.76
   0   4  80    1.61    0.99
   2  -4  81    0.76    0.49
   0  -3  81    1.08    0.41
   3  -3  81    1.38    0.54
  -2  -2  81    0.99    0.59
   1  -2  81    3.22    0.54
   4  -2  81    0.92    0.48
  -1  -1  81    1.67    0.43
   2  -1  81    1.62    0.46
  -3   0  81    1.25    0.45
   0   0  81    2.76    0.40
   3   0  81    0.94    0.44
  -2   1  81    2.35    0.45
   1   1  81    2.05    0.42
  -4   2  81    0.90    0.48
  -1   2  81    3.19    0.65
   2   2  81    1.67    0.54
  -3   3  81    0.80    0.54
   0   3  81    0.92    0.53
  -2   4  81    1.44    0.71
   3  -4  82   44.11    2.45
   1  -3  82   66.98    2.46
   4  -3  82   42.27    2.36
  -1  -2  82   67.64    2.47
   2  -2  82   83.31    2.73
  -3  -1  82   49.96    2.13
   0  -1  82  103.20    3.00
   3  -1  82   70.20    2.47
  -2   0  82   82.36    2.68
   1   0  82  102.40    2.97
  -4   1  82   45.50    2.11
  -1   1  82  103.17    3.01
   2   1  82   68.05    2.86
  -3   2  82   69.93    2.49
   0   2  82   84.65    3.39
  -2   3  82   70.32    4.38
   1   3  82   49.02    2.47
  -4   4  82   41.77    2.87
  -1   4  82   50.53    4.55
   1  -4  83    0.30    0.48
   4  -4  83    0.08    0.47
  -1  -3  83    0.37    0.65
   2  -3  83    0.28    0.38
   0  -2  83   -0.04    0.22
   3  -2  83   -0.11    0.30
  -2  -1  83   -0.32    0.31
   1  -1  83    0.02    0.22
   4  -1  83   -0.10    0.37
  -4   0  83   -0.05    0.78
  -1   0  83   -0.05    0.21
   2   0  83    0.02    0.35
  -3   1  83    0.34    0.33
   0   1  83   -0.04    0.22
   3   1  83    0.11    0.51
  -2   2  83    0.25    0.31
   1   2  83   -0.25    0.32
  -4   3  83   -0.13    0.59
  -1   3  83    0.80    0.76
  -3   4  83    0.60    0.70
   2  -4  84    1.14    0.61
   0  -3  84    0.98    0.43
   3  -3  84    1.26    0.57
  -2  -2  84    0.84    0.58
   1  -2  84    1.61    0.42
   4  -2  84    0.91    0.53
  -1  -1  84    1.79    0.44
   2  -1  84    1.76    0.47
  -3   0  84    0.83    0.44
   0   0  84    3.13    0.46
   3   0  84    1.67    0.57
  -2   1  84    2.03    0.44
   1   1  84    2.62    0.48
  -4   2  84    1.82    0.55
  -1   2  84    1.88    0.51
   2   2  84    2.63    0.65
  -3   3  84    0.44    0.53
   0   3  84    1.30    0.57
  -2   4  84    2.46    0.85
   3  -4  85    2.65    0.75
   1  -3  85    6.21    0.77
   4  -3  85    2.60    0.71
  -1  -2  85    5.20    0.71
   2  -2  85    6.65    0.77
  -3  -1  85    2.33    0.60
   0  -1  85    9.85    0.80
   3  -1  85    3.08    0.59
  -2   0  85    6.47    0.95
   1   0  85   10.12    0.82
  -4   1  85    2.96    0.64
  -1   1  85    8.59    0.77
   2   1  85    4.26    0.76
  -3   2  85    4.62    0.68
   0   2  85    6.12    0.89
  -2   3  85    4.95    0.95
   1   3  85    2.96    0.74
  -4   4  85    2.33    0.89
  -1   4  85    2.87    1.25
   1  -4  86    3.00    0.80
  -1  -3  86    6.06    1.41
   2  -3  86    3.57    0.77
   0  -2  86    3.51    0.69
   3  -2  86    4.40    0.65
  -2  -1  86    6.13    1.00
   1  -1  86    5.06    0.61
   4  -1  86    2.09    0.63
  -4   0  86    5.29    1.47
  -1   0  86    6.61    0.69
   2   0  86    3.70    0.75
  -3   1  86    4.76    0.69
   0   1  86    5.43    0.62
   3   1  86    4.50    1.18
  -2   2  86    5.05    0.64
   1   2  86    4.33    0.81
  -4   3  86    4.42    0.95
  -1   3  86    3.39    1.19
  -3   4  86    2.74    0.77
   2  -4  87   -0.47    0.43
   0  -3  87   -0.32    0.41
   3  -3  87    0.25    0.44
  -2  -2  87   -0.46    0.48
   1  -2  87    0.38    0.31
   4  -2  87    0.32    0.51
  -1  -1  87   -0.01    0.28
   2  -1  87   -0.03    0.28
  -3   0  87    0.02    0.37
   0   0  87    0.21    0.25
   3   0  87   -0.19    0.37
  -2   1  87    0.06    0.34
   1   1  87    0.31    0.32
  -4   2  87    0.59    0.45
  -1   2  87    0.06    0.37
   2   2  87    0.31    0.45
  -3   3  87    0.03    0.47
   0   3  87    0.31    0.49
  -2   4  87   -0.09    0.62
   3  -4  88    0.24    0.52
   1  -3  88   -0.09    0.33
   4  -3  88    0.18    0.49
  -1  -2  88    0.27    0.38
   2  -2  88    0.01    0.30
  -3  -1  88   -0.20    0.50
   0  -1  88    1.43    0.38
   3  -1  88    0.09    0.42
  -2   0  88    1.00    0.52
   1   0  88    1.14    0.34
  -4   1  88    0.07    0.44
  -1   1  88    1.44    0.36
   2   1  88    0.75    0.50
  -3   2  88    0.13    0.37
   0   2  88   -0.06    0.40
  -2   3  88    0.08    0.59
   1   3  88   -0.47    0.46
  -1   4  88   -0.16    0.96
   1  -4  89    9.74    1.26
  -1  -3  89   11.07    1.94
   2  -3  89   14.05    1.43
   0  -2  89   15.69    1.39
   3  -2  89   13.12    1.11
  -2  -1  89   12.69    1.42
   1  -1  89   15.22    1.08
   4  -1  89   11.50    1.26
  -1   0  89   17.04    1.13
   2   0  89   17.56    1.55
  -3   1  89   13.24    1.12
   0   1  89   16.88    1.08
   3   1  89   10.46    1.76
  -2   2  89   16.70    1.45
   1   2  89   15.29    1.47
  -4   3  89    9.81    1.32
  -1   3  89    9.20    1.78
  -3   4  89   10.19    1.40
   2  -4  90    4.03    0.89
   0  -3  90    2.92    0.72
   3  -3  90    5.62    0.98
  -2  -2  90    4.68    0.99
   1  -2  90    8.59    0.84
   4  -2  90    3.21    0.81
  -1  -1  90    7.77    0.83
   2  -1  90    7.22    0.81
  -3   0  90    5.71    0.80
   0   0  90   10.36    0.83
   3   0  90    6.99    1.00
  -2   1  90    8.06    1.05
   1   1  90    9.68    0.88
  -4   2  90    4.50    0.74
  -1   2  90    7.84    0.97
   2   2  90    5.84    0.97
  -3   3  90    7.06    1.04
   0   3  90    5.64    1.02
  -2   4  90    3.12    1.26
   3  -4  91   -0.20    0.48
   1  -3  91    0.18    0.34
   4  -3  91    1.00    0.61
  -1  -2  91    0.44    0.41
   2  -2  91    0.24    0.33
  -3  -1  91    0.14    0.55
   0  -1  91    0.59    0.31
   3  -1  91   -0.08    0.43
  -2   0  91    1.56    0.59
   1   0  91    0.63    0.31
  -4   1  91    0.54    0.49
  -1   1  91    0.94    0.34
   2   1  91    0.94    0.56
  -3   2  91   -0.08    0.35
   0   2  91    0.84    0.51
  -2   3  91    0.21    0.62
   1   3  91    0.54    0.56
  -1   4  91    1.00    1.03
   1  -4  92    0.79    0.59
  -1  -3  92    0.65    0.83
   2  -3  92    0.96    0.51
   0  -2  92    1.27    0.45
   3  -2  92    1.53    0.50
  -2  -1  92    1.49    0.59
   1  -1  92    2.20    0.45
   4  -1  92    0.99    0.57
  -1   0  92    1.48    0.40
   2   0  92    0.80    0.50
  -3   1  92    0.61    0.42
   0   1  92    0.62    0.31
  -2   2  92    1.41    0.53
   1   2  92    1.28    0.64
  -4   3  92    1.03    0.67
  -1   3  92    1.45    0.95
  -3   4  92    1.09    0.73
   2  -4  93   12.74    1.53
   0  -3  93   19.97    1.77
   3  -3  93   21.15    1.95
  -2  -2  93   14.68    1.65
   1  -2  93   25.82    1.50
   4  -2  93   14.64    1.56
  -1  -1  93   27.84    1.60
   2  -1  93   23.52    1.48
  -3   0  93   20.07    1.90
   0   0  93   32.74    1.40
   3   0  93   19.01    1.72
  -2   1  93   25.73    1.88
   1   1  93   29.68    2.07
  -4   2  93   17.13    1.65
  -1   2  93   25.97    1.85
   2   2  93   16.53    1.60
  -3   3  93   16.38    1.62
   0   3  93   16.82    1.68
  -2   4  93   15.07    2.39
   1  -3  94    0.49    0.38
   4  -3  94   -0.76    0.71
  -1  -2  94    0.47    0.42
   2  -2  94    0.68    0.38
   0  -1  94    0.76    0.32
   3  -1  94    0.07    0.45
  -2   0  94    0.96    0.53
   1   0  94    0.69    0.32
  -4   1  94    0.28    0.55
  -1   1  94    0.29    0.28
   2   1  94    1.09    0.78
  -3   2  94    0.39    0.48
   0   2  94    0.77    0.48
  -2   3  94    0.04    0.68
   1   3  94    0.69    0.93
   1  -4  95    1.08    0.86
  -1  -3  95    0.04    0.71
   2  -3  95    0.09    0.46
   0  -2  95   -0.05    0.37
   3  -2  95   -0.14    0.35
  -2  -1  95    0.14    0.48
   1  -1  95   -0.31    0.26
   4  -1  95   -0.16    0.70
  -1   0  95   -0.16    0.24
   2   0  95   -0.23    0.36
  -3   1  95    0.48    0.51
   0   1  95    0.09    0.26
  -2   2  95   -0.07    0.35
   1   2  95    0.23    0.53
  -4   3  95   -0.01    0.88
  -1   3  95    0.52    0.80
   2  -4  96   81.62    4.90
   0  -3  96  108.32    4.30
   3  -3  96  106.35    4.44
  -2  -2  96   86.17    5.67
   1  -2  96  144.18    4.22
   4  -2  96   82.00    5.24
  -1  -1  96  146.48    4.29
   2  -1  96  147.48    4.28
  -3   0  96   99.49    4.34
   0   0  96  172.92    4.66
   3   0  96   98.94    4.27
  -2   1  96  150.48    5.26
   1   1  96  143.92    5.25
  -4   2  96   83.25    5.02
  -1   2  96  152.11    5.23
   2   2  96   92.59    5.37
  -3   3  96  107.74    5.98
   0   3  96   93.30    5.70
   1  -3  97    0.26    0.37
  -1  -2  97   -0.17    0.38
   2  -2  97    0.31    0.33
   0  -1  97    0.81    0.34
   3  -1  97   -0.08    0.46
  -2   0  97    0.50    0.45
   1   0  97    0.78    0.35
  -1   1  97    0.56    0.33
   2   1  97   -0.13    0.64
  -3   2  97    0.12    0.47
   0   2  97    0.76    0.52
  -2   3  97    0.55    0.73
   2  -3  98    0.83    0.57
   0  -2  98    0.00    0.38
   3  -2  98    0.51    0.42
  -2  -1  98    0.01    0.47
   1  -1  98    0.42    0.38
  -1   0  98    0.04    0.29
   2   0  98    0.62    0.47
  -3   1  98    0.73    0.57
   0   1  98    0.81    0.32
  -2   2  98    0.04    0.37
   1   2  98    0.34    0.53
  -1   3  98    1.44    0.87
   0  -3  99    0.89    0.58
   3  -3  99    1.09    0.67
   1  -2  99    2.31    0.47
   4  -2  99    0.86    0.87
  -1  -1  99    1.53    0.46
   2  -1  99    2.10    0.48
  -3   0  99    3.63    0.89
   0   0  99    3.45    0.52
   3   0  99    2.32    1.07
  -2   1  99    3.37    0.70
   1   1  99    0.99    0.51
  -1   2  99    2.02    0.57
   2   2  99    1.75    1.09
  -3   3  99    1.41    0.96
   0   3  99    1.66    0.71
   1  -3 100    0.08    0.37
  -1  -2 100    0.41    0.42
   2  -2 100    0.64    0.39
   0  -1 100    1.09    0.36
   3  -1 100    0.08    0.49
  -2   0 100    0.51    0.47
   1   0 100    0.39    0.37
  -1   1 100    0.55    0.31
   2   1 100    1.27    0.90
  -3   2 100    0.42    0.50
   0   2 100    0.34    0.42
  -2   3 100   -0.03    0.66
   2  -3 101    0.92    0.59
   0  -2 101    1.00    0.46
   3  -2 101    1.42    0.54
  -2  -1 101    1.23    0.65
   1  -1 101    1.80    0.54
  -1   0 101    1.58    0.43
   2   0 101    1.56    0.55
  -3   1 101    1.50    0.65
   0   1 101    1.88    0.43
  -2   2 101    1.91    0.62
   1   2 101    0.41    0.53
  -1   3 101    1.07    0.94
   0  -3 102    0.46    0.52
   3  -3 102   -0.38    0.52
   1  -2 102    0.17    0.32
  -1  -1 102    0.22    0.36
   2  -1 102   -0.46    0.28
  -3   0 102    0.37    0.61
   0   0 102    1.04    0.35
   3   0 102    0.35    0.73
  -2   1 102    0.00    0.40
   1   1 102   -0.30    0.38
  -1   2 102   -0.31    0.35
  -3   3 102    0.63    0.82
   0   3 102    0.12    0.95
   1  -3 103    9.64    0.99
  -1  -2 103   11.02    1.34
   2  -2 103   14.06    1.16
   0  -1 103   15.10    1.33
   3  -1 103   11.07    1.41
  -2   0 103   14.71    1.54
   1   0 103   12.61    1.26
  -1   1 103   15.44    1.12
   2   1 103   11.33    2.05
  -3   2 103    9.88    1.27
   0   2 103   15.12    1.46
  -2   3 103   10.82    1.83
   2  -3 104    0.57    0.56
   0  -2 104    1.22    0.52
   3  -2 104    0.97    0.49
  -2  -1 104    1.50    0.63
   1  -1 104    1.46    0.52
  -1   0 104    0.79    0.37
   2   0 104    0.96    0.52
  -3   1 104    1.29    0.62
   0   1 104    0.75    0.36
  -2   2 104    1.12    0.56
   1   2 104    0.49    0.62
  -1   3 104    0.04    0.81
   0  -3 105   -0.55    0.74
   1  -2 105    0.53    0.38
  -1  -1 105    0.29    0.36
   2  -1 105    0.24    0.42
   0   0 105    0.96    0.36
  -2   1 105    0.32    0.44
   1   1 105    0.46    0.54
  -1   2 105    1.20    0.56
   1  -3 106    3.01    0.75
  -1  -2 106    3.96    0.84
   2  -2 106    4.72    0.64
   0  -1 106    4.40    0.75
   3  -1 106    6.05    1.04
  -2   0 106    5.03    0.95
   1   0 106    3.16    0.65
  -1   1 106    7.13    0.77
   2   1 106    1.19    0.99
  -3   2 106    1.94    0.70
   0   2 106    3.80    0.79
  -2   3 106    1.85    0.98
   2  -3 107    0.52    0.56
   0  -2 107    1.98    0.59
   3  -2 107    1.67    0.55
  -2  -1 107    0.98    0.69
   1  -1 107    2.47    0.60
  -1   0 107    1.94    0.48
   2   0 107    1.26    0.58
  -3   1 107    1.65    0.69
   0   1 107    1.61    0.43
  -2   2 107    0.97    0.52
   1   2 107    1.47    0.70
  -1   3 107    1.26    1.03
   1  -2 108    0.55    0.45
  -1  -1 108    0.85    0.44
   2  -1 108    0.96    0.50
   0   0 108    0.96    0.34
  -2   1 108    0.31    0.45
   1   1 108    0.61    0.54
  -1   2 108    0.69    0.50
   2  -2 109    0.79    0.41
   0  -1 109    0.73    0.42
   3  -1 109   -0.12    0.78
  -2   0 109   -0.06    0.42
   1   0 109    0.79    0.46
  -1   1 109    0.72    0.39
  -3   2 109    1.18    0.92
   0   2 109    0.79    0.53
   0  -2 110   52.15    2.64
   3  -2 110   45.52    2.47
  -2  -1 110   43.10    3.99
   1  -1 110   62.35    2.85
  -1   0 110   69.95    3.03
   2   0 110   55.00    2.72
   0   1 110   66.89    2.34
  -2   2 110   56.72    2.71
   1  -2 111    0.08    0.39
  -1  -1 111    0.65    0.42
   2  -1 111    0.32    0.43
   0   0 111    0.74    0.34
  -2   1 111    0.22    0.47
   1   1 111   -0.23    0.55
  -1   2 111    0.15    0.46
   2  -2 112    0.77    0.41
   0  -1 112    0.56    0.41
  -2   0 112   -0.10    0.48
   1   0 112    0.54    0.45
  -1   1 112    0.39    0.34
   0   2 112    0.60    0.54
   0  -2 113   48.75    2.49
   1  -1 113   53.67    2.55
  -1   0 113   54.91    2.12
   2   0 113   43.92    2.43
   0   1 113   55.44    2.61
  -2   2 113   46.34    2.45
   1  -2 114   -0.12    0.38
  -1  -1 114    0.04    0.37
   2  -1 114   -0.59    0.37
   0   0 114    0.28    0.30
  -2   1 114    0.01    0.43
   1   1 114    0.19    0.65
  -1   2 114    0.19    0.44
   2  -2 115    0.65    0.69
   0  -1 115    0.08    0.40
  -2   0 115    0.02    0.74
   1   0 115   -0.07    0.39
  -1   1 115    0.22    0.35
   0   2 115    0.73    0.57
   0  -2 116    1.13    0.70
   1  -1 116    0.75    0.47
  -1   0 116    0.95    0.42
   2   0 116    1.14    0.78
   0   1 116    1.97    0.63
  -2   2 116    2.59    1.05
   1  -2 117    0.14    0.66
   2  -1 117   -0.18    0.40
   0   0 117    0.19    0.42
  -2   1 117   -0.29    0.44
  -1   2 117    0.03    0.46
   0  -1 118   -0.19    0.38
   1   0 118    0.05    0.40
  -1   1 118    0.02    0.33
   1  -1 119    3.10    0.69
  -1   0 119    3.05    0.61
   0   1 119    3.22    0.72
   0   0 120    6.48    0.95
   0  -1 121    3.41    0.73
   1   0 121    3.83    1.10
  -1   1 121    4.32    0.67
  -1   0 122    3.48    0.79
   0   1 122    2.43    0.96
   0   0 123   10.10    1.17
   1   0 124    8.16    1.53
  -1   1 124    5.36    1.33
   0   0   0    0.00    0.00
;
_shelx_hkl_checksum              32615
loop_
_space_group_symop_operation_xyz
'x, y, z'
'-y, x-y, z'
'-x+y, -x, z'
'y, x, -z'
'x-y, -y, -z'
'-x, -x+y, -z'
'x+2/3, y+1/3, z+1/3'
'-y+2/3, x-y+1/3, z+1/3'
'-x+y+2/3, -x+1/3, z+1/3'
'y+2/3, x+1/3, -z+1/3'
'x-y+2/3, -y+1/3, -z+1/3'
'-x+2/3, -x+y+1/3, -z+1/3'
'x+1/3, y+2/3, z+2/3'
'-y+1/3, x-y+2/3, z+2/3'
'-x+y+1/3, -x+2/3, z+2/3'
'y+1/3, x+2/3, -z+2/3'
'x-y+1/3, -y+2/3, -z+2/3'
'-x+1/3, -x+y+2/3, -z+2/3'
'-x, -y, -z'
'y, -x+y, -z'
'x-y, x, -z'
'-y, -x, z'
'-x+y, y, z'
'x, x-y, z'
'-x+2/3, -y+1/3, -z+1/3'
'y+2/3, -x+y+1/3, -z+1/3'
'x-y+2/3, x+1/3, -z+1/3'
'-y+2/3, -x+1/3, z+1/3'
'-x+y+2/3, y+1/3, z+1/3'
'x+2/3, x-y+1/3, z+1/3'
'-x+1/3, -y+2/3, -z+2/3'
'y+1/3, -x+y+2/3, -z+2/3'
'x-y+1/3, x+2/3, -z+2/3'
'-y+1/3, -x+2/3, z+2/3'
'-x+y+1/3, y+2/3, z+2/3'
'x+1/3, x-y+2/3, z+2/3'
loop_
_atom_site_label
_atom_site_type_symbol
_atom_site_fract_x
_atom_site_fract_y
_atom_site_fract_z
_atom_site_U_iso_or_equiv
_atom_site_adp_type
_atom_site_occupancy
_atom_site_site_symmetry_order
_atom_site_calc_flag
_atom_site_refinement_flags_posn
_atom_site_refinement_flags_adp
_atom_site_refinement_flags_occupancy
Sm1 Sm 0.0000 0.0000 0.29173(2) 0.00890(11) Uani 1 6 d S T P
Sm2 Sm 0.0000 0.0000 0.41670(2) 0.01036(12) Uani 1 6 d S T P
Sm3 Sm 0.0000 0.0000 0.5000 0.0212(7) Uani 0.332(4) 12 d S T .
Sm4 Sm 0.0000 0.0000 0.0000 0.00878(13) Uani 1 12 d S T P
Zn1 Zn 0.0000 0.0000 0.11598(2) 0.0197(3) Uani 1 6 d S T P
Zn2 Zn 0.0000 0.0000 0.19445(3) 0.0255(4) Uani 0.710(4) 6 d S T P
Mn2 Mn 0.0000 0.0000 0.18086(9) 0.0255(4) Uani 0.290(4) 6 d S T P
As1 As 0.0000 0.0000 0.06290(2) 0.00861(17) Uani 1 6 d S T P
As2 As 0.0000 0.0000 0.14657(2) 0.0157(2) Uani 1 6 d S T P
As3 As 0.0000 0.0000 0.22834(2) 0.01067(19) Uani 1 6 d S T P
As4 As 0.0000 0.0000 0.35430(2) 0.00893(17) Uani 1 6 d S T P
loop_
_atom_site_aniso_label
_atom_site_aniso_U_11
_atom_site_aniso_U_22
_atom_site_aniso_U_33
_atom_site_aniso_U_23
_atom_site_aniso_U_13
_atom_site_aniso_U_12
Sm1 0.00799(14) 0.00799(14) 0.0107(2) 0.000 0.000 0.00400(7)
Sm2 0.00911(14) 0.00911(14) 0.0129(2) 0.000 0.000 0.00455(7)
Sm3 0.0215(9) 0.0215(9) 0.0206(12) 0.000 0.000 0.0107(4)
Sm4 0.00788(18) 0.00788(18) 0.0106(3) 0.000 0.000 0.00394(9)
Zn1 0.0193(4) 0.0193(4) 0.0206(6) 0.000 0.000 0.00965(19)
Zn2 0.0176(5) 0.0176(5) 0.0413(11) 0.000 0.000 0.0088(3)
Mn2 0.0176(5) 0.0176(5) 0.0413(11) 0.000 0.000 0.0088(3)
As1 0.0078(2) 0.0078(2) 0.0102(4) 0.000 0.000 0.00391(12)
As2 0.0143(3) 0.0143(3) 0.0184(5) 0.000 0.000 0.00716(15)
As3 0.0092(3) 0.0092(3) 0.0136(4) 0.000 0.000 0.00461(13)
As4 0.0077(2) 0.0077(2) 0.0113(4) 0.000 0.000 0.00387(12)
loop_
_atom_type_symbol
_atom_type_description
_atom_type_scat_dispersion_real
_atom_type_scat_dispersion_imag
_atom_type_scat_source
Mn Mn 0.3368 0.7283 'International Tables Vol C Tables 4.2.6.8 and 6.1.1.4'
Zn Zn 0.2839 1.4301 'International Tables Vol C Tables 4.2.6.8 and 6.1.1.4'
As As 0.0499 2.0058 'International Tables Vol C Tables 4.2.6.8 and 6.1.1.4'
Sm Sm -0.1638 3.4418 'International Tables Vol C Tables 4.2.6.8 and 6.1.1.4'
loop_
_geom_angle_atom_site_label_1
_geom_angle_atom_site_label_2
_geom_angle_atom_site_label_3
_geom_angle
_geom_angle_site_symmetry_1
_geom_angle_site_symmetry_3
As4 Sm1 As4 90.24(3) 31 31_445
As4 Sm1 As4 90.24(3) 31 31_545
As4 Sm1 As4 90.24(3) 31_445 31_545
As4 Sm1 As1 179.15(3) 31 25_445
As4 Sm1 As1 90.363(18) 31_445 25_445
As4 Sm1 As1 90.363(18) 31_545 25_445
As4 Sm1 As1 90.363(18) 31 25
As4 Sm1 As1 179.15(3) 31_445 25
As4 Sm1 As1 90.363(18) 31_545 25
As1 Sm1 As1 89.03(2) 25_445 25
As4 Sm1 As1 90.363(18) 31 25_455
As4 Sm1 As1 90.363(18) 31_445 25_455
As4 Sm1 As1 179.15(3) 31_545 25_455
As1 Sm1 As1 89.03(3) 25_445 25_455
As1 Sm1 As1 89.03(2) 25 25_455
As1 Sm2 As1 90.57(3) 7_445 7
As1 Sm2 As1 90.57(3) 7_445 7_455
As1 Sm2 As1 90.57(3) 7 7_455
As1 Sm2 As3 178.50(3) 7_445 31
As1 Sm2 As3 90.486(19) 7 31
As1 Sm2 As3 90.486(19) 7_455 31
As1 Sm2 As3 90.486(18) 7_445 31_445
As1 Sm2 As3 178.50(3) 7 31_445
As1 Sm2 As3 90.486(18) 7_455 31_445
As3 Sm2 As3 88.44(3) 31 31_445
As1 Sm2 As3 90.486(19) 7_445 31_545
As1 Sm2 As3 90.486(19) 7 31_545
As1 Sm2 As3 178.50(3) 7_455 31_545
As3 Sm2 As3 88.44(3) 31 31_545
As3 Sm2 As3 88.44(3) 31_445 31_545
As1 Sm2 Zn1 134.372(11) 7_445 7
As1 Sm2 Zn1 82.87(3) 7 7
As1 Sm2 Zn1 134.371(11) 7_455 7
As3 Sm2 Zn1 44.763(11) 31 7
As3 Sm2 Zn1 95.64(3) 31_445 7
As3 Sm2 Zn1 44.764(11) 31_545 7
As1 Sm2 Zn1 82.87(3) 7_445 7_445
As1 Sm2 Zn1 134.372(11) 7 7_445
As1 Sm2 Zn1 134.371(11) 7_455 7_445
As3 Sm2 Zn1 95.64(3) 31 7_445
As3 Sm2 Zn1 44.763(11) 31_445 7_445
As3 Sm2 Zn1 44.764(11) 31_545 7_445
Zn1 Sm2 Zn1 70.82(3) 7 7_445
As1 Sm2 Zn1 134.371(11) 7_445 7_455
As1 Sm2 Zn1 134.371(11) 7 7_455
As1 Sm2 Zn1 82.87(3) 7_455 7_455
As3 Sm2 Zn1 44.764(11) 31 7_455
As3 Sm2 Zn1 44.764(11) 31_445 7_455
As3 Sm2 Zn1 95.64(3) 31_545 7_455
Zn1 Sm2 Zn1 70.82(3) 7 7_455
Zn1 Sm2 Zn1 70.82(3) 7_445 7_455
Mn2 Sm3 Mn2 180.0(3) 31_445 7
Mn2 Sm3 Mn2 102.46(17) 31_445 31
Mn2 Sm3 Mn2 77.54(17) 7 31
Mn2 Sm3 Mn2 77.54(17) 31_445 7_445
Mn2 Sm3 Mn2 102.46(17) 7 7_445
Mn2 Sm3 Mn2 180.0(3) 31 7_445
Mn2 Sm3 Mn2 102.46(17) 31_445 31_545
Mn2 Sm3 Mn2 77.54(17) 7 31_545
Mn2 Sm3 Mn2 102.46(17) 31 31_545
Mn2 Sm3 Mn2 77.54(17) 7_445 31_545
Mn2 Sm3 Mn2 77.54(17) 31_445 7_455
Mn2 Sm3 Mn2 102.46(17) 7 7_455
Mn2 Sm3 Mn2 77.54(17) 31 7_455
Mn2 Sm3 Mn2 102.46(17) 7_445 7_455
Mn2 Sm3 Mn2 180.0(3) 31_545 7_455
Mn2 Sm3 As2 128.12(6) 31_445 31
Mn2 Sm3 As2 51.88(6) 7 31
Mn2 Sm3 As2 60.19(14) 31 31
Mn2 Sm3 As2 119.81(14) 7_445 31
Mn2 Sm3 As2 128.12(6) 31_545 31
Mn2 Sm3 As2 51.88(6) 7_455 31
Mn2 Sm3 As2 51.88(6) 31_445 7_445
Mn2 Sm3 As2 128.12(6) 7 7_445
Mn2 Sm3 As2 119.81(14) 31 7_445
Mn2 Sm3 As2 60.19(14) 7_445 7_445
Mn2 Sm3 As2 51.88(6) 31_545 7_445
Mn2 Sm3 As2 128.12(6) 7_455 7_445
As2 Sm3 As2 180.0 31 7_445
Mn2 Sm3 As2 60.19(14) 31_445 31_445
Mn2 Sm3 As2 119.81(14) 7 31_445
Mn2 Sm3 As2 128.12(6) 31 31_445
Mn2 Sm3 As2 51.88(6) 7_445 31_445
Mn2 Sm3 As2 128.12(6) 31_545 31_445
Mn2 Sm3 As2 51.88(6) 7_455 31_445
As2 Sm3 As2 91.24(3) 31 31_445
As2 Sm3 As2 88.76(3) 7_445 31_445
Mn2 Sm3 As2 119.81(14) 31_445 7
Mn2 Sm3 As2 60.19(14) 7 7
Mn2 Sm3 As2 51.88(6) 31 7
Mn2 Sm3 As2 128.12(6) 7_445 7
Mn2 Sm3 As2 51.88(6) 31_545 7
Mn2 Sm3 As2 128.12(6) 7_455 7
As2 Sm3 As2 88.76(3) 31 7
As2 Sm3 As2 91.24(3) 7_445 7
As2 Sm3 As2 180.00(3) 31_445 7
Mn2 Sm3 As2 128.12(6) 31_445 31_545
Mn2 Sm3 As2 51.88(6) 7 31_545
Mn2 Sm3 As2 128.12(6) 31 31_545
Mn2 Sm3 As2 51.88(6) 7_445 31_545
Mn2 Sm3 As2 60.19(14) 31_545 31_545
Mn2 Sm3 As2 119.81(14) 7_455 31_545
As2 Sm3 As2 91.24(3) 31 31_545
As2 Sm3 As2 88.76(3) 7_445 31_545
As2 Sm3 As2 91.24(3) 31_445 31_545
As2 Sm3 As2 88.76(3) 7 31_545
Mn2 Sm3 As2 51.88(6) 31_445 7_455
Mn2 Sm3 As2 128.12(6) 7 7_455
Mn2 Sm3 As2 51.88(6) 31 7_455
Mn2 Sm3 As2 128.12(6) 7_445 7_455
Mn2 Sm3 As2 119.81(14) 31_545 7_455
Mn2 Sm3 As2 60.19(14) 7_455 7_455
As2 Sm3 As2 88.76(3) 31 7_455
As2 Sm3 As2 91.24(3) 7_445 7_455
As2 Sm3 As2 88.76(3) 31_445 7_455
As2 Sm3 As2 91.24(3) 7 7_455
As2 Sm3 As2 180.00(3) 31_545 7_455
As4 Sm4 As4 180.00(3) 25_445 13_554
As4 Sm4 As4 89.63(2) 25_445 25
As4 Sm4 As4 90.37(2) 13_554 25
As4 Sm4 As4 90.37(2) 25_445 13_444
As4 Sm4 As4 89.63(2) 13_554 13_444
As4 Sm4 As4 180.00(3) 25 13_444
As4 Sm4 As4 90.37(2) 25_445 13_544
As4 Sm4 As4 89.63(2) 13_554 13_544
As4 Sm4 As4 90.37(2) 25 13_544
As4 Sm4 As4 89.63(2) 13_444 13_544
As4 Sm4 As4 89.63(2) 25_445 25_455
As4 Sm4 As4 90.37(2) 13_554 25_455
As4 Sm4 As4 89.63(2) 25 25_455
As4 Sm4 As4 90.37(2) 13_444 25_455
As4 Sm4 As4 180.00(3) 13_544 25_455
As2 Zn1 As3 110.52(3) . 25_445
As2 Zn1 As3 110.52(3) . 25
As3 Zn1 As3 108.40(4) 25_445 25
As2 Zn1 As3 110.52(3) . 25_455
As3 Zn1 As3 108.40(4) 25_445 25_455
As3 Zn1 As3 108.40(4) 25 25_455
As2 Zn1 Zn2 52.05(4) . 25
As3 Zn1 Zn2 125.791(19) 25_445 25
As3 Zn1 Zn2 58.47(4) 25 25
As3 Zn1 Zn2 125.790(19) 25_455 25
As2 Zn1 Zn2 52.05(4) . 25_445
As3 Zn1 Zn2 58.47(4) 25_445 25_445
As3 Zn1 Zn2 125.791(19) 25 25_445
As3 Zn1 Zn2 125.790(19) 25_455 25_445
Zn2 Zn1 Zn2 86.14(6) 25 25_445
As2 Zn1 Zn2 52.05(4) . 25_455
As3 Zn1 Zn2 125.790(19) 25_445 25_455
As3 Zn1 Zn2 125.790(19) 25 25_455
As3 Zn1 Zn2 58.47(4) 25_455 25_455
Zn2 Zn1 Zn2 86.14(6) 25 25_455
Zn2 Zn1 Zn2 86.14(6) 25_445 25_455
As2 Zn1 Sm2 138.005(17) . 13_444
As3 Zn1 Sm2 54.98(2) 25_445 13_444
As3 Zn1 Sm2 111.48(5) 25 13_444
As3 Zn1 Sm2 54.98(2) 25_455 13_444
Zn2 Zn1 Sm2 169.95(5) 25 13_444
Zn2 Zn1 Sm2 101.15(3) 25_445 13_444
Zn2 Zn1 Sm2 101.15(3) 25_455 13_444
As2 Zn1 Sm2 138.005(17) . 13_554
As3 Zn1 Sm2 111.48(5) 25_445 13_554
As3 Zn1 Sm2 54.98(2) 25 13_554
As3 Zn1 Sm2 54.98(2) 25_455 13_554
Zn2 Zn1 Sm2 101.15(3) 25 13_554
Zn2 Zn1 Sm2 169.95(5) 25_445 13_554
Zn2 Zn1 Sm2 101.15(3) 25_455 13_554
Sm2 Zn1 Sm2 70.82(3) 13_444 13_554
As2 Zn1 Sm2 138.005(17) . 13_544
As3 Zn1 Sm2 54.98(2) 25_445 13_544
As3 Zn1 Sm2 54.98(2) 25 13_544
As3 Zn1 Sm2 111.48(5) 25_455 13_544
Zn2 Zn1 Sm2 101.15(3) 25 13_544
Zn2 Zn1 Sm2 101.15(3) 25_445 13_544
Zn2 Zn1 Sm2 169.95(5) 25_455 13_544
Sm2 Zn1 Sm2 70.82(3) 13_444 13_544
Sm2 Zn1 Sm2 70.82(3) 13_554 13_544
Mn2 Zn2 As2 75.34(6) . 25_445
Mn2 Zn2 As2 75.34(6) . 25
As2 Zn2 As2 113.82(5) 25_445 25
Mn2 Zn2 As2 75.34(6) . 25_455
As2 Zn2 As2 113.82(5) 25_445 25_455
As2 Zn2 As2 113.82(5) 25 25_455
Mn2 Zn2 As3 180.0 . .
As2 Zn2 As3 104.66(6) 25_445 .
As2 Zn2 As3 104.66(6) 25 .
As2 Zn2 As3 104.66(6) 25_455 .
Mn2 Zn2 Zn1 127.95(4) . 25
As2 Zn2 Zn1 122.49(4) 25_445 25
As2 Zn2 Zn1 52.61(4) 25 25
As2 Zn2 Zn1 122.49(4) 25_455 25
As3 Zn2 Zn1 52.05(4) . 25
Mn2 Zn2 Zn1 127.95(4) . 25_445
As2 Zn2 Zn1 52.61(4) 25_445 25_445
As2 Zn2 Zn1 122.49(4) 25 25_445
As2 Zn2 Zn1 122.49(4) 25_455 25_445
As3 Zn2 Zn1 52.05(4) . 25_445
Zn1 Zn2 Zn1 86.14(6) 25 25_445
Mn2 Zn2 Zn1 127.95(4) . 25_455
As2 Zn2 Zn1 122.49(4) 25_445 25_455
As2 Zn2 Zn1 122.49(4) 25 25_455
As2 Zn2 Zn1 52.61(4) 25_455 25_455
As3 Zn2 Zn1 52.05(4) . 25_455
Zn1 Zn2 Zn1 86.14(6) 25 25_455
Zn1 Zn2 Zn1 86.14(6) 25_445 25_455
Mn2 Zn2 Sm3 46.58(3) . 13_444
As2 Zn2 Sm3 58.31(3) 25_445 13_444
As2 Zn2 Sm3 121.92(8) 25 13_444
As2 Zn2 Sm3 58.31(3) 25_455 13_444
As3 Zn2 Sm3 133.42(3) . 13_444
Zn1 Zn2 Sm3 174.53(6) 25 13_444
Zn1 Zn2 Sm3 97.83(2) 25_445 13_444
Zn1 Zn2 Sm3 97.83(2) 25_455 13_444
Mn2 Zn2 Sm3 46.58(3) . 13_554
As2 Zn2 Sm3 121.92(8) 25_445 13_554
As2 Zn2 Sm3 58.31(3) 25 13_554
As2 Zn2 Sm3 58.31(3) 25_455 13_554
As3 Zn2 Sm3 133.42(3) . 13_554
Zn1 Zn2 Sm3 97.83(2) 25 13_554
Zn1 Zn2 Sm3 174.53(6) 25_445 13_554
Zn1 Zn2 Sm3 97.83(2) 25_455 13_554
Sm3 Zn2 Sm3 77.96(4) 13_444 13_554
Mn2 Zn2 Sm3 46.58(3) . 13_544
As2 Zn2 Sm3 58.31(3) 25_445 13_544
As2 Zn2 Sm3 58.31(3) 25 13_544
As2 Zn2 Sm3 121.92(8) 25_455 13_544
As3 Zn2 Sm3 133.42(3) . 13_544
Zn1 Zn2 Sm3 97.83(2) 25 13_544
Zn1 Zn2 Sm3 97.83(2) 25_445 13_544
Zn1 Zn2 Sm3 174.53(6) 25_455 13_544
Sm3 Zn2 Sm3 77.96(4) 13_444 13_544
Sm3 Zn2 Sm3 77.96(4) 13_554 13_544
Zn2 Mn2 As2 78.63(17) . 25
Zn2 Mn2 As2 78.63(17) . 25_445
As2 Mn2 As2 116.21(11) 25 25_445
Zn2 Mn2 As2 78.63(17) . 25_455
As2 Mn2 As2 116.21(11) 25 25_455
As2 Mn2 As2 116.21(11) 25_445 25_455
Zn2 Mn2 Sm3 115.80(14) . 13_444
As2 Mn2 Sm3 165.6(3) 25 13_444
As2 Mn2 Sm3 69.18(4) 25_445 13_444
As2 Mn2 Sm3 69.18(4) 25_455 13_444
Zn2 Mn2 Sm3 115.80(14) . 13_554
As2 Mn2 Sm3 69.18(4) 25 13_554
As2 Mn2 Sm3 165.6(3) 25_445 13_554
As2 Mn2 Sm3 69.18(4) 25_455 13_554
Sm3 Mn2 Sm3 102.47(17) 13_444 13_554
Zn2 Mn2 Sm3 115.80(14) . 13_544
As2 Mn2 Sm3 69.18(4) 25 13_544
As2 Mn2 Sm3 69.18(4) 25_445 13_544
As2 Mn2 Sm3 165.6(3) 25_455 13_544
Sm3 Mn2 Sm3 102.46(17) 13_444 13_544
Sm3 Mn2 Sm3 102.46(17) 13_554 13_544
Zn2 Mn2 As2 180.0 . .
As2 Mn2 As2 101.37(17) 25 .
As2 Mn2 As2 101.37(17) 25_445 .
As2 Mn2 As2 101.37(17) 25_455 .
Sm3 Mn2 As2 64.20(14) 13_444 .
Sm3 Mn2 As2 64.20(14) 13_554 .
Sm3 Mn2 As2 64.20(14) 13_544 .
Sm2 As1 Sm2 90.57(3) 13_554 13_444
Sm2 As1 Sm2 90.57(3) 13_554 13_544
Sm2 As1 Sm2 90.57(3) 13_444 13_544
Sm2 As1 Sm1 178.92(3) 13_554 25_445
Sm2 As1 Sm1 90.191(14) 13_444 25_445
Sm2 As1 Sm1 90.192(14) 13_544 25_445
Sm2 As1 Sm1 90.191(14) 13_554 25
Sm2 As1 Sm1 178.92(3) 13_444 25
Sm2 As1 Sm1 90.192(14) 13_544 25
Sm1 As1 Sm1 89.04(3) 25_445 25
Sm2 As1 Sm1 90.192(14) 13_554 25_455
Sm2 As1 Sm1 90.192(14) 13_444 25_455
Sm2 As1 Sm1 178.92(3) 13_544 25_455
Sm1 As1 Sm1 89.04(3) 25_445 25_455
Sm1 As1 Sm1 89.04(3) 25 25_455
Mn2 As2 Mn2 116.21(11) 25 25_445
Mn2 As2 Mn2 116.21(11) 25 25_455
Mn2 As2 Mn2 116.21(11) 25_445 25_455
Mn2 As2 Zn2 121.61(3) 25 25_445
Mn2 As2 Zn2 26.03(17) 25_445 25_445
Mn2 As2 Zn2 121.61(3) 25_455 25_445
Mn2 As2 Zn2 26.03(17) 25 25
Mn2 As2 Zn2 121.61(3) 25_445 25
Mn2 As2 Zn2 121.61(3) 25_455 25
Zn2 As2 Zn2 113.83(4) 25_445 25
Mn2 As2 Zn2 121.61(3) 25 25_455
Mn2 As2 Zn2 121.61(3) 25_445 25_455
Mn2 As2 Zn2 26.03(17) 25_455 25_455
Zn2 As2 Zn2 113.83(4) 25_445 25_455
Zn2 As2 Zn2 113.83(4) 25 25_455
Mn2 As2 Zn1 101.38(17) 25 .
Mn2 As2 Zn1 101.38(17) 25_445 .
Mn2 As2 Zn1 101.38(17) 25_455 .
Zn2 As2 Zn1 75.34(6) 25_445 .
Zn2 As2 Zn1 75.34(6) 25 .
Zn2 As2 Zn1 75.34(6) 25_455 .
Mn2 As2 Mn2 78.62(17) 25 .
Mn2 As2 Mn2 78.62(17) 25_445 .
Mn2 As2 Mn2 78.62(17) 25_455 .
Zn2 As2 Mn2 104.66(6) 25_445 .
Zn2 As2 Mn2 104.66(6) 25 .
Zn2 As2 Mn2 104.66(6) 25_455 .
Zn1 As2 Mn2 180.0 . .
Mn2 As2 Sm3 58.94(9) 25 13_554
Mn2 As2 Sm3 134.24(17) 25_445 13_554
Mn2 As2 Sm3 58.94(9) 25_455 13_554
Zn2 As2 Sm3 160.27(7) 25_445 13_554
Zn2 As2 Sm3 75.15(4) 25 13_554
Zn2 As2 Sm3 75.15(4) 25_455 13_554
Zn1 As2 Sm3 124.389(19) . 13_554
Mn2 As2 Sm3 55.611(19) . 13_554
Mn2 As2 Sm3 134.24(17) 25 13_444
Mn2 As2 Sm3 58.94(9) 25_445 13_444
Mn2 As2 Sm3 58.94(9) 25_455 13_444
Zn2 As2 Sm3 75.15(4) 25_445 13_444
Zn2 As2 Sm3 160.27(7) 25 13_444
Zn2 As2 Sm3 75.15(4) 25_455 13_444
Zn1 As2 Sm3 124.389(19) . 13_444
Mn2 As2 Sm3 55.611(19) . 13_444
Sm3 As2 Sm3 91.23(3) 13_554 13_444
Mn2 As2 Sm3 58.94(9) 25 13_544
Mn2 As2 Sm3 58.94(9) 25_445 13_544
Mn2 As2 Sm3 134.24(17) 25_455 13_544
Zn2 As2 Sm3 75.15(4) 25_445 13_544
Zn2 As2 Sm3 75.15(4) 25 13_544
Zn2 As2 Sm3 160.27(7) 25_455 13_544
Zn1 As2 Sm3 124.388(19) . 13_544
Mn2 As2 Sm3 55.612(19) . 13_544
Sm3 As2 Sm3 91.23(3) 13_554 13_544
Sm3 As2 Sm3 91.23(3) 13_444 13_544
Zn1 As3 Zn1 108.40(4) 25_445 25
Zn1 As3 Zn1 108.40(4) 25_445 25_455
Zn1 As3 Zn1 108.40(4) 25 25_455
Zn1 As3 Zn2 69.48(3) 25_445 .
Zn1 As3 Zn2 69.48(3) 25 .
Zn1 As3 Zn2 69.48(3) 25_455 .
Zn1 As3 Sm2 164.15(4) 25_445 31
Zn1 As3 Sm2 80.26(2) 25 31
Zn1 As3 Sm2 80.26(2) 25_455 31
Zn2 As3 Sm2 126.368(18) . 31
Zn1 As3 Sm2 80.26(2) 25_445 31_445
Zn1 As3 Sm2 164.15(4) 25 31_445
Zn1 As3 Sm2 80.26(2) 25_455 31_445
Zn2 As3 Sm2 126.368(18) . 31_445
Sm2 As3 Sm2 88.43(3) 31 31_445
Zn1 As3 Sm2 80.26(2) 25_445 31_545
Zn1 As3 Sm2 80.26(2) 25 31_545
Zn1 As3 Sm2 164.15(4) 25_455 31_545
Zn2 As3 Sm2 126.367(18) . 31_545
Sm2 As3 Sm2 88.43(3) 31 31_545
Sm2 As3 Sm2 88.43(3) 31_445 31_545
Sm1 As4 Sm1 90.24(3) 31 31_445
Sm1 As4 Sm1 90.24(3) 31 31_545
Sm1 As4 Sm1 90.24(3) 31_445 31_545
Sm1 As4 Sm4 179.57(3) 31 7_445
Sm1 As4 Sm4 90.065(12) 31_445 7_445
Sm1 As4 Sm4 90.066(12) 31_545 7_445
Sm1 As4 Sm4 90.065(12) 31 7
Sm1 As4 Sm4 179.57(3) 31_445 7
Sm1 As4 Sm4 90.066(12) 31_545 7
Sm4 As4 Sm4 89.63(2) 7_445 7
Sm1 As4 Sm4 90.066(12) 31 7_455
Sm1 As4 Sm4 90.066(12) 31_445 7_455
Sm1 As4 Sm4 179.57(3) 31_545 7_455
Sm4 As4 Sm4 89.63(2) 7_445 7_455
Sm4 As4 Sm4 89.63(2) 7 7_455
loop_
_geom_bond_atom_site_label_1
_geom_bond_atom_site_label_2
_geom_bond_distance
_geom_bond_site_symmetry_2
Sm1 As4 2.9420(8) 31
Sm1 As4 2.9419(8) 31_445
Sm1 As4 2.9420(8) 31_545
Sm1 As1 2.9732(7) 25_445
Sm1 As1 2.9732(7) 25
Sm1 As1 2.9732(7) 25_455
Sm2 As1 2.9335(7) 7_445
Sm2 As1 2.9335(8) 7
Sm2 As1 2.9335(7) 7_455
Sm2 As3 2.9889(8) 31
Sm2 As3 2.9889(8) 31_445
Sm2 As3 2.9890(8) 31_545
Sm2 Zn1 3.5976(11) 7
Sm2 Zn1 3.5976(11) 7_445
Sm2 Zn1 3.5976(11) 7_455
Sm3 Mn2 2.674(3) 31_445
Sm3 Mn2 2.674(3) 7
Sm3 Mn2 2.674(3) 31
Sm3 Mn2 2.674(3) 7_445
Sm3 Mn2 2.674(3) 31_545
Sm3 Mn2 2.674(3) 7_455
Sm3 As2 2.9167(8) 31
Sm3 As2 2.9167(8) 7_445
Sm3 As2 2.9167(8) 31_445
Sm3 As2 2.9167(8) 7
Sm3 As2 2.9167(8) 31_545
Sm3 As2 2.9167(8) 7_455
Sm4 As4 2.9575(7) 25_445
Sm4 As4 2.9575(7) 13_554
Sm4 As4 2.9575(7) 25
Sm4 As4 2.9575(7) 13_444
Sm4 As4 2.9575(7) 13_544
Sm4 As4 2.9575(7) 25_455
Zn1 As2 2.5070(18) .
Zn1 As3 2.5701(8) 25_445
Zn1 As3 2.5701(8) 25
Zn1 As3 2.5701(8) 25_455
Zn1 Zn2 3.0527(17) 25
Zn1 Zn2 3.0527(17) 25_445
Zn1 Zn2 3.0527(17) 25_455
Zn1 Sm2 3.5976(11) 13_444
Zn1 Sm2 3.5976(11) 13_554
Zn1 Sm2 3.5976(12) 13_544
Zn2 Mn2 1.114(7) .
Zn2 As2 2.4880(8) 25_445
Zn2 As2 2.4880(8) 25
Zn2 As2 2.4881(8) 25_455
Zn2 As3 2.778(3) .
Zn2 Zn1 3.0525(17) 25
Zn2 Zn1 3.0525(17) 25_445
Zn2 Zn1 3.0525(17) 25_455
Zn2 Sm3 3.3138(16) 13_444
Zn2 Sm3 3.3138(16) 13_554
Zn2 Sm3 3.3138(16) 13_544
Mn2 As2 2.4552(16) 25
Mn2 As2 2.4552(16) 25_445
Mn2 As2 2.4552(16) 25_455
Mn2 Sm3 2.674(3) 13_444
Mn2 Sm3 2.674(3) 13_554
Mn2 Sm3 2.674(3) 13_544
Mn2 As2 2.811(7) .
As1 Sm2 2.9335(7) 13_554
As1 Sm2 2.9335(7) 13_444
As1 Sm2 2.9335(7) 13_544
As1 Sm1 2.9730(8) 25_445
As1 Sm1 2.9730(8) 25
As1 Sm1 2.9731(8) 25_455
As2 Mn2 2.4553(16) 25
As2 Mn2 2.4553(16) 25_445
As2 Mn2 2.4553(16) 25_455
As2 Zn2 2.4880(8) 25_445
As2 Zn2 2.4880(8) 25
As2 Zn2 2.4880(8) 25_455
As2 Sm3 2.9168(8) 13_554
As2 Sm3 2.9168(8) 13_444
As2 Sm3 2.9168(8) 13_544
As3 Zn1 2.5701(8) 25_445
As3 Zn1 2.5701(8) 25
As3 Zn1 2.5701(8) 25_455
As3 Sm2 2.9892(8) 31
As3 Sm2 2.9892(8) 31_445
As3 Sm2 2.9893(8) 31_545
As4 Sm1 2.9418(8) 31
As4 Sm1 2.9418(8) 31_445
As4 Sm1 2.9419(8) 31_545
As4 Sm4 2.9576(7) 7_445
As4 Sm4 2.9576(7) 7
As4 Sm4 2.9576(7) 7_455
