#------------------------------------------------------------------------------
#$Date: 2016-02-13 21:28:24 +0200 (Sat, 13 Feb 2016) $
#$Revision: 176429 $
#$URL: svn://www.crystallography.net/cod/cif/7/03/70/7037019.cif $
#------------------------------------------------------------------------------
#
# This file is available in the Crystallography Open Database (COD),
# http://www.crystallography.net/
#
# All data on this site have been placed in the public domain by the
# contributors.
#
data_7037019
loop_
_publ_author_name
'Lin, Xinsong'
'Tabassum, Danisa'
'Mar, Arthur'
_publ_section_title
;
 Narrowing the gap: from semiconductor to semimetal in the homologous
 series of rare-earth zinc arsenides RE2-yZn4As4&#x00B7;n(REAs) and
 Mn-substituted derivatives RE2-yMnxZn4-xAs4&#x00B7;n(REAs) (RE = La-Nd,
 Sm, Gd).
;
_journal_issue                   46
_journal_name_full
'Dalton transactions (Cambridge, England : 2003)'
_journal_page_first              20254
_journal_page_last               20264
_journal_paper_doi               10.1039/c5dt03596a
_journal_volume                  44
_journal_year                    2015
_chemical_formula_structural     'Sm4.40 Zn4 As7'
_chemical_formula_sum            'As7 Sm4.4 Zn4'
_chemical_formula_weight         1447.46
_chemical_name_common            'samarium zinc arsenide (4.4/4/7)'
_chemical_name_systematic        'samarium zinc arsenide (4.4/4/7)'
_space_group_crystal_system      trigonal
_space_group_IT_number           164
_space_group_name_Hall           '-P 3 2"'
_space_group_name_H-M_alt        'P -3 m 1'
_symmetry_space_group_name_Hall  '-P 3 2"'
_symmetry_space_group_name_H-M   'P -3 m 1'
_atom_sites_solution_primary     direct
_atom_sites_solution_secondary   difmap
_audit_creation_method           SHELXL-2013
_cell_angle_alpha                90
_cell_angle_beta                 90
_cell_angle_gamma                120
_cell_formula_units_Z            1
_cell_length_a                   4.1703(6)
_cell_length_b                   4.1703(6)
_cell_length_c                   23.981(3)
_cell_measurement_reflns_used    2690
_cell_measurement_temperature    296(2)
_cell_measurement_theta_max      32.77
_cell_measurement_theta_min      5.10
_cell_volume                     361.19(9)
_computing_cell_refinement       'Bruker SAINT 7.68A (Bruker, 2009)'
_computing_data_collection       'Bruker APEX 2 (Bruker, 2008)'
_computing_data_reduction        'Bruker SAINT 7.68A'
_computing_molecular_graphics    'ATOMS 5.1 (Dowty, 1999)'
_computing_publication_material  'Bruker SHELXTL'
_computing_structure_refinement  'Bruker SHELXTL'
_computing_structure_solution    'Bruker SHELXTL'
_diffrn_ambient_temperature      296(2)
_diffrn_measured_fraction_theta_full 0.997
_diffrn_measured_fraction_theta_max 0.986
_diffrn_measurement_device_type  'Bruker PLATFORM/SMART APEX II CCD'
_diffrn_measurement_method       '\w and \f scans'
_diffrn_radiation_type           MoK\a
_diffrn_radiation_wavelength     0.71073
_diffrn_reflns_av_R_equivalents  0.0418
_diffrn_reflns_av_unetI/netI     0.0208
_diffrn_reflns_Laue_measured_fraction_full 0.997
_diffrn_reflns_Laue_measured_fraction_max 0.986
_diffrn_reflns_limit_h_max       6
_diffrn_reflns_limit_h_min       -6
_diffrn_reflns_limit_k_max       6
_diffrn_reflns_limit_k_min       -6
_diffrn_reflns_limit_l_max       36
_diffrn_reflns_limit_l_min       -36
_diffrn_reflns_number            5171
_diffrn_reflns_point_group_measured_fraction_full 0.997
_diffrn_reflns_point_group_measured_fraction_max 0.986
_diffrn_reflns_theta_full        25.242
_diffrn_reflns_theta_max         33.220
_diffrn_reflns_theta_min         1.698
_diffrn_source                   'fine-focus sealed tube'
_exptl_absorpt_coefficient_mu    39.962
_exptl_absorpt_correction_T_max  0.4526
_exptl_absorpt_correction_T_min  0.2066
_exptl_absorpt_correction_type   numerical
_exptl_absorpt_process_details   'Bruker SHELXTL (Sheldrick, 2013)'
_exptl_crystal_colour            black
_exptl_crystal_density_diffrn    6.654
_exptl_crystal_density_method    'not measured'
_exptl_crystal_description       irregular
_exptl_crystal_F_000             624
_exptl_crystal_size_max          0.063
_exptl_crystal_size_mid          0.055
_exptl_crystal_size_min          0.022
_refine_diff_density_max         4.072
_refine_diff_density_min         -3.341
_refine_diff_density_rms         0.361
_refine_ls_extinction_coef       0.0012(3)
_refine_ls_extinction_expression Fc^*^=kFc[1+0.001xFc^2^\l^3^/sin(2\q)]^-1/4^
_refine_ls_extinction_method     SHELXL
_refine_ls_goodness_of_fit_ref   1.106
_refine_ls_hydrogen_treatment    undef
_refine_ls_matrix_type           full
_refine_ls_number_parameters     30
_refine_ls_number_reflns         631
_refine_ls_number_restraints     0
_refine_ls_restrained_S_all      1.106
_refine_ls_R_factor_all          0.0359
_refine_ls_R_factor_gt           0.0281
_refine_ls_shift/su_max          0.000
_refine_ls_shift/su_mean         0.000
_refine_ls_structure_factor_coef Fsqd
_refine_ls_weighting_details
'w=1/[\s^2^(Fo^2^)+(0.0261P)^2^+3.5809P] where P=(Fo^2^+2Fc^2^)/3'
_refine_ls_weighting_scheme      calc
_refine_ls_wR_factor_gt          0.0634
_refine_ls_wR_factor_ref         0.0668
_reflns_Friedel_coverage         0.000
_reflns_number_gt                544
_reflns_number_total             631
_reflns_threshold_expression     'I > 2\s(I)'
_cod_data_source_file            c5dt03596a7.cif
_cod_data_source_block           Sm5-xZn4As7
_cod_depositor_comments
'Adding full bibliography for 7037017--7037025.cif.'
_cod_original_cell_volume        361.19(12)
_cod_original_formula_sum        'As7 Sm4.40 Zn4'
_cod_database_code               7037019
#BEGIN Tags that were not found in dictionaries:
_shelx_space_group_comment
;
The symmetry employed for this shelxl refinement is uniquely defined
by the following loop, which should always be used as a source of
symmetry information in preference to the above space-group names.
They are only intended as comments.
;
_shelx_estimated_absorpt_t_min   0.187
_shelx_estimated_absorpt_t_max   0.473
_shelxl_version_number           2013-4
_shelx_res_file
;
TITL Sm4.4Zn4As4 P-3m1 lsf final refinement
CELL 0.71073   4.17030   4.17030  23.98150  90.0000  90.0000 120.0000
ZERR    1.00   0.00060   0.00060   0.00330   0.0000   0.0000   0.0000
LATT  1
SYMM -Y, X-Y, Z
SYMM -X+Y, -X, Z
SYMM Y, X, -Z
SYMM X-Y, -Y, -Z
SYMM -X, -X+Y, -Z
SFAC ZN AS SM
UNIT 4 7 4.4
TEMP 23
SIZE 0.022 0.055 0.063

L.S. 4
ACTA

EADP ZN1A ZN1B
WGHT    0.026100    3.580900
EXTI    0.001192
FVAR       0.06913   0.80378
SM1   3    0.333333    0.666667    0.071073    10.16667    0.00786    0.00786 =
         0.00973    0.00000    0.00000    0.00393
SM2   3    0.000000    0.000000    0.213751    10.16667    0.00832    0.00832 =
         0.01164    0.00000    0.00000    0.00416
SM3   3    0.000000    0.000000    0.500000     0.03210    0.01272    0.01272 =
         0.01264    0.00000    0.00000    0.00636
ZN1A  1    0.333333    0.666667    0.405661    20.16667    0.01881    0.01881 =
         0.05628    0.00000    0.00000    0.00941
ZN1B  1    0.333333    0.666667    0.455065   -20.16667    0.01881    0.01881 =
         0.05628    0.00000    0.00000    0.00941
ZN2   1    0.333333    0.666667    0.675206    10.16667    0.01824    0.01824 =
         0.01847    0.00000    0.00000    0.00912
AS1   2    0.333333    0.666667    0.287372    10.16667    0.00891    0.00891 =
         0.01252    0.00000    0.00000    0.00445
AS2   2    0.333333    0.666667    0.570835    10.16667    0.01242    0.01242 =
         0.01554    0.00000    0.00000    0.00621
AS3   2    0.333333    0.666667    0.856464    10.16667    0.00737    0.00737 =
         0.01025    0.00000    0.00000    0.00368
AS4   2    0.000000    0.000000    0.000000    10.08333    0.00776    0.00776 =
         0.00917    0.00000    0.00000    0.00388
HKLF 4

REM  Sm4.4Zn4As4 P-3m1 lsf final refinement
REM R1 =  0.0281 for     544 Fo > 4sig(Fo)  and  0.0359 for all     631 data
REM     30 parameters refined using      0 restraints

END

WGHT      0.0261      3.5808

REM Highest difference peak  4.072,  deepest hole -3.341,  1-sigma level  0.361
Q1    1   0.0000  0.0000  0.1840  10.16667  0.05    4.07
Q2    1   0.3333  0.6667  0.0419  10.16667  0.05    3.55
Q3    1   0.3333  0.6667  0.1030  10.16667  0.05    2.97
Q4    1   0.0000  0.0000  0.2462  10.16667  0.05    2.91
Q5    1   0.3333  0.6667  0.8916  10.16667  0.05    2.11
Q6    1   0.0000  0.0000  0.1525  10.16667  0.05    2.07
Q7    1   0.3333  0.6667  0.8226  10.16667  0.05    2.04
Q8    1   0.3333  0.6667  0.3163  10.16667  0.05    1.89
Q9    1   0.3831  0.7662  0.4319  10.50000  0.05    1.84
Q10   1   0.3333  0.6667  0.3531  10.16667  0.05    1.63
Q11   1   0.3333  0.6667  0.0073  10.16667  0.05    1.60
Q12   1   0.3333  0.6667  0.6086  10.16667  0.05    1.56
Q13   1   0.3333  0.6667  0.2076  10.16667  0.05    1.50
Q14   1   0.3333  0.6667  0.2520  10.16667  0.05    1.46
Q15   1   0.3333  0.6667  0.6462  10.16667  0.05    1.30
Q16   1   0.3333  0.6667  0.7041  10.16667  0.05    1.22
Q17   1   0.4293  0.8586  0.3387  10.50000  0.05    1.22
Q18   1   0.3333  0.6667  0.7393  10.16667  0.05    1.16
Q19   1   0.3989  0.7978  0.5133  10.50000  0.05    1.11
Q20   1   0.4382  0.8765  0.3734  10.50000  0.05    1.03
;
_shelx_res_checksum              58172
_shelx_hkl_file
;
  -1   0 -36    5.21    1.29
   0   0 -36   13.32    1.79
   1   0 -36    1.69    0.92
   0   1 -36    6.05    1.37
   0  -1 -35    5.35    1.25
   1  -1 -35    4.04    1.15
  -1   0 -35    4.58    0.85
   0   0 -35    3.59    0.77
   1   0 -35    4.36    0.86
  -2   1 -35    4.96    1.33
  -1   1 -35    4.69    0.81
   0   1 -35    4.08    0.84
   0  -1 -34    6.16    1.30
   1  -1 -34    0.14    0.80
  -1   0 -34   -0.06    0.48
   0   0 -34    0.31    0.51
   1   0 -34    6.40    0.93
   2   0 -34    0.06    0.88
  -2   1 -34   -0.09    0.48
  -1   1 -34    6.73    0.94
   0   1 -34    0.30    0.57
   1   1 -34    0.68    0.64
  -2   2 -34    1.04    0.93
   0  -2 -33   -0.60    0.70
   1  -2 -33    0.00    0.70
   2  -2 -33   43.61    3.18
  -1  -1 -33   -0.46    0.79
   0  -1 -33   47.84    3.17
   1  -1 -33   -0.19    0.72
   2  -1 -33   -0.71    0.73
  -2   0 -33   38.77    2.22
  -1   0 -33    0.26    0.53
   0   0 -33   -0.07    0.45
   1   0 -33   47.37    2.28
   2   0 -33   -0.12    0.63
  -2   1 -33   -0.12    0.54
  -1   1 -33   47.66    2.24
   0   1 -33   -0.50    0.45
   1   1 -33   -0.29    0.57
  -2   2 -33    0.41    0.56
  -1   2 -33    0.33    0.54
   0   2 -33   45.54    3.26
  -1  -2 -32   43.32    3.04
   0  -2 -32    0.57    0.57
   1  -2 -32    0.33    0.51
   2  -2 -32   50.24    3.42
  -1  -1 -32    1.96    1.01
   0  -1 -32   56.50    3.48
   1  -1 -32   -0.26    0.67
   2  -1 -32    0.74    0.92
  -2   0 -32   46.37    2.41
  -1   0 -32    0.81    0.55
   0   0 -32    1.71    0.56
   1   0 -32   59.25    2.55
   2   0 -32   -0.75    0.61
  -2   1 -32    0.19    0.56
  -1   1 -32   55.51    2.06
   0   1 -32    1.10    0.55
   1   1 -32    1.24    0.70
   2   1 -32   42.09    3.40
  -2   2 -32    0.66    0.57
  -1   2 -32    0.78    0.55
   0   2 -32   46.18    3.41
  -1   3 -32    2.02    1.15
   1  -3 -31    1.94    0.66
   2  -3 -31    3.57    0.78
  -1  -2 -31    1.80    0.73
   0  -2 -31    5.15    0.80
   1  -2 -31    1.10    0.57
   2  -2 -31    3.39    0.73
   3  -2 -31    4.21    1.42
  -2  -1 -31    4.16    0.99
  -1  -1 -31    1.01    0.58
   0  -1 -31    3.63    0.99
   1  -1 -31    3.93    1.05
   2  -1 -31    1.54    0.94
   3  -1 -31    0.97    1.11
  -2   0 -31    1.97    0.74
  -1   0 -31    6.17    0.90
   0   0 -31    0.41    0.47
   1   0 -31    3.59    0.73
   2   0 -31    4.47    0.92
   3   0 -31    0.59    1.02
  -3   1 -31    4.11    0.98
  -2   1 -31    0.04    0.52
  -1   1 -31    3.94    0.61
   0   1 -31    4.76    0.79
   1   1 -31    0.20    0.60
   2   1 -31    2.07    0.87
  -3   2 -31    0.88    0.62
  -2   2 -31    5.22    0.89
  -1   2 -31    0.21    0.49
   0   2 -31    2.35    1.01
   1   2 -31    4.54    1.38
  -2   3 -31    0.69    0.61
  -1   3 -31    2.69    1.19
   0  -3 -30   -0.37    0.56
   1  -3 -30    0.70    0.56
   2  -3 -30    8.39    1.08
   3  -3 -30    0.10    0.70
  -1  -2 -30   -0.19    0.61
   0  -2 -30   10.17    1.07
   1  -2 -30    0.04    0.47
   2  -2 -30   -0.58    0.48
   3  -2 -30    8.34    1.17
  -2  -1 -30   11.35    1.35
  -1  -1 -30   -0.51    0.46
   0  -1 -30    0.50    0.45
   1  -1 -30   13.29    1.70
   2  -1 -30    0.35    0.80
   3  -1 -30   -0.05    1.02
  -3   0 -30   -0.68    0.90
  -2   0 -30    0.19    0.57
  -1   0 -30   12.76    1.23
   0   0 -30    0.26    0.44
   1   0 -30    0.01    0.45
   2   0 -30   11.04    1.27
   3   0 -30    0.01    0.99
  -3   1 -30    9.29    1.31
  -2   1 -30    0.62    0.58
  -1   1 -30   -0.10    0.35
   0   1 -30   14.71    1.27
   1   1 -30   -0.57    0.48
   2   1 -30   -0.42    0.65
  -3   2 -30   -0.17    0.46
  -2   2 -30    9.36    0.91
  -1   2 -30    0.34    0.47
   0   2 -30    0.37    0.72
   1   2 -30    8.18    1.71
  -2   3 -30    0.52    0.59
  -1   3 -30    8.43    1.19
   0  -3 -29    1.98    0.69
   1  -3 -29    0.37    0.52
   2  -3 -29    0.03    0.55
   3  -3 -29    3.49    0.88
  -1  -2 -29   -0.25    0.56
   0  -2 -29    0.18    0.49
   1  -2 -29    1.89    0.60
   2  -2 -29    0.43    0.54
   3  -2 -29    0.35    0.63
  -2  -1 -29    0.78    0.68
  -1  -1 -29    1.26    0.57
   0  -1 -29    0.77    0.46
   1  -1 -29    1.71    0.77
   2  -1 -29    4.42    1.25
   3  -1 -29   -0.34    0.94
  -3   0 -29    1.81    0.85
  -2   0 -29   -0.23    0.55
  -1   0 -29    0.26    0.45
   0   0 -29    4.81    0.72
   1   0 -29    0.95    0.50
   2   0 -29    0.38    0.58
   3   0 -29    1.72    0.81
  -3   1 -29    0.29    0.66
  -2   1 -29    3.37    0.73
  -1   1 -29    0.91    0.39
   0   1 -29    0.55    0.46
   1   1 -29    3.45    0.75
   2   1 -29    0.53    0.66
  -3   2 -29    0.40    0.62
  -2   2 -29    0.53    0.42
  -1   2 -29    2.81    0.68
   0   2 -29    0.28    0.54
   1   2 -29    0.02    0.79
  -3   3 -29    1.55    0.70
  -2   3 -29   -0.06    0.51
  -1   3 -29    0.36    0.56
   0   3 -29    1.76    0.80
  -1  -3 -28    0.20    0.97
   0  -3 -28   95.98    5.09
   1  -3 -28   -0.22    0.48
   2  -3 -28   -0.36    0.50
   3  -3 -28  102.74    3.90
  -2  -2 -28   76.41    4.83
  -1  -2 -28    0.22    0.57
   0  -2 -28    0.53    0.48
   1  -2 -28  143.47    4.66
   2  -2 -28    0.26    0.47
   3  -2 -28    0.02    0.57
   4  -2 -28   77.80    4.60
  -2  -1 -28    0.64    0.54
  -1  -1 -28  141.57    3.87
   0  -1 -28   -0.02    0.31
   1  -1 -28    0.40    0.35
   2  -1 -28  142.21    7.01
   3  -1 -28    0.04    0.87
  -3   0 -28   95.33    4.02
  -2   0 -28   -0.14    0.52
  -1   0 -28    0.16    0.43
   0   0 -28  176.89    5.49
   1   0 -28    0.04    0.45
   2   0 -28    0.03    0.51
   3   0 -28   95.77    3.85
  -3   1 -28    0.07    0.65
  -2   1 -28  139.61    4.90
  -1   1 -28    0.36    0.36
   0   1 -28   -0.03    0.34
   1   1 -28  147.12    4.98
   2   1 -28    0.33    0.64
  -4   2 -28   69.71    4.84
  -3   2 -28    0.40    0.60
  -2   2 -28    0.54    0.42
  -1   2 -28  142.11    4.79
   0   2 -28   -0.37    0.44
   1   2 -28    0.07    0.82
  -3   3 -28   99.85    5.47
  -2   3 -28    0.09    0.50
  -1   3 -28    0.28    0.55
   0   3 -28   88.55    4.02
  -2   4 -28   85.01    5.03
   2  -4 -27    4.91    1.25
  -1  -3 -27   -0.19    0.97
   0  -3 -27    8.05    1.03
   1  -3 -27    1.13    0.57
   2  -3 -27   -0.09    0.47
   3  -3 -27   10.05    1.22
   4  -3 -27    1.20    0.75
  -2  -2 -27    6.27    1.14
  -1  -2 -27    1.22    0.65
   0  -2 -27    1.34    0.53
   1  -2 -27   17.00    1.27
   2  -2 -27    1.02    0.54
   3  -2 -27    0.72    0.59
   4  -2 -27    7.58    1.13
  -3  -1 -27    1.02    0.74
  -2  -1 -27   -0.38    0.48
  -1  -1 -27   15.59    1.09
   0  -1 -27    1.56    0.39
   1  -1 -27    0.47    0.36
   2  -1 -27   15.12    1.27
   3  -1 -27    1.89    0.98
  -3   0 -27    8.78    1.18
  -2   0 -27    1.30    0.64
  -1   0 -27    0.51    0.43
   0   0 -27   15.42    1.21
   1   0 -27    2.28    0.60
   2   0 -27   -0.25    0.50
   3   0 -27    9.29    1.17
  -3   1 -27   -0.44    0.58
  -2   1 -27   12.47    1.26
  -1   1 -27    1.45    0.42
   0   1 -27    0.56    0.35
   1   1 -27   15.46    1.42
   2   1 -27    0.78    0.65
   3   1 -27    0.24    0.69
  -4   2 -27    9.11    1.32
  -3   2 -27    1.01    0.60
  -2   2 -27    0.20    0.36
  -1   2 -27   14.01    1.22
   0   2 -27    1.61    0.63
   1   2 -27   -0.51    0.69
   2   2 -27    8.24    1.73
  -3   3 -27    9.31    1.15
  -2   3 -27    2.02    0.66
  -1   3 -27    0.25    0.55
   0   3 -27    9.41    1.26
  -3   4 -27    0.28    0.90
  -2   4 -27    8.13    1.22
  -1   4 -27    1.02    0.80
   1  -4 -26   -0.48    0.69
   2  -4 -26    2.64    1.04
   3  -4 -26    6.52    1.41
  -1  -3 -26   -0.46    0.64
   0  -3 -26    2.02    0.66
   1  -3 -26    8.02    0.97
   2  -3 -26   -0.09    0.48
   3  -3 -26    2.76    0.79
   4  -3 -26    5.70    0.97
  -2  -2 -26    2.32    0.87
  -1  -2 -26    8.66    1.08
   0  -2 -26    0.30    0.46
   1  -2 -26    3.25    0.64
   2  -2 -26   11.43    1.10
   3  -2 -26   -0.22    0.52
   4  -2 -26    0.63    0.68
  -3  -1 -26    6.66    0.86
  -2  -1 -26    0.17    0.47
  -1  -1 -26    4.39    0.62
   0  -1 -26   14.59    0.92
   1  -1 -26    0.58    0.34
   2  -1 -26    2.78    0.51
   3  -1 -26    9.21    1.12
   4  -1 -26    0.55    0.93
  -3   0 -26    1.81    0.68
  -2   0 -26   11.92    1.28
  -1   0 -26    0.51    0.45
   0   0 -26    4.51    0.54
   1   0 -26   13.32    1.25
   2   0 -26    0.01    0.49
   3   0 -26    0.84    0.60
  -4   1 -26    6.51    1.07
  -3   1 -26    0.53    0.59
  -2   1 -26    3.83    0.76
  -1   1 -26   13.58    0.97
   0   1 -26    0.92    0.37
   1   1 -26    3.81    0.75
   2   1 -26    9.54    1.15
   3   1 -26    0.12    0.61
  -4   2 -26    1.18    0.72
  -3   2 -26    8.90    1.15
  -2   2 -26    0.41    0.38
  -1   2 -26    2.99    0.54
   0   2 -26    9.24    1.12
   1   2 -26   -0.48    0.74
   2   2 -26    0.01    0.81
  -4   3 -26   -0.10    0.56
  -3   3 -26    1.70    0.65
  -2   3 -26    7.18    1.02
  -1   3 -26   -0.22    0.52
   0   3 -26    1.49    0.70
   1   3 -26    4.46    1.42
  -3   4 -26    0.53    0.62
  -2   4 -26    1.18    0.75
  -1   4 -26    6.91    1.09
   1  -4 -25    1.19    0.85
   2  -4 -25   -0.03    0.79
   3  -4 -25    0.88    0.87
   4  -4 -25    0.40    1.07
  -1  -3 -25    1.58    0.72
   0  -3 -25    0.44    0.50
   1  -3 -25    1.76    0.60
   2  -3 -25    2.90    0.70
   3  -3 -25    0.96    0.64
   4  -3 -25    2.56    0.65
  -2  -2 -25    0.89    0.71
  -1  -2 -25    3.01    0.76
   0  -2 -25    2.17    0.56
   1  -2 -25    1.26    0.49
   2  -2 -25    4.04    0.70
   3  -2 -25    2.17    0.67
   4  -2 -25    0.62    0.65
  -3  -1 -25    2.27    0.63
  -2  -1 -25    3.00    0.61
  -1  -1 -25    0.99    0.44
   0  -1 -25    3.61    0.50
   1  -1 -25    3.86    0.49
   2  -1 -25    0.34    0.36
   3  -1 -25    3.37    0.75
   4  -1 -25    1.71    1.01
  -3   0 -25    1.09    0.63
  -2   0 -25    3.30    0.76
  -1   0 -25    3.79    0.68
   0   0 -25    1.07    0.45
   1   0 -25    4.49    0.73
   2   0 -25    2.80    0.68
   3   0 -25    0.77    0.54
   4   0 -25    1.25    0.99
  -4   1 -25    2.24    0.72
  -3   1 -25    2.08    0.69
  -2   1 -25    0.85    0.53
  -1   1 -25    4.59    0.58
   0   1 -25    5.46    0.60
   1   1 -25    1.53    0.57
   2   1 -25    3.79    0.77
   3   1 -25    1.79    0.70
  -4   2 -25    0.10    0.61
  -3   2 -25    3.07    0.76
  -2   2 -25    3.06    0.55
  -1   2 -25    0.80    0.42
   0   2 -25    2.82    0.55
   1   2 -25    0.07    0.71
   2   2 -25    0.88    0.87
  -4   3 -25    0.24    0.61
  -3   3 -25    0.62    0.54
  -2   3 -25    3.74    0.70
  -1   3 -25    1.91    0.70
   0   3 -25    0.41    0.56
   1   3 -25    2.28    1.14
  -4   4 -25    2.56    1.20
  -3   4 -25    1.96    0.77
  -2   4 -25    0.45    0.64
  -1   4 -25    1.19    0.62
   0   4 -25    0.58    1.11
   1  -4 -24   49.47    3.24
   2  -4 -24    2.92    1.04
   3  -4 -24    0.29    0.81
   4  -4 -24   41.43    3.29
  -1  -3 -24   49.17    2.47
   0  -3 -24    3.75    0.77
   1  -3 -24   -0.56    0.40
   2  -3 -24   70.86    2.75
   3  -3 -24    3.88    0.64
   4  -3 -24   -0.06    0.47
  -2  -2 -24    2.06    0.81
  -1  -2 -24   -0.37    0.49
   0  -2 -24   81.71    3.01
   1  -2 -24    6.52    0.81
   2  -2 -24   -0.11    0.42
   3  -2 -24   67.83    2.26
   4  -2 -24    2.13    0.72
  -3  -1 -24   -0.48    0.40
  -2  -1 -24   65.32    2.27
  -1  -1 -24    6.08    0.72
   0  -1 -24    0.21    0.29
   1  -1 -24  106.51    2.91
   2  -1 -24    4.33    0.59
   3  -1 -24    0.05    0.48
   4  -1 -24   49.73    2.37
  -4   0 -24   39.34    3.03
  -3   0 -24    4.56    0.79
  -2   0 -24   -0.40    0.34
  -1   0 -24   99.49    3.70
   0   0 -24    7.21    0.83
   1   0 -24    0.37    0.44
   2   0 -24   75.81    3.09
   3   0 -24    4.05    0.77
   4   0 -24    0.69    0.61
  -4   1 -24    0.40    0.56
  -3   1 -24   66.12    2.86
  -2   1 -24    5.07    0.87
  -1   1 -24    0.08    0.37
   0   1 -24  107.71    3.07
   1   1 -24    6.52    0.89
   2   1 -24    0.56    0.51
   3   1 -24   51.26    2.36
  -4   2 -24    3.26    0.81
  -3   2 -24    0.00    0.49
  -2   2 -24   82.16    2.62
  -1   2 -24    6.44    0.68
   0   2 -24    0.18    0.37
   1   2 -24   63.97    4.13
   2   2 -24    2.93    1.06
  -4   3 -24   37.70    3.24
  -3   3 -24    4.49    0.85
  -2   3 -24    0.76    0.51
  -1   3 -24   67.91    3.07
   0   3 -24    2.44    0.76
   1   3 -24    0.30    0.62
  -4   4 -24    0.58    0.69
  -3   4 -24   49.31    3.47
  -2   4 -24    2.04    0.75
  -1   4 -24    0.30    0.52
   0   4 -24   40.81    2.46
   3  -5 -23   32.01    3.29
   0  -4 -23    0.54    0.86
   1  -4 -23   44.00    3.05
   2  -4 -23    1.36    0.86
   3  -4 -23    1.75    0.65
   4  -4 -23   38.52    3.14
  -1  -3 -23   43.37    2.34
   0  -3 -23    1.03    0.58
   1  -3 -23    2.47    0.62
   2  -3 -23   59.75    2.55
   3  -3 -23    1.65    0.52
   4  -3 -23    1.82    0.57
  -2  -2 -23    0.62    0.63
  -1  -2 -23    2.52    0.73
   0  -2 -23   76.00    2.91
   1  -2 -23    2.01    0.53
   2  -2 -23    4.12    0.71
   3  -2 -23   62.07    2.12
   4  -2 -23    0.50    0.58
  -3  -1 -23    1.24    0.64
  -2  -1 -23   62.02    2.13
  -1  -1 -23    1.64    0.47
   0  -1 -23    5.82    0.58
   1  -1 -23  100.06    2.73
   2  -1 -23    2.14    0.46
   3  -1 -23    3.64    0.52
   4  -1 -23   43.99    2.19
  -4   0 -23   39.34    1.66
  -3   0 -23    0.56    0.40
  -2   0 -23    3.52    0.54
  -1   0 -23   92.62    2.76
   0   0 -23    3.11    0.43
   1   0 -23    6.01    0.81
   2   0 -23   77.24    2.98
   3   0 -23    1.14    0.51
   4   0 -23    1.44    0.62
  -4   1 -23    1.36    0.60
  -3   1 -23   59.44    2.63
  -2   1 -23    2.29    0.62
  -1   1 -23    5.17    0.73
   0   1 -23  101.14    2.89
   1   1 -23    2.25    0.56
   2   1 -23    3.01    0.65
   3   1 -23   44.32    2.17
  -4   2 -23    0.32    0.55
  -3   2 -23    1.71    0.60
  -2   2 -23   77.94    2.52
  -1   2 -23    2.43    0.48
   0   2 -23    2.97    0.53
   1   2 -23   61.40    2.77
   2   2 -23    0.45    0.74
  -4   3 -23   42.14    2.40
  -3   3 -23    0.49    0.52
  -2   3 -23    3.24    0.73
  -1   3 -23   61.44    2.88
   0   3 -23    1.08    0.60
   1   3 -23    1.62    0.69
  -4   4 -23    0.40    0.69
  -3   4 -23   47.20    3.35
  -2   4 -23    0.63    0.67
  -1   4 -23    1.46    0.57
   0   4 -23   37.52    2.31
   3  -5 -22    8.94    1.84
   0  -4 -22    0.16    0.91
   1  -4 -22   11.06    1.73
   2  -4 -22    6.50    0.95
   3  -4 -22   -0.11    0.49
   4  -4 -22   11.33    1.35
  -1  -3 -22   11.80    1.33
   0  -3 -22    4.56    0.79
   1  -3 -22   -0.13    0.41
   2  -3 -22   19.94    1.20
   3  -3 -22    7.43    0.78
   4  -3 -22   -0.13    0.44
  -2  -2 -22    4.41    0.83
  -1  -2 -22    0.07    0.49
   0  -2 -22   24.60    1.40
   1  -2 -22    8.55    0.88
   2  -2 -22   -0.05    0.31
   3  -2 -22   19.90    1.14
   4  -2 -22    5.58    0.90
  -3  -1 -22    0.37    0.51
  -2  -1 -22   18.65    1.09
  -1  -1 -22    7.60    0.74
   0  -1 -22    0.29    0.27
   1  -1 -22   33.53    1.26
   2  -1 -22    7.46    0.69
   3  -1 -22    0.52    0.37
   4  -1 -22   10.90    1.15
  -4   0 -22   10.97    1.13
  -3   0 -22    5.99    0.67
  -2   0 -22    0.25    0.32
  -1   0 -22   32.99    1.30
   0   0 -22    9.93    0.71
   1   0 -22    0.47    0.33
   2   0 -22   23.30    1.12
   3   0 -22    5.03    0.74
   4   0 -22   -0.13    0.45
  -4   1 -22    0.11    0.46
  -3   1 -22   19.45    1.49
  -2   1 -22    7.49    0.95
  -1   1 -22    1.04    0.45
   0   1 -22   34.89    1.36
   1   1 -22    7.47    0.71
   2   1 -22    0.91    0.46
   3   1 -22   13.49    1.22
  -5   2 -22    8.42    1.55
  -4   2 -22    3.67    0.77
  -3   2 -22    0.30    0.52
  -2   2 -22   26.58    1.25
  -1   2 -22    7.68    0.73
   0   2 -22    0.51    0.36
   1   2 -22   19.48    1.54
   2   2 -22    6.23    1.33
  -4   3 -22   10.20    1.28
  -3   3 -22    3.49    0.77
  -2   3 -22   -0.25    0.41
  -1   3 -22   17.08    1.50
   0   3 -22    6.68    0.97
   1   3 -22    0.31    0.55
  -4   4 -22   -0.46    0.56
  -3   4 -22   11.12    1.29
  -2   4 -22    3.84    0.83
  -1   4 -22   -0.07    0.45
   0   4 -22   10.28    1.33
  -2   5 -22    7.61    1.54
   2  -5 -21    2.86    0.82
   3  -5 -21   12.84    2.13
   0  -4 -21    4.89    1.30
   1  -4 -21   12.95    1.79
   2  -4 -21    4.10    0.79
   3  -4 -21    3.41    0.76
   4  -4 -21   12.49    1.44
  -1  -3 -21   13.17    1.34
   0  -3 -21    2.84    0.68
   1  -3 -21    7.01    0.86
   2  -3 -21   22.49    1.19
   3  -3 -21    3.66    0.59
   4  -3 -21    3.83    0.63
   5  -3 -21    7.64    1.08
  -3  -2 -21    8.42    1.11
  -2  -2 -21    2.81    0.73
  -1  -2 -21    7.68    0.74
   0  -2 -21   29.31    1.52
   1  -2 -21    3.16    0.59
   2  -2 -21    8.38    0.73
   3  -2 -21   21.87    1.14
   4  -2 -21    3.02    0.72
   5  -2 -21    2.74    0.79
  -3  -1 -21    3.27    0.71
  -2  -1 -21   20.40    1.11
  -1  -1 -21    3.96    0.56
   0  -1 -21    9.78    0.72
   1  -1 -21   37.27    1.35
   2  -1 -21    4.01    0.51
   3  -1 -21    6.69    0.64
   4  -1 -21   13.64    1.22
  -4   0 -21    9.78    1.08
  -3   0 -21    2.55    0.59
  -2   0 -21    6.81    0.65
  -1   0 -21   36.18    1.40
   0   0 -21    5.01    0.50
   1   0 -21    9.39    0.73
   2   0 -21   27.36    1.14
   3   0 -21    4.70    0.57
   4   0 -21    2.84    0.66
  -4   1 -21    3.64    0.72
  -3   1 -21   22.30    1.53
  -2   1 -21    3.58    0.67
  -1   1 -21    7.71    0.85
   0   1 -21   41.59    1.48
   1   1 -21    3.75    0.53
   2   1 -21    8.63    0.92
   3   1 -21   14.22    1.22
  -5   2 -21   10.22    1.17
  -4   2 -21    2.62    0.66
  -3   2 -21    4.99    0.80
  -2   2 -21   28.33    1.29
  -1   2 -21    3.98    0.55
   0   2 -21    9.25    0.79
   1   2 -21   22.71    1.14
   2   2 -21    1.77    0.84
  -5   3 -21    4.14    1.37
  -4   3 -21   11.06    1.26
  -3   3 -21    4.01    0.76
  -2   3 -21    3.57    0.79
  -1   3 -21   18.89    1.63
   0   3 -21    2.71    0.67
   1   3 -21    3.84    0.73
   2   3 -21   10.67    1.74
  -4   4 -21    3.02    0.82
  -3   4 -21   10.55    1.32
  -2   4 -21    2.82    0.77
  -1   4 -21    4.19    0.66
   0   4 -21   10.36    1.28
  -3   5 -21    2.75    1.40
  -2   5 -21    9.61    1.55
   2  -5 -20   10.99    1.32
   3  -5 -20   -0.07    0.63
   0  -4 -20   15.72    2.07
   1  -4 -20    0.66    0.54
   2  -4 -20    4.86    0.83
   3  -4 -20   17.16    1.51
   4  -4 -20    0.19    0.60
  -2  -3 -20    9.78    1.77
  -1  -3 -20    0.08    0.57
   0  -3 -20    5.87    0.85
   1  -3 -20   25.47    1.15
   2  -3 -20    0.27    0.35
   3  -3 -20    7.53    0.75
   4  -3 -20   15.62    1.12
   5  -3 -20   -0.64    0.56
  -3  -2 -20    0.01    0.60
  -2  -2 -20    6.71    0.91
  -1  -2 -20   24.76    1.20
   0  -2 -20    0.59    0.45
   1  -2 -20   11.98    0.81
   2  -2 -20   32.49    1.29
   3  -2 -20    0.52    0.36
   4  -2 -20    5.82    0.84
   5  -2 -20   10.32    1.18
  -3  -1 -20   12.71    1.21
  -2  -1 -20    0.93    0.45
  -1  -1 -20   11.54    0.84
   0  -1 -20   46.12    1.49
   1  -1 -20    1.17    0.33
   2  -1 -20   12.49    0.71
   3  -1 -20   25.48    1.10
   4  -1 -20    0.04    0.34
   5  -1 -20    3.25    1.29
  -4   0 -20   -0.04    0.44
  -3   0 -20    7.65    0.87
  -2   0 -20   32.51    1.25
  -1   0 -20    0.65    0.34
   0   0 -20   16.38    0.84
   1   0 -20   41.24    1.28
   2   0 -20    0.62    0.32
   3   0 -20    6.78    0.66
   4   0 -20   12.88    1.18
  -4   1 -20   17.97    1.36
  -3   1 -20    0.47    0.39
  -2   1 -20   10.68    1.03
  -1   1 -20   44.40    1.89
   0   1 -20    0.94    0.34
   1   1 -20    9.67    0.76
   2   1 -20   26.03    1.45
   3   1 -20   -0.01    0.39
   4   1 -20    3.36    1.04
  -5   2 -20    0.69    0.55
  -4   2 -20    5.74    0.83
  -3   2 -20   24.62    1.54
  -2   2 -20    0.54    0.36
  -1   2 -20   12.32    0.88
   0   2 -20   29.76    1.29
   1   2 -20    0.25    0.30
   2   2 -20    5.82    1.20
   3   2 -20   12.50    1.79
  -5   3 -20    9.27    1.82
  -4   3 -20    0.63    0.56
  -3   3 -20    6.63    0.97
  -2   3 -20   25.60    1.64
  -1   3 -20    0.39    0.45
   0   3 -20    7.31    0.71
   1   3 -20   15.98    1.42
   2   3 -20    0.49    0.72
  -4   4 -20    9.48    1.27
  -3   4 -20   -0.13    0.53
  -2   4 -20    4.11    0.83
  -1   4 -20   12.90    1.04
   0   4 -20    0.15    0.54
   1   4 -20    2.00    1.20
  -3   5 -20    9.97    1.20
  -2   5 -20    0.14    0.59
   1  -5 -19    0.20    0.64
   2  -5 -19   30.32    1.92
   3  -5 -19    4.16    0.95
   4  -5 -19   -0.18    0.92
   0  -4 -19   32.38    3.05
   1  -4 -19    7.65    0.99
   2  -4 -19    1.22    0.53
   3  -4 -19   35.11    1.89
   4  -4 -19    6.09    1.07
   5  -4 -19    0.26    1.12
  -2  -3 -19   19.91    2.54
  -1  -3 -19    5.42    0.94
   0  -3 -19    0.81    0.50
   1  -3 -19   44.91    1.61
   2  -3 -19   10.88    0.83
   3  -3 -19    0.41    0.36
   4  -3 -19   32.24    1.44
   5  -3 -19    3.17    0.65
  -3  -2 -19    2.71    0.76
  -2  -2 -19    0.90    0.50
  -1  -2 -19   38.85    1.96
   0  -2 -19   14.36    0.93
   1  -2 -19    0.77    0.31
   2  -2 -19   52.15    1.73
   3  -2 -19   11.20    0.86
   4  -2 -19    0.59    0.46
   5  -2 -19   24.95    1.63
  -4  -1 -19    0.75    0.85
  -3  -1 -19   30.11    1.64
  -2  -1 -19   10.36    0.97
  -1  -1 -19    1.21    0.36
   0  -1 -19   65.09    1.91
   1  -1 -19   20.07    0.77
   2  -1 -19    0.74    0.27
   3  -1 -19   44.88    1.52
   4  -1 -19    6.95    0.67
   5  -1 -19    0.16    1.07
  -4   0 -19    4.17    0.73
  -3   0 -19    0.52    0.39
  -2   0 -19   51.64    1.68
  -1   0 -19   18.85    1.01
   0   0 -19    1.26    0.30
   1   0 -19   59.90    1.63
   2   0 -19   15.29    0.88
   3   0 -19    0.52    0.31
   4   0 -19   27.65    1.27
  -4   1 -19   33.87    2.30
  -3   1 -19    9.90    0.95
  -2   1 -19    0.55    0.37
  -1   1 -19   64.96    2.44
   0   1 -19   18.87    1.03
   1   1 -19    0.73    0.29
   2   1 -19   44.93    1.87
   3   1 -19    5.29    0.74
   4   1 -19    0.69    0.52
  -5   2 -19    3.41    0.77
  -4   2 -19    0.75    0.46
  -3   2 -19   40.87    1.95
  -2   2 -19   14.06    1.00
  -1   2 -19    0.89    0.35
   0   2 -19   53.07    1.78
   1   2 -19   10.65    0.78
   2   2 -19    0.31    0.50
   3   2 -19   26.08    2.26
  -5   3 -19   17.66    2.42
  -4   3 -19    3.65    0.88
  -3   3 -19    0.10    0.42
  -2   3 -19   43.25    2.18
  -1   3 -19   10.07    1.10
   0   3 -19    0.44    0.33
   1   3 -19   34.09    1.82
   2   3 -19    4.71    1.14
  -5   4 -19   -0.56    1.02
  -4   4 -19   23.67    1.94
  -3   4 -19    4.12    0.86
  -2   4 -19    0.60    0.54
  -1   4 -19   32.35    1.44
   0   4 -19    4.59    0.78
   1   4 -19    0.06    0.57
  -4   5 -19   -0.13    0.97
  -3   5 -19   26.70    2.52
  -2   5 -19    3.57    0.82
   1  -5 -18    2.22    0.81
   2  -5 -18   72.15    3.08
   3  -5 -18    5.54    1.02
   4  -5 -18    1.44    0.76
  -1  -4 -18    3.37    1.40
   0  -4 -18   85.99    3.34
   1  -4 -18   10.70    1.15
   2  -4 -18    3.82    0.77
   3  -4 -18   97.00    3.82
   4  -4 -18    6.88    1.06
   5  -4 -18    2.53    0.85
  -2  -3 -18   66.77    4.24
  -1  -3 -18    8.00    1.05
   0  -3 -18    5.01    0.62
   1  -3 -18  163.66    4.19
   2  -3 -18   19.06    1.06
   3  -3 -18    5.73    0.65
   4  -3 -18  105.94    3.04
   5  -3 -18    6.36    0.78
  -3  -2 -18    6.34    0.95
  -2  -2 -18    4.08    0.70
  -1  -2 -18  156.63    5.10
   0  -2 -18   25.46    0.92
   1  -2 -18   10.15    0.73
   2  -2 -18  204.71    5.14
   3  -2 -18   17.66    1.00
   4  -2 -18    4.31    0.68
   5  -2 -18   68.35    2.80
  -4  -1 -18    2.80    0.70
  -3  -1 -18   97.66    3.52
  -2  -1 -18   19.66    1.23
  -1  -1 -18    9.12    0.71
   0  -1 -18  267.05    6.29
   1  -1 -18   35.45    1.05
   2  -1 -18   10.07    0.62
   3  -1 -18  160.38    4.03
   4  -1 -18   10.61    0.79
   5  -1 -18    3.32    0.78
  -4   0 -18    7.94    0.92
  -3   0 -18    5.88    0.71
  -2   0 -18  208.54    5.03
  -1   0 -18   34.74    1.26
   0   0 -18   15.66    0.80
   1   0 -18  262.84    6.27
   2   0 -18   24.97    0.99
   3   0 -18    5.03    0.53
   4   0 -18   82.29    2.49
  -5   1 -18    2.27    0.91
  -4   1 -18  104.00    3.43
  -3   1 -18   19.62    0.91
  -2   1 -18    8.65    0.64
  -1   1 -18  260.57    7.86
   0   1 -18   31.85    1.29
   1   1 -18   10.12    0.70
   2   1 -18  164.20    4.98
   3   1 -18   11.43    1.01
   4   1 -18    2.67    0.65
  -5   2 -18    7.15    0.94
  -4   2 -18    3.56    0.60
  -3   2 -18  152.39    5.11
  -2   2 -18   21.65    1.43
  -1   2 -18   10.09    0.77
   0   2 -18  204.77    5.25
   1   2 -18   16.71    0.93
   2   2 -18    3.67    0.65
   3   2 -18   69.59    4.04
  -5   3 -18   62.57    4.27
  -4   3 -18    8.66    1.61
  -3   3 -18    5.26    0.85
  -2   3 -18  158.60    5.54
  -1   3 -18   15.71    1.36
   0   3 -18    5.95    0.61
   1   3 -18  103.97    3.81
   2   3 -18    4.60    0.85
  -5   4 -18    3.08    1.39
  -4   4 -18   79.57    3.52
  -3   4 -18    9.04    1.18
  -2   4 -18    3.30    0.56
  -1   4 -18   99.27    3.01
   0   4 -18    9.08    1.10
   1   4 -18    2.01    0.71
  -4   5 -18    2.21    0.75
  -3   5 -18   66.57    3.90
  -2   5 -18    5.24    0.89
  -1   5 -18    2.18    0.75
   1  -5 -17    2.87    0.85
   2  -5 -17    1.27    0.69
   3  -5 -17    2.68    0.81
   4  -5 -17    2.26    0.86
  -1  -4 -17    2.55    1.27
   0  -4 -17    1.02    0.54
   1  -4 -17    2.54    0.66
   2  -4 -17    5.75    0.88
   3  -4 -17    3.37    0.82
   4  -4 -17    2.10    0.71
   5  -4 -17    3.29    0.89
  -2  -3 -17    1.87    1.00
  -1  -3 -17    2.09    0.67
   0  -3 -17    9.63    0.81
   1  -3 -17    5.02    0.59
   2  -3 -17    2.54    0.44
   3  -3 -17    7.30    0.71
   4  -3 -17    3.26    0.54
   5  -3 -17    2.11    0.53
  -3  -2 -17    2.21    0.68
  -2  -2 -17    5.42    0.79
  -1  -2 -17    3.37    0.64
   0  -2 -17    2.67    0.35
   1  -2 -17   10.89    0.77
   2  -2 -17    6.39    0.62
   3  -2 -17    3.11    0.46
   4  -2 -17    5.54    0.62
   5  -2 -17    1.13    0.56
  -4  -1 -17    3.60    0.73
  -3  -1 -17    2.55    0.56
  -2  -1 -17    2.66    0.53
  -1  -1 -17   11.82    0.76
   0  -1 -17    9.14    0.54
   1  -1 -17    2.83    0.33
   2  -1 -17   12.74    0.64
   3  -1 -17    4.33    0.48
   4  -1 -17    2.94    0.45
   5  -1 -17    2.45    0.67
  -4   0 -17    1.74    0.53
  -3   0 -17    6.72    0.71
  -2   0 -17    6.45    0.68
  -1   0 -17    2.64    0.40
   0   0 -17   18.45    0.80
   1   0 -17    8.57    0.53
   2   0 -17    2.81    0.37
   3   0 -17    6.60    0.59
   4   0 -17    1.69    0.42
  -5   1 -17    2.94    0.68
  -4   1 -17    2.09    0.50
  -3   1 -17    2.37    0.46
  -2   1 -17   11.85    0.72
  -1   1 -17    9.37    0.88
   0   1 -17    1.86    0.35
   1   1 -17   12.44    0.73
   2   1 -17    5.50    0.65
   3   1 -17    1.48    0.45
   4   1 -17    4.20    0.70
  -5   2 -17    2.01    0.61
  -4   2 -17    5.45    0.75
  -3   2 -17    5.67    0.70
  -2   2 -17    1.74    0.51
  -1   2 -17   12.00    0.84
   0   2 -17    6.14    0.58
   1   2 -17    3.23    0.43
   2   2 -17    5.60    0.77
   3   2 -17    1.81    0.78
  -5   3 -17    1.68    1.01
  -4   3 -17    2.92    1.00
  -3   3 -17    6.20    0.93
  -2   3 -17    5.86    0.86
  -1   3 -17    2.09    0.57
   0   3 -17    6.66    0.62
   1   3 -17    2.87    0.59
   2   3 -17    0.87    0.53
  -5   4 -17    2.76    1.33
  -4   4 -17    2.06    1.08
  -3   4 -17    0.97    0.57
  -2   4 -17    5.59    0.67
  -1   4 -17    3.37    0.53
   0   4 -17    2.45    0.68
   1   4 -17    2.40    0.71
  -4   5 -17    1.83    0.71
  -3   5 -17    1.35    0.61
  -2   5 -17    1.60    0.63
  -1   5 -17    3.05    0.78
   1  -5 -16    0.63    0.63
   2  -5 -16    2.22    0.76
   3  -5 -16    4.43    0.73
   4  -5 -16    0.68    0.72
  -1  -4 -16    0.69    1.11
   0  -4 -16    1.81    0.67
   1  -4 -16    4.93    0.78
   2  -4 -16    0.16    0.32
   3  -4 -16    2.46    0.70
   4  -4 -16    4.02    0.85
   5  -4 -16    0.65    0.67
  -2  -3 -16    1.27    0.92
  -1  -3 -16    3.72    0.57
   0  -3 -16    0.27    0.33
   1  -3 -16    4.08    0.54
   2  -3 -16    7.07    0.66
   3  -3 -16    0.83    0.35
   4  -3 -16    2.49    0.49
   5  -3 -16    4.71    0.64
  -3  -2 -16    4.64    0.80
  -2  -2 -16   -0.18    0.36
  -1  -2 -16    4.94    0.54
   0  -2 -16    7.64    0.53
   1  -2 -16    0.38    0.27
   2  -2 -16    6.51    0.61
   3  -2 -16    6.41    0.61
   4  -2 -16    0.20    0.31
   5  -2 -16    1.29    0.52
  -4  -1 -16    0.13    0.49
  -3  -1 -16    2.58    0.57
  -2  -1 -16    5.94    0.67
  -1  -1 -16    0.30    0.33
   0  -1 -16    8.64    0.52
   1  -1 -16    9.05    0.53
   2  -1 -16    0.41    0.21
   3  -1 -16    4.73    0.48
   4  -1 -16    3.12    0.45
   5  -1 -16   -0.07    0.45
  -4   0 -16    4.99    0.72
  -3   0 -16    0.20    0.31
  -2   0 -16    6.14    0.63
  -1   0 -16    6.66    0.55
   0   0 -16    1.27    0.28
   1   0 -16    7.55    0.48
   2   0 -16    7.75    0.56
   3   0 -16   -0.24    0.22
   4   0 -16    1.48    0.41
  -5   1 -16    0.02    0.42
  -4   1 -16    3.73    0.59
  -3   1 -16    7.00    0.67
  -2   1 -16    0.26    0.23
  -1   1 -16    8.60    0.58
   0   1 -16    7.67    0.45
   1   1 -16    0.35    0.19
   2   1 -16    3.86    0.38
   3   1 -16    5.98    0.69
   4   1 -16    0.11    0.40
  -5   2 -16    2.14    0.80
  -4   2 -16    0.12    0.34
  -3   2 -16    4.70    0.63
  -2   2 -16    6.20    0.76
  -1   2 -16    0.22    0.29
   0   2 -16    6.52    0.56
   1   2 -16    7.08    0.58
   2   2 -16   -0.34    0.25
   3   2 -16    2.37    0.79
  -5   3 -16    3.11    1.21
  -4   3 -16    3.68    1.02
  -3   3 -16    0.18    0.46
  -2   3 -16    5.23    0.81
  -1   3 -16    4.26    0.69
   0   3 -16   -0.19    0.24
   1   3 -16    2.08    0.54
   2   3 -16    4.18    0.77
  -5   4 -16   -0.20    0.96
  -4   4 -16    1.82    0.99
  -3   4 -16    3.70    0.82
  -2   4 -16    0.53    0.37
  -1   4 -16    2.77    0.49
   0   4 -16    5.00    0.80
   1   4 -16   -0.05    0.44
  -5   5 -16    2.48    1.28
  -4   5 -16   -0.14    0.55
  -3   5 -16    2.17    0.67
  -2   5 -16    4.68    0.76
  -1   5 -16   -0.30    0.50
   0  -5 -15    2.68    1.09
   1  -5 -15   13.66    1.42
   2  -5 -15    0.93    0.62
   3  -5 -15    4.04    0.69
   4  -5 -15   11.28    1.36
  -1  -4 -15   13.42    1.39
   0  -4 -15    1.21    0.58
   1  -4 -15    5.29    0.77
   2  -4 -15   21.52    1.16
   3  -4 -15    2.02    0.65
   4  -4 -15    4.24    0.82
   5  -4 -15   13.63    1.45
  -2  -3 -15    0.32    0.83
  -1  -3 -15    4.46    0.60
   0  -3 -15   30.56    1.30
   1  -3 -15    2.08    0.32
   2  -3 -15    9.07    0.72
   3  -3 -15   28.45    1.19
   4  -3 -15    0.72    0.37
   5  -3 -15    2.98    0.57
  -3  -2 -15    3.00    0.65
  -2  -2 -15   22.89    1.39
  -1  -2 -15    1.97    0.36
   0  -2 -15   11.90    0.61
   1  -2 -15   47.57    1.29
   2  -2 -15    2.60    0.40
   3  -2 -15    7.86    0.67
   4  -2 -15   23.20    1.13
   5  -2 -15    0.62    0.50
  -4  -1 -15   14.95    1.26
  -3  -1 -15    1.01    0.42
  -2  -1 -15    8.35    0.77
  -1  -1 -15   46.00    1.42
   0  -1 -15    3.25    0.33
   1  -1 -15   17.53    0.66
   2  -1 -15   47.53    1.27
   3  -1 -15    2.84    0.38
   4  -1 -15    4.97    0.52
   5  -1 -15   13.80    1.20
  -4   0 -15    3.79    0.64
  -3   0 -15   28.22    1.33
  -2   0 -15    2.56    0.41
  -1   0 -15   15.96    0.74
   0   0 -15   72.95    1.97
   1   0 -15    3.75    0.32
   2   0 -15   12.27    0.69
   3   0 -15   26.77    1.03
   4   0 -15    0.61    0.32
  -5   1 -15   12.00    1.10
  -4   1 -15    1.26    0.41
  -3   1 -15    8.07    0.68
  -2   1 -15   45.15    1.40
  -1   1 -15    3.52    0.40
   0   1 -15   17.58    0.63
   1   1 -15   47.66    1.22
   2   1 -15    1.60    0.26
   3   1 -15    4.94    0.53
   4   1 -15   12.71    1.52
  -5   2 -15    2.55    0.77
  -4   2 -15   20.61    1.20
  -3   2 -15    2.52    0.46
  -2   2 -15   10.77    0.93
  -1   2 -15   49.11    1.62
   0   2 -15    2.45    0.36
   1   2 -15    9.42    0.64
   2   2 -15   23.11    1.00
   3   2 -15    1.02    0.56
  -5   3 -15    0.62    0.80
  -4   3 -15    2.22    0.93
  -3   3 -15   25.14    1.70
  -2   3 -15    1.53    0.53
  -1   3 -15    6.43    0.79
   0   3 -15   29.05    1.12
   1   3 -15    0.82    0.41
   2   3 -15    3.54    0.70
  -5   4 -15   10.15    1.90
  -4   4 -15    0.31    0.80
  -3   4 -15    4.24    0.81
  -2   4 -15   23.32    1.16
  -1   4 -15    0.74    0.34
   0   4 -15    4.50    0.71
   1   4 -15   12.79    1.24
  -5   5 -15    1.06    1.22
  -4   5 -15   12.71    1.28
  -3   5 -15    0.70    0.55
  -2   5 -15    2.68    0.63
  -1   5 -15   13.43    1.30
   0  -5 -14    0.88    0.70
   1  -5 -14   81.09    3.31
   2  -5 -14    1.76    0.67
   3  -5 -14    1.81    0.52
   4  -5 -14   78.15    3.42
   5  -5 -14    1.04    0.98
  -1  -4 -14   78.99    3.30
   0  -4 -14    2.16    0.67
   1  -4 -14    2.98    0.66
   2  -4 -14  139.88    3.81
   3  -4 -14    1.99    0.50
   4  -4 -14    1.99    0.66
   5  -4 -14   83.65    3.43
  -2  -3 -14    0.28    0.81
  -1  -3 -14    2.37    0.47
   0  -3 -14  172.48    4.34
   1  -3 -14    2.21    0.33
   2  -3 -14    4.82    0.45
   3  -3 -14  172.60    4.37
   4  -3 -14    1.43    0.41
   5  -3 -14    1.35    0.47
  -3  -2 -14    2.15    0.58
  -2  -2 -14  136.51    3.60
  -1  -2 -14    2.20    0.38
   0  -2 -14    6.37    0.45
   1  -2 -14  270.20    6.35
   2  -2 -14    3.32    0.42
   3  -2 -14    3.58    0.46
   4  -2 -14  136.05    3.67
   5  -2 -14    0.14    0.41
  -4  -1 -14   80.49    3.02
  -3  -1 -14    0.88    0.39
  -2  -1 -14    4.92    0.46
  -1  -1 -14  264.39    6.20
   0  -1 -14    5.47    0.41
   1  -1 -14    8.50    0.49
   2  -1 -14  269.17    5.41
   3  -1 -14    2.35    0.33
   4  -1 -14    1.65    0.45
   5  -1 -14   75.47    2.91
  -5   0 -14   -0.09    0.73
  -4   0 -14    1.51    0.48
  -3   0 -14  165.81    5.07
  -2   0 -14    3.82    0.48
  -1   0 -14    8.96    0.57
   0   0 -14  361.79    8.16
   1   0 -14    4.96    0.34
   2   0 -14    6.96    0.41
   3   0 -14  164.33    4.04
   4   0 -14    0.84    0.33
  -5   1 -14   78.93    2.93
  -4   1 -14    1.22    0.41
  -3   1 -14    4.53    0.52
  -2   1 -14  263.90    6.12
  -1   1 -14    4.52    0.42
   0   1 -14    8.32    0.42
   1   1 -14  272.96    5.38
   2   1 -14    2.37    0.28
   3   1 -14    2.23    0.38
   4   1 -14   81.70    4.00
  -5   2 -14    0.55    0.64
  -4   2 -14  130.12    5.97
  -3   2 -14    2.49    0.45
  -2   2 -14    5.95    0.68
  -1   2 -14  263.70    6.51
   0   2 -14    3.34    0.38
   1   2 -14    4.54    0.44
   2   2 -14  139.93    3.61
   3   2 -14    0.05    0.45
  -5   3 -14    1.64    0.93
  -4   3 -14    3.00    0.98
  -3   3 -14  158.68    5.64
  -2   3 -14    2.39    0.58
  -1   3 -14    4.42    0.66
   0   3 -14  173.19    4.30
   1   3 -14    1.32    0.44
   2   3 -14    2.90    0.61
  -5   4 -14   74.40    5.04
  -4   4 -14    1.16    0.82
  -3   4 -14    1.50    0.55
  -2   4 -14  133.91    3.71
  -1   4 -14    2.05    0.40
   0   4 -14    1.99    0.54
   1   4 -14   77.76    3.19
  -5   5 -14    2.76    1.03
  -4   5 -14   74.75    3.14
  -3   5 -14    0.92    0.51
  -2   5 -14    1.48    0.57
  -1   5 -14   76.88    3.14
   0  -5 -13    0.73    0.69
   1  -5 -13    7.51    1.09
   2  -5 -13    4.22    0.88
   3  -5 -13    1.02    0.48
   4  -5 -13    8.62    0.94
   5  -5 -13    3.01    0.86
  -1  -4 -13    7.38    1.05
   0  -4 -13    3.92    0.79
   1  -4 -13    0.45    0.44
   2  -4 -13   16.87    1.00
   3  -4 -13    4.92    0.62
   4  -4 -13    0.59    0.52
   5  -4 -13    9.96    1.23
  -2  -3 -13    3.90    0.76
  -1  -3 -13    0.51    0.35
   0  -3 -13   19.46    1.06
   1  -3 -13    7.19    0.52
   2  -3 -13    1.55    0.29
   3  -3 -13   22.46    1.07
   4  -3 -13    4.49    0.54
   5  -3 -13    0.07    0.38
  -3  -2 -13    0.65    0.46
  -2  -2 -13   16.09    0.87
  -1  -2 -13    7.07    0.58
   0  -2 -13    1.49    0.25
   1  -2 -13   31.18    1.14
   2  -2 -13    8.22    0.63
   3  -2 -13    0.84    0.30
   4  -2 -13   14.86    0.90
   5  -2 -13    2.54    0.56
  -4  -1 -13    9.78    1.01
  -3  -1 -13    5.05    0.67
  -2  -1 -13    1.53    0.30
  -1  -1 -13   27.83    0.99
   0  -1 -13   13.96    0.58
   1  -1 -13    2.57    0.28
   2  -1 -13   28.86    0.87
   3  -1 -13    7.14    0.51
   4  -1 -13    0.76    0.37
   5  -1 -13    8.31    0.92
  -5   0 -13    1.98    0.64
  -4   0 -13    0.80    0.39
  -3   0 -13   19.83    1.03
  -2   0 -13    9.06    0.50
  -1   0 -13    2.35    0.31
   0   0 -13   41.20    1.27
   1   0 -13   12.37    0.48
   2   0 -13    2.14    0.24
   3   0 -13   19.84    0.84
   4   0 -13    3.46    0.60
   5   0 -13    0.31    0.68
  -5   1 -13   10.13    0.96
  -4   1 -13    4.14    0.56
  -3   1 -13    1.02    0.32
  -2   1 -13   29.63    0.97
  -1   1 -13   12.51    0.63
   0   1 -13    2.80    0.23
   1   1 -13   29.50    0.82
   2   1 -13    6.96    0.44
   3   1 -13    0.16    0.30
   4   1 -13   10.54    1.32
  -5   2 -13    0.57    0.43
  -4   2 -13   14.46    0.91
  -3   2 -13    7.19    0.69
  -2   2 -13    1.67    0.41
  -1   2 -13   30.42    1.15
   0   2 -13    8.49    0.54
   1   2 -13    1.14    0.34
   2   2 -13   17.05    0.86
   3   2 -13    3.03    0.82
  -5   3 -13    3.70    1.04
  -4   3 -13    0.87    0.68
  -3   3 -13   20.49    1.58
  -2   3 -13    5.49    0.78
  -1   3 -13    1.02    0.39
   0   3 -13   19.12    0.85
   1   3 -13    5.37    0.69
   2   3 -13    0.10    0.39
  -5   4 -13   11.29    1.90
  -4   4 -13    2.56    1.09
  -3   4 -13    0.24    0.40
  -2   4 -13   15.56    0.99
  -1   4 -13    5.32    0.56
   0   4 -13    1.54    0.38
   1   4 -13    8.78    1.02
  -5   5 -13    0.01    0.76
  -4   5 -13    8.44    1.01
  -3   5 -13    2.69    0.66
  -2   5 -13    0.41    0.47
  -1   5 -13    8.02    0.97
   0   5 -13    2.21    1.01
   3  -6 -12    0.14    0.62
   0  -5 -12    0.19    0.62
   1  -5 -12    0.13    0.54
   2  -5 -12   13.81    1.05
   3  -5 -12    0.91    0.45
   4  -5 -12   -0.27    0.43
   5  -5 -12    9.06    1.24
  -1  -4 -12    0.60    0.53
   0  -4 -12   14.36    1.35
   1  -4 -12    1.89    0.59
   2  -4 -12    0.98    0.36
   3  -4 -12   19.91    1.14
   4  -4 -12    2.10    0.63
   5  -4 -12    0.01    0.54
  -2  -3 -12   14.76    1.32
  -1  -3 -12    1.74    0.40
   0  -3 -12    1.42    0.40
   1  -3 -12   30.42    1.13
   2  -3 -12    3.46    0.37
   3  -3 -12    1.15    0.34
   4  -3 -12   19.27    1.02
   5  -3 -12    1.91    0.49
  -3  -2 -12    1.80    0.53
  -2  -2 -12    0.51    0.28
  -1  -2 -12   28.60    1.07
   0  -2 -12    5.83    0.39
   1  -2 -12    2.67    0.25
   2  -2 -12   37.89    1.04
   3  -2 -12    3.40    0.41
   4  -2 -12    0.53    0.30
   5  -2 -12   14.00    1.12
  -4  -1 -12    0.39    0.43
  -3  -1 -12   18.36    1.08
  -2  -1 -12    3.56    0.39
  -1  -1 -12    3.15    0.33
   0  -1 -12   54.14    1.34
   1  -1 -12    7.32    0.43
   2  -1 -12    3.10    0.28
   3  -1 -12   28.70    1.00
   4  -1 -12    3.11    0.51
   5  -1 -12    0.44    0.45
  -5   0 -12    9.44    1.02
  -4   0 -12    1.60    0.46
  -3   0 -12    1.05    0.33
  -2   0 -12   38.70    1.17
  -1   0 -12    7.65    0.33
   0   0 -12    6.11    0.34
   1   0 -12   55.12    1.25
   2   0 -12    5.38    0.34
   3   0 -12    1.02    0.25
   4   0 -12   15.56    1.12
   5   0 -12    1.32    0.69
  -5   1 -12    0.45    0.41
  -4   1 -12   17.35    1.01
  -3   1 -12    2.70    0.41
  -2   1 -12    3.10    0.26
  -1   1 -12   50.05    1.47
   0   1 -12    6.70    0.49
   1   1 -12    3.29    0.26
   2   1 -12   28.99    0.86
   3   1 -12    2.80    0.48
   4   1 -12   -0.65    0.48
  -5   2 -12    0.87    0.44
  -4   2 -12    0.50    0.30
  -3   2 -12   28.17    0.97
  -2   2 -12    4.49    0.56
  -1   2 -12    2.57    0.39
   0   2 -12   40.30    1.22
   1   2 -12    3.92    0.31
   2   2 -12    0.59    0.27
   3   2 -12   13.94    1.54
  -5   3 -12   11.95    1.65
  -4   3 -12    2.61    0.92
  -3   3 -12    0.50    0.42
  -2   3 -12   28.37    1.52
  -1   3 -12    3.84    0.44
   0   3 -12    1.22    0.28
   1   3 -12   21.06    1.18
   2   3 -12    1.24    0.47
  -5   4 -12    0.41    0.53
  -4   4 -12   11.42    1.78
  -3   4 -12    1.80    0.50
  -2   4 -12    0.38    0.30
  -1   4 -12   17.87    0.91
   0   4 -12    1.07    0.33
   1   4 -12    0.28    0.39
  -5   5 -12    0.55    0.80
  -4   5 -12    0.53    0.50
  -3   5 -12   11.67    1.14
  -2   5 -12    0.86    0.46
  -1   5 -12   -0.02    0.45
   0   5 -12    7.92    1.58
   3  -6 -11    6.44    1.30
   0  -5 -11    1.69    0.75
   1  -5 -11    8.24    1.10
   2  -5 -11    0.06    0.37
   3  -5 -11    2.68    1.02
   4  -5 -11    7.52    0.86
   5  -5 -11    0.42    0.66
  -1  -4 -11    7.57    1.10
   0  -4 -11   -0.37    0.38
   1  -4 -11    3.35    0.50
   2  -4 -11   17.21    1.00
   3  -4 -11   -0.19    0.28
   4  -4 -11    3.97    0.74
   5  -4 -11    8.08    1.08
  -2  -3 -11    0.25    0.43
  -1  -3 -11    2.69    0.45
   0  -3 -11   20.39    1.06
   1  -3 -11    0.54    0.23
   2  -3 -11    6.59    0.46
   3  -3 -11   22.85    1.00
   4  -3 -11   -0.01    0.26
   5  -3 -11    2.73    0.65
   6  -3 -11    3.17    0.96
  -3  -2 -11    2.48    0.46
  -2  -2 -11   16.15    0.84
  -1  -2 -11    0.64    0.24
   0  -2 -11    7.80    0.46
   1  -2 -11   41.45    1.14
   2  -2 -11    1.28    0.17
   3  -2 -11    6.07    0.54
   4  -2 -11   15.45    0.93
   5  -2 -11    0.30    0.36
  -4  -1 -11    7.38    0.87
  -3  -1 -11    0.01    0.23
  -2  -1 -11    6.19    0.50
  -1  -1 -11   40.49    1.22
   0  -1 -11    1.97    0.24
   1  -1 -11   11.46    0.48
   2  -1 -11   40.88    1.06
   3  -1 -11    0.75    0.21
   4  -1 -11    3.31    0.51
   5  -1 -11    7.87    0.85
  -5   0 -11    0.28    0.48
  -4   0 -11    2.75    0.52
  -3   0 -11   20.74    0.84
  -2   0 -11    0.87    0.20
  -1   0 -11   10.31    0.43
   0   0 -11   59.98    1.40
   1   0 -11    1.91    0.19
   2   0 -11    8.60    0.42
   3   0 -11   19.42    0.80
   4   0 -11    0.02    0.32
   5   0 -11    1.60    0.74
  -5   1 -11    7.36    0.83
  -4   1 -11   -0.14    0.25
  -3   1 -11    5.06    0.42
  -2   1 -11   40.92    1.12
  -1   1 -11    1.75    0.23
   0   1 -11   11.78    0.58
   1   1 -11   41.77    1.01
   2   1 -11    0.32    0.17
   3   1 -11    2.87    0.39
   4   1 -11    8.28    1.16
  -6   2 -11    0.58    0.78
  -5   2 -11    2.62    0.51
  -4   2 -11   16.46    0.88
  -3   2 -11    0.77    0.22
  -2   2 -11    7.42    0.42
  -1   2 -11   41.05    1.35
   0   2 -11    1.14    0.21
   1   2 -11    6.35    0.38
   2   2 -11   17.72    0.79
   3   2 -11   -0.23    0.30
  -5   3 -11   -0.27    0.37
  -4   3 -11    0.97    0.72
  -3   3 -11   19.91    1.52
  -2   3 -11    0.36    0.34
  -1   3 -11    4.62    0.45
   0   3 -11   21.15    0.86
   1   3 -11    0.06    0.27
   2   3 -11    1.13    0.41
   3   3 -11    4.58    1.26
  -5   4 -11    7.41    1.24
  -4   4 -11   -0.01    0.38
  -3   4 -11    3.54    0.60
  -2   4 -11   15.69    0.87
  -1   4 -11    0.01    0.23
   0   4 -11    2.69    0.42
   1   4 -11    8.01    0.92
  -5   5 -11    0.09    0.73
  -4   5 -11    6.17    0.84
  -3   5 -11   -0.21    0.36
  -2   5 -11    1.40    0.49
  -1   5 -11    7.00    0.87
   0   5 -11   -0.15    0.60
  -4   6 -11   -0.04    0.84
  -3   6 -11    3.80    1.21
   3  -6 -10    3.30    1.04
   0  -5 -10   59.50    2.82
   1  -5 -10    4.67    0.87
   2  -5 -10    4.94    0.67
   3  -5 -10   86.94    2.76
   4  -5 -10    5.10    0.72
   5  -5 -10    2.10    0.74
  -2  -4 -10   53.64    3.69
  -1  -4 -10    3.61    0.83
   0  -4 -10    5.23    0.86
   1  -4 -10  130.31    3.56
   2  -4 -10    8.64    0.73
   3  -4 -10    6.64    0.68
   4  -4 -10  108.99    3.18
   5  -4 -10    4.00    0.82
  -3  -3 -10    3.25    1.16
  -2  -3 -10    3.81    0.74
  -1  -3 -10  136.45    3.48
   0  -3 -10   11.45    0.83
   1  -3 -10   13.35    0.78
   2  -3 -10  208.73    5.33
   3  -3 -10   11.11    0.61
   4  -3 -10    6.19    0.60
   5  -3 -10   86.26    2.63
   6  -3 -10    2.60    0.92
  -4  -2 -10    2.63    0.94
  -3  -2 -10   89.27    2.57
  -2  -2 -10    8.51    0.65
  -1  -2 -10   13.07    0.71
   0  -2 -10  293.10    5.77
   1  -2 -10   20.52    0.58
   2  -2 -10   17.76    0.58
   3  -2 -10  213.04    5.17
   4  -2 -10    7.55    0.64
   5  -2 -10    3.74    0.61
  -4  -1 -10    5.29    0.72
  -3  -1 -10    7.09    0.60
  -2  -1 -10  212.27    5.06
  -1  -1 -10   18.81    0.72
   0  -1 -10   26.47    0.77
   1  -1 -10  387.33    7.65
   2  -1 -10   19.59    0.63
   3  -1 -10   12.40    0.59
   4  -1 -10  128.92    4.03
   5  -1 -10    4.42    0.65
  -5   0 -10    2.25    0.59
  -4   0 -10  108.54    3.50
  -3   0 -10   11.38    0.67
  -2   0 -10   16.25    0.64
  -1   0 -10  383.73    8.69
   0   0 -10   29.16    0.79
   1   0 -10   26.50    0.68
   2   0 -10  278.15    5.61
   3   0 -10   10.53    0.63
   4   0 -10    5.75    0.68
   5   0 -10   58.70    3.27
  -5   1 -10    4.52    0.68
  -4   1 -10    6.77    0.68
  -3   1 -10  206.24    4.99
  -2   1 -10   19.18    0.66
  -1   1 -10   24.99    0.81
   0   1 -10  383.91    9.02
   1   1 -10   21.44    0.60
   2   1 -10   12.15    0.51
   3   1 -10  127.19    3.37
   4   1 -10    5.14    0.94
  -6   2 -10    1.26    0.82
  -5   2 -10   83.47    2.94
  -4   2 -10    9.56    0.74
  -3   2 -10   11.88    0.65
  -2   2 -10  273.75    6.37
  -1   2 -10   19.47    0.83
   0   2 -10   18.95    0.66
   1   2 -10  216.92    4.35
   2   2 -10    9.20    0.63
   3   2 -10    3.06    0.43
  -5   3 -10    4.60    0.83
  -4   3 -10  126.89    6.13
  -3   3 -10   11.60    1.15
  -2   3 -10   12.16    1.03
  -1   3 -10  215.08    5.17
   0   3 -10   10.68    0.65
   1   3 -10    6.94    0.74
   2   3 -10   86.35    3.21
   3   3 -10    1.79    0.99
  -5   4 -10    6.16    1.10
  -4   4 -10    5.35    0.73
  -3   4 -10  125.56    4.24
  -2   4 -10    8.43    0.81
  -1   4 -10    5.97    0.54
   0   4 -10  103.87    2.89
   1   4 -10    3.71    0.65
  -5   5 -10   52.59    3.22
  -4   5 -10    4.26    0.74
  -3   5 -10    3.00    0.60
  -2   5 -10   83.12    3.16
  -1   5 -10    5.33    0.71
   0   5 -10    1.27    0.81
  -3   6 -10    2.19    0.99
   3  -6  -9    0.23    0.59
   0  -5  -9   41.85    2.27
   1  -5  -9    0.03    0.52
   2  -5  -9    0.73    0.41
   3  -5  -9   50.67    1.90
   4  -5  -9    0.70    0.46
   5  -5  -9    0.51    0.63
  -2  -4  -9   32.83    2.09
  -1  -4  -9    0.26    0.50
   0  -4  -9    1.11    0.59
   1  -4  -9   75.62    2.31
   2  -4  -9    1.18    0.36
   3  -4  -9    1.12    0.36
   4  -4  -9   61.65    2.14
   5  -4  -9    0.49    0.52
  -3  -3  -9    0.00    0.58
  -2  -3  -9    1.51    0.54
  -1  -3  -9   69.61    2.76
   0  -3  -9    1.86    0.29
   1  -3  -9    1.46    0.26
   2  -3  -9  115.51    2.62
   3  -3  -9    1.77    0.28
   4  -3  -9    1.57    0.36
   5  -3  -9   50.56    1.80
   6  -3  -9    0.18    0.47
  -4  -2  -9    1.58    0.83
  -3  -2  -9   52.68    1.77
  -2  -2  -9    0.98    0.30
  -1  -2  -9    0.98    0.27
   0  -2  -9  152.29    3.16
   1  -2  -9    3.74    0.32
   2  -2  -9    1.33    0.22
   3  -2  -9  115.51    3.00
   4  -2  -9    0.88    0.31
   5  -2  -9    0.88    0.41
  -4  -1  -9    0.13    0.32
  -3  -1  -9    1.32    0.31
  -2  -1  -9  113.27    2.91
  -1  -1  -9    4.40    0.35
   0  -1  -9    2.58    0.30
   1  -1  -9  199.51    4.00
   2  -1  -9    4.13    0.29
   3  -1  -9    1.50    0.24
   4  -1  -9   72.08    2.53
   5  -1  -9    0.83    0.44
  -5   0  -9    0.55    0.46
  -4   0  -9   62.54    1.93
  -3   0  -9    1.29    0.27
  -2   0  -9    2.29    0.26
  -1   0  -9  193.56    4.51
   0   0  -9    5.97    0.33
   1   0  -9    2.22    0.18
   2   0  -9  146.07    3.03
   3   0  -9    1.41    0.21
   4   0  -9    0.70    0.34
   5   0  -9   34.84    2.40
  -5   1  -9    0.29    0.39
  -4   1  -9    0.95    0.36
  -3   1  -9  112.08    3.52
  -2   1  -9    3.34    0.27
  -1   1  -9    1.96    0.20
   0   1  -9  204.46    4.71
   1   1  -9    3.90    0.22
   2   1  -9    1.59    0.23
   3   1  -9   72.34    2.11
   4   1  -9    0.23    0.49
  -6   2  -9    2.04    0.88
  -5   2  -9   53.65    2.86
  -4   2  -9    1.10    0.35
  -3   2  -9    1.89    0.30
  -2   2  -9  144.60    3.45
  -1   2  -9    3.62    0.37
   0   2  -9    1.64    0.18
   1   2  -9  118.41    2.47
   2   2  -9    1.11    0.27
   3   2  -9    0.78    0.41
  -6   3  -9   -0.26    0.68
  -5   3  -9    1.25    0.61
  -4   3  -9   71.98    2.57
  -3   3  -9    2.11    0.54
  -2   3  -9    1.52    0.40
  -1   3  -9  114.23    2.96
   0   3  -9    1.20    0.26
   1   3  -9    0.63    0.32
   2   3  -9   52.54    2.19
   3   3  -9    0.30    0.74
  -5   4  -9    0.46    0.63
  -4   4  -9    0.43    0.40
  -3   4  -9   76.69    2.74
  -2   4  -9    1.18    0.39
  -1   4  -9    1.03    0.29
   0   4  -9   63.59    1.93
   1   4  -9    0.75    0.40
  -5   5  -9   38.34    2.52
  -4   5  -9    0.41    0.46
  -3   5  -9    0.89    0.45
  -2   5  -9   50.69    2.18
  -1   5  -9    0.80    0.42
   0   5  -9    0.54    0.69
  -3   6  -9    0.73    0.80
   3  -6  -8    9.84    1.24
   0  -5  -8    6.33    1.10
   1  -5  -8   18.03    1.58
   2  -5  -8    4.79    0.63
   3  -5  -8   12.09    0.95
   4  -5  -8   12.30    1.01
   5  -5  -8    4.01    0.85
  -2  -4  -8    8.47    1.22
  -1  -4  -8   15.07    1.45
   0  -4  -8    8.57    1.08
   1  -4  -8   15.19    0.93
   2  -4  -8   26.26    1.17
   3  -4  -8    9.45    0.76
   4  -4  -8   11.86    0.92
   5  -4  -8   13.55    1.31
   6  -4  -8    2.76    0.94
  -3  -3  -8   11.73    1.29
  -2  -3  -8    5.02    0.80
  -1  -3  -8   17.16    1.28
   0  -3  -8   38.43    1.12
   1  -3  -8   19.31    0.89
   2  -3  -8   26.26    0.82
   3  -3  -8   36.35    1.10
   4  -3  -8   10.01    0.72
   5  -3  -8   10.63    0.81
   6  -3  -8    8.99    0.97
  -4  -2  -8    2.09    0.64
  -3  -2  -8   10.70    0.81
  -2  -2  -8   28.78    1.07
  -1  -2  -8   19.71    0.79
   0  -2  -8   33.91    0.91
   1  -2  -8   70.93    1.63
   2  -2  -8   29.87    0.86
   3  -2  -8   23.35    0.93
   4  -2  -8   25.06    1.10
   5  -2  -8    5.01    0.64
  -4  -1  -8   14.44    0.96
  -3  -1  -8   10.30    0.71
  -2  -1  -8   25.22    0.90
  -1  -1  -8   66.92    1.77
   0  -1  -8   46.56    1.09
   1  -1  -8   45.51    1.06
   2  -1  -8   65.96    1.54
   3  -1  -8   18.56    0.90
   4  -1  -8   15.88    0.97
   5  -1  -8   13.29    1.06
  -5   0  -8    3.88    0.70
  -4   0  -8   14.28    1.06
  -3   0  -8   36.20    1.48
  -2   0  -8   28.94    0.91
  -1   0  -8   44.53    1.14
   0   0  -8   99.06    2.09
   1   0  -8   45.40    1.01
   2   0  -8   31.65    0.83
   3   0  -8   34.38    1.00
   4   0  -8    7.33    0.73
   5   0  -8    9.12    1.28
  -5   1  -8   13.34    1.54
  -4   1  -8    8.61    0.79
  -3   1  -8   22.66    0.86
  -2   1  -8   68.74    1.71
  -1   1  -8   45.49    1.18
   0   1  -8   46.43    1.22
   1   1  -8   68.78    1.31
   2   1  -8   19.91    0.65
   3   1  -8   16.42    0.77
   4   1  -8   14.20    1.49
  -6   2  -8    3.06    0.68
  -5   2  -8   11.59    1.31
  -4   2  -8   27.68    1.27
  -3   2  -8   18.09    1.18
  -2   2  -8   30.16    1.23
  -1   2  -8   67.30    1.85
   0   2  -8   29.94    0.76
   1   2  -8   25.50    0.72
   2   2  -8   29.81    1.03
   3   2  -8    5.85    0.71
  -6   3  -8    7.34    1.24
  -5   3  -8    5.97    0.93
  -4   3  -8   17.83    0.98
  -3   3  -8   35.17    1.75
  -2   3  -8   20.03    1.11
  -1   3  -8   23.98    0.89
   0   3  -8   37.87    1.20
   1   3  -8   11.59    0.91
   2   3  -8   11.29    1.00
   3   3  -8    7.60    1.48
  -5   4  -8   18.09    1.68
  -4   4  -8    6.89    0.77
  -3   4  -8   17.87    1.04
  -2   4  -8   25.83    1.29
  -1   4  -8    9.11    0.82
   0   4  -8   12.49    0.79
   1   4  -8   14.37    1.17
   2   4  -8    2.60    1.03
  -5   5  -8    8.65    0.89
  -4   5  -8   12.94    1.14
  -3   5  -8    5.43    0.72
  -2   5  -8   10.05    0.99
  -1   5  -8   12.14    1.08
   0   5  -8    3.60    1.06
  -3   6  -8    8.98    1.03
  -2   6  -8   -0.06    0.77
   3  -6  -7    3.51    0.82
   4  -6  -7   17.17    2.07
   0  -5  -7    3.01    0.82
   1  -5  -7    0.50    0.54
   2  -5  -7   24.24    1.28
   3  -5  -7    6.18    0.70
   4  -5  -7    1.25    0.45
   5  -5  -7   13.04    1.10
  -2  -4  -7    3.32    0.86
  -1  -4  -7    1.62    0.62
   0  -4  -7   29.77    1.83
   1  -4  -7    9.04    0.74
   2  -4  -7    2.06    0.39
   3  -4  -7   39.44    1.47
   4  -4  -7    6.52    0.69
   5  -4  -7    2.08    0.59
   6  -4  -7   11.85    1.32
  -3  -3  -7    1.56    0.69
  -2  -3  -7   25.72    1.47
  -1  -3  -7   10.33    0.98
   0  -3  -7    1.37    0.26
   1  -3  -7   69.19    2.08
   2  -3  -7   13.65    0.57
   3  -3  -7    2.07    0.28
   4  -3  -7   37.63    1.38
   5  -3  -7    6.56    0.67
   6  -3  -7    1.73    0.56
  -4  -2  -7   12.72    1.21
  -3  -2  -7    7.20    0.67
  -2  -2  -7    1.82    0.33
  -1  -2  -7   71.80    1.94
   0  -2  -7   17.87    0.59
   1  -2  -7    1.86    0.24
   2  -2  -7   98.45    2.19
   3  -2  -7   12.65    0.66
   4  -2  -7    1.80    0.35
   5  -2  -7   21.74    1.20
   6  -2  -7    4.44    0.98
  -4  -1  -7    1.58    0.41
  -3  -1  -7   39.31    1.68
  -2  -1  -7   13.65    0.64
  -1  -1  -7    2.40    0.25
   0  -1  -7  154.46    3.09
   1  -1  -7   21.71    0.61
   2  -1  -7    1.95    0.21
   3  -1  -7   67.97    2.26
   4  -1  -7    8.26    0.74
   5  -1  -7    1.46    0.45
  -5   0  -7   17.70    1.88
  -4   0  -7    7.80    0.80
  -3   0  -7    2.25    0.39
  -2   0  -7   94.67    2.97
  -1   0  -7   21.91    0.66
   0   0  -7    1.73    0.20
   1   0  -7  150.66    3.00
   2   0  -7   15.97    0.51
   3   0  -7    2.01    0.25
   4   0  -7   26.83    1.31
   5   0  -7    4.32    0.94
  -5   1  -7    1.31    0.65
  -4   1  -7   39.04    1.63
  -3   1  -7   13.34    0.62
  -2   1  -7    1.94    0.27
  -1   1  -7  150.78    3.43
   0   1  -7   24.56    0.71
   1   1  -7    2.32    0.16
   2   1  -7   71.17    1.92
   3   1  -7    9.27    0.63
   4   1  -7    2.20    0.66
  -6   2  -7   12.05    1.57
  -5   2  -7    7.34    1.09
  -4   2  -7    1.95    0.40
  -2   2  -7   15.94    0.67
  -1   2  -7    1.93    0.26
   0   2  -7  102.54    2.08
   1   2  -7   13.53    0.48
   2   2  -7    1.59    0.29
   3   2  -7   23.77    1.26
  -5   3  -7   22.92    1.61
  -4   3  -7    8.78    0.90
  -3   3  -7    2.01    0.50
  -2   3  -7   69.18    1.98
  -1   3  -7   13.30    0.60
   0   3  -7    1.55    0.27
   1   3  -7   38.51    1.65
   2   3  -7    7.44    0.80
   3   3  -7    0.59    0.78
  -5   4  -7    1.47    0.46
  -4   4  -7   31.10    1.45
  -3   4  -7    9.73    0.85
  -2   4  -7    1.21    0.35
  -1   4  -7   38.60    1.64
   0   4  -7    7.38    0.59
   1   4  -7    1.75    0.46
   2   4  -7   10.21    1.76
  -5   5  -7    3.79    0.64
  -4   5  -7    2.07    0.53
  -3   5  -7   21.86    1.27
  -2   5  -7    6.04    0.77
  -1   5  -7    2.32    0.55
   0   5  -7   13.10    1.92
  -3   6  -7    1.89    0.65
  -2   6  -7   11.29    0.87
   2  -6  -6    0.22    0.55
   3  -6  -6    3.59    0.88
   4  -6  -6   12.21    1.38
   0  -5  -6   -0.18    0.68
   1  -5  -6    5.51    0.96
   2  -5  -6   20.77    1.13
   3  -5  -6    0.17    0.34
   4  -5  -6    5.01    0.67
   5  -5  -6   14.96    1.11
  -2  -4  -6   -0.48    0.60
  -1  -4  -6    6.04    0.93
   0  -4  -6   23.50    1.61
   1  -4  -6    0.15    0.27
   2  -4  -6    8.35    0.71
   3  -4  -6   31.24    1.25
   4  -4  -6    0.13    0.29
   5  -4  -6    5.39    0.81
   6  -4  -6   11.22    1.24
  -3  -3  -6    3.64    0.83
  -2  -3  -6   20.15    1.51
  -1  -3  -6   -0.07    0.32
   0  -3  -6   11.96    0.71
   1  -3  -6   46.80    1.54
   2  -3  -6    0.54    0.17
   3  -3  -6   11.52    0.58
   4  -3  -6   32.75    1.19
   5  -3  -6   -0.05    0.30
   6  -3  -6    3.61    0.65
  -4  -2  -6   10.56    0.92
  -3  -2  -6    0.11    0.28
  -2  -2  -6   10.24    0.68
  -1  -2  -6   50.18    1.20
   0  -2  -6    0.39    0.14
   1  -2  -6   21.18    0.65
   2  -2  -6   64.08    1.51
   3  -2  -6   -0.12    0.18
   4  -2  -6    8.43    0.66
   5  -2  -6   18.60    1.15
   6  -2  -6    0.09    0.59
  -4  -1  -6    5.65    0.82
  -3  -1  -6   28.92    1.39
  -2  -1  -6    0.02    0.22
  -1  -1  -6   21.03    0.57
   0  -1  -6   98.82    2.01
   1  -1  -6    0.48    0.10
   2  -1  -6   19.80    0.53
   3  -1  -6   44.36    1.34
   4  -1  -6    0.43    0.28
   5  -1  -6    5.15    0.68
  -5   0  -6   11.87    1.16
  -4   0  -6    0.10    0.31
  -3   0  -6   14.05    0.86
  -2   0  -6   61.76    2.05
  -1   0  -6    0.58    0.13
   0   0  -6   27.35    0.72
   1   0  -6   95.21    1.93
   2   0  -6    0.15    0.10
   3   0  -6   11.88    0.60
   4   0  -6   22.76    1.16
   5   0  -6   -0.13    0.54
  -5   1  -6    5.62    0.79
  -4   1  -6   29.41    1.36
  -3   1  -6    0.46    0.20
  -2   1  -6   20.16    1.07
  -1   1  -6   90.71    2.20
   0   1  -6    0.39    0.12
   1   1  -6   21.23    0.49
   2   1  -6   45.76    1.37
   3   1  -6   -0.19    0.23
   4   1  -6    4.78    0.89
  -6   2  -6   11.55    1.57
  -5   2  -6    0.69    0.39
  -4   2  -6    9.51    0.88
  -2   2  -6    0.22    0.16
  -1   2  -6   21.01    0.94
   0   2  -6   64.60    1.40
   1   2  -6    0.27    0.13
   2   2  -6   10.35    0.64
   3   2  -6   18.99    1.19
  -6   3  -6    4.87    1.03
  -5   3  -6   13.81    1.90
  -4   3  -6    0.33    0.48
  -3   3  -6   11.19    0.99
  -2   3  -6   44.88    1.41
  -1   3  -6    0.14    0.16
   0   3  -6   12.62    0.59
   1   3  -6   28.62    1.05
   2   3  -6    0.14    0.31
   3   3  -6    4.89    1.26
  -5   4  -6    5.10    0.91
  -4   4  -6   22.15    1.20
  -3   4  -6    0.34    0.29
  -2   4  -6    8.62    0.77
  -1   4  -6   27.65    1.34
   0   4  -6   -0.12    0.26
   1   4  -6    4.79    0.67
   2   4  -6   10.69    1.72
  -5   5  -6    0.23    0.42
  -4   5  -6    4.20    0.90
  -3   5  -6   18.20    1.21
  -2   5  -6    0.09    0.33
  -1   5  -6    5.83    0.74
   0   5  -6    9.17    1.56
  -4   6  -6    0.62    0.79
  -3   6  -6    3.41    0.55
  -2   6  -6    9.09    0.81
   2  -6  -5    0.56    0.60
   3  -6  -5    0.52    0.62
   4  -6  -5   46.58    2.64
   0  -5  -5    0.41    0.76
   1  -5  -5    0.73    0.42
   2  -5  -5   77.97    2.44
   3  -5  -5    0.22    0.33
   4  -5  -5   -0.03    0.34
   5  -5  -5   56.51    2.08
  -2  -4  -5    0.64    0.66
  -1  -4  -5    0.36    0.51
   0  -4  -5   93.55    3.51
   1  -4  -5   -0.09    0.27
   2  -4  -5   -0.02    0.24
   3  -4  -5  118.62    3.22
   4  -4  -5    0.53    0.33
   5  -4  -5    0.43    0.45
   6  -4  -5   48.07    2.44
  -3  -3  -5   -0.09    0.51
  -2  -3  -5   78.81    2.98
  -1  -3  -5    0.36    0.36
   0  -3  -5   -0.13    0.20
   1  -3  -5  186.96    4.71
   2  -3  -5    0.11    0.14
   3  -3  -5    0.13    0.17
   4  -3  -5  114.85    3.08
   5  -3  -5    0.15    0.32
   6  -3  -5    0.39    0.45
  -4  -2  -5   48.40    1.79
  -3  -2  -5    0.56    0.31
  -2  -2  -5    0.15    0.22
  -1  -2  -5  197.76    3.90
   0  -2  -5    0.14    0.13
   1  -2  -5    0.54    0.13
   2  -2  -5  247.49    5.14
   3  -2  -5    0.47    0.21
   4  -2  -5    0.02    0.21
   5  -2  -5   72.42    2.63
   6  -2  -5    0.27    0.46
  -4  -1  -5    0.22    0.40
  -3  -1  -5  112.89    3.74
  -2  -1  -5    0.25    0.23
  -1  -1  -5    0.26    0.10
   0  -1  -5  388.01    7.29
   1  -1  -5    0.08    0.06
   2  -1  -5    0.25    0.10
   3  -1  -5  182.21    4.45
   4  -1  -5    0.68    0.28
   5  -1  -5    0.04    0.33
  -5   0  -5   53.41    2.35
  -4   0  -5    0.34    0.34
  -3   0  -5   -0.15    0.21
  -2   0  -5  252.43    5.92
  -1   0  -5   -0.07    0.09
   0   0  -5    0.37    0.17
   1   0  -5  365.36    7.20
   2   0  -5    0.17    0.10
   3   0  -5   -0.05    0.16
   4   0  -5   96.04    4.25
   5   0  -5   -0.11    0.53
  -5   1  -5   -0.07    0.36
  -4   1  -5  114.84    3.72
  -3   1  -5    0.18    0.19
  -1   1  -5  367.60   10.16
   0   1  -5    0.09    0.09
   1   1  -5    0.45    0.10
   2   1  -5  189.33    4.51
   3   1  -5    0.69    0.30
   4   1  -5   -0.35    0.43
  -6   2  -5   43.01    2.84
  -5   2  -5    0.62    0.38
  -4   2  -5    0.83    0.36
  -2   2  -5    0.21    0.23
  -1   2  -5    0.57    0.20
   0   2  -5  263.94    5.01
   1   2  -5    0.24    0.12
   2   2  -5    0.01    0.17
   3   2  -5   75.74    2.77
  -6   3  -5    0.11    0.62
  -5   3  -5   79.38    4.54
  -4   3  -5    0.28    0.43
  -3   3  -5    0.13    0.23
  -2   3  -5  179.85    4.50
  -1   3  -5    0.00    0.14
   0   3  -5    0.21    0.17
   1   3  -5  115.53    2.98
   2   3  -5    1.34    0.67
   3   3  -5   -0.23    0.57
  -5   4  -5    0.37    0.55
  -4   4  -5   92.34    3.11
  -3   4  -5    0.44    0.29
  -2   4  -5    0.53    0.27
  -1   4  -5  111.77    3.73
   0   4  -5    0.64    0.34
   1   4  -5   -0.04    0.46
   2   4  -5   44.31    3.22
  -5   5  -5   -0.32    0.41
  -4   5  -5    0.25    0.57
  -3   5  -5   70.31    2.75
  -2   5  -5    0.81    0.40
  -1   5  -5    0.13    0.36
   0   5  -5   50.35    2.27
  -4   6  -5    0.18    0.48
  -3   6  -5    0.79    0.39
  -2   6  -5   41.36    1.65
   2  -6  -4   -0.07    0.55
   3  -6  -4    1.16    0.67
   4  -6  -4   47.06    2.67
   0  -5  -4   -0.12    0.73
   1  -5  -4    0.16    0.41
   2  -5  -4   72.06    3.03
   3  -5  -4    0.90    0.38
   4  -5  -4    0.44    0.39
   5  -5  -4   51.16    2.02
  -2  -4  -4    0.44    0.60
  -1  -4  -4    0.63    0.57
   0  -4  -4   91.91    2.75
   1  -4  -4    0.37    0.29
   2  -4  -4    1.20    0.35
   3  -4  -4  116.09    3.19
   4  -4  -4    0.65    0.32
   5  -4  -4    1.69    0.54
   6  -4  -4   48.29    2.37
  -3  -3  -4    0.24    0.56
  -2  -3  -4   84.64    3.03
  -1  -3  -4    0.10    0.36
   0  -3  -4    2.13    0.33
   1  -3  -4  176.20    4.58
   2  -3  -4    1.80    0.21
   3  -3  -4    1.39    0.24
   4  -3  -4  110.54    2.68
   5  -3  -4    0.54    0.32
   6  -3  -4    1.14    0.47
  -4  -2  -4   53.19    1.86
  -3  -2  -4    0.48    0.29
  -2  -2  -4    2.58    0.48
  -1  -2  -4  196.38    3.81
   0  -2  -4    3.06    0.25
   1  -2  -4    2.04    0.19
   2  -2  -4  233.69    4.88
   3  -2  -4    1.41    0.19
   4  -2  -4    1.14    0.31
   5  -2  -4   72.86    2.63
   6  -2  -4    0.40    0.47
  -4  -1  -4    0.16    0.40
  -3  -1  -4  114.90    3.73
  -2  -1  -4    1.51    0.25
  -1  -1  -4    2.49    0.23
   0  -1  -4  378.59    6.99
   1  -1  -4    5.72    0.21
   2  -1  -4    1.86    0.20
   3  -1  -4  172.09    4.34
   4  -1  -4    0.95    0.31
   5  -1  -4    0.45    0.36
  -5   0  -4   53.72    2.38
  -4   0  -4    0.20    0.34
  -3   0  -4    1.85    0.38
  -2   0  -4  234.80    5.64
  -1   0  -4    5.69    0.36
   0   0  -4    2.75    0.24
   1   0  -4  353.21    6.90
   2   0  -4    2.82    0.23
   3   0  -4    1.43    0.25
   4   0  -4   90.22    4.25
   5   0  -4    0.21    0.55
  -5   1  -4    0.84    0.45
  -4   1  -4  115.64    3.74
  -3   1  -4    1.12    0.33
  -1   1  -4  346.76    9.72
   0   1  -4    6.85    0.31
   1   1  -4    2.58    0.18
   2   1  -4  183.01    4.41
   3   1  -4    0.58    0.30
   4   1  -4    0.29    0.36
  -6   2  -4   46.42    2.90
  -5   2  -4   -0.05    0.34
  -4   2  -4    0.91    0.38
  -2   2  -4    2.23    0.37
  -1   2  -4    2.05    0.23
   0   2  -4  247.66    4.76
   1   2  -4    1.73    0.19
   2   2  -4    1.36    0.26
   3   2  -4   74.52    2.75
   4   2  -4   -0.23    0.70
  -6   3  -4    1.36    0.70
  -5   3  -4   76.29    3.12
  -4   3  -4    0.20    0.32
  -3   3  -4    2.22    0.35
  -2   3  -4  176.86    4.37
  -1   3  -4    1.31    0.22
   0   3  -4    1.62    0.26
   1   3  -4  114.59    2.97
   2   3  -4    0.13    0.44
   3   3  -4    0.50    0.73
  -5   4  -4    0.68    0.56
  -4   4  -4   93.46    4.18
  -3   4  -4    0.21    0.27
  -2   4  -4    1.33    0.34
  -1   4  -4  113.11    3.71
   0   4  -4    0.12    0.27
   1   4  -4    0.23    0.51
   2   4  -4   40.85    3.12
  -5   5  -4    0.07    0.41
  -4   5  -4    0.89    0.40
  -3   5  -4   79.69    2.82
  -2   5  -4   -0.37    0.32
  -1   5  -4    0.82    0.44
   0   5  -4   52.88    2.31
  -4   6  -4    0.33    0.50
  -3   6  -4    0.70    0.39
  -2   6  -4   45.63    1.70
   2  -6  -3    5.57    0.96
   3  -6  -3    1.00    0.61
   4  -6  -3    1.16    0.71
   0  -5  -3   12.12    1.92
   1  -5  -3    0.45    0.45
   2  -5  -3    2.28    0.58
   3  -5  -3    8.80    1.05
   4  -5  -3    0.98    0.54
   5  -5  -3    1.54    0.77
  -2  -4  -3    5.57    1.02
  -1  -4  -3    0.28    0.49
   0  -4  -3    2.29    0.45
   1  -4  -3   17.85    0.97
   2  -4  -3    0.35    0.27
   3  -4  -3    3.68    0.48
   4  -4  -3   11.77    0.86
   5  -4  -3    0.62    0.46
   6  -4  -3    0.79    0.57
  -3  -3  -3    0.67    0.60
  -2  -3  -3    2.01    0.57
  -1  -3  -3   20.80    1.39
   0  -3  -3    0.76    0.26
   1  -3  -3    5.68    0.51
   2  -3  -3   30.18    0.83
   3  -3  -3    0.99    0.21
   4  -3  -3    3.84    0.39
   5  -3  -3   11.12    0.82
   6  -3  -3    0.93    0.48
  -4  -2  -3    2.14    0.51
  -3  -2  -3   12.78    1.13
  -2  -2  -3    0.91    0.36
  -1  -2  -3    6.45    0.38
   0  -2  -3   47.03    1.08
   1  -2  -3    0.67    0.12
   2  -2  -3    7.22    0.37
   3  -2  -3   29.28    0.78
   4  -2  -3    0.51    0.26
   5  -2  -3    1.43    0.42
   6  -2  -3    7.49    0.88
  -4  -1  -3    0.72    0.43
  -3  -1  -3    2.36    0.61
  -2  -1  -3   30.35    0.98
  -1  -1  -3    0.60    0.14
   0  -1  -3   14.48    0.40
   1  -1  -3   64.39    1.41
   2  -1  -3    0.73    0.15
   3  -1  -3    6.36    0.45
   4  -1  -3   15.04    0.87
   5  -1  -3    0.64    0.37
  -5   0  -3    4.49    0.70
  -4   0  -3   14.94    1.14
  -3   0  -3    0.49    0.24
  -2   0  -3    8.88    0.48
  -1   0  -3   66.29    1.60
   0   0  -3    0.80    0.13
   1   0  -3   13.01    0.36
   2   0  -3   42.31    1.03
   3   0  -3    0.54    0.20
   4   0  -3    2.83    0.52
   5   0  -3    7.93    1.19
  -5   1  -3    0.82    0.42
  -4   1  -3    8.92    1.19
  -3   1  -3   29.40    0.97
  -1   1  -3   12.67    0.81
   0   1  -3   70.23    1.35
   1   1  -3    0.92    0.12
   2   1  -3    6.43    0.37
   3   1  -3   16.67    0.92
   4   1  -3    0.98    0.42
  -6   2  -3    3.57    0.70
  -5   2  -3    9.24    0.92
  -4   2  -3    0.82    0.29
  -2   2  -3   42.78    1.57
  -1   2  -3    0.52    0.14
   0   2  -3    7.65    0.31
   1   2  -3   30.41    0.80
   2   2  -3    1.59    0.35
   3   2  -3    2.23    0.48
   4   2  -3    7.95    1.51
  -6   3  -3    0.37    0.52
  -4   3  -3   16.68    0.74
  -3   3  -3    0.66    0.25
  -2   3  -3    8.90    0.58
  -1   3  -3   27.30    0.92
   0   3  -3    0.73    0.20
   1   3  -3    3.91    0.41
   2   3  -3   10.88    1.48
   3   3  -3    0.37    0.67
  -5   4  -3    0.62    0.51
  -3   4  -3   15.21    0.91
  -2   4  -3    0.53    0.29
  -1   4  -3    4.98    0.57
   0   4  -3   11.19    0.93
   1   4  -3   -0.06    0.44
   2   4  -3    1.78    0.85
  -5   5  -3    7.59    0.86
  -4   5  -3    0.30    0.35
  -2   5  -3    9.58    0.91
  -1   5  -3    0.62    0.31
   0   5  -3    1.82    0.54
  -4   6  -3    6.06    0.82
  -3   6  -3    0.40    0.47
  -2   6  -3    3.34    1.02
   2  -6  -2    8.06    1.12
   3  -6  -2    1.79    0.67
   4  -6  -2    0.55    0.71
   0  -5  -2    5.51    1.39
   1  -5  -2    0.35    0.41
   2  -5  -2    0.81    0.47
   3  -5  -2   11.16    1.17
   4  -5  -2    1.95    0.66
   5  -5  -2    0.58    0.62
  -2  -4  -2    5.87    1.41
  -1  -4  -2    1.07    0.56
   0  -4  -2    0.46    0.32
   1  -4  -2   16.85    0.95
   2  -4  -2    1.42    0.32
   3  -4  -2    1.57    0.33
   4  -4  -2   11.97    0.84
   5  -4  -2    2.68    0.49
   6  -4  -2    0.88    0.63
  -3  -3  -2    0.19    0.55
  -2  -3  -2    0.86    0.48
  -1  -3  -2   16.82    0.90
   0  -3  -2    1.07    0.29
   1  -3  -2    1.77    0.26
   2  -3  -2   24.50    0.64
   3  -3  -2    1.08    0.22
   4  -3  -2    1.02    0.26
   5  -3  -2   10.53    0.78
   6  -3  -2    2.35    0.55
  -4  -2  -2    0.29    0.56
  -3  -2  -2   13.02    1.14
  -2  -2  -2    0.72    0.33
  -1  -2  -2    2.01    0.28
   0  -2  -2   37.04    0.79
   1  -2  -2    0.87    0.11
   2  -2  -2    2.32    0.19
   3  -2  -2   23.69    0.69
   4  -2  -2    1.56    0.31
   5  -2  -2    0.93    0.37
   6  -2  -2    6.15    0.80
  -4  -1  -2    0.00    0.37
  -3  -1  -2    1.21    0.39
  -2  -1  -2   25.53    0.89
  -1  -1  -2    1.22    0.18
   0  -1  -2    3.97    0.21
   1  -1  -2   49.60    1.13
   2  -1  -2    0.84    0.15
   3  -1  -2    1.71    0.18
   4  -1  -2   15.34    0.86
   5  -1  -2    0.19    0.50
  -5   0  -2    1.38    0.53
  -4   0  -2   14.71    1.15
  -3   0  -2    0.72    0.25
  -2   0  -2    2.77    0.30
  -1   0  -2   51.41    1.30
   0   0  -2    0.80    0.12
   1   0  -2    3.62    0.18
   2   0  -2   33.61    0.99
   3   0  -2    0.54    0.21
   4   0  -2    0.75    0.37
   5   0  -2    7.94    1.18
  -5   1  -2    0.71    0.41
  -4   1  -2    1.39    0.37
  -3   1  -2   26.54    0.90
   0   1  -2   54.57    1.08
   1   1  -2    1.12    0.13
   2   1  -2    2.01    0.25
   3   1  -2   17.31    0.94
   4   1  -2    1.02    0.40
  -6   2  -2    0.95    0.57
  -5   2  -2   12.09    1.02
  -4   2  -2    0.56    0.27
  -2   2  -2   34.27    1.30
  -1   2  -2    0.63    0.13
   0   2  -2    2.21    0.17
   1   2  -2   25.52    0.71
   2   2  -2    0.24    0.25
   3   2  -2    0.86    0.38
   4   2  -2    7.34    1.43
  -6   3  -2    0.38    0.51
  -5   3  -2    2.08    0.62
  -4   3  -2   16.39    0.86
  -3   3  -2    0.98    0.26
  -2   3  -2    1.65    0.24
  -1   3  -2   24.23    0.82
   0   3  -2    0.22    0.17
   1   3  -2    1.24    0.27
   2   3  -2   12.39    1.55
   3   3  -2    0.72    0.72
  -6   4  -2    7.89    1.79
  -5   4  -2    0.80    0.56
  -4   4  -2    1.56    0.37
  -3   4  -2   16.52    0.93
  -2   4  -2    0.27    0.26
  -1   4  -2    1.32    0.35
   0   4  -2   14.14    0.95
   1   4  -2    0.12    0.54
   2   4  -2    1.07    0.78
  -5   5  -2    8.27    0.85
  -4   5  -2    0.00    0.34
  -3   5  -2    1.36    0.33
  -2   5  -2    8.88    0.68
  -1   5  -2    0.39    0.30
   0   5  -2    1.26    0.53
  -4   6  -2    7.85    0.90
  -3   6  -2    0.24    0.46
  -2   6  -2    0.56    0.39
   2  -6  -1   -0.97    0.47
   3  -6  -1    9.02    2.00
   4  -6  -1    0.61    0.67
   0  -5  -1   -0.57    0.67
   2  -5  -1    1.29    0.49
   3  -5  -1    0.17    0.40
   4  -5  -1    7.45    1.79
   5  -5  -1    0.13    0.63
  -2  -4  -1    0.12    0.78
  -1  -4  -1    6.27    0.94
   0  -4  -1    1.16    0.38
   1  -4  -1   -0.04    0.19
   3  -4  -1    1.85    0.29
   4  -4  -1   -0.02    0.26
   5  -4  -1   11.76    1.97
   6  -4  -1    0.32    0.59
  -3  -3  -1    2.88    0.79
  -2  -3  -1    1.36    0.52
  -1  -3  -1    0.13    0.24
   0  -3  -1    6.95    0.44
   1  -3  -1    3.98    0.34
   2  -3  -1    0.22    0.17
   4  -3  -1    2.05    0.30
   5  -3  -1    0.17    0.31
  -4  -2  -1    0.99    0.62
  -3  -2  -1   -0.27    0.32
  -2  -2  -1    6.61    0.70
  -1  -2  -1    4.32    0.40
   0  -2  -1    0.90    0.12
   1  -2  -1    8.38    0.47
   2  -2  -1    4.91    0.26
   3  -2  -1    0.46    0.15
   5  -2  -1    0.69    0.36
   6  -2  -1    0.25    0.61
  -4  -1  -1    5.93    0.80
  -3  -1  -1    2.70    0.49
  -2  -1  -1    0.67    0.21
  -1  -1  -1    7.66    0.41
   0  -1  -1   10.59    0.27
   1  -1  -1    2.41    0.14
   2  -1  -1    7.72    0.32
   3  -1  -1    3.56    0.25
   4  -1  -1   -0.13    0.21
  -5   0  -1    0.59    0.49
  -4   0  -1    0.39    0.35
  -3   0  -1    6.18    0.51
  -2   0  -1    5.48    0.41
  -1   0  -1    3.03    0.30
   1   0  -1    9.65    0.30
   2   0  -1    1.07    0.13
   4   0  -1    1.06    0.36
   5   0  -1   -0.10    0.53
  -5   1  -1    5.22    0.73
  -4   1  -1    1.80    0.38
  -3   1  -1    0.75    0.23
   0   1  -1    2.67    0.13
   1   1  -1    6.02    0.29
   2   1  -1    4.52    0.36
   3   1  -1    0.18    0.26
   4   1  -1    8.59    0.81
  -6   2  -1    0.07    0.49
  -5   2  -1    1.37    0.80
  -4   2  -1    4.53    0.49
  -2   2  -1    0.65    0.20
  -1   2  -1    5.14    0.30
   0   2  -1    5.26    0.25
   1   2  -1    0.41    0.13
   2   2  -1    5.43    0.58
   3   2  -1    1.04    0.39
   4   2  -1   -0.21    0.62
  -6   3  -1    1.88    1.09
  -5   3  -1    0.74    0.53
  -4   3  -1    0.62    0.31
  -3   3  -1    5.16    0.51
  -2   3  -1    3.69    0.31
  -1   3  -1    0.43    0.16
   0   3  -1    4.59    0.40
   1   3  -1    2.18    0.40
   2   3  -1    0.34    0.48
   3   3  -1    2.82    0.97
  -6   4  -1    0.01    1.12
  -5   4  -1    5.22    0.73
  -4   4  -1    1.20    0.36
  -3   4  -1    0.41    0.27
  -2   4  -1    4.92    0.57
  -1   4  -1    1.78    0.38
   0   4  -1    0.05    0.27
   1   4  -1    4.41    1.00
   2   4  -1   -0.18    0.62
  -5   5  -1    0.60    0.53
  -4   5  -1    3.11    0.57
  -3   5  -1    1.05    0.33
  -2   5  -1    0.69    0.29
  -1   5  -1    3.29    0.46
   0   5  -1    0.58    0.46
  -4   6  -1    0.27    0.48
  -3   6  -1    4.31    0.67
  -2   6  -1    0.64    0.40
   2  -6   0    0.70    0.59
   3  -6   0  120.37    4.77
   4  -6   0   -0.21    0.63
   0  -5   0   -0.28    0.67
   1  -5   0  175.91    5.92
   2  -5   0   -0.28    0.40
   3  -5   0    0.51    0.45
   4  -5   0  165.68    6.18
   5  -5   0    0.10    0.59
  -2  -4   0   -0.57    0.71
  -1  -4   0  175.50    8.46
   0  -4   0    0.16    0.31
   1  -4   0    0.32    0.23
   2  -4   0  364.04    7.50
   3  -4   0    0.21    0.21
   4  -4   0    0.22    0.27
   5  -4   0  176.96    4.72
   6  -4   0    0.18    0.54
  -3  -3   0  125.96    4.49
  -2  -3   0   -0.04    0.41
  -1  -3   0    0.60    0.28
   0  -3   0  497.43    9.56
   1  -3   0    1.63    0.24
   2  -3   0    1.23    0.21
   3  -3   0  461.78    8.47
   4  -3   0    0.50    0.23
   5  -3   0    0.17    0.29
   6  -3   0  125.58    4.05
  -4  -2   0    0.38    0.55
  -3  -2   0   -0.26    0.34
  -2  -2   0  385.64    8.71
  -1  -2   0    2.58    0.23
   0  -2   0    3.29    0.20
   1  -2   0  895.39   17.72
   2  -2   0    2.60    0.19
   3  -2   0    1.84    0.17
   4  -2   0  358.25    7.51
   5  -2   0    0.31    0.33
   6  -2   0    0.05    0.61
  -4  -1   0  178.70    5.65
  -3  -1   0    0.58    0.32
  -2  -1   0    1.67    0.28
  -1  -1   0  943.02   20.61
   0  -1   0    6.96    0.26
   1  -1   0    6.00    0.18
   2  -1   0  886.67   14.27
   3  -1   0    1.71    0.19
   4  -1   0    0.74    0.26
   5  -1   0  181.49    7.62
  -5   0   0   -0.41    0.42
  -4   0   0    0.56    0.35
  -3   0   0  480.76   11.19
  -2   0   0    2.78    0.45
  -1   0   0    7.60    0.48
   1   0   0    6.07    0.24
   2   0   0    3.29    0.22
   3   0   0  461.56   13.65
   4   0   0    0.05    0.29
   5   0   0    0.45    0.57
  -5   1   0  171.90    5.62
  -4   1   0    0.35    0.46
  -3   1   0    1.76    0.27
  -2   1   0  905.71   25.26
  -1   1   0    6.20    0.33
   0   1   0    6.75    0.21
   1   1   0  978.26   17.60
   2   1   0    2.34    0.28
   3   1   0    0.47    0.28
   4   1   0  181.51    5.63
  -6   2   0   -0.16    0.49
  -5   2   0    0.11    0.64
  -4   2   0  367.49    8.83
  -3   2   0    2.23    0.31
  -2   2   0    2.32    0.29
  -1   2   0  904.66   25.13
   0   2   0    3.24    0.26
   1   2   0    2.09    0.17
   2   2   0  385.81   10.67
   3   2   0    0.23    0.32
   4   2   0   -0.19    0.64
  -6   3   0  117.39    6.92
  -5   3   0    0.48    0.52
  -4   3   0    0.75    0.30
  -3   3   0  476.13   10.86
  -2   3   0    0.97    0.26
  -1   3   0    1.93    0.23
   0   3   0  503.72   10.95
   1   3   0    0.87    0.32
   2   3   0    0.39    0.47
   3   3   0  125.90    6.52
  -6   4   0   -0.18    0.74
  -5   4   0  173.43    5.60
  -4   4   0    0.45    0.31
  -3   4   0    0.70    0.24
  -2   4   0  358.93   10.56
  -1   4   0    0.47    0.22
   0   4   0    0.14    0.29
   1   4   0  176.90    8.45
   2   4   0    0.05    0.57
  -5   5   0    0.24    0.56
  -4   5   0  172.60    5.31
  -3   5   0   -0.20    0.31
  -2   5   0   -0.22    0.25
  -1   5   0  171.63    4.43
   0   5   0    0.39    0.43
  -4   6   0    0.46    0.47
  -3   6   0  118.51    4.05
  -2   6   0   -0.29    0.34
   2  -6   1    0.04    0.55
   3  -6   1    2.36    0.75
   4  -6   1    0.36    0.66
   0  -5   1    0.25    0.78
   1  -5   1    3.20    0.67
   2  -5   1    0.61    0.32
   3  -5   1    0.99    0.37
   4  -5   1    3.80    0.83
   5  -5   1    0.52    0.62
  -2  -4   1    0.67    0.83
  -1  -4   1    4.26    1.15
   0  -4   1    0.11    0.32
   1  -4   1    1.54    0.29
   2  -4   1    4.63    0.40
   3  -4   1    0.58    0.22
   4  -4   1    1.78    0.37
   5  -4   1    4.17    0.57
   6  -4   1    0.36    0.55
  -3  -3   1    4.39    0.83
  -2  -3   1    0.37    0.43
  -1  -3   1    2.48    0.40
   0  -3   1    4.93    0.39
   1  -3   1    0.50    0.17
   2  -3   1    3.30    0.30
   3  -3   1    5.41    0.34
   4  -3   1    0.84    0.24
   5  -3   1    1.33    0.36
   6  -3   1    3.06    0.62
  -4  -2   1   -0.25    0.52
  -3  -2   1    1.39    0.48
  -2  -2   1    5.87    0.53
  -1  -2   1    0.35    0.14
   0  -2   1    5.76    0.33
   1  -2   1    5.32    0.31
   2  -2   1    1.04    0.12
   3  -2   1    3.64    0.22
   4  -2   1    5.29    0.45
   5  -2   1    0.45    0.34
   6  -2   1    0.23    0.63
  -4  -1   1   11.45    1.33
  -3  -1   1   -0.08    0.27
  -2  -1   1    3.39    0.37
  -1  -1   1    6.10    0.39
   0  -1   1    2.61    0.16
   1  -1   1    8.79    0.22
   2  -1   1    6.00    0.23
   3  -1   1    0.65    0.15
   4  -1   1    2.76    0.39
   5  -1   1    4.07    0.85
  -5   0   1    0.39    0.50
  -4   0   1    2.05    0.46
  -2   0   1    1.11    0.34
  -1   0   1    9.79    0.36
   1   0   1    2.80    0.17
   2   0   1    6.17    0.31
   3   0   1    5.84    0.59
   4   0   1    0.31    0.30
   5   0   1    0.50    0.57
  -4   1   1    0.12    0.42
  -3   1   1    3.78    0.37
  -2   1   1    9.34    0.63
  -1   1   1    2.79    0.21
   0   1   1   10.20    0.34
   1   1   1    6.64    0.35
   2   1   1    0.31    0.19
   3   1   1    1.94    0.39
   4   1   1    4.89    0.68
  -6   2   1   -0.19    0.49
  -5   2   1    0.27    0.55
  -3   2   1    0.13    0.20
  -2   2   1    6.01    0.42
  -1   2   1    6.78    0.29
   0   2   1    0.85    0.15
   1   2   1    4.41    0.25
   2   2   1    6.87    0.51
   3   2   1   -0.11    0.30
   4   2   1    0.61    0.47
  -5   3   1    0.36    0.71
  -4   3   1    1.91    0.37
  -2   3   1    0.19    0.18
  -1   3   1    4.12    0.30
   0   3   1    6.23    0.37
   1   3   1    0.31    0.25
   2   3   1    0.76    0.54
   3   3   1    2.79    0.88
  -6   4   1    0.15    0.73
  -4   4   1    0.30    0.31
  -3   4   1    1.49    0.30
  -1   4   1    0.20    0.19
   0   4   1    0.89    0.33
   1   4   1    5.66    1.10
   2   4   1    0.06    0.60
  -5   5   1    0.32    0.61
  -3   5   1    0.12    0.34
  -2   5   1    0.85    0.31
  -1   5   1   11.74    1.48
   0   5   1    0.23    0.41
  -4   6   1    0.46    0.47
  -2   6   1    0.61    0.41
   2  -6   2    0.27    0.60
   3  -6   2    0.88    0.62
   4  -6   2    6.98    1.10
   0  -5   2    0.34    0.49
   1  -5   2    0.49    0.43
   2  -5   2   10.07    0.82
   3  -5   2    0.69    0.35
   4  -5   2    0.14    0.50
   5  -5   2    6.86    1.11
  -2  -4   2    1.07    0.96
  -1  -4   2    0.40    0.64
   0  -4   2   12.17    1.10
   1  -4   2    1.27    0.31
   2  -4   2    0.78    0.26
   3  -4   2   15.79    0.69
   4  -4   2    0.76    0.27
   5  -4   2    0.65    0.39
   6  -4   2    6.22    0.92
  -3  -3   2   -0.13    0.57
  -2  -3   2   11.58    1.12
  -1  -3   2    1.46    0.35
   0  -3   2    0.59    0.19
   1  -3   2   24.15    0.78
   2  -3   2    1.31    0.21
   3  -3   2    0.57    0.16
   4  -3   2   16.22    0.60
   5  -3   2    1.00    0.35
   6  -3   2    0.32    0.45
  -4  -2   2    5.69    0.96
  -3  -2   2    1.09    0.47
  -2  -2   2    0.62    0.27
  -1  -2   2   27.50    0.74
   0  -2   2    2.22    0.21
   1  -2   2    0.88    0.14
   2  -2   2   32.50    0.70
   3  -2   2    1.62    0.16
   4  -2   2    0.38    0.22
   5  -2   2   11.48    0.92
   6  -2   2    0.62    0.66
  -4  -1   2    1.00    0.45
  -3  -1   2   15.88    0.89
  -2  -1   2    1.68    0.29
  -1  -1   2    1.00    0.12
   0  -1   2   52.13    1.12
   1  -1   2    3.03    0.13
   2  -1   2    0.87    0.10
   3  -1   2   25.70    0.72
   4  -1   2    1.10    0.30
   5  -1   2    0.15    0.48
  -5   0   2    8.77    1.06
  -4   0   2    1.01    0.40
  -3   0   2    0.73    0.26
  -2   0   2   35.80    1.51
  -1   0   2    3.82    0.25
   0   0   2    0.92    0.17
   1   0   2   52.73    1.30
   2   0   2    2.41    0.24
   3   0   2    0.45    0.27
   4   0   2   12.89    1.04
   5   0   2    1.09    0.63
  -5   1   2    1.08    0.49
  -4   1   2   14.47    1.34
  -3   1   2    1.60    0.27
  -2   1   2    1.08    0.15
  -1   1   2   49.81    1.24
   0   1   2    3.53    0.21
   1   1   2    1.02    0.17
   2   1   2   25.12    0.88
   3   1   2    0.74    0.29
   4   1   2    0.30    0.38
  -6   2   2    5.13    0.87
  -5   2   2    0.62    0.59
  -4   2   2    1.92    0.37
  -3   2   2   24.80    0.96
  -2   2   2    2.43    0.22
  -1   2   2    0.96    0.20
   0   2   2   35.92    0.84
   1   2   2    1.83    0.18
   2   2   2    0.55    0.25
   3   2   2   12.08    0.99
   4   2   2    0.27    0.47
  -6   3   2    3.06    1.29
  -5   3   2    9.65    1.50
  -4   3   2    1.46    0.30
  -3   3   2    1.08    0.25
  -2   3   2   23.60    0.83
  -1   3   2    1.92    0.25
   0   3   2    1.46    0.24
   1   3   2   16.46    0.93
   2   3   2    1.09    0.57
   3   3   2    0.41    0.63
  -6   4   2    0.08    0.76
  -4   4   2   14.24    0.98
  -3   4   2    1.10    0.35
  -2   4   2    1.03    0.27
  -1   4   2   15.64    0.72
   0   4   2    0.77    0.36
   1   4   2    0.43    0.38
   2   4   2    6.88    1.35
  -5   5   2    0.37    0.58
  -3   5   2   10.87    0.90
  -2   5   2    0.77    0.30
  -1   5   2    0.38    0.38
   0   5   2    8.59    0.95
  -4   6   2    0.24    0.47
  -3   6   2    2.68    0.62
  -2   6   2    6.32    0.83
   2  -6   3    3.11    0.77
   3  -6   3    0.36    0.58
   4  -6   3    4.55    1.01
   0  -5   3    3.25    0.70
   1  -5   3    0.98    0.52
   2  -5   3    8.93    0.76
   3  -5   3    6.54    0.89
   4  -5   3    0.20    0.35
   5  -5   3    8.91    1.20
  -2  -4   3    0.40    0.94
  -1  -4   3    0.92    0.48
   0  -4   3   12.77    1.12
   1  -4   3    5.62    1.16
   2  -4   3    0.74    0.26
   3  -4   3   14.22    0.83
   4  -4   3    6.49    1.41
   5  -4   3    0.74    0.58
   6  -4   3    4.27    1.41
  -3  -3   3   -0.05    0.57
  -2  -3   3   11.80    1.16
  -1  -3   3    3.72    0.48
   0  -3   3    0.91    0.22
   1  -3   3   28.10    0.87
   2  -3   3    9.45    0.59
   3  -3   3    0.43    0.15
   4  -3   3   16.36    0.56
   5  -3   3    4.74    0.67
   6  -3   3    0.56    0.48
  -4  -2   3    5.75    0.96
  -3  -2   3    1.85    0.54
  -2  -2   3    0.73    0.27
  -1  -2   3   31.66    0.83
   0  -2   3    8.49    0.39
   1  -2   3    0.71    0.13
   2  -2   3   40.06    0.82
   3  -2   3    9.04    1.19
   4  -2   3    0.48    0.18
   5  -2   3    9.33    0.86
   6  -2   3    2.87    0.89
  -4  -1   3    1.22    0.50
  -3  -1   3   16.97    0.88
  -2  -1   3    6.01    0.50
  -1  -1   3    0.72    0.12
   0  -1   3   64.75    1.38
   1  -1   3   12.29    0.28
   2  -1   3    0.50    0.09
   3  -1   3   29.35    0.70
   4  -1   3    6.36    0.69
   5  -1   3    1.17    0.57
  -5   0   3    9.30    1.10
  -4   0   3    3.00    0.55
  -3   0   3    1.00    0.40
  -2   0   3   43.99    1.31
  -1   0   3   13.42    0.52
   0   0   3    0.69    0.10
   1   0   3   66.10    1.63
   2   0   3    8.99    0.45
   3   0   3    0.83    0.21
   4   0   3   13.83    1.07
   5   0   3    3.42    0.85
  -5   1   3    0.39    0.41
  -4   1   3   17.01    1.46
  -3   1   3    5.67    0.46
  -2   1   3    0.89    0.14
  -1   1   3   63.52    1.55
   0   1   3   13.85    0.43
   1   1   3    0.62    0.15
   2   1   3   32.06    1.01
   3   1   3    3.53    0.50
   4   1   3    0.43    0.39
  -6   2   3    6.04    0.91
  -5   2   3    2.82    0.78
  -4   2   3    0.69    0.31
  -3   2   3   29.41    0.94
  -2   2   3    7.76    0.38
  -1   2   3    0.40    0.13
   0   2   3   44.81    1.18
   1   2   3    5.89    0.30
   2   2   3    1.00    0.26
   3   2   3   12.77    1.01
   4   2   3    1.94    0.59
  -6   3   3    0.82    1.07
  -5   3   3   11.08    1.60
  -4   3   3    2.82    0.48
  -3   3   3    0.34    0.26
  -2   3   3   28.90    0.95
  -1   3   3    5.39    0.41
   0   3   3    0.84    0.21
   1   3   3   16.27    0.94
   2   3   3    3.14    0.86
   3   3   3    0.48    0.67
  -6   4   3    0.88    0.86
  -5   4   3    0.90    0.48
  -4   4   3   14.21    0.97
  -3   4   3    2.40    0.41
  -2   4   3    0.42    0.23
  -1   4   3   16.87    0.75
   0   4   3    2.02    0.45
   1   4   3    0.51    0.39
   2   4   3    5.66    1.27
  -5   5   3    1.38    0.71
  -4   5   3    0.18    0.36
  -3   5   3   13.12    0.97
  -2   5   3    1.43    0.33
  -1   5   3    0.65    0.39
   0   5   3    7.10    0.87
  -4   6   3    0.90    0.51
  -3   6   3    0.71    0.50
  -2   6   3    6.29    0.83
   2  -6   4   44.83    2.46
   3  -6   4    0.84    0.49
   4  -6   4   -0.71    0.57
   0  -5   4   55.79    2.58
   1  -5   4    0.54    0.47
   2  -5   4    0.19    0.31
   3  -5   4   73.61    2.44
   4  -5   4    1.40    0.44
   5  -5   4    0.17    0.56
  -2  -4   4   43.29    3.52
  -1  -4   4    1.00    0.48
   0  -4   4   -0.03    0.33
   1  -4   4  114.47    3.13
   2  -4   4    1.12    0.31
   3  -4   4    0.29    0.26
   4  -4   4   92.05    2.72
   5  -4   4    1.44    0.61
  -3  -3   4    0.03    0.73
  -2  -3   4   -0.27    0.40
  -1  -3   4  117.73    3.15
   0  -3   4    2.01    0.27
   1  -3   4    1.12    0.21
   2  -3   4  177.94    3.82
   3  -3   4    1.47    0.17
   4  -3   4    0.07    0.14
   5  -3   4   80.17    2.25
   6  -3   4    1.07    0.76
  -4  -2   4    0.47    0.58
  -3  -2   4   78.35    2.93
  -2  -2   4    1.64    0.33
  -1  -2   4    1.84    0.22
   0  -2   4  243.57    4.86
   1  -2   4    2.01    0.16
   2  -2   4    2.87    0.17
   3  -2   4  183.95    2.86
   4  -2   4    1.31    0.19
   5  -2   4    0.13    0.31
   6  -2   4   50.37    3.01
  -4  -1   4    0.90    0.47
  -3  -1   4    0.51    0.28
  -2  -1   4  186.07    4.51
  -1  -1   4    2.52    0.20
   0  -1   4    5.87    0.21
   1  -1   4  345.52    5.69
   2  -1   4    1.93    0.14
   3  -1   4    1.44    0.17
   4  -1   4  117.29    3.90
   5  -1   4    0.67    0.56
  -5   0   4    0.04    0.49
  -4   0   4   88.52    2.78
  -3   0   4    2.02    0.54
  -2   0   4    3.19    0.35
  -1   0   4  362.81    8.25
   0   0   4    2.95    0.19
   1   0   4    5.66    0.24
   2   0   4  239.93    5.58
   3   0   4    1.63    0.28
   4   0   4    0.27    0.29
   5   0   4   63.59    2.58
  -5   1   4    1.75    0.53
  -4   1   4    0.72    0.47
  -3   1   4  179.88    4.56
  -2   1   4    1.82    0.19
  -1   1   4    5.44    0.24
   0   1   4  366.32    7.99
   1   1   4    2.42    0.24
   2   1   4    1.49    0.27
   3   1   4  117.87    3.76
   4   1   4    1.22    0.43
  -6   2   4    0.66    0.57
  -5   2   4   69.27    3.30
  -4   2   4    1.37    0.35
  -3   2   4    2.35    0.34
  -2   2   4  246.09    5.50
  -1   2   4    1.87    0.20
   0   2   4    3.12    0.27
   1   2   4  189.46    4.29
   2   2   4    1.27    0.28
   3   2   4   -0.09    0.28
   4   2   4   47.97    2.17
  -6   3   4    1.25    1.20
  -5   3   4    0.91    0.79
  -4   3   4  114.12    3.75
  -3   3   4    1.69    0.34
  -2   3   4    1.84    0.25
  -1   3   4  183.19    4.34
   0   3   4    1.30    0.24
   1   3   4    0.32    0.29
   2   3   4   77.06    4.26
   3   3   4    1.43    0.78
  -6   4   4   35.69    2.58
  -5   4   4    0.62    0.43
  -4   4   4    0.76    0.35
  -3   4   4  109.68    3.53
  -2   4   4    1.27    0.27
  -1   4   4    0.65    0.24
   0   4   4   91.32    3.15
   1   4   4    0.61    0.42
   2   4   4   -0.28    0.61
  -5   5   4   52.36    3.16
  -4   5   4    0.55    0.39
  -3   5   4    0.68    0.37
  -2   5   4   72.23    2.20
  -1   5   4    1.32    0.46
   0   5   4    0.16    0.42
  -4   6   4   40.91    1.96
  -3   6   4    0.41    0.48
  -2   6   4    0.45    0.49
   2  -6   5   44.07    1.90
   3  -6   5    0.16    0.44
   4  -6   5    0.29    0.47
   0  -5   5   49.87    2.46
   1  -5   5    0.01    0.31
   2  -5   5    0.31    0.33
   3  -5   5   71.19    2.43
   4  -5   5    0.17    0.34
   5  -5   5   -0.16    0.56
  -2  -4   5   42.37    3.51
  -1  -4   5   -0.04    0.42
   0  -4   5    0.03    0.33
   1  -4   5  110.67    3.14
   2  -4   5    0.11    0.23
   3  -4   5    0.14    0.25
   4  -4   5   86.15    2.66
   5  -4   5    0.50    0.53
  -3  -3   5    0.26    0.83
  -2  -3   5    0.13    0.33
  -1  -3   5  116.50    3.17
   0  -3   5    0.21    0.19
   1  -3   5    0.11    0.14
   2  -3   5  181.15    3.90
   3  -3   5    0.32    0.13
   4  -3   5    0.59    0.16
   5  -3   5   78.67    2.23
   6  -3   5    0.49    0.70
  -4  -2   5    0.18    0.59
  -3  -2   5   74.25    2.91
  -2  -2   5    0.25    0.24
  -1  -2   5    0.09    0.15
   0  -2   5  252.95    5.11
   1  -2   5    0.50    0.10
   2  -2   5    0.15    0.08
   3  -2   5  183.74    2.92
   4  -2   5    0.15    0.16
   5  -2   5    0.80    0.54
   6  -2   5   47.80    2.96
  -4  -1   5   -0.13    0.35
  -3  -1   5    0.15    0.26
  -2  -1   5  188.10    4.62
  -1  -1   5    0.27    0.11
   0  -1   5    0.04    0.07
   1  -1   5  362.11    5.93
   2  -1   5    0.50    0.09
   3  -1   5    0.35    0.12
   4  -1   5  108.50    3.88
   5  -1   5    0.46    0.46
  -5   0   5    0.43    0.52
  -4   0   5   85.62    2.75
  -3   0   5    0.19    0.36
  -2   0   5    0.20    0.22
  -1   0   5  375.19    8.62
   0   0   5    0.47    0.14
   1   0   5    0.01    0.09
   2   0   5  251.13    5.89
   3   0   5    0.23    0.18
   4   0   5    0.51    0.34
   5   0   5   51.19    2.42
  -5   1   5    0.19    0.39
  -4   1   5    0.30    0.47
  -3   1   5  191.75    4.69
  -2   1   5    0.14    0.12
  -1   1   5    0.13    0.13
   0   1   5  384.45    8.33
   1   1   5    0.57    0.12
   2   1   5    0.09    0.18
   3   1   5  115.27    3.78
   4   1   5    0.20    0.36
  -6   2   5    1.00    0.58
  -5   2   5   75.31    3.39
  -4   2   5    0.23    0.28
  -3   2   5    0.33    0.18
  -2   2   5  253.17    5.78
  -1   2   5    0.42    0.14
   0   2   5    0.16    0.12
   1   2   5  194.91    4.40
   2   2   5    0.10    0.20
   3   2   5    0.11    0.31
   4   2   5   41.97    3.22
  -6   3   5    0.20    0.81
  -5   3   5    0.64    0.74
  -4   3   5  121.77    3.80
  -3   3   5    0.33    0.25
  -2   3   5    0.29    0.17
  -1   3   5  186.26    4.44
   0   3   5    0.02    0.17
   1   3   5    0.42    0.30
   2   3   5   73.67    4.24
   3   3   5    0.18    0.59
  -6   4   5   44.26    3.50
  -5   4   5    0.09    0.40
  -4   4   5    0.68    0.34
  -3   4   5  118.38    3.58
  -2   4   5    0.12    0.21
  -1   4   5    0.13    0.21
   0   4   5   90.80    3.13
   1   4   5    0.19    0.39
   2   4   5   -0.19    0.61
  -5   5   5   58.05    2.39
  -4   5   5    0.08    0.35
  -3   5   5    0.15    0.32
  -2   5   5   76.79    2.23
  -1   5   5   -0.08    0.34
   0   5   5    0.37    0.43
  -4   6   5   47.22    2.06
  -3   6   5    0.31    0.48
  -2   6   5   -0.56    0.46
   2  -6   6   10.15    0.95
   3  -6   6    2.30    0.57
   4  -6   6    0.48    1.31
   0  -5   6   11.63    1.28
   1  -5   6    4.38    0.58
   2  -5   6    0.24    0.32
   3  -5   6   17.18    1.06
   4  -5   6    4.37    0.62
   5  -5   6    0.28    0.49
  -2  -4   6    7.35    1.71
  -1  -4   6    6.48    0.89
   0  -4   6    0.09    0.35
   1  -4   6   26.56    1.13
   2  -4   6    8.17    0.67
   3  -4   6    0.37    0.27
   4  -4   6   22.75    1.09
   5  -4   6    5.06    0.62
  -3  -3   6    4.39    1.38
  -2  -3   6    0.26    0.42
  -1  -3   6   28.55    1.20
   0  -3   6   12.56    0.61
   1  -3   6    0.37    0.15
   2  -3   6   43.98    1.04
   3  -3   6   11.83    0.41
   4  -3   6    0.14    0.15
   5  -3   6   17.28    0.98
   6  -3   6    3.07    0.96
  -4  -2   6    0.40    0.64
  -3  -2   6   19.19    1.44
  -2  -2   6    9.89    0.73
  -1  -2   6    0.27    0.15
   0  -2   6   62.31    1.47
   1  -2   6   20.42    0.62
   2  -2   6    0.15    0.09
   3  -2   6   46.76    0.90
   4  -2   6    9.88    0.47
   5  -2   6    0.25    0.43
   6  -2   6   10.35    1.49
  -4  -1   6    4.69    0.77
  -3  -1   6    0.15    0.26
  -2  -1   6   47.70    1.49
  -1  -1   6   21.05    0.60
   0  -1   6    0.40    0.11
   1  -1   6   93.97    1.80
   2  -1   6   20.53    0.45
   3  -1   6    0.24    0.14
   4  -1   6   26.78    1.45
   5  -1   6    5.41    0.85
  -5   0   6    0.10    0.49
  -4   0   6   23.51    1.23
  -3   0   6   14.03    1.27
  -2   0   6    0.06    0.22
  -1   0   6   96.15    2.44
   0   0   6   28.94    0.74
   1   0   6    0.59    0.16
   2   0   6   64.91    1.43
   3   0   6   12.60    0.68
   4   0   6    0.36    0.35
   5   0   6   11.86    1.22
  -5   1   6    5.73    1.17
  -4   1   6   -0.45    0.39
  -3   1   6   49.37    1.52
  -2   1   6   19.71    0.65
  -1   1   6    0.37    0.13
   0   1   6   95.80    2.26
   1   1   6   22.40    0.71
   2   1   6    0.25    0.19
   3   1   6   28.95    1.38
   4   1   6    4.77    0.70
  -6   2   6    0.57    1.12
  -5   2   6   16.81    1.65
  -4   2   6    9.92    0.76
  -3   2   6    0.29    0.18
  -2   2   6   64.42    1.61
  -1   2   6   20.51    0.68
   0   2   6    0.09    0.13
   1   2   6   49.24    1.32
   2   2   6   10.43    0.91
   3   2   6   -0.11    0.41
   4   2   6   11.16    1.82
  -6   3   6    2.15    0.99
  -5   3   6   -0.15    0.65
  -4   3   6   36.51    1.48
  -3   3   6   10.70    0.74
  -2   3   6    0.08    0.16
  -1   3   6   45.98    1.36
   0   3   6   11.73    0.60
   1   3   6    0.20    0.27
   2   3   6   15.83    1.88
   3   3   6    3.26    1.04
  -6   4   6   10.26    1.90
  -5   4   6    6.09    0.81
  -4   4   6    0.27    0.30
  -3   4   6   32.31    1.33
  -2   4   6    9.86    0.63
  -1   4   6    0.33    0.22
   0   4   6   21.19    1.19
   1   4   6    5.51    0.75
   2   4   6    0.20    0.70
  -5   5   6   16.97    1.32
  -4   5   6    4.84    0.67
  -3   5   6    0.39    0.36
  -2   5   6   21.99    1.13
  -1   5   6    4.62    0.68
   0   5   6   -0.08    0.40
  -4   6   6   13.37    1.12
  -3   6   6    4.44    0.73
  -2   6   6    0.19    0.49
   2  -6   7    9.94    0.92
   3  -6   7    2.98    0.58
   0  -5   7   15.28    1.46
   1  -5   7    2.71    0.49
   2  -5   7    6.66    0.69
   3  -5   7   20.67    1.13
   4  -5   7    1.27    0.45
   5  -5   7    4.97    0.80
  -1  -4   7    1.64    0.56
   0  -4   7    7.20    0.87
   1  -4   7   39.11    1.41
   2  -4   7    1.74    0.36
   3  -4   7    6.89    0.63
   4  -4   7   28.01    1.20
   5  -4   7    2.37    0.58
  -3  -3   7    1.94    1.06
  -2  -3   7    7.68    0.98
  -1  -3   7   39.82    1.86
   0  -3   7    1.44    0.29
   1  -3   7   12.83    0.70
   2  -3   7   68.19    1.70
   3  -3   7    2.06    0.22
   4  -3   7    8.62    0.40
   5  -3   7   24.25    1.18
   6  -3   7    3.46    0.92
  -4  -2   7    3.06    1.09
  -3  -2   7   23.04    1.19
  -2  -2   7    1.71    0.36
  -1  -2   7   13.43    0.53
   0  -2   7   96.84    2.14
   1  -2   7    2.29    0.23
   2  -2   7   16.32    0.44
   3  -2   7   71.66    1.25
   4  -2   7    2.13    0.25
   5  -2   7    5.65    0.81
   6  -2   7   11.54    1.55
  -4  -1   7    2.79    0.66
  -3  -1   7   10.17    0.79
  -2  -1   7   71.93    2.05
  -1  -1   7    2.38    0.27
   0  -1   7   23.50    0.61
   1  -1   7  148.27    2.76
   2  -1   7    2.05    0.17
   3  -1   7   13.85    0.52
   4  -1   7   37.28    1.77
   5  -1   7    2.09    0.64
  -5   0   7    4.33    0.82
  -4   0   7   31.64    1.41
  -3   0   7    1.98    0.56
  -2   0   7   19.04    0.85
  -1   0   7  148.52    3.71
   0   0   7    1.09    0.21
   1   0   7   23.71    0.75
   2   0   7  100.24    2.53
   3   0   7    1.85    0.31
   4   0   7    7.66    0.84
   5   0   7   16.47    1.41
  -5   1   7    2.33    0.90
  -4   1   7    9.11    1.15
  -3   1   7   72.88    2.11
  -2   1   7    1.99    0.22
  -1   1   7   21.91    0.68
   0   1   7  150.02    3.49
   1   1   7    2.62    0.29
   2   1   7   13.78    0.68
   3   1   7   38.93    1.66
   4   1   7    2.13    0.51
  -6   2   7    2.76    1.46
  -5   2   7   22.76    1.96
  -4   2   7    1.82    0.42
  -3   2   7   11.98    0.59
  -2   2   7   96.87    2.37
  -1   2   7    1.82    0.23
   0   2   7   15.59    0.60
   1   2   7   73.05    1.88
   2   2   7    2.51    0.49
   3   2   7    6.90    1.25
   4   2   7   10.38    1.76
  -6   3   7    0.36    0.89
  -5   3   7    3.80    1.15
  -4   3   7   40.31    1.70
  -3   3   7    1.90    0.34
  -2   3   7   12.80    0.57
  -1   3   7   68.34    1.89
   0   3   7    1.57    0.26
   1   3   7    8.93    0.81
   2   3   7   22.45    1.94
   3   3   7    1.96    0.86
  -6   4   7   10.27    1.46
  -5   4   7    1.70    0.56
  -4   4   7    8.29    0.76
  -3   4   7   40.12    1.57
  -2   4   7    1.93    0.31
  -1   4   7    9.76    0.64
   0   4   7   28.65    1.41
   1   4   7    1.69    0.51
  -5   5   7   17.47    1.39
  -4   5   7    2.62    0.54
  -3   5   7    5.85    0.71
  -2   5   7   21.30    1.18
  -1   5   7    1.25    0.47
   0   5   7    4.18    0.74
  -4   6   7   12.54    1.63
  -3   6   7    3.30    0.67
   2  -6   8    0.85    0.62
   3  -6   8    9.10    0.90
   0  -5   8    2.62    0.74
   1  -5   8   13.66    0.96
   2  -5   8    9.61    0.83
   3  -5   8    5.39    0.65
   4  -5   8   12.98    1.00
   5  -5   8    8.87    1.00
  -1  -4   8   13.83    1.33
   0  -4   8   12.22    1.17
   1  -4   8   10.06    0.73
   2  -4   8   26.80    1.17
   3  -4   8   13.96    0.92
   4  -4   8    6.34    0.62
   5  -4   8   13.86    1.17
  -3  -3   8    9.25    1.83
  -2  -3   8   10.94    1.14
  -1  -3   8    9.80    1.00
   0  -3   8   36.22    1.25
   1  -3   8   24.69    0.97
   2  -3   8   19.57    0.70
   3  -3   8   35.33    1.05
   4  -3   8   18.23    0.53
   5  -3   8    5.22    0.74
   6  -3   8    8.15    1.28
  -3  -2   8    5.46    0.66
  -2  -2   8   26.34    1.12
  -1  -2   8   25.71    0.78
   0  -2   8   27.20    0.80
   1  -2   8   67.30    1.56
   2  -2   8   31.29    0.69
   3  -2   8   19.01    0.49
   4  -2   8   27.72    0.87
   5  -2   8   13.43    1.19
   6  -2   8    0.56    0.73
  -4  -1   8   15.53    1.36
  -3  -1   8   16.46    1.03
  -2  -1   8   17.96    0.89
  -1  -1   8   68.29    1.87
   0  -1   8   44.63    1.04
   1  -1   8   44.58    0.94
   2  -1   8   66.43    1.38
   3  -1   8   26.15    0.77
   4  -1   8    9.83    0.95
   5  -1   8   12.15    1.23
  -5   0   8    7.80    1.08
  -4   0   8    6.05    0.71
  -3   0   8   38.35    1.93
  -2   0   8   32.41    1.20
  -1   0   8   44.14    1.10
   0   0   8   99.43    2.13
   1   0   8   45.36    1.25
   2   0   8   30.61    0.80
   3   0   8   37.40    1.25
   4   0   8   13.03    1.09
   5   0   8    2.63    0.70
  -5   1   8   13.90    1.64
  -4   1   8   14.89    1.50
  -3   1   8   20.14    0.93
  -2   1   8   66.96    1.73
  -1   1   8   41.14    1.00
   0   1   8   43.08    1.19
   1   1   8   74.31    1.84
   2   1   8   26.49    1.28
   3   1   8    9.68    0.85
   4   1   8   12.50    1.13
  -5   2   8    5.12    1.03
  -4   2   8   27.55    1.22
  -3   2   8   23.56    0.86
  -2   2   8   28.70    0.92
  -1   2   8   68.42    1.75
   0   2   8   31.27    0.97
   1   2   8   19.80    0.74
   2   2   8   30.26    1.42
   3   2   8   12.94    1.70
  -6   3   8    7.94    1.28
  -5   3   8    7.99    1.55
  -4   3   8   10.63    0.92
  -3   3   8   35.81    1.40
  -2   3   8   23.43    0.85
  -1   3   8   18.90    0.75
   0   3   8   36.65    1.16
   1   3   8   17.02    1.02
   2   3   8    4.59    0.76
   3   3   8    8.53    1.53
  -6   4   8    2.48    1.32
  -5   4   8   15.39    1.28
  -4   4   8   13.00    0.82
  -3   4   8   11.12    0.84
  -2   4   8   24.10    1.20
  -1   4   8   15.73    0.79
   0   4   8    6.59    0.73
   1   4   8   13.32    1.16
  -5   5   8    3.19    0.94
  -4   5   8   13.97    1.09
  -3   5   8   10.90    0.93
  -2   5   8    7.12    0.75
  -1   5   8   13.85    1.18
   0   5   8    7.59    0.95
  -4   6   8    3.76    1.06
  -3   6   8    8.97    1.00
   2  -6   9    0.04    0.61
   3  -6   9    0.90    0.71
   0  -5   9    0.48    0.56
   1  -5   9    0.34    0.36
   2  -5   9   48.56    1.84
   3  -5   9    1.00    0.39
   4  -5   9    0.13    0.40
   5  -5   9   37.19    1.90
  -1  -4   9    1.38    0.57
   0  -4   9   59.04    2.64
   1  -4   9    0.84    0.30
   2  -4   9    0.96    0.31
   3  -4   9   73.19    2.26
   4  -4   9    0.90    0.28
   5  -4   9    0.74    0.47
  -3  -3   9   -0.08    0.89
  -2  -3   9   50.96    2.40
  -1  -3   9    1.19    0.46
   0  -3   9    1.23    0.28
   1  -3   9  107.28    3.05
   2  -3   9    1.50    0.24
   3  -3   9    1.04    0.23
   4  -3   9   76.73    1.70
   5  -3   9    1.44    0.51
   6  -3   9    0.83    0.75
  -3  -2   9    0.21    0.38
  -2  -2   9    0.71    0.31
  -1  -2   9  115.81    2.55
   0  -2   9    1.54    0.21
   1  -2   9    4.00    0.30
   2  -2   9  146.60    2.50
   3  -2   9    1.38    0.17
   4  -2   9    0.88    0.30
   5  -2   9   54.10    2.32
  -4  -1   9    0.38    0.44
  -3  -1   9   74.27    2.32
  -2  -1   9    1.34    0.24
  -1  -1   9    4.48    0.29
   0  -1   9  198.36    4.59
   1  -1   9    2.29    0.18
   2  -1   9    4.34    0.29
   3  -1   9  116.20    2.54
   4  -1   9    1.11    0.44
   5  -1   9    0.29    0.48
  -5   0   9   34.36    2.02
  -4   0   9    0.76    0.41
  -3   0   9    0.96    0.54
  -2   0   9  145.94    3.83
  -1   0   9    2.22    0.23
   0   0   9    6.70    0.38
   1   0   9  203.02    4.69
   2   0   9    1.60    0.23
   3   0   9    1.04    0.27
   4   0   9   65.46    2.55
   5   0   9    0.33    0.49
  -5   1   9    0.28    0.67
  -4   1   9   75.98    3.29
  -3   1   9    1.54    0.35
  -2   1   9    4.04    0.32
  -1   1   9  195.47    4.01
   0   1   9    1.89    0.18
   1   1   9    3.93    0.37
   2   1   9  131.17    3.90
   3   1   9    1.39    0.49
   4   1   9    0.01    0.63
  -5   2   9    0.26    0.62
  -4   2   9    1.01    0.34
  -3   2   9  114.26    3.69
  -2   2   9    2.08    0.27
  -1   2   9    3.13    0.29
   0   2   9  144.05    3.52
   1   2   9    1.91    0.28
   2   2   9    0.75    0.35
   3   2   9   50.50    3.27
  -6   3   9    1.23    0.91
  -5   3   9   48.37    3.46
  -4   3   9    1.28    0.41
  -3   3   9    2.16    0.33
  -2   3   9  116.72    3.49
  -1   3   9    1.42    0.26
   0   3   9    1.10    0.26
   1   3   9   72.38    2.68
   2   3   9    0.48    0.43
   3   3   9   -0.02    0.65
  -5   4   9    1.37    0.54
  -4   4   9   63.75    2.49
  -3   4   9    0.68    0.36
  -2   4   9    1.34    0.37
  -1   4   9   74.03    2.11
   0   4   9    1.48    0.43
   1   4   9    1.51    0.51
  -5   5   9    0.78    0.53
  -4   5   9    1.35    0.47
  -3   5   9   49.06    2.03
  -2   5   9    0.36    0.40
  -1   5   9    0.37    0.42
   0   5   9   37.74    1.88
  -4   6   9    0.68    0.83
  -3   6   9    0.05    0.54
   2  -6  10    1.03    0.69
   3  -6  10    3.97    1.06
   0  -5  10    2.17    0.73
   1  -5  10    4.03    0.58
   2  -5  10   84.12    2.67
   3  -5  10    3.97    0.57
   4  -5  10    4.49    0.72
   5  -5  10   54.38    2.49
  -1  -4  10    4.85    0.86
   0  -4  10   98.54    3.92
   1  -4  10    7.11    0.63
   2  -4  10    8.57    0.70
   3  -4  10  124.87    3.51
   4  -4  10    5.14    0.54
   5  -4  10    4.76    0.68
  -2  -3  10   86.57    3.46
  -1  -3  10    7.86    0.94
   0  -3  10   12.24    0.70
   1  -3  10  205.91    5.28
   2  -3  10   12.25    0.62
   3  -3  10   11.75    0.58
   4  -3  10  127.32    2.96
   5  -3  10    3.63    1.11
  -3  -2  10    4.07    0.63
  -2  -2  10    9.23    0.74
  -1  -2  10  217.11    4.45
   0  -2  10   16.70    0.59
   1  -2  10   19.82    0.64
   2  -2  10  275.27    5.14
   3  -2  10   12.28    0.47
   4  -2  10    9.59    0.68
   5  -2  10   85.71    3.30
  -4  -1  10    3.75    0.64
  -3  -1  10  134.03    3.62
  -2  -1  10   13.22    0.74
  -1  -1  10   21.36    0.64
   0  -1  10  396.19    7.70
   1  -1  10   25.79    0.63
   2  -1  10   20.25    0.63
   3  -1  10  215.18    4.43
   4  -1  10    8.85    0.68
   5  -1  10    4.00    0.79
  -5   0  10   61.26    2.77
  -4   0  10    3.14    0.90
  -3   0  10   11.43    1.19
  -2   0  10  286.92    6.88
  -1   0  10   24.83    0.96
   0   0  10   29.48    0.83
   1   0  10  400.13    8.93
   2   0  10   18.11    0.69
   3   0  10   11.08    0.74
   4   0  10  107.14    3.80
   5   0  10    3.55    1.40
  -5   1  10    4.01    1.05
  -4   1  10  134.46    4.93
  -3   1  10   13.70    0.81
  -2   1  10   18.78    0.71
  -1   1  10  394.56    8.82
   0   1  10   26.00    0.71
   1   1  10   20.23    0.80
   2   1  10  229.33    6.58
   3   1  10    8.16    0.93
   4   1  10    3.37    1.11
  -6   2  10   52.05    4.77
  -5   2  10    3.27    0.89
  -4   2  10    9.23    0.77
  -3   2  10  211.87    6.42
  -2   2  10   16.27    0.68
  -1   2  10   19.79    0.70
   0   2  10  286.98    6.51
   1   2  10   13.51    0.66
   2   2  10    8.61    0.88
   3   2  10   88.49    4.85
  -6   3  10    1.77    1.38
  -5   3  10   79.64    4.94
  -4   3  10    6.37    0.76
  -3   3  10   12.06    0.71
  -2   3  10  214.61    6.06
  -1   3  10   11.68    0.63
   0   3  10   11.00    0.63
   1   3  10  132.48    4.25
   2   3  10    3.45    0.70
  -5   4  10    5.37    0.85
  -4   4  10  108.19    3.73
  -3   4  10    7.28    0.70
  -2   4  10    7.10    0.70
  -1   4  10  125.74    3.33
   0   4  10    5.67    0.72
   1   4  10    5.34    0.80
  -5   5  10    2.52    0.67
  -4   5  10    5.39    0.73
  -3   5  10   85.17    3.00
  -2   5  10    3.20    0.58
  -1   5  10    4.75    0.70
   0   5  10   57.78    2.48
  -3   6  10    2.00    0.89
   2  -6  11    0.58    0.75
   0  -5  11   -0.53    0.54
   1  -5  11    7.43    0.76
   2  -5  11    1.05    0.42
   3  -5  11    0.35    0.36
   4  -5  11    6.72    0.86
   5  -5  11    1.38    0.61
  -1  -4  11    6.66    1.01
   0  -4  11    2.21    0.64
   1  -4  11   -0.13    0.24
   2  -4  11   14.39    0.87
   3  -4  11    3.57    0.40
   4  -4  11    0.03    0.29
   5  -4  11    7.37    0.81
  -2  -3  11    2.20    0.66
  -1  -3  11   -0.34    0.34
   0  -3  11   22.36    0.95
   1  -3  11    6.20    0.44
   2  -3  11    0.46    0.19
   3  -3  11   20.00    0.73
   4  -3  11    3.19    0.38
   5  -3  11    0.06    0.77
  -3  -2  11   -0.42    0.47
  -2  -2  11   17.16    1.02
  -1  -2  11    6.85    0.44
   0  -2  11    0.98    0.20
   1  -2  11   39.73    1.05
   2  -2  11    8.03    0.41
   3  -2  11    0.52    0.17
   4  -2  11   14.81    1.13
   5  -2  11    2.96    1.17
  -4  -1  11    7.72    0.85
  -3  -1  11    3.83    0.55
  -2  -1  11    0.90    0.30
  -1  -1  11   41.87    1.06
   0  -1  11   10.30    0.45
   1  -1  11    1.89    0.22
   2  -1  11   41.02    1.07
   3  -1  11    5.92    0.47
   4  -1  11   -0.25    0.26
   5  -1  11    5.25    1.70
  -5   0  11    1.46    0.67
  -4   0  11   -0.47    0.53
  -3   0  11   20.02    1.55
  -2   0  11    8.58    0.69
  -1   0  11    1.97    0.25
   0   0  11   62.22    1.46
   1   0  11   11.07    0.60
   2   0  11    1.11    0.24
   3   0  11   21.53    1.24
   4   0  11    2.02    0.92
   5   0  11    0.48    1.06
  -5   1  11    7.30    1.28
  -4   1  11    3.65    0.84
  -3   1  11    0.45    0.32
  -2   1  11   37.69    1.20
  -1   1  11   11.13    0.44
   0   1  11    1.94    0.21
   1   1  11   42.21    1.30
   2   1  11    7.90    0.83
   3   1  11    0.10    0.39
   4   1  11    4.90    1.31
  -6   2  11    1.76    1.82
  -5   2  11   -0.50    0.53
  -4   2  11   13.48    0.98
  -3   2  11    6.62    0.67
  -2   2  11    1.16    0.25
  -1   2  11   39.21    1.17
   0   2  11    8.57    0.50
   1   2  11    0.22    0.22
   2   2  11   15.60    1.11
   3   2  11    1.29    0.78
  -6   3  11    2.16    1.54
  -5   3  11    3.00    1.20
  -4   3  11   -0.23    0.33
  -3   3  11   21.60    0.90
  -2   3  11    6.21    0.60
  -1   3  11    0.33    0.21
   0   3  11   20.63    0.83
   1   3  11    2.49    0.53
   2   3  11    0.03    0.42
  -5   4  11    8.16    1.02
  -3   4  11    0.14    0.30
  -2   4  11   15.29    0.98
  -1   4  11    4.28    0.44
   0   4  11    0.49    0.38
   1   4  11    7.92    0.95
  -5   5  11    0.13    0.56
  -4   5  11    9.17    0.79
  -2   5  11   -0.43    0.34
  -1   5  11    6.08    1.13
   0   5  11    2.13    0.66
   0  -5  12   10.38    1.27
   1  -5  12    0.45    0.39
   2  -5  12    1.42    0.45
   3  -5  12   13.16    1.14
   4  -5  12    0.39    0.47
   5  -5  12    0.93    0.58
  -1  -4  12    0.05    0.50
   0  -4  12    2.57    0.62
   1  -4  12   19.02    1.02
   2  -4  12    1.29    0.34
   3  -4  12    1.64    0.36
   4  -4  12   14.29    0.90
   5  -4  12    0.13    0.41
  -2  -3  12    0.71    0.55
  -1  -3  12   21.22    1.58
   0  -3  12    1.09    0.29
   1  -3  12    4.22    0.37
   2  -3  12   27.67    0.90
   3  -3  12    1.01    0.29
   4  -3  12    2.57    0.36
   5  -3  12   15.68    1.26
  -3  -2  12   12.65    1.39
  -2  -2  12    0.25    0.43
  -1  -2  12    5.09    0.49
   0  -2  12   38.86    1.06
   1  -2  12    3.21    0.29
   2  -2  12    5.92    0.35
   3  -2  12   29.70    0.91
   4  -2  12    0.37    0.36
   5  -2  12    1.07    1.01
  -4  -1  12    0.00    0.43
  -3  -1  12    2.63    0.49
  -2  -1  12   28.67    1.14
  -1  -1  12    3.53    0.29
   0  -1  12    7.79    0.41
   1  -1  12   53.31    1.31
   2  -1  12    3.34    0.29
   3  -1  12    3.69    0.40
   4  -1  12   20.83    1.31
   5  -1  12   -0.70    0.93
  -5   0  12    1.56    0.66
  -4   0  12   16.56    1.65
  -3   0  12    1.49    0.61
  -2   0  12    6.25    0.59
  -1   0  12   51.96    1.33
   0   0  12    6.09    0.32
   1   0  12    7.64    0.54
   2   0  12   39.65    1.25
   3   0  12    1.19    0.46
   4   0  12    1.19    0.82
   5   0  12   14.95    2.57
  -5   1  12   -0.95    0.68
  -4   1  12    2.99    0.77
  -3   1  12   28.38    1.22
  -2   1  12    2.86    0.34
  -1   1  12    6.81    0.38
   0   1  12   51.73    1.28
   1   1  12    3.42    0.41
   2   1  12    3.04    0.60
   3   1  12   22.59    1.41
   4   1  12    0.50    0.67
  -5   2  12   11.34    1.46
  -4   2  12    0.14    0.36
  -3   2  12    3.34    0.53
  -2   2  12   38.99    1.21
  -1   2  12    2.97    0.27
   0   2  12    5.39    0.43
   1   2  12   29.48    1.36
   2   2  12    0.33    0.38
   3   2  12    1.04    0.71
  -5   3  12    0.20    0.60
  -4   3  12   21.52    1.26
  -3   3  12    1.01    0.31
  -2   3  12    2.83    0.46
  -1   3  12   29.26    1.02
   0   3  12    1.01    0.26
   1   3  12    2.24    0.53
   2   3  12   10.78    1.14
  -5   4  12    0.41    0.55
  -4   4  12    1.58    0.50
  -3   4  12   18.95    1.08
  -2   4  12    0.26    0.31
  -1   4  12    2.53    0.39
   0   4  12   17.65    1.28
   1   4  12    0.34    0.48
  -5   5  12   10.44    1.22
  -4   5  12    0.06    0.39
  -3   5  12    0.67    0.47
  -2   5  12   12.52    1.07
  -1   5  12    0.70    0.68
   0   5  12    0.71    0.58
   0  -5  13    2.42    0.76
   1  -5  13   10.84    0.90
   2  -5  13    0.54    0.43
   3  -5  13    2.38    0.58
   4  -5  13    9.86    1.05
   5  -5  13    0.28    0.57
  -1  -4  13    9.88    1.22
   0  -4  13    0.49    0.46
   1  -4  13    4.17    0.52
   2  -4  13   16.03    0.99
   3  -4  13    0.82    0.31
   4  -4  13    3.94    0.52
   5  -4  13   11.22    0.96
  -2  -3  13    0.81    0.56
  -1  -3  13    4.36    0.76
   0  -3  13   18.92    0.93
   1  -3  13    1.12    0.25
   2  -3  13    6.97    0.47
   3  -3  13   19.06    0.85
   4  -3  13    0.96    0.33
   5  -3  13    3.56    0.68
  -3  -2  13    3.69    0.83
  -2  -2  13   18.56    1.50
  -1  -2  13    1.43    0.33
   0  -2  13    9.30    0.51
   1  -2  13   30.41    0.87
   2  -2  13    2.45    0.29
   3  -2  13    7.29    0.48
   4  -2  13   18.11    1.20
   5  -2  13   -0.27    0.79
  -4  -1  13   10.34    1.00
  -3  -1  13    0.71    0.36
  -2  -1  13    7.62    0.65
  -1  -1  13   30.16    0.87
   0  -1  13    2.53    0.26
   1  -1  13   12.58    0.53
   2  -1  13   28.87    0.87
   3  -1  13    1.36    0.30
   4  -1  13    3.73    0.70
   5  -1  13   11.50    2.26
  -5   0  13    0.93    0.56
  -4   0  13    4.50    0.95
  -3   0  13   20.80    1.61
  -2   0  13    2.19    0.42
  -1   0  13   13.03    0.56
   0   0  13   40.10    0.94
   1   0  13    2.52    0.35
   2   0  13    9.98    0.58
   3   0  13   20.75    1.25
   4   0  13   -0.12    0.68
   5   0  13    2.49    1.37
  -5   1  13    6.76    1.30
  -4   1  13    0.69    0.60
  -3   1  13    7.39    0.69
  -2   1  13   29.41    1.05
  -1   1  13    2.85    0.27
   0   1  13   10.80    0.50
   1   1  13   30.77    1.10
   2   1  13    0.96    0.42
   3   1  13    3.69    0.73
   4   1  13   10.82    1.81
  -5   2  13    2.48    0.93
  -4   2  13   15.79    1.08
  -3   2  13    1.95    0.46
  -2   2  13   10.34    0.61
  -1   2  13   28.50    0.84
   0   2  13    2.22    0.24
   1   2  13    8.20    0.78
   2   2  13   17.87    1.37
   3   2  13    0.70    0.75
  -5   3  13    0.15    0.60
  -4   3  13    4.39    0.67
  -3   3  13   20.30    0.90
  -2   3  13    0.47    0.26
  -1   3  13    6.22    0.51
   0   3  13   20.09    0.86
   1   3  13    0.60    0.43
   2   3  13    2.84    0.69
  -5   4  13    9.74    1.12
  -4   4  13    0.62    0.44
  -3   4  13    4.33    0.52
  -2   4  13   15.95    1.10
  -1   4  13    0.64    0.29
   0   4  13    3.30    0.63
   1   4  13   11.79    1.17
  -5   5  13    3.22    1.04
  -4   5  13    9.86    1.10
  -3   5  13    0.30    0.42
  -2   5  13    3.72    0.64
  -1   5  13    9.89    1.46
   0   5  13    0.01    0.53
   0  -5  14   -0.32    0.99
   1  -5  14   84.02    3.12
   2  -5  14    1.80    0.55
   3  -5  14    0.58    0.47
   4  -5  14   79.93    3.11
   5  -5  14    1.43    0.78
  -1  -4  14   76.18    3.36
   0  -4  14    1.44    0.54
   1  -4  14    1.50    0.39
   2  -4  14  131.50    4.45
   3  -4  14    2.76    0.42
   4  -4  14    0.76    0.37
   5  -4  14   78.61    2.83
  -2  -3  14    1.88    0.64
  -1  -3  14    2.40    0.62
   0  -3  14  164.51    4.39
   1  -3  14    4.20    0.39
   2  -3  14    1.34    0.31
   3  -3  14  160.21    4.08
   4  -3  14    3.03    0.44
   5  -3  14    1.02    0.54
  -3  -2  14    0.00    0.59
  -2  -2  14  132.26    4.84
  -1  -2  14    5.16    0.52
   0  -2  14    3.39    0.33
   1  -2  14  265.06    5.41
   2  -2  14    5.44    0.41
   3  -2  14    2.65    0.32
   4  -2  14  136.00    4.55
   5  -2  14    2.43    1.09
  -4  -1  14   79.90    2.69
  -3  -1  14    3.19    0.52
  -2  -1  14    1.99    0.40
  -1  -1  14  268.77    5.44
   0  -1  14    8.80    0.46
   1  -1  14    4.96    0.38
   2  -1  14  262.57    6.32
   3  -1  14    5.37    0.50
   4  -1  14    0.97    0.52
   5  -1  14   77.32    5.47
  -5   0  14    1.23    0.76
  -4   0  14    1.24    0.66
  -3   0  14  162.65    5.64
  -2   0  14    6.15    0.62
  -1   0  14    4.33    0.37
   0   0  14  356.25    6.46
   1   0  14    8.95    0.46
   2   0  14    2.93    0.39
   3   0  14  171.28    5.50
   4   0  14    2.95    1.09
   5   0  14   -0.26    1.13
  -5   1  14   82.08    3.78
  -4   1  14    3.62    0.84
  -3   1  14    2.33    0.46
  -2   1  14  263.54    6.29
  -1   1  14    8.29    0.46
   0   1  14    4.51    0.36
   1   1  14  264.62    6.35
   2   1  14    4.83    0.71
   3   1  14    2.19    0.58
   4   1  14   79.46    4.98
  -5   2  14    2.33    0.91
  -4   2  14  139.42    3.90
  -3   2  14    5.58    0.70
  -2   2  14    3.70    0.40
  -1   2  14  262.67    5.44
   0   2  14    6.34    0.40
   1   2  14    2.45    0.48
   2   2  14  139.26    4.67
   3   2  14    1.46    0.81
  -5   3  14    1.29    0.72
  -4   3  14    1.74    0.54
  -3   3  14  171.99    4.27
  -2   3  14    4.43    0.46
  -1   3  14    2.62    0.36
   0   3  14  164.60    4.12
   1   3  14    1.79    0.53
   2   3  14    1.34    0.59
  -5   4  14   81.83    3.28
  -4   4  14    0.90    0.52
  -3   4  14    1.14    0.36
  -2   4  14  130.58    4.23
  -1   4  14    2.73    0.52
   0   4  14    0.81    0.46
   1   4  14   73.73    3.08
  -4   5  14   80.39    3.19
  -3   5  14    1.28    0.52
  -2   5  14    0.79    0.48
  -1   5  14   72.64    4.10
   0   5  14    3.19    1.03
   1  -5  15   12.97    1.22
   2  -5  15    1.74    0.56
   3  -5  15    0.02    0.46
   4  -5  15    9.76    1.11
  -1  -4  15   11.37    1.30
   0  -4  15    3.88    0.76
   1  -4  15    0.67    0.32
   2  -4  15   23.26    1.02
   3  -4  15    4.86    0.55
   4  -4  15    0.84    0.38
   5  -4  15   12.67    1.07
  -2  -3  15    4.05    0.86
  -1  -3  15    1.46    0.54
   0  -3  15   29.71    1.18
   1  -3  15    7.30    0.51
   2  -3  15    1.80    0.33
   3  -3  15   25.28    1.03
   4  -3  15    5.22    0.56
   5  -3  15    0.56    0.53
  -3  -2  15   -0.25    0.54
  -2  -2  15   21.08    1.67
  -1  -2  15    9.32    0.69
   0  -2  15    2.44    0.30
   1  -2  15   45.87    1.23
   2  -2  15   11.24    0.62
   3  -2  15    2.12    0.37
   4  -2  15   22.68    1.40
   5  -2  15    2.81    1.19
  -4  -1  15   16.20    1.61
  -3  -1  15    5.25    0.63
  -2  -1  15    1.94    0.40
  -1  -1  15   47.83    1.25
   0  -1  15   16.17    0.62
   1  -1  15    3.08    0.31
   2  -1  15   48.46    1.26
   3  -1  15    8.04    0.63
   4  -1  15    1.09    0.53
   5  -1  15   18.17    2.85
  -5   0  15    1.96    0.79
  -4   0  15    1.47    0.63
  -3   0  15   27.40    1.73
  -2   0  15   12.14    0.83
  -1   0  15    3.41    0.33
   0   0  15   69.31    1.49
   1   0  15   17.25    0.63
   2   0  15    2.04    0.36
   3   0  15   27.43    1.53
   4   0  15    3.53    1.18
  -5   1  15   10.84    1.51
  -4   1  15    4.57    0.92
  -3   1  15    1.98    0.46
  -2   1  15   46.72    1.53
  -1   1  15   16.92    0.64
   0   1  15    3.47    0.34
   1   1  15   47.29    1.54
   2   1  15    9.32    0.96
   3   1  15    1.50    0.51
   4   1  15   13.41    2.16
  -5   2  15    0.04    0.70
  -4   2  15   21.83    1.28
  -3   2  15    8.18    0.84
  -2   2  15    2.28    0.36
  -1   2  15   45.18    1.23
   0   2  15   11.38    0.71
   1   2  15    1.90    0.49
   2   2  15   24.24    1.52
   3   2  15    3.65    1.13
  -5   3  15    1.63    0.79
  -4   3  15    0.66    0.49
  -3   3  15   28.41    1.14
  -2   3  15    8.71    0.63
  -1   3  15    2.11    0.34
   0   3  15   25.82    1.05
   1   3  15    4.31    0.68
   2   3  15    0.58    0.52
  -5   4  15   15.48    1.40
  -4   4  15    4.23    0.79
  -3   4  15    1.08    0.37
  -2   4  15   23.54    1.25
  -1   4  15    5.61    0.68
   0   4  15    0.94    0.51
   1   4  15   11.01    1.20
  -4   5  15   13.93    1.29
  -3   5  15    3.83    0.58
  -2   5  15    0.92    0.51
  -1   5  15   12.59    1.66
   1  -5  16    0.95    0.53
   2  -5  16    3.62    0.71
   3  -5  16    1.43    0.57
   4  -5  16    0.50    0.52
  -1  -4  16    0.26    0.57
   0  -4  16    4.46    0.80
   1  -4  16    2.64    0.56
   2  -4  16    0.17    0.29
   3  -4  16    4.25    0.54
   4  -4  16    3.22    0.52
   5  -4  16    0.33    0.50
  -2  -3  16    4.08    0.85
  -1  -3  16    3.96    0.76
   0  -3  16    0.28    0.29
   1  -3  16    5.39    0.52
   2  -3  16    4.56    0.48
   3  -3  16    0.29    0.27
   4  -3  16    5.60    0.59
   5  -3  16    2.04    0.64
  -3  -2  16    2.70    0.82
  -2  -2  16   -0.09    0.45
  -1  -2  16    6.01    0.58
   0  -2  16    6.17    0.44
   1  -2  16    0.27    0.23
   2  -2  16    7.31    0.51
   3  -2  16    5.02    0.53
   4  -2  16   -0.30    0.37
   5  -2  16    3.87    1.33
  -4  -1  16    0.33    0.66
  -3  -1  16    5.20    0.63
  -2  -1  16    4.57    0.56
  -1  -1  16    0.39    0.22
   0  -1  16    7.93    0.46
   1  -1  16    8.58    0.52
   2  -1  16    0.18    0.24
   3  -1  16    6.09    0.56
   4  -1  16    2.41    0.64
   5  -1  16    0.25    1.04
  -4   0  16    2.41    0.72
  -3   0  16    0.41    0.46
  -2   0  16    7.80    0.68
  -1   0  16    8.03    0.50
   0   0  16    1.52    0.19
   1   0  16    7.58    0.47
   2   0  16    6.18    0.57
   3   0  16    0.59    0.45
   4   0  16    3.37    1.20
  -5   1  16   -0.97    0.71
  -4   1  16    3.93    0.92
  -3   1  16    3.60    0.58
  -2   1  16    0.43    0.32
  -1   1  16    7.65    0.49
   0   1  16    7.38    0.50
   1   1  16    0.40    0.25
   2   1  16    5.92    0.79
   3   1  16    3.25    0.71
   4   1  16    0.23    0.89
  -5   2  16    1.11    0.77
  -4   2  16    0.07    0.39
  -3   2  16    6.19    0.76
  -2   2  16    5.89    0.53
  -1   2  16    0.30    0.19
   0   2  16    7.06    0.58
   1   2  16    4.51    0.68
   2   2  16    0.62    0.45
   3   2  16    3.35    1.09
  -5   3  16    2.48    0.85
  -4   3  16    4.03    0.76
  -3   3  16    0.20    0.29
  -2   3  16    5.79    0.54
  -1   3  16    4.50    0.48
   0   3  16    0.29    0.27
   1   3  16    4.71    0.75
   2   3  16    0.46    0.58
  -5   4  16    0.89    0.64
  -4   4  16    4.02    0.76
  -3   4  16    3.49    0.50
  -2   4  16   -0.48    0.28
  -1   4  16    4.95    0.68
   0   4  16    2.96    0.64
   1   4  16   -0.31    0.50
  -4   5  16    0.25    0.56
  -3   5  16    4.55    0.63
  -2   5  16    1.72    0.57
  -1   5  16    0.01    0.76
   1  -5  17    1.98    0.64
   2  -5  17    2.57    0.65
   3  -5  17    1.98    0.65
   4  -5  17    3.28    0.77
  -1  -4  17    1.74    0.71
   0  -4  17    2.47    0.93
   1  -4  17    2.36    0.56
   2  -4  17    6.10    0.61
   3  -4  17    1.99    0.42
   4  -4  17    1.95    0.52
   5  -4  17    3.20    0.68
  -2  -3  17    1.83    0.67
  -1  -3  17    1.77    0.63
   0  -3  17    6.13    0.61
   1  -3  17    2.56    0.39
   2  -3  17    4.65    0.50
   3  -3  17    7.78    0.64
   4  -3  17    2.59    0.46
   5  -3  17    1.76    0.63
  -3  -2  17    1.30    0.60
  -2  -2  17    5.08    0.84
  -1  -2  17    2.05    0.39
   0  -2  17    7.31    0.49
   1  -2  17   11.86    0.73
   2  -2  17    3.30    0.36
   3  -2  17    5.06    0.54
   4  -2  17    6.01    0.83
   5  -2  17    1.14    1.08
  -4  -1  17    4.25    0.98
  -3  -1  17    1.74    0.60
  -2  -1  17    6.13    0.63
  -1  -1  17   12.09    0.61
   0  -1  17    2.49    0.29
   1  -1  17   10.56    0.59
   2  -1  17   12.27    0.79
   3  -1  17    2.31    0.42
   4  -1  17    3.74    0.76
   5  -1  17    2.27    1.22
  -4   0  17    2.68    0.72
  -3   0  17    7.17    0.99
  -2   0  17    2.62    0.48
  -1   0  17    9.34    0.55
   0   0  17   16.25    0.55
   1   0  17    3.18    0.33
   2   0  17    6.40    0.59
   3   0  17    5.81    0.83
   4   0  17    1.95    1.13
  -5   1  17    1.28    0.87
  -4   1  17    1.33    0.68
  -3   1  17    4.07    0.62
  -2   1  17   11.55    1.06
  -1   1  17    2.61    0.34
   0   1  17    8.50    0.58
   1   1  17   11.86    0.81
   2   1  17    2.34    0.58
   3   1  17    2.19    0.68
   4   1  17    0.67    0.97
  -5   2  17    1.61    0.83
  -4   2  17    6.14    0.73
  -3   2  17    1.76    0.51
  -2   2  17    6.62    0.60
  -1   2  17   12.10    0.76
   0   2  17    1.65    0.35
   1   2  17    4.81    0.70
   2   2  17    5.76    0.89
   3   2  17    2.18    0.93
  -5   3  17    1.36    0.78
  -4   3  17    3.00    0.71
  -3   3  17    6.37    0.81
  -2   3  17    2.00    0.40
  -1   3  17    5.03    0.51
   0   3  17    6.48    0.61
   1   3  17    1.31    0.53
   2   3  17    1.22    0.59
  -5   4  17    2.04    0.82
  -4   4  17    1.90    0.65
  -3   4  17    3.32    0.52
  -2   4  17    4.98    0.57
  -1   4  17    2.33    0.56
   0   4  17    2.54    0.65
   1   4  17    3.05    0.79
  -4   5  17    2.52    0.76
  -3   5  17    1.49    0.49
  -2   5  17    1.80    0.60
  -1   5  17    1.59    0.99
   1  -5  18    2.03    0.65
   2  -5  18    5.04    0.85
   3  -5  18   69.22    2.90
   4  -5  18    2.18    0.73
  -1  -4  18    3.22    1.18
   0  -4  18    6.65    1.44
   1  -4  18   94.82    3.58
   2  -4  18    4.30    0.55
   3  -4  18    9.84    0.80
   4  -4  18   79.65    2.95
   5  -4  18    1.50    0.62
  -2  -3  18    7.14    1.03
  -1  -3  18   98.31    3.88
   0  -3  18    5.84    0.74
   1  -3  18   18.37    0.89
   2  -3  18  156.44    4.07
   3  -3  18    5.05    0.55
   4  -3  18    9.15    0.79
   5  -3  18   73.30    2.95
  -3  -2  18   69.69    3.18
  -2  -2  18    4.80    0.86
  -1  -2  18   18.06    0.95
   0  -2  18  207.79    5.06
   1  -2  18    9.58    0.67
   2  -2  18   25.23    0.90
   3  -2  18  162.86    4.16
   4  -2  18    4.58    0.76
   5  -2  18    5.93    1.57
  -4  -1  18    3.22    0.91
  -3  -1  18    9.42    1.13
  -2  -1  18  158.21    4.26
  -1  -1  18    8.71    0.69
   0  -1  18   31.94    1.17
   1  -1  18  265.83    6.37
   2  -1  18   11.14    0.77
   3  -1  18   17.17    0.96
   4  -1  18  102.34    3.84
   5  -1  18    2.75    1.42
  -4   0  18   84.27    3.60
  -3   0  18    5.31    0.85
  -2   0  18   25.46    1.15
  -1   0  18  270.08    5.49
   0   0  18   13.74    0.67
   1   0  18   32.45    1.23
   2   0  18  208.43    5.19
   3   0  18    5.82    0.83
   4   0  18    9.51    1.20
  -5   1  18    0.78    0.91
  -4   1  18    9.30    1.22
  -3   1  18  157.65    4.44
  -2   1  18    8.66    0.75
  -1   1  18   33.42    1.30
   0   1  18  263.57    5.60
   1   1  18    9.35    0.73
   2   1  18   18.59    1.41
   3   1  18  101.25    3.81
   4   1  18    2.89    1.26
  -5   2  18   64.16    3.37
  -4   2  18    4.87    0.71
  -3   2  18   17.59    1.39
  -2   2  18  208.38    5.12
  -1   2  18    9.61    0.70
   0   2  18   22.36    1.03
   1   2  18  162.96    5.25
   2   2  18    3.29    0.76
   3   2  18    7.23    1.09
  -5   3  18    5.31    1.08
  -4   3  18  101.66    3.82
  -3   3  18    4.98    0.78
  -2   3  18   19.61    0.95
  -1   3  18  162.01    4.94
   0   3  18    5.33    0.58
   1   3  18    9.25    1.06
   2   3  18   68.22    3.05
  -5   4  18    1.48    0.78
  -4   4  18    6.49    0.97
  -3   4  18  102.55    2.92
  -2   4  18    4.23    0.55
  -1   4  18   10.61    1.03
   0   4  18   81.85    4.51
   1   4  18    1.68    0.71
  -4   5  18    1.52    0.69
  -3   5  18    6.28    0.73
  -2   5  18   69.45    2.76
  -1   5  18    2.17    1.08
   1  -5  19   -0.47    0.63
   2  -5  19    3.79    0.78
   3  -5  19   27.13    1.71
   4  -5  19    0.80    1.17
   0  -4  19    5.00    1.27
   1  -4  19   29.17    1.64
   2  -4  19    0.16    0.33
   3  -4  19    5.22    0.63
   4  -4  19   26.17    1.46
   5  -4  19    1.43    0.86
  -2  -3  19    3.92    0.89
  -1  -3  19   30.13    1.82
   0  -3  19    0.45    0.36
   1  -3  19   11.28    0.78
   2  -3  19   39.59    1.47
   3  -3  19    0.60    0.33
   4  -3  19    6.38    0.67
   5  -3  19   25.50    1.70
  -3  -2  19   24.62    1.96
  -2  -2  19    0.63    0.53
  -1  -2  19    9.90    0.78
   0  -2  19   49.67    1.62
   1  -2  19    0.66    0.30
   2  -2  19   14.42    0.74
   3  -2  19   44.33    1.56
   4  -2  19   -0.23    0.44
   5  -2  19    3.31    1.27
  -4  -1  19    0.18    0.68
  -3  -1  19    6.97    0.99
  -2  -1  19   46.09    1.63
  -1  -1  19    1.09    0.31
   0  -1  19   19.90    0.88
   1  -1  19   63.69    1.66
   2  -1  19    0.71    0.32
   3  -1  19    9.61    0.75
   4  -1  19   31.87    1.84
   5  -1  19    0.27    1.10
  -4   0  19   33.61    1.99
  -3   0  19    0.40    0.46
  -2   0  19   15.68    1.01
  -1   0  19   63.04    1.62
   0   0  19    1.14    0.26
   1   0  19   19.33    0.94
   2   0  19   50.52    1.72
   3   0  19    0.52    0.46
   4   0  19    5.11    0.99
  -5   1  19   -1.37    0.78
  -4   1  19    5.47    1.02
  -3   1  19   44.05    1.76
  -2   1  19    0.53    0.32
  -1   1  19   19.50    1.05
   0   1  19   60.72    1.69
   1   1  19    0.81    0.34
   2   1  19   10.61    1.08
   3   1  19   34.98    1.88
  -5   2  19   21.48    2.04
  -4   2  19    0.52    0.48
  -3   2  19    8.86    1.04
  -2   2  19   51.67    1.73
  -1   2  19    0.69    0.32
   0   2  19   14.30    0.87
   1   2  19   44.81    2.05
   2   2  19    0.22    0.49
   3   2  19    4.59    0.91
  -5   3  19    4.61    1.05
  -4   3  19   31.09    1.83
  -3   3  19    0.13    0.43
  -2   3  19   11.20    0.80
  -1   3  19   42.23    1.87
   0   3  19    0.64    0.34
   1   3  19    4.62    0.81
   2   3  19   23.17    1.88
  -5   4  19    1.50    1.05
  -4   4  19    5.32    0.94
  -3   4  19   34.27    1.41
  -2   4  19    0.33    0.45
  -1   4  19    6.17    0.83
   0   4  19   29.07    2.74
   1   4  19   -0.03    0.62
  -4   5  19   -0.19    0.99
  -3   5  19    3.85    0.65
  -2   5  19   23.66    1.69
   1  -5  20    1.67    0.85
   2  -5  20    0.77    0.59
   3  -5  20   12.29    1.26
   0  -4  20   -0.14    0.77
   1  -4  20   16.42    1.32
   2  -4  20    4.85    0.63
   3  -4  20    0.10    0.36
   4  -4  20   13.39    1.16
  -2  -3  20    0.14    0.61
  -1  -3  20   14.83    2.06
   0  -3  20    7.44    0.89
   1  -3  20    0.42    0.31
   2  -3  20   24.22    1.08
   3  -3  20    7.20    0.81
   4  -3  20    0.28    0.38
   5  -3  20   13.17    1.33
  -3  -2  20   13.19    1.47
  -2  -2  20    4.98    0.87
  -1  -2  20    0.44    0.40
   0  -2  20   31.63    1.19
   1  -2  20   11.10    0.77
   2  -2  20    0.78    0.28
   3  -2  20   25.45    1.14
   4  -2  20    4.91    0.84
   5  -2  20    0.29    1.02
  -4  -1  20    4.53    1.38
  -3  -1  20    0.36    0.51
  -2  -1  20   25.56    1.17
  -1  -1  20   11.48    0.78
   0  -1  20    1.73    0.37
   1  -1  20   43.01    1.28
   2  -1  20   12.95    0.85
   3  -1  20    0.74    0.35
   4  -1  20   17.41    1.53
  -4   0  20   13.42    1.45
  -3   0  20    7.56    0.99
  -2   0  20    0.74    0.36
  -1   0  20   42.20    1.23
   0   0  20   16.40    0.72
   1   0  20    1.42    0.35
   2   0  20   31.50    1.28
   3   0  20    7.98    1.04
   4   0  20    1.02    0.72
  -4   1  20    0.22    0.62
  -3   1  20   25.35    1.40
  -2   1  20   11.33    0.90
  -1   1  20    1.36    0.40
   0   1  20   42.61    1.56
   1   1  20   12.29    0.86
   2   1  20    0.20    0.42
   3   1  20   15.68    1.42
  -5   2  20   10.00    1.39
  -4   2  20    5.14    0.78
  -3   2  20    0.85    0.54
  -2   2  20   30.57    1.29
  -1   2  20   13.09    0.86
   0   2  20    0.65    0.36
   1   2  20   21.64    1.50
   2   2  20    5.45    0.94
   3   2  20    0.01    0.64
  -5   3  20    0.30    0.70
  -4   3  20   16.05    1.51
  -3   3  20    5.01    0.80
  -2   3  20    0.18    0.34
  -1   3  20   23.30    1.39
   0   3  20    8.17    0.76
   1   3  20    0.27    0.50
   2   3  20   10.80    1.35
  -4   4  20    0.85    0.65
  -3   4  20   17.55    1.12
  -2   4  20    6.64    0.86
  -1   4  20    0.78    0.56
   0   4  20   12.47    1.81
   1   4  20    3.63    1.29
  -3   5  20    0.32    0.57
  -2   5  20   12.60    1.24
   2  -5  21    8.09    1.06
   3  -5  21    3.19    1.28
   0  -4  21   10.91    1.90
   1  -4  21    4.03    0.74
   2  -4  21    2.86    0.53
   3  -4  21   12.81    0.97
   4  -4  21    2.46    0.66
  -1  -3  21    5.11    1.35
   0  -3  21    3.99    0.67
   1  -3  21   20.83    1.03
   2  -3  21    5.47    0.61
   3  -3  21    2.93    0.57
   4  -3  21   12.35    0.97
   5  -3  21    3.41    0.87
  -3  -2  21    2.61    0.87
  -2  -2  21    3.76    0.75
  -1  -2  21   20.11    1.35
   0  -2  21    8.40    0.68
   1  -2  21    4.04    0.51
   2  -2  21   25.65    0.99
   3  -2  21    6.82    0.69
   4  -2  21    2.78    0.71
   5  -2  21   10.08    1.27
  -3  -1  21   13.21    1.32
  -2  -1  21    5.51    0.64
  -1  -1  21    4.84    0.69
   0  -1  21   35.96    1.31
   1  -1  21   11.75    0.68
   2  -1  21    4.36    0.54
   3  -1  21   22.56    1.17
   4  -1  21    5.27    0.93
  -4   0  21    3.91    0.89
  -3   0  21    3.65    0.74
  -2   0  21   29.92    1.25
  -1   0  21   10.95    0.74
   0   0  21    4.83    0.42
   1   0  21   39.01    1.37
   2   0  21    7.22    0.69
   3   0  21    2.89    0.73
   4   0  21   13.99    1.50
  -4   1  21   11.66    1.40
  -3   1  21    5.75    0.74
  -2   1  21    4.07    0.59
  -1   1  21   34.68    1.41
   0   1  21    9.28    0.76
   1   1  21    4.21    0.53
   2   1  21   22.21    1.51
   3   1  21    5.11    0.90
  -5   2  21    3.42    1.27
  -4   2  21    2.64    0.66
  -3   2  21   22.05    1.64
  -2   2  21    8.26    0.75
  -1   2  21    4.88    0.58
   0   2  21   25.97    1.26
   1   2  21    6.05    0.89
   2   2  21    4.13    0.85
   3   2  21    9.86    1.23
  -5   3  21    7.87    1.78
  -4   3  21    4.87    0.97
  -3   3  21    3.19    0.65
  -2   3  21   22.56    1.19
  -1   3  21    6.96    0.89
   0   3  21    4.22    0.75
   1   3  21   14.76    1.40
   2   3  21    3.10    0.89
  -4   4  21   12.44    1.40
  -3   4  21    5.10    0.86
  -2   4  21    4.01    0.76
  -1   4  21   15.47    1.33
   0   4  21    3.29    1.21
   1   4  21    3.66    1.29
  -3   5  21   10.32    1.17
  -2   5  21    3.37    0.87
   3  -5  22    0.19    1.01
   0  -4  22   12.91    2.06
   1  -4  22    0.31    0.47
   2  -4  22    3.77    0.60
   3  -4  22   12.73    0.99
   4  -4  22    0.44    0.52
  -1  -3  22    0.53    0.84
   0  -3  22    7.15    0.90
   1  -3  22   18.93    1.05
   2  -3  22   -0.01    0.30
   3  -3  22    5.30    0.74
   4  -3  22   13.64    1.01
   5  -3  22    0.01    0.85
  -3  -2  22    1.21    0.96
  -2  -2  22    3.51    1.17
  -1  -2  22   20.36    1.46
   0  -2  22    0.02    0.29
   1  -2  22    8.01    0.68
   2  -2  22   24.43    1.12
   3  -2  22    0.39    0.35
   4  -2  22    6.06    0.95
   5  -2  22    9.35    1.67
  -3  -1  22   13.91    1.37
  -2  -1  22    0.45    0.35
  -1  -1  22    7.02    0.83
   0  -1  22   32.88    1.23
   1  -1  22    0.51    0.25
   2  -1  22    8.61    0.74
   3  -1  22   21.75    1.62
   4  -1  22   -0.54    0.49
  -4   0  22    0.28    0.62
  -3   0  22    4.01    0.78
  -2   0  22   24.29    1.18
  -1   0  22    0.37    0.33
   0   0  22   10.61    0.62
   1   0  22   31.71    1.25
   2   0  22    0.42    0.34
   3   0  22    3.55    0.76
   4   0  22   10.53    1.36
  -4   1  22   12.41    1.46
  -3   1  22    0.29    0.43
  -2   1  22    8.89    0.81
  -1   1  22   31.93    1.33
   0   1  22    0.41    0.33
   1   1  22    7.75    0.72
   2   1  22   19.17    1.54
   3   1  22   -0.31    0.55
  -4   2  22    4.11    0.74
  -3   2  22   18.18    1.58
  -2   2  22    0.17    0.39
  -1   2  22    7.48    0.73
   0   2  22   22.46    1.23
   1   2  22    0.70    0.51
   2   2  22    4.93    0.90
   3   2  22    9.13    1.69
  -4   3  22    0.41    0.69
  -3   3  22    7.54    1.01
  -2   3  22   18.55    1.17
  -1   3  22   -0.33    0.45
   0   3  22    4.82    0.84
   1   3  22   12.02    1.33
   2   3  22    0.80    0.87
  -4   4  22   10.57    1.30
  -3   4  22    0.53    0.58
  -2   4  22    5.54    0.88
  -1   4  22   10.32    1.20
   0   4  22    0.49    0.93
  -3   5  22    7.18    1.57
  -2   5  22    0.14    0.99
   0  -4  23   34.31    3.07
   1  -4  23    1.85    0.62
   2  -4  23    0.86    0.45
   3  -4  23   48.27    2.13
   4  -4  23    1.74    0.64
  -1  -3  23    2.36    1.10
   0  -3  23    0.77    0.49
   1  -3  23   62.95    2.05
   2  -3  23    3.73    0.55
   3  -3  23    0.82    0.51
   4  -3  23   47.90    1.81
  -2  -2  23   -0.26    0.79
  -1  -2  23   64.84    2.62
   0  -2  23    4.11    0.52
   1  -2  23    2.64    0.46
   2  -2  23   81.28    2.43
   3  -2  23    3.52    0.57
   4  -2  23    0.30    0.58
  -3  -1  23   46.20    2.34
  -2  -1  23    2.60    0.63
  -1  -1  23    2.27    0.53
   0  -1  23   97.41    2.72
   1  -1  23    6.17    0.52
   2  -1  23    1.68    0.42
   3  -1  23   63.05    2.69
   4  -1  23    1.69    0.68
  -4   0  23    1.98    0.80
  -3   0  23    0.78    0.56
  -2   0  23   79.39    3.03
  -1   0  23    6.14    0.59
   0   0  23    3.12    0.38
   1   0  23   97.83    2.77
   2   0  23    4.13    0.56
   3   0  23    1.11    0.60
   4   0  23   39.26    2.42
  -4   1  23   50.79    2.60
  -3   1  23    3.29    0.60
  -2   1  23    1.43    0.63
  -1   1  23   97.86    2.82
   0   1  23    5.42    0.60
   1   1  23    1.76    0.47
   2   1  23   65.04    2.77
   3   1  23    2.15    0.72
  -4   2  23   -0.07    0.51
  -3   2  23   63.12    2.89
  -2   2  23    3.34    0.60
  -1   2  23    1.43    0.59
   0   2  23   71.86    2.99
   1   2  23    3.38    0.76
   2   2  23    0.75    0.62
  -4   3  23    1.00    0.73
  -3   3  23    1.52    0.69
  -2   3  23   62.54    2.14
  -1   3  23    3.87    0.76
   0   3  23    1.39    0.66
   1   3  23   47.14    2.39
  -4   4  23   36.76    2.24
  -3   4  23    1.19    0.70
  -2   4  23    1.03    0.60
  -1   4  23   42.71    2.23
   0   4  23    0.43    1.00
   1  -4  24    0.13    0.54
   2  -4  24    1.92    0.53
   3  -4  24   50.57    2.24
   4  -4  24    0.09    0.82
  -1  -3  24    0.56    0.91
   0  -3  24    3.69    0.74
   1  -3  24   66.96    2.18
   2  -3  24    0.22    0.35
   3  -3  24    3.67    0.70
   4  -3  24   49.00    1.89
  -2  -2  24    2.63    1.02
  -1  -2  24   63.01    2.72
   0  -2  24   -0.03    0.32
   1  -2  24    6.40    0.66
   2  -2  24   81.98    2.52
   3  -2  24    0.29    0.37
   4  -2  24    2.86    0.79
  -3  -1  24   47.75    3.55
  -2  -1  24   -0.17    0.49
  -1  -1  24    4.29    0.71
   0  -1  24  105.52    2.90
   1  -1  24    0.83    0.34
   2  -1  24    5.92    0.63
   3  -1  24   65.56    2.82
   4  -1  24    0.15    0.56
  -4   0  24    0.57    0.89
  -3   0  24    4.08    1.35
  -2   0  24   85.57    3.17
  -1   0  24   -0.15    0.31
   0   0  24    7.57    0.55
   1   0  24  106.28    2.95
   2   0  24    0.15    0.33
   3   0  24    3.50    0.82
   4   0  24   43.75    3.12
  -4   1  24   51.75    2.69
  -3   1  24    0.33    0.45
  -2   1  24    6.47    0.89
  -1   1  24  104.46    2.99
   0   1  24    0.30    0.33
   1   1  24    5.73    0.66
   2   1  24   72.37    2.98
   3   1  24    0.45    0.61
  -4   2  24    2.42    0.73
  -3   2  24   66.36    2.44
  -2   2  24   -0.24    0.51
  -1   2  24    5.15    0.87
   0   2  24   80.41    3.16
   1   2  24    0.03    0.53
   2   2  24    2.85    0.78
  -4   3  24    0.30    0.71
  -3   3  24    2.23    0.80
  -2   3  24   67.83    2.80
  -1   3  24    0.34    0.55
   0   3  24    2.33    0.76
   1   3  24   45.86    2.47
  -4   4  24   44.04    3.69
  -3   4  24    0.41    0.66
  -2   4  24    1.44    0.71
  -1   4  24   50.05    2.42
   1  -4  25    2.59    0.76
   2  -4  25    0.75    0.46
   3  -4  25    1.94    0.69
  -1  -3  25    2.73    1.17
   0  -3  25    0.82    0.52
   1  -3  25    1.86    0.48
   2  -3  25    3.80    0.58
   3  -3  25    0.61    0.51
   4  -3  25    1.50    0.56
  -2  -2  25    0.70    0.92
  -1  -2  25    2.43    0.66
   0  -2  25    4.37    0.56
   1  -2  25    1.37    0.39
   2  -2  25    2.91    0.51
   3  -2  25    4.60    0.62
   4  -2  25    0.92    0.66
  -3  -1  25    0.33    0.93
  -2  -1  25    2.52    0.64
  -1  -1  25    1.45    0.53
   0  -1  25    4.47    0.52
   1  -1  25    5.23    0.59
   2  -1  25    1.46    0.43
   3  -1  25    1.83    0.61
   4  -1  25    2.03    0.76
  -3   0  25    0.16    0.91
  -2   0  25    2.28    0.65
  -1   0  25    3.83    0.69
   0   0  25    0.98    0.29
   1   0  25    4.64    0.56
   2   0  25    3.54    0.57
   3   0  25   -0.52    0.47
   4   0  25    1.70    1.08
  -4   1  25    0.92    0.77
  -3   1  25    4.18    0.87
  -2   1  25    0.98    0.59
  -1   1  25    5.40    0.63
   0   1  25    3.63    0.68
   1   1  25    0.41    0.38
   2   1  25    2.98    0.81
   3   1  25    1.25    0.74
  -4   2  25    0.02    0.56
  -3   2  25    2.70    0.89
  -2   2  25    3.41    0.82
  -1   2  25    0.79    0.59
   0   2  25    2.84    0.73
   1   2  25    3.30    0.81
   2   2  25    0.04    0.64
  -4   3  25    1.90    0.87
  -3   3  25    0.14    0.65
  -2   3  25    2.67    0.75
  -1   3  25    2.86    0.77
   0   3  25    0.18    1.03
   1   3  25    0.32    1.21
  -3   4  25    3.50    1.31
  -2   4  25    0.22    0.66
  -1   4  25    0.18    0.70
   1  -4  26    5.00    0.90
   2  -4  26    0.98    0.53
   3  -4  26   -0.36    0.56
  -1  -3  26    4.15    1.38
   0  -3  26    1.82    0.65
   1  -3  26    0.32    0.41
   2  -3  26    8.91    1.01
   3  -3  26    1.20    0.60
   4  -3  26   -0.28    0.46
  -2  -2  26    0.97    0.99
  -1  -2  26   -0.43    0.49
   0  -2  26   10.89    1.10
   1  -2  26    3.93    0.54
   2  -2  26    0.17    0.36
   3  -2  26   10.04    0.90
   4  -2  26    2.07    0.71
  -3  -1  26    0.34    0.96
  -2  -1  26    9.93    1.09
  -1  -1  26    3.87    0.69
   0  -1  26    0.55    0.34
   1  -1  26   14.62    0.96
   2  -1  26    3.19    0.52
   3  -1  26    0.21    0.52
   4  -1  26    8.12    1.10
  -3   0  26    2.47    1.20
  -2   0  26   -0.53    0.48
  -1   0  26   15.10    1.21
   0   0  26    5.50    0.70
   1   0  26    0.79    0.36
   2   0  26   10.96    0.90
   3   0  26    1.77    0.69
  -4   1  26    0.47    1.69
  -3   1  26    8.13    1.20
  -2   1  26    2.29    0.75
  -1   1  26    0.34    0.42
   0   1  26   12.32    1.13
   1   1  26    3.78    0.58
   2   1  26    0.25    0.57
   3   1  26    8.49    1.22
  -4   2  26    0.70    0.91
  -3   2  26   -0.35    0.67
  -2   2  26    7.03    1.12
  -1   2  26    3.55    0.79
   0   2  26   -0.04    0.52
   1   2  26   10.20    1.24
   2   2  26    0.95    0.74
  -4   3  26    4.74    1.25
  -3   3  26    1.20    0.79
  -2   3  26   -0.68    0.63
  -1   3  26    7.83    1.14
   0   3  26    2.51    1.23
   1   3  26    0.28    1.12
  -3   4  26    7.75    1.65
  -2   4  26    2.55    0.88
  -1   4  26    0.55    0.77
   1  -4  27    1.16    0.68
   2  -4  27    8.55    0.90
   0  -3  27    9.92    1.15
   1  -3  27    0.56    0.43
   2  -3  27    1.79    0.60
   3  -3  27   12.44    1.22
   4  -3  27   -1.39    0.78
  -2  -2  27    6.69    1.54
  -1  -2  27    0.14    0.52
   0  -2  27    2.17    0.63
   1  -2  27   13.83    0.96
   2  -2  27   -0.01    0.46
   3  -2  27    1.00    0.49
   4  -2  27    7.07    1.01
  -2  -1  27    2.15    0.67
  -1  -1  27   13.61    1.23
   0  -1  27    0.34    0.35
   1  -1  27    1.93    0.43
   2  -1  27   18.35    1.14
   3  -1  27   -0.14    0.51
   4  -1  27    0.62    0.89
  -3   0  27    9.10    1.78
  -2   0  27   -0.28    0.49
  -1   0  27    0.91    0.52
   0   0  27   17.35    1.21
   1   0  27    0.35    0.34
   2   0  27    1.39    0.46
   3   0  27    7.80    1.09
  -3   1  27    1.22    0.79
  -2   1  27   14.04    1.37
  -1   1  27    1.01    0.50
   0   1  27    1.34    0.54
   1   1  27   13.76    1.02
   2   1  27    0.48    0.62
  -4   2  27    5.91    1.22
  -3   2  27    0.24    0.75
  -2   2  27    0.82    0.72
  -1   2  27   13.63    1.37
   0   2  27    0.63    0.59
   1   2  27    0.31    0.87
   2   2  27    8.41    1.26
  -4   3  27    3.40    1.68
  -3   3  27    7.02    1.21
  -2   3  27    0.44    0.74
  -1   3  27    1.25    0.79
   0   3  27   11.78    2.11
  -2   4  27    8.40    1.22
  -1   4  27   -0.36    1.16
   2  -4  28   79.12    3.31
   0  -3  28  106.37    3.87
   1  -3  28    0.58    0.44
   2  -3  28   -0.22    0.49
   3  -3  28   98.48    3.68
   4  -3  28    1.01    1.01
  -1  -2  28    0.29    0.59
   0  -2  28    0.65    0.51
   1  -2  28  138.07    4.62
   2  -2  28    0.55    0.49
   3  -2  28    0.45    0.44
  -2  -1  28    0.61    0.57
  -1  -1  28  137.04    4.81
   0  -1  28    0.22    0.33
   1  -1  28   -0.06    0.32
   2  -1  28  144.26    3.93
   3  -1  28    0.16    0.54
  -3   0  28  103.53    5.83
  -2   0  28    0.15    0.56
  -1   0  28    0.10    0.45
   0   0  28  164.46    5.25
   1   0  28    0.50    0.37
   2   0  28    0.36    0.40
   3   0  28  100.71    3.93
  -3   1  28   -0.21    0.67
  -2   1  28  144.27    5.07
  -1   1  28   -0.03    0.46
   0   1  28   -0.76    0.40
   1   1  28  140.79    3.91
   2   1  28   -0.14    0.60
  -4   2  28   79.67    4.91
  -3   2  28    0.07    0.78
  -2   2  28    0.19    0.66
  -1   2  28  135.42    4.83
   0   2  28    0.76    0.60
   1   2  28   -0.27    0.77
   2   2  28   84.21    5.62
  -3   3  28   97.84    4.19
  -2   3  28    0.40    1.08
  -1   3  28    0.06    0.76
   0   3  28   90.74    5.64
  -2   4  28   77.79    4.91
   0  -3  29    2.66    0.78
   1  -3  29    0.84    0.47
   2  -3  29   -0.29    0.52
   3  -3  29    4.14    0.85
  -1  -2  29    0.82    0.57
   0  -2  29    0.58    0.49
   1  -2  29    3.08    0.64
   2  -2  29    0.19    0.51
   3  -2  29    0.36    0.46
  -2  -1  29    0.27    0.55
  -1  -1  29    3.10    0.69
   0  -1  29    0.89    0.39
   1  -1  29    0.94    0.39
   2  -1  29    2.57    0.54
   3  -1  29    0.26    0.59
  -3   0  29    3.46    1.35
  -2   0  29    0.63    0.58
  -1   0  29    0.68    0.49
   0   0  29    5.30    0.69
   1   0  29    0.73    0.38
   2   0  29    0.74    0.43
   3   0  29    3.70    0.91
  -3   1  29    0.25    0.80
  -2   1  29    3.07    0.92
  -1   1  29    0.10    0.46
   0   1  29    0.66    0.50
   1   1  29    3.98    0.72
   2   1  29    0.24    0.63
  -3   2  29    0.14    0.81
  -2   2  29    0.20    0.89
  -1   2  29    4.77    0.89
   0   2  29    1.77    0.69
   1   2  29    0.17    0.94
  -3   3  29   -0.55    1.11
  -2   3  29   -0.95    1.00
  -1   3  29    1.36    0.85
   0   3  29    3.29    1.55
   0  -3  30    0.02    0.61
   1  -3  30    8.63    1.09
   2  -3  30    0.43    0.58
   3  -3  30   -0.66    0.88
  -1  -2  30    9.67    1.14
   0  -2  30    0.97    0.56
   1  -2  30   -0.19    0.46
   2  -2  30   11.11    1.16
   3  -2  30   -0.74    0.43
  -2  -1  30    0.19    0.58
  -1  -1  30   -0.02    0.47
   0  -1  30   14.29    1.19
   1  -1  30    0.77    0.49
   2  -1  30    0.36    0.43
   3  -1  30    9.10    1.18
  -2   0  30   10.94    1.20
  -1   0  30    0.04    0.46
   0   0  30    1.10    0.47
   1   0  30   15.29    1.05
   2   0  30    0.27    0.44
   3   0  30    1.48    1.19
  -3   1  30    0.24    0.73
  -2   1  30   -0.45    0.65
  -1   1  30   12.23    1.74
   0   1  30    0.33    0.49
   1   1  30    0.07    0.48
   2   1  30   10.06    1.26
  -3   2  30    8.35    1.35
  -2   2  30   -0.44    0.87
  -1   2  30   -0.20    0.59
   0   2  30    9.70    1.15
   1   2  30    0.38    0.96
  -2   3  30    6.72    1.83
  -1   3  30    0.13    0.80
   1  -3  31    5.17    1.30
   2  -3  31    2.71    0.76
  -1  -2  31    4.77    0.91
   0  -2  31    1.98    0.63
   1  -2  31    0.85    0.56
   2  -2  31    5.69    0.88
   3  -2  31    2.77    0.62
  -2  -1  31    1.35    0.73
  -1  -1  31    1.17    0.60
   0  -1  31    4.76    1.12
   1  -1  31    3.21    0.67
   2  -1  31    0.78    0.45
   3  -1  31    7.47    1.72
  -2   0  31    6.05    0.96
  -1   0  31    3.02    0.96
   0   0  31    1.08    0.53
   1   0  31    5.75    0.84
   2   0  31    4.21    0.84
  -3   1  31    1.32    0.81
  -2   1  31   -0.91    0.64
  -1   1  31    5.55    1.27
   0   1  31    2.46    0.60
   1   1  31    0.66    0.56
   2   1  31    4.95    1.60
  -3   2  31    4.38    1.08
  -2   2  31    3.25    1.17
  -1   2  31    1.03    0.65
   0   2  31    4.58    0.87
   1   2  31   -0.25    1.01
  -2   3  31    1.25    1.23
  -1   3  31    2.46    0.97
  -1  -2  32    0.66    0.88
   0  -2  32   51.24    2.34
   1  -2  32    0.56    0.54
   2  -2  32    0.31    0.54
   3  -2  32   43.38    3.16
  -2  -1  32   41.91    2.96
  -1  -1  32    0.73    0.57
   0  -1  32    1.08    0.74
   1  -1  32   60.72    2.44
   2  -1  32    0.82    0.48
  -2   0  32    0.83    0.61
  -1   0  32   58.40    3.51
   0   0  32    0.45    0.51
   1   0  32    1.04    0.55
   2   0  32   50.08    2.42
  -2   1  32   -0.04    0.62
  -1   1  32    1.62    0.88
   0   1  32   57.56    2.44
   1   1  32    0.38    0.55
   2   1  32    0.22    1.14
  -3   2  32    9.01    2.35
  -2   2  32   44.72    3.47
  -1   2  32    0.36    0.67
   0   2  32    0.32    0.63
   0  -2  33   39.15    2.92
   1  -2  33    0.51    0.54
   2  -2  33    0.44    0.60
  -1  -1  33    0.21    0.57
   0  -1  33   -0.14    0.68
   1  -1  33   51.99    2.23
   2  -1  33    0.19    0.45
  -2   0  33    0.26    0.58
  -1   0  33   54.00    3.27
   0   0  33    0.11    0.48
   1   0  33    0.30    0.54
   2   0  33   46.21    2.31
  -2   1  33    0.15    0.85
  -1   1  33    1.00    0.84
   0   1  33   47.18    2.19
   1   1  33   -0.20    0.53
  -2   2  33   39.10    3.24
  -1   2  33    0.02    0.67
   0   2  33    0.11    0.64
   1  -2  34    1.05    0.88
  -1  -1  34   -0.05    0.57
   0  -1  34   -0.81    0.66
   1  -1  34    5.47    0.86
   2  -1  34    0.06    0.57
  -2   0  34    0.86    1.00
  -1   0  34    7.96    1.40
   0   0  34    0.02    0.53
   1   0  34    0.43    0.56
   2   0  34    4.92    1.53
  -1   1  34    0.90    0.91
   0   1  34    7.77    1.02
   1   1  34   -0.22    0.79
  -1   2  34   -0.71    0.94
   0   2  34    0.01    0.87
   1  -1  35    4.06    0.81
   2  -1  35    3.56    1.19
  -1   0  35    4.71    1.21
   0   0  35    3.14    0.72
   1   0  35    4.35    0.85
  -1   1  35    5.13    1.32
   0   1  35    5.82    0.93
   1   1  35    3.05    1.09
   0   1  36    2.83    1.10
   0   0   0    0.00    0.00
;
_shelx_hkl_checksum              24197
#END Tags that were not found in dictionaries
loop_
_space_group_symop_operation_xyz
'x, y, z'
'-y, x-y, z'
'-x+y, -x, z'
'y, x, -z'
'x-y, -y, -z'
'-x, -x+y, -z'
'-x, -y, -z'
'y, -x+y, -z'
'x-y, x, -z'
'-y, -x, z'
'-x+y, y, z'
'x, x-y, z'
loop_
_atom_site_label
_atom_site_type_symbol
_atom_site_fract_x
_atom_site_fract_y
_atom_site_fract_z
_atom_site_U_iso_or_equiv
_atom_site_adp_type
_atom_site_occupancy
_atom_site_site_symmetry_order
_atom_site_calc_flag
_atom_site_refinement_flags_posn
_atom_site_refinement_flags_adp
_atom_site_refinement_flags_occupancy
Sm1 Sm 0.3333 0.6667 0.07107(2) 0.00849(14) Uani 1 6 d S T P
Sm2 Sm 0.0000 0.0000 0.21375(2) 0.00943(14) Uani 1 6 d S T P
Sm3 Sm 0.0000 0.0000 0.5000 0.0127(6) Uani 0.385(4) 12 d S T .
Zn1A Zn 0.3333 0.6667 0.40566(10) 0.0313(5) Uani 0.804(4) 6 d S T P
Zn1B Zn 0.3333 0.6667 0.4551(4) 0.0313(5) Uani 0.196(4) 6 d S T P
Zn2 Zn 0.3333 0.6667 0.67521(6) 0.0183(3) Uani 1 6 d S T P
As1 As 0.3333 0.6667 0.28737(4) 0.0101(2) Uani 1 6 d S T P
As2 As 0.3333 0.6667 0.57084(5) 0.0135(2) Uani 1 6 d S T P
As3 As 0.3333 0.6667 0.85646(4) 0.0083(2) Uani 1 6 d S T P
As4 As 0.0000 0.0000 0.0000 0.0082(3) Uani 1 12 d S T P
loop_
_atom_site_aniso_label
_atom_site_aniso_U_11
_atom_site_aniso_U_22
_atom_site_aniso_U_33
_atom_site_aniso_U_23
_atom_site_aniso_U_13
_atom_site_aniso_U_12
Sm1 0.00786(17) 0.00786(17) 0.0097(2) 0.000 0.000 0.00393(9)
Sm2 0.00832(17) 0.00832(17) 0.0116(3) 0.000 0.000 0.00416(9)
Sm3 0.0127(7) 0.0127(7) 0.0126(10) 0.000 0.000 0.0064(4)
Zn1A 0.0188(6) 0.0188(6) 0.0563(14) 0.000 0.000 0.0094(3)
Zn1B 0.0188(6) 0.0188(6) 0.0563(14) 0.000 0.000 0.0094(3)
Zn2 0.0182(4) 0.0182(4) 0.0185(7) 0.000 0.000 0.0091(2)
As1 0.0089(3) 0.0089(3) 0.0125(5) 0.000 0.000 0.00445(15)
As2 0.0124(3) 0.0124(3) 0.0155(5) 0.000 0.000 0.00621(17)
As3 0.0074(3) 0.0074(3) 0.0102(4) 0.000 0.000 0.00368(14)
As4 0.0078(4) 0.0078(4) 0.0092(6) 0.000 0.000 0.0039(2)
loop_
_atom_type_symbol
_atom_type_description
_atom_type_scat_dispersion_real
_atom_type_scat_dispersion_imag
_atom_type_scat_source
Zn Zn 0.2839 1.4301 'International Tables Vol C Tables 4.2.6.8 and 6.1.1.4'
As As 0.0499 2.0058 'International Tables Vol C Tables 4.2.6.8 and 6.1.1.4'
Sm Sm -0.1638 3.4418 'International Tables Vol C Tables 4.2.6.8 and 6.1.1.4'
loop_
_geom_angle_atom_site_label_1
_geom_angle_atom_site_label_2
_geom_angle_atom_site_label_3
_geom_angle
_geom_angle_site_symmetry_1
_geom_angle_site_symmetry_3
As4 Sm1 As4 89.957(14) . 1_565
As4 Sm1 As4 89.957(13) . 1_665
As4 Sm1 As4 89.957(13) 1_565 1_665
As4 Sm1 As3 90.416(13) . 7_666
As4 Sm1 As3 179.47(2) 1_565 7_666
As4 Sm1 As3 90.416(13) 1_665 7_666
As4 Sm1 As3 179.47(2) . 7_676
As4 Sm1 As3 90.415(13) 1_565 7_676
As4 Sm1 As3 90.416(13) 1_665 7_676
As3 Sm1 As3 89.21(3) 7_666 7_676
As4 Sm1 As3 90.416(13) . 7_566
As4 Sm1 As3 90.415(13) 1_565 7_566
As4 Sm1 As3 179.47(2) 1_665 7_566
As3 Sm1 As3 89.21(3) 7_666 7_566
As3 Sm1 As3 89.21(3) 7_676 7_566
As3 Sm2 As3 90.42(3) 7_556 7_666
As3 Sm2 As3 90.42(3) 7_556 7_566
As3 Sm2 As3 90.42(3) 7_666 7_566
As3 Sm2 As1 90.484(18) 7_556 1_445
As3 Sm2 As1 178.71(3) 7_666 1_445
As3 Sm2 As1 90.484(18) 7_566 1_445
As3 Sm2 As1 90.484(17) 7_556 1_545
As3 Sm2 As1 90.484(18) 7_666 1_545
As3 Sm2 As1 178.71(3) 7_566 1_545
As1 Sm2 As1 88.60(3) 1_445 1_545
As3 Sm2 As1 178.71(3) 7_556 .
As3 Sm2 As1 90.485(18) 7_666 .
As3 Sm2 As1 90.485(18) 7_566 .
As1 Sm2 As1 88.60(3) 1_445 .
As1 Sm2 As1 88.60(3) 1_545 .
As3 Sm2 Zn2 134.419(11) 7_556 7_666
As3 Sm2 Zn2 82.85(2) 7_666 7_666
As3 Sm2 Zn2 134.418(11) 7_566 7_666
As1 Sm2 Zn2 95.87(3) 1_445 7_666
As1 Sm2 Zn2 44.843(11) 1_545 7_666
As1 Sm2 Zn2 44.842(11) . 7_666
As3 Sm2 Zn2 82.85(2) 7_556 7_556
As3 Sm2 Zn2 134.419(11) 7_666 7_556
As3 Sm2 Zn2 134.418(11) 7_566 7_556
As1 Sm2 Zn2 44.842(11) 1_445 7_556
As1 Sm2 Zn2 44.843(11) 1_545 7_556
As1 Sm2 Zn2 95.87(3) . 7_556
Zn2 Sm2 Zn2 71.02(3) 7_666 7_556
As3 Sm2 Zn2 134.418(11) 7_556 7_566
As3 Sm2 Zn2 134.418(11) 7_666 7_566
As3 Sm2 Zn2 82.85(2) 7_566 7_566
As1 Sm2 Zn2 44.843(11) 1_445 7_566
As1 Sm2 Zn2 95.87(3) 1_545 7_566
As1 Sm2 Zn2 44.842(11) . 7_566
Zn2 Sm2 Zn2 71.02(3) 7_666 7_566
Zn2 Sm2 Zn2 71.02(3) 7_556 7_566
Zn1B Sm3 Zn1B 75.5(2) . 7_666
Zn1B Sm3 Zn1B 104.5(2) . 1_445
Zn1B Sm3 Zn1B 180.0 7_666 1_445
Zn1B Sm3 Zn1B 180.0 . 7_556
Zn1B Sm3 Zn1B 104.5(2) 7_666 7_556
Zn1B Sm3 Zn1B 75.5(2) 1_445 7_556
Zn1B Sm3 Zn1B 75.5(2) . 7_566
Zn1B Sm3 Zn1B 104.5(2) 7_666 7_566
Zn1B Sm3 Zn1B 75.5(2) 1_445 7_566
Zn1B Sm3 Zn1B 104.5(2) 7_556 7_566
Zn1B Sm3 Zn1B 104.5(2) . 1_545
Zn1B Sm3 Zn1B 75.5(2) 7_666 1_545
Zn1B Sm3 Zn1B 104.5(2) 1_445 1_545
Zn1B Sm3 Zn1B 75.5(2) 7_556 1_545
Zn1B Sm3 Zn1B 180.0(4) 7_566 1_545
Zn1B Sm3 As2 120.7(2) . 7_556
Zn1B Sm3 As2 127.48(9) 7_666 7_556
Zn1B Sm3 As2 52.52(10) 1_445 7_556
Zn1B Sm3 As2 59.3(2) 7_556 7_556
Zn1B Sm3 As2 127.47(10) 7_566 7_556
Zn1B Sm3 As2 52.53(10) 1_545 7_556
Zn1B Sm3 As2 52.53(9) . 7_666
Zn1B Sm3 As2 59.3(2) 7_666 7_666
Zn1B Sm3 As2 120.7(2) 1_445 7_666
Zn1B Sm3 As2 127.48(10) 7_556 7_666
Zn1B Sm3 As2 127.47(10) 7_566 7_666
Zn1B Sm3 As2 52.53(10) 1_545 7_666
As2 Sm3 As2 90.09(3) 7_556 7_666
Zn1B Sm3 As2 127.47(9) . 1_445
Zn1B Sm3 As2 120.7(2) 7_666 1_445
Zn1B Sm3 As2 59.3(2) 1_445 1_445
Zn1B Sm3 As2 52.52(10) 7_556 1_445
Zn1B Sm3 As2 52.53(10) 7_566 1_445
Zn1B Sm3 As2 127.47(10) 1_545 1_445
As2 Sm3 As2 89.91(3) 7_556 1_445
As2 Sm3 As2 180.0 7_666 1_445
Zn1B Sm3 As2 52.53(10) . 7_566
Zn1B Sm3 As2 127.47(10) 7_666 7_566
Zn1B Sm3 As2 52.53(10) 1_445 7_566
Zn1B Sm3 As2 127.47(10) 7_556 7_566
Zn1B Sm3 As2 59.3(2) 7_566 7_566
Zn1B Sm3 As2 120.7(2) 1_545 7_566
As2 Sm3 As2 90.09(3) 7_556 7_566
As2 Sm3 As2 90.09(3) 7_666 7_566
As2 Sm3 As2 89.91(3) 1_445 7_566
Zn1B Sm3 As2 127.47(10) . 1_545
Zn1B Sm3 As2 52.53(10) 7_666 1_545
Zn1B Sm3 As2 127.47(10) 1_445 1_545
Zn1B Sm3 As2 52.53(10) 7_556 1_545
Zn1B Sm3 As2 120.7(2) 7_566 1_545
Zn1B Sm3 As2 59.3(2) 1_545 1_545
As2 Sm3 As2 89.91(3) 7_556 1_545
As2 Sm3 As2 89.91(3) 7_666 1_545
As2 Sm3 As2 90.09(3) 1_445 1_545
As2 Sm3 As2 180.00(3) 7_566 1_545
Zn1B Sm3 As2 59.3(2) . .
Zn1B Sm3 As2 52.52(9) 7_666 .
Zn1B Sm3 As2 127.48(10) 1_445 .
Zn1B Sm3 As2 120.7(2) 7_556 .
Zn1B Sm3 As2 52.53(10) 7_566 .
Zn1B Sm3 As2 127.47(10) 1_545 .
As2 Sm3 As2 180.0 7_556 .
As2 Sm3 As2 89.91(3) 7_666 .
As2 Sm3 As2 90.09(3) 1_445 .
As2 Sm3 As2 89.91(3) 7_566 .
As2 Sm3 As2 90.09(3) 1_545 .
Zn1B Zn1A As2 76.82(6) . 7_666
Zn1B Zn1A As2 76.82(6) . 7_676
As2 Zn1A As2 114.96(5) 7_666 7_676
Zn1B Zn1A As2 76.82(6) . 7_566
As2 Zn1A As2 114.96(5) 7_666 7_566
As2 Zn1A As2 114.96(5) 7_676 7_566
Zn1B Zn1A As1 180.0 . .
As2 Zn1A As1 103.18(6) 7_666 .
As2 Zn1A As1 103.18(6) 7_676 .
As2 Zn1A As1 103.18(6) 7_566 .
Zn1B Zn1A Zn2 128.85(4) . 7_666
As2 Zn1A Zn2 52.03(4) 7_666 7_666
As2 Zn1A Zn2 121.48(4) 7_676 7_666
As2 Zn1A Zn2 121.48(4) 7_566 7_666
As1 Zn1A Zn2 51.15(4) . 7_666
Zn1B Zn1A Zn2 128.85(4) . 7_566
As2 Zn1A Zn2 121.48(4) 7_666 7_566
As2 Zn1A Zn2 121.48(4) 7_676 7_566
As2 Zn1A Zn2 52.03(4) 7_566 7_566
As1 Zn1A Zn2 51.15(4) . 7_566
Zn2 Zn1A Zn2 84.82(6) 7_666 7_566
Zn1B Zn1A Zn2 128.85(4) . 7_676
As2 Zn1A Zn2 121.48(4) 7_666 7_676
As2 Zn1A Zn2 52.03(4) 7_676 7_676
As2 Zn1A Zn2 121.48(4) 7_566 7_676
As1 Zn1A Zn2 51.15(4) . 7_676
Zn2 Zn1A Zn2 84.82(6) 7_666 7_676
Zn2 Zn1A Zn2 84.82(6) 7_566 7_676
Zn1B Zn1A Sm3 46.78(3) . 1_665
As2 Zn1A Sm3 59.28(4) 7_666 1_665
As2 Zn1A Sm3 59.28(4) 7_676 1_665
As2 Zn1A Sm3 123.60(9) 7_566 1_665
As1 Zn1A Sm3 133.22(3) . 1_665
Zn2 Zn1A Sm3 98.383(18) 7_666 1_665
Zn2 Zn1A Sm3 175.63(7) 7_566 1_665
Zn2 Zn1A Sm3 98.383(18) 7_676 1_665
Zn1B Zn1A Sm3 46.78(3) . 1_565
As2 Zn1A Sm3 123.60(9) 7_666 1_565
As2 Zn1A Sm3 59.28(4) 7_676 1_565
As2 Zn1A Sm3 59.28(4) 7_566 1_565
As1 Zn1A Sm3 133.22(3) . 1_565
Zn2 Zn1A Sm3 175.63(7) 7_666 1_565
Zn2 Zn1A Sm3 98.382(18) 7_566 1_565
Zn2 Zn1A Sm3 98.382(18) 7_676 1_565
Sm3 Zn1A Sm3 78.27(5) 1_665 1_565
Zn1B Zn1A Sm3 46.78(3) . .
As2 Zn1A Sm3 59.28(4) 7_666 .
As2 Zn1A Sm3 123.60(9) 7_676 .
As2 Zn1A Sm3 59.28(4) 7_566 .
As1 Zn1A Sm3 133.22(3) . .
Zn2 Zn1A Sm3 98.383(18) 7_666 .
Zn2 Zn1A Sm3 98.383(18) 7_566 .
Zn2 Zn1A Sm3 175.63(7) 7_676 .
Sm3 Zn1A Sm3 78.27(5) 1_665 .
Sm3 Zn1A Sm3 78.27(5) 1_565 .
Zn1A Zn1B As2 75.5(2) . 7_666
Zn1A Zn1B As2 75.5(2) . 7_566
As2 Zn1B As2 113.98(19) 7_666 7_566
Zn1A Zn1B As2 75.5(2) . 7_676
As2 Zn1B As2 113.98(19) 7_666 7_676
As2 Zn1B As2 113.98(19) 7_566 7_676
Zn1A Zn1B Sm3 114.1(2) . 1_565
As2 Zn1B Sm3 170.4(4) 7_666 1_565
As2 Zn1B Sm3 70.13(4) 7_566 1_565
As2 Zn1B Sm3 70.13(4) 7_676 1_565
Zn1A Zn1B Sm3 114.1(2) . 1_665
As2 Zn1B Sm3 70.13(4) 7_666 1_665
As2 Zn1B Sm3 170.4(4) 7_566 1_665
As2 Zn1B Sm3 70.13(4) 7_676 1_665
Sm3 Zn1B Sm3 104.5(2) 1_565 1_665
Zn1A Zn1B Sm3 114.1(2) . .
As2 Zn1B Sm3 70.13(4) 7_666 .
As2 Zn1B Sm3 70.13(4) 7_566 .
As2 Zn1B Sm3 170.4(4) 7_676 .
Sm3 Zn1B Sm3 104.5(2) 1_565 .
Sm3 Zn1B Sm3 104.5(2) 1_665 .
Zn1A Zn1B As2 180.0 . .
As2 Zn1B As2 104.5(2) 7_666 .
As2 Zn1B As2 104.5(2) 7_566 .
As2 Zn1B As2 104.5(2) 7_676 .
Sm3 Zn1B As2 65.9(2) 1_565 .
Sm3 Zn1B As2 65.9(2) 1_665 .
Sm3 Zn1B As2 65.9(2) . .
As2 Zn2 As1 110.44(4) . 7_666
As2 Zn2 As1 110.44(4) . 7_676
As1 Zn2 As1 108.48(4) 7_666 7_676
As2 Zn2 As1 110.44(4) . 7_566
As1 Zn2 As1 108.48(4) 7_666 7_566
As1 Zn2 As1 108.48(4) 7_676 7_566
As2 Zn2 Zn1A 51.15(4) . 7_666
As1 Zn2 Zn1A 59.29(4) 7_666 7_666
As1 Zn2 Zn1A 125.73(2) 7_676 7_666
As1 Zn2 Zn1A 125.73(2) 7_566 7_666
As2 Zn2 Zn1A 51.15(4) . 7_566
As1 Zn2 Zn1A 125.73(2) 7_666 7_566
As1 Zn2 Zn1A 125.73(2) 7_676 7_566
As1 Zn2 Zn1A 59.29(4) 7_566 7_566
Zn1A Zn2 Zn1A 84.82(6) 7_666 7_566
As2 Zn2 Zn1A 51.15(4) . 7_676
As1 Zn2 Zn1A 125.73(2) 7_666 7_676
As1 Zn2 Zn1A 59.29(4) 7_676 7_676
As1 Zn2 Zn1A 125.73(2) 7_566 7_676
Zn1A Zn2 Zn1A 84.82(6) 7_666 7_676
Zn1A Zn2 Zn1A 84.82(6) 7_566 7_676
As2 Zn2 Sm2 137.881(17) . 7_666
As1 Zn2 Sm2 55.02(2) 7_666 7_666
As1 Zn2 Sm2 55.02(2) 7_676 7_666
As1 Zn2 Sm2 111.68(5) 7_566 7_666
Zn1A Zn2 Sm2 101.78(3) 7_666 7_666
Zn1A Zn2 Sm2 170.97(5) 7_566 7_666
Zn1A Zn2 Sm2 101.78(3) 7_676 7_666
As2 Zn2 Sm2 137.881(17) . 7_566
As1 Zn2 Sm2 111.68(5) 7_666 7_566
As1 Zn2 Sm2 55.02(2) 7_676 7_566
As1 Zn2 Sm2 55.02(2) 7_566 7_566
Zn1A Zn2 Sm2 170.97(5) 7_666 7_566
Zn1A Zn2 Sm2 101.78(3) 7_566 7_566
Zn1A Zn2 Sm2 101.78(3) 7_676 7_566
Sm2 Zn2 Sm2 71.02(3) 7_666 7_566
As2 Zn2 Sm2 137.881(17) . 7_556
As1 Zn2 Sm2 55.02(2) 7_666 7_556
As1 Zn2 Sm2 111.68(5) 7_676 7_556
As1 Zn2 Sm2 55.02(2) 7_566 7_556
Zn1A Zn2 Sm2 101.78(3) 7_666 7_556
Zn1A Zn2 Sm2 101.78(3) 7_566 7_556
Zn1A Zn2 Sm2 170.97(5) 7_676 7_556
Sm2 Zn2 Sm2 71.02(3) 7_666 7_556
Sm2 Zn2 Sm2 71.02(3) 7_566 7_556
Zn2 As1 Zn2 108.49(4) 7_666 7_676
Zn2 As1 Zn2 108.49(4) 7_666 7_566
Zn2 As1 Zn2 108.48(4) 7_676 7_566
Zn2 As1 Zn1A 69.56(4) 7_666 .
Zn2 As1 Zn1A 69.56(4) 7_676 .
Zn2 As1 Zn1A 69.56(4) 7_566 .
Zn2 As1 Sm2 164.19(5) 7_666 1_565
Zn2 As1 Sm2 80.14(2) 7_676 1_565
Zn2 As1 Sm2 80.14(2) 7_566 1_565
Zn1A As1 Sm2 126.251(18) . 1_565
Zn2 As1 Sm2 80.14(2) 7_666 1_665
Zn2 As1 Sm2 80.14(2) 7_676 1_665
Zn2 As1 Sm2 164.19(5) 7_566 1_665
Zn1A As1 Sm2 126.251(18) . 1_665
Sm2 As1 Sm2 88.60(3) 1_565 1_665
Zn2 As1 Sm2 80.14(2) 7_666 .
Zn2 As1 Sm2 164.19(5) 7_676 .
Zn2 As1 Sm2 80.14(2) 7_566 .
Zn1A As1 Sm2 126.252(18) . .
Sm2 As1 Sm2 88.60(3) 1_565 .
Sm2 As1 Sm2 88.60(3) 1_665 .
Zn1A As2 Zn1A 114.97(5) 7_666 7_676
Zn1A As2 Zn1A 114.97(5) 7_666 7_566
Zn1A As2 Zn1A 114.96(5) 7_676 7_566
Zn1A As2 Zn1B 27.6(2) 7_666 7_666
Zn1A As2 Zn1B 121.89(3) 7_676 7_666
Zn1A As2 Zn1B 121.89(3) 7_566 7_666
Zn1A As2 Zn1B 121.89(3) 7_666 7_566
Zn1A As2 Zn1B 121.89(3) 7_676 7_566
Zn1A As2 Zn1B 27.6(2) 7_566 7_566
Zn1B As2 Zn1B 113.98(19) 7_666 7_566
Zn1A As2 Zn1B 121.89(3) 7_666 7_676
Zn1A As2 Zn1B 27.6(2) 7_676 7_676
Zn1A As2 Zn1B 121.89(3) 7_566 7_676
Zn1B As2 Zn1B 113.98(19) 7_666 7_676
Zn1B As2 Zn1B 113.98(19) 7_566 7_676
Zn1A As2 Zn2 76.82(6) 7_666 .
Zn1A As2 Zn2 76.82(6) 7_676 .
Zn1A As2 Zn2 76.82(6) 7_566 .
Zn1B As2 Zn2 104.5(2) 7_666 .
Zn1B As2 Zn2 104.5(2) 7_566 .
Zn1B As2 Zn2 104.5(2) 7_676 .
Zn1A As2 Zn1B 103.18(6) 7_666 .
Zn1A As2 Zn1B 103.18(6) 7_676 .
Zn1A As2 Zn1B 103.18(6) 7_566 .
Zn1B As2 Zn1B 75.5(2) 7_666 .
Zn1B As2 Zn1B 75.5(2) 7_566 .
Zn1B As2 Zn1B 75.5(2) 7_676 .
Zn2 As2 Zn1B 180.0 . .
Zn1A As2 Sm3 74.55(4) 7_666 .
Zn1A As2 Sm3 157.97(7) 7_676 .
Zn1A As2 Sm3 74.55(4) 7_566 .
Zn1B As2 Sm3 57.34(13) 7_666 .
Zn1B As2 Sm3 57.34(13) 7_566 .
Zn1B As2 Sm3 130.3(2) 7_676 .
Zn2 As2 Sm3 125.204(18) . .
Zn1B As2 Sm3 54.796(18) . .
Zn1A As2 Sm3 157.97(7) 7_666 1_565
Zn1A As2 Sm3 74.55(4) 7_676 1_565
Zn1A As2 Sm3 74.55(4) 7_566 1_565
Zn1B As2 Sm3 130.3(2) 7_666 1_565
Zn1B As2 Sm3 57.34(13) 7_566 1_565
Zn1B As2 Sm3 57.34(13) 7_676 1_565
Zn2 As2 Sm3 125.204(18) . 1_565
Zn1B As2 Sm3 54.796(18) . 1_565
Sm3 As2 Sm3 90.08(3) . 1_565
Zn1A As2 Sm3 74.55(4) 7_666 1_665
Zn1A As2 Sm3 74.55(4) 7_676 1_665
Zn1A As2 Sm3 157.97(7) 7_566 1_665
Zn1B As2 Sm3 57.34(13) 7_666 1_665
Zn1B As2 Sm3 130.3(2) 7_566 1_665
Zn1B As2 Sm3 57.34(13) 7_676 1_665
Zn2 As2 Sm3 125.204(18) . 1_665
Zn1B As2 Sm3 54.796(18) . 1_665
Sm3 As2 Sm3 90.08(3) . 1_665
Sm3 As2 Sm3 90.08(3) 1_565 1_665
Sm2 As3 Sm2 90.42(3) 7_556 7_566
Sm2 As3 Sm2 90.42(3) 7_556 7_666
Sm2 As3 Sm2 90.42(3) 7_566 7_666
Sm2 As3 Sm1 90.181(11) 7_556 7_666
Sm2 As3 Sm1 179.15(3) 7_566 7_666
Sm2 As3 Sm1 90.181(11) 7_666 7_666
Sm2 As3 Sm1 179.15(3) 7_556 7_676
Sm2 As3 Sm1 90.181(11) 7_566 7_676
Sm2 As3 Sm1 90.181(11) 7_666 7_676
Sm1 As3 Sm1 89.21(3) 7_666 7_676
Sm2 As3 Sm1 90.181(11) 7_556 7_566
Sm2 As3 Sm1 90.181(11) 7_566 7_566
Sm2 As3 Sm1 179.15(3) 7_666 7_566
Sm1 As3 Sm1 89.21(3) 7_666 7_566
Sm1 As3 Sm1 89.21(3) 7_676 7_566
Sm1 As4 Sm1 180.0 . 7
Sm1 As4 Sm1 90.043(13) . 7_665
Sm1 As4 Sm1 89.956(13) 7 7_665
Sm1 As4 Sm1 89.957(14) . 1_445
Sm1 As4 Sm1 90.044(13) 7 1_445
Sm1 As4 Sm1 180.000(15) 7_665 1_445
Sm1 As4 Sm1 89.957(13) . 1_545
Sm1 As4 Sm1 90.044(13) 7 1_545
Sm1 As4 Sm1 90.044(13) 7_665 1_545
Sm1 As4 Sm1 89.956(13) 1_445 1_545
Sm1 As4 Sm1 90.043(13) . 7_565
Sm1 As4 Sm1 89.956(13) 7 7_565
Sm1 As4 Sm1 89.956(13) 7_665 7_565
Sm1 As4 Sm1 90.044(13) 1_445 7_565
Sm1 As4 Sm1 180.000(15) 1_545 7_565
loop_
_geom_bond_atom_site_label_1
_geom_bond_atom_site_label_2
_geom_bond_distance
_geom_bond_site_symmetry_2
Sm1 As4 2.9500(4) .
Sm1 As4 2.9500(4) 1_565
Sm1 As4 2.9500(4) 1_665
Sm1 As3 2.9694(7) 7_666
Sm1 As3 2.9694(7) 7_676
Sm1 As3 2.9694(7) 7_566
Sm2 As3 2.9381(7) 7_556
Sm2 As3 2.9381(7) 7_666
Sm2 As3 2.9381(7) 7_566
Sm2 As1 2.9856(7) 1_445
Sm2 As1 2.9857(7) 1_545
Sm2 As1 2.9857(7) .
Sm2 Zn2 3.5900(12) 7_666
Sm2 Zn2 3.5900(12) 7_556
Sm2 Zn2 3.5900(12) 7_566
Sm3 Zn1B 2.638(4) .
Sm3 Zn1B 2.638(4) 7_666
Sm3 Zn1B 2.638(4) 1_445
Sm3 Zn1B 2.638(4) 7_556
Sm3 Zn1B 2.638(4) 7_566
Sm3 Zn1B 2.638(4) 1_545
Sm3 As2 2.9466(7) 7_556
Sm3 As2 2.9466(7) 7_666
Sm3 As2 2.9466(7) 1_445
Sm3 As2 2.9466(7) 7_566
Sm3 As2 2.9466(7) 1_545
Sm3 As2 2.9467(7) .
Zn1A Zn1B 1.185(11) .
Zn1A As2 2.4728(7) 7_666
Zn1A As2 2.4729(7) 7_676
Zn1A As2 2.4729(7) 7_566
Zn1A As1 2.837(3) .
Zn1A Zn2 3.0916(18) 7_666
Zn1A Zn2 3.0917(18) 7_566
Zn1A Zn2 3.0917(18) 7_676
Zn1A Sm3 3.3039(17) 1_665
Zn1A Sm3 3.3039(17) 1_565
Zn1B As2 2.487(3) 7_666
Zn1B As2 2.487(3) 7_566
Zn1B As2 2.487(3) 7_676
Zn1B Sm3 2.638(4) 1_565
Zn1B Sm3 2.638(4) 1_665
Zn1B As2 2.776(11) .
Zn2 As2 2.5030(18) .
Zn2 As1 2.5695(7) 7_666
Zn2 As1 2.5696(7) 7_676
Zn2 As1 2.5696(7) 7_566
Zn2 Zn1A 3.0916(18) 7_666
Zn2 Zn1A 3.0916(18) 7_566
Zn2 Zn1A 3.0916(18) 7_676
Zn2 Sm2 3.5900(12) 7_666
Zn2 Sm2 3.5900(12) 7_566
Zn2 Sm2 3.5900(12) 7_556
As1 Zn2 2.5695(7) 7_666
As1 Zn2 2.5695(7) 7_676
As1 Zn2 2.5695(7) 7_566
As1 Sm2 2.9857(7) 1_565
As1 Sm2 2.9857(7) 1_665
As2 Zn1A 2.4728(7) 7_666
As2 Zn1A 2.4728(7) 7_676
As2 Zn1A 2.4728(7) 7_566
As2 Zn1B 2.487(3) 7_666
As2 Zn1B 2.487(3) 7_566
As2 Zn1B 2.487(3) 7_676
As2 Sm3 2.9467(7) 1_565
As2 Sm3 2.9467(7) 1_665
As3 Sm2 2.9381(7) 7_556
As3 Sm2 2.9381(7) 7_566
As3 Sm2 2.9381(7) 7_666
As3 Sm1 2.9693(7) 7_666
As3 Sm1 2.9693(7) 7_676
As3 Sm1 2.9693(7) 7_566
As4 Sm1 2.9500(4) 7
As4 Sm1 2.9500(4) 7_665
As4 Sm1 2.9500(4) 1_445
As4 Sm1 2.9500(4) 1_545
As4 Sm1 2.9500(4) 7_565
