#------------------------------------------------------------------------------
#$Date: 2016-02-05 01:41:50 +0200 (Fri, 05 Feb 2016) $
#$Revision: 176054 $
#$URL: svn://www.crystallography.net/cod/cif/7/03/74/7037414.cif $
#------------------------------------------------------------------------------
#
# This file is available in the Crystallography Open Database (COD),
# http://www.crystallography.net/
#
# All data on this site have been placed in the public domain by the
# contributors.
#
data_7037414
loop_
_publ_author_name
'Schorn, W.'
'Grosse-Hagenbrock, D'
'Oelkers, B.'
'Sundermeyer, J.'
_publ_section_title
;
 Formazanido complexes of heavier group 13 elements aluminium, gallium,
 and indium.
;
_journal_issue                   3
_journal_name_full
'Dalton transactions (Cambridge, England : 2003)'
_journal_page_first              1201
_journal_page_last               1207
_journal_paper_doi               10.1039/c5dt03906a
_journal_volume                  45
_journal_year                    2016
_chemical_absolute_configuration unk
_chemical_formula_moiety         'C19 H16 N4'
_chemical_formula_sum            'C19 H16 N4'
_chemical_formula_weight         300.36
_chemical_name_systematic
;
 ?
;
_space_group_crystal_system      monoclinic
_space_group_IT_number           4
_space_group_name_Hall           'P 2yb'
_space_group_name_H-M_alt        'P 1 21 1'
_symmetry_space_group_name_Hall  'P 2yb'
_symmetry_space_group_name_H-M   'P 1 21 1'
_atom_sites_solution_hydrogens   mixed
_atom_sites_solution_primary     direct
_atom_sites_solution_secondary   difmap
_audit_creation_method           SHELXL-2014
_audit_update_record
;
2015-07-22 deposited with the CCDC.
2015-11-23 downloaded from the CCDC.
;
_cell_angle_alpha                90
_cell_angle_beta                 97.844(6)
_cell_angle_gamma                90
_cell_formula_units_Z            2
_cell_length_a                   5.5221(9)
_cell_length_b                   14.646(2)
_cell_length_c                   9.6251(15)
_cell_measurement_reflns_used    45
_cell_measurement_temperature    100(2)
_cell_measurement_theta_max      40.72
_cell_measurement_theta_min      7.94
_cell_volume                     771.2(2)
_computing_cell_refinement       'APEX2 v2013.10-0 (Bruker AXS)'
_computing_data_collection       'Bruker Instrument Service v3.0.31'
_computing_data_reduction        'SAINT V8.34A (Bruker AXS Inc., 2013)'
_computing_molecular_graphics    'DIAMOND (Brandenburg, 2006)'
_computing_publication_material  'WinGX publication routines (Farrugia, 2012)'
_computing_structure_refinement  'SHELXL-2014 (Sheldrick, 2014)'
_computing_structure_solution    Superflip
_diffrn_ambient_temperature      100(2)
_diffrn_measured_fraction_theta_full 0.999
_diffrn_measured_fraction_theta_max 0.998
_diffrn_measurement_device_type  'Bruker D8 Quest'
_diffrn_measurement_method       'rotation method'
_diffrn_radiation_source         microsource
_diffrn_radiation_type           MoK\a
_diffrn_radiation_wavelength     0.71073
_diffrn_reflns_av_R_equivalents  0.0676
_diffrn_reflns_av_unetI/netI     0.0642
_diffrn_reflns_laue_measured_fraction_full 0.999
_diffrn_reflns_laue_measured_fraction_max 0.998
_diffrn_reflns_limit_h_max       7
_diffrn_reflns_limit_h_min       -6
_diffrn_reflns_limit_k_max       18
_diffrn_reflns_limit_k_min       -18
_diffrn_reflns_limit_l_max       12
_diffrn_reflns_limit_l_min       -12
_diffrn_reflns_number            11094
_diffrn_reflns_point_group_measured_fraction_full 0.999
_diffrn_reflns_point_group_measured_fraction_max 0.995
_diffrn_reflns_theta_full        25.242
_diffrn_reflns_theta_max         27.163
_diffrn_reflns_theta_min         2.782
_exptl_absorpt_coefficient_mu    0.080
_exptl_absorpt_correction_T_max  1
_exptl_absorpt_correction_T_min  0.726
_exptl_absorpt_correction_type   multi-scan
_exptl_absorpt_process_details   'SADABS V2012/1 (Bruker AXS Inc.)'
_exptl_crystal_colour            'dark red'
_exptl_crystal_density_diffrn    1.294
_exptl_crystal_density_method    'not measured'
_exptl_crystal_description       plate
_exptl_crystal_F_000             316
_exptl_crystal_size_max          0.252
_exptl_crystal_size_mid          0.234
_exptl_crystal_size_min          0.040
_refine_diff_density_max         0.653
_refine_diff_density_min         -0.297
_refine_diff_density_rms         0.053
_refine_ls_abs_structure_details
;
 Flack x determined using 928 quotients [(I+)-(I-)]/[(I+)+(I-)]
 (Parsons, Flack and Wagner, Acta Cryst. B69 (2013) 249-259).
;
_refine_ls_extinction_method     none
_refine_ls_goodness_of_fit_ref   1.028
_refine_ls_hydrogen_treatment    mixed
_refine_ls_matrix_type           full
_refine_ls_number_parameters     211
_refine_ls_number_reflns         3402
_refine_ls_number_restraints     1
_refine_ls_restrained_S_all      1.028
_refine_ls_R_factor_all          0.0916
_refine_ls_R_factor_gt           0.0575
_refine_ls_shift/su_max          0.000
_refine_ls_shift/su_mean         0.000
_refine_ls_structure_factor_coef Fsqd
_refine_ls_weighting_details
'w=1/[\s^2^(Fo^2^)+(0.0883P)^2^+0.0658P] where P=(Fo^2^+2Fc^2^)/3'
_refine_ls_weighting_scheme      calc
_refine_ls_wR_factor_gt          0.1403
_refine_ls_wR_factor_ref         0.1582
_reflns_Friedel_coverage         0.917
_reflns_friedel_fraction_full    0.999
_reflns_friedel_fraction_max     0.991
_reflns_number_gt                2439
_reflns_number_total             3402
_reflns_threshold_expression     'I > 2\s(I)'
_cod_data_source_file            c5dt03906a2.cif
_cod_data_source_block           compound1
_cod_depositor_comments
'Adding full bibliography for 7037414--7037415.cif.'
_cod_original_cell_volume        771.1(2)
_cod_database_code               7037414
_shelx_space_group_comment
;
The symmetry employed for this shelxl refinement is uniquely defined
by the following loop, which should always be used as a source of
symmetry information in preference to the above space-group names.
They are only intended as comments.
;
_shelxl_version_number           2014-3
_shelx_res_file
;
TITL WSHtpf_0m_a in P2(1)
CELL  0.71073   5.5221  14.6457   9.6251   90.000   97.844   90.000
ZERR     2.00   0.0009   0.0020   0.0015    0.000    0.006    0.000
LATT  -1
SYMM  - X, 1/2 + Y, - Z
SFAC  C    H    N
UNIT  38   32   8
MERG   2
OMIT     0   0   1
OMIT     0  -1   1
FMAP   2
PLAN   20
ACTA
BOND   $H
CONF
L.S.  10
TEMP  -173.00
WGHT    0.088300    0.065800
FVAR       0.86230
C1    1    1.010288    0.754218   -0.162399    11.00000    0.02323    0.02034 =
         0.03976   -0.01371    0.00766   -0.00758
C2    1    0.927015    0.816521   -0.277564    11.00000    0.02202    0.02267 =
         0.03742   -0.01221    0.00604   -0.00591
C3    1    1.058370    0.826796   -0.391081    11.00000    0.02979    0.03068 =
         0.04868    0.00751    0.00960    0.00611
AFIX  43
H3    2    1.201101    0.791209   -0.395032    11.00000   -1.20000
AFIX   0
C4    1    0.983430    0.887814   -0.497113    11.00000    0.03723    0.03814 =
         0.04994    0.00914    0.01331    0.00556
AFIX  43
H4    2    1.076133    0.894306   -0.572729    11.00000   -1.20000
AFIX   0
C5    1    0.777091    0.939204   -0.494893    11.00000    0.03446    0.02507 =
         0.04829    0.00460   -0.00361   -0.00147
AFIX  43
H5    2    0.725742    0.980856   -0.568723    11.00000   -1.20000
AFIX   0
C6    1    0.644744    0.929863   -0.384447    11.00000    0.03008    0.03020 =
         0.05051   -0.00378    0.00145    0.00623
AFIX  43
H6    2    0.501802    0.965560   -0.381814    11.00000   -1.20000
AFIX   0
C7    1    0.718165    0.869089   -0.277677    11.00000    0.02855    0.03309 =
         0.04287   -0.00262    0.00708    0.00561
AFIX  43
H7    2    0.623850    0.863094   -0.202690    11.00000   -1.20000
AFIX   0
C8    1    1.469646    0.582279   -0.093457    11.00000    0.02562    0.01720 =
         0.03380   -0.00445   -0.00310   -0.00476
C9    1    1.596821    0.584962   -0.207716    11.00000    0.03151    0.02113 =
         0.02462   -0.00064   -0.00480   -0.00325
AFIX  43
H9    2    1.549732    0.626687   -0.282075    11.00000   -1.20000
AFIX   0
C10   1    1.792403    0.526873   -0.213529    11.00000    0.03241    0.02267 =
         0.03888   -0.00574    0.00365    0.00001
AFIX  43
H10   2    1.881120    0.529887   -0.291307    11.00000   -1.20000
AFIX   0
C11   1    1.860821    0.464329   -0.107510    11.00000    0.02835    0.02236 =
         0.04905   -0.00259   -0.00500   -0.00025
AFIX  43
H11   2    1.993353    0.423731   -0.112999    11.00000   -1.20000
AFIX   0
C12   1    1.733006    0.461889    0.006663    11.00000    0.03609    0.02230 =
         0.04809    0.00852   -0.00628   -0.00027
AFIX  43
H12   2    1.779751    0.419868    0.080662    11.00000   -1.20000
AFIX   0
C13   1    1.538505    0.519934    0.013816    11.00000    0.03497    0.02395 =
         0.03462    0.00497   -0.00005   -0.00741
AFIX  43
H13   2    1.451213    0.517364    0.092216    11.00000   -1.20000
AFIX   0
C14   1    0.821933    0.705776    0.173431    11.00000    0.02622    0.02420 =
         0.02638   -0.00391    0.00321   -0.00574
C15   1    0.622581    0.763398    0.177888    11.00000    0.02818    0.02785 =
         0.03247   -0.00397   -0.00022   -0.00112
AFIX  43
H15   2    0.574543    0.804825    0.103256    11.00000   -1.20000
AFIX   0
C16   1    0.495387    0.759831    0.291596    11.00000    0.03585    0.03790 =
         0.04070   -0.00328    0.01264    0.00172
AFIX  43
H16   2    0.357688    0.798383    0.294070    11.00000   -1.20000
AFIX   0
C17   1    0.565264    0.701204    0.401435    11.00000    0.04039    0.04303 =
         0.03572   -0.00185    0.01340   -0.00206
AFIX  43
H17   2    0.476863    0.699754    0.479440    11.00000   -1.20000
AFIX   0
C18   1    0.765372    0.644109    0.398095    11.00000    0.04187    0.03462 =
         0.03115    0.00411    0.00299   -0.00501
AFIX  43
H18   2    0.813211    0.603370    0.473672    11.00000   -1.20000
AFIX   0
C19   1    0.894724    0.646486    0.285185    11.00000    0.03208    0.02550 =
         0.03274    0.00032    0.00304   -0.00292
AFIX  43
H19   2    1.032709    0.607979    0.283402    11.00000   -1.20000
AFIX   0
N1    3    1.198712    0.698643   -0.178581    11.00000    0.03020    0.02566 =
         0.03373   -0.00127    0.00251   -0.00604
N2    3    1.278075    0.640837   -0.076180    11.00000    0.03355    0.02496 =
         0.02873    0.00374    0.00170   -0.00664
N3    3    0.889403    0.757096   -0.045801    11.00000    0.03154    0.02891 =
         0.04476   -0.00460    0.00288   -0.00266
N4    3    0.954275    0.703879    0.058924    11.00000    0.02742    0.01800 =
         0.03042    0.00078   -0.00043   -0.00002
H1    2    1.136200    0.650203    0.039067    11.00000   -1.20000
HKLF    4
 
REM  WSHtpf_0m_a in P2(1)
REM R1 =  0.0575 for    2439 Fo > 4sig(Fo)  and  0.0916 for all    3402 data
REM    211 parameters refined using      1 restraints
 
END
 
WGHT      0.0883      0.0658
 
REM Highest difference peak  0.653,  deepest hole -0.297,  1-sigma level  0.053
Q1    1   1.3375  0.6975 -0.3056  11.00000  0.05    0.24
Q2    1   0.3703  0.7529  0.4757  11.00000  0.05    0.23
Q3    1   1.1690  0.5750  0.1297  11.00000  0.05    0.23
Q4    1   1.4948  0.6542 -0.3214  11.00000  0.05    0.20
Q5    1   0.8384  0.8453 -0.2657  11.00000  0.05    0.19
Q6    1   1.2565  0.7480 -0.4165  11.00000  0.05    0.19
Q7    1   1.5526  0.5789 -0.2380  11.00000  0.05    0.18
Q8    1   0.6562  0.9151 -0.4716  11.00000  0.05    0.17
Q9    1   1.5083  0.5780 -0.1587  11.00000  0.05    0.17
Q10   1   1.4580  0.6011 -0.0781  11.00000  0.05    0.16
Q11   1   0.9323  0.8051 -0.3342  11.00000  0.05    0.16
Q12   1   0.7606  0.9603 -0.5404  11.00000  0.05    0.16
Q13   1   1.1762  0.5244  0.0432  11.00000  0.05    0.16
Q14   1   0.9643  0.7771 -0.2223  11.00000  0.05    0.15
Q15   1   0.9503  1.0180 -0.4936  11.00000  0.05    0.14
Q16   1   1.9231  0.5043 -0.3508  11.00000  0.05    0.14
Q17   1   0.8859  0.6256  0.2616  11.00000  0.05    0.14
Q18   1   0.5852  0.9973 -0.6197  11.00000  0.05    0.14
Q19   1   0.2980  0.9841 -0.3763  11.00000  0.05    0.14
Q20   1   1.0765  0.8177 -0.0454  11.00000  0.05    0.14
;
_shelx_res_checksum              51348
_shelx_hkl_file
;
   1   0   0  260.67   12.10
  -1   0   0  261.17   12.10
  -1   0   0  253.97   13.70
   1   0   0  266.37   12.10
   1   0   0  260.47   13.70
   2   0   0   65.59    3.80
  -2   0   0   59.89    5.10
   2   0   0   67.29    3.90
   2   0   0   61.99    5.20
   3   0   0   57.39    5.70
   3   0   0   56.89    4.00
   3   0   0   57.99    3.90
  -3   0   0   54.19    5.70
   4   0   0   74.99    5.30
   4   0   0   95.59    7.40
  -4   0   0   96.79    8.00
   4   0   0   84.69    5.20
   5   0   0    7.50    2.10
   5   0   0    8.20    4.70
   5   0   0    1.20    3.00
  -5   0   0   -3.80    4.60
   6   0   0    3.80    4.30
  -6   0   0   11.80    6.30
   6   0   0    7.90    2.80
   7   0   0    1.50    8.10
   1  -1   0  934.91   41.60
  -1  -1   0  911.01   46.60
   1  -1   0  878.91   46.50
   1   1   0  896.81   46.60
  -1   1   0  883.31   46.50
   1   1   0  903.41   41.70
   1   1   0  965.40   41.80
   2  -1   0  185.88    8.90
   2  -1   0  179.18    8.90
  -2  -1   0  189.18   10.60
   2  -1   0  191.58   10.40
   2   1   0  170.78    9.10
  -2   1   0  190.38   10.50
   2   1   0  193.58    9.20
   2   1   0  190.98   10.70
   3  -1   0  384.66   20.00
   3  -1   0  344.47   17.50
  -3  -1   0  378.56   20.10
   3  -1   0  377.06   17.50
   3   1   0  358.16   17.70
   3   1   0  377.16   20.10
  -3   1   0  377.56   20.00
   4  -1   0   45.30    4.00
   4  -1   0   48.10    5.90
  -4  -1   0   49.40    5.30
   4  -1   0   48.70    3.80
   4   1   0   49.20    4.20
   4   1   0   36.70    3.90
  -4   1   0   50.89    6.00
   4   1   0   42.50    5.20
   5  -1   0    1.60    3.40
   5  -1   0   -1.60    2.00
  -5  -1   0   -4.90    4.70
  -5   1   0   -3.70    5.00
   5   1   0   -0.60    2.00
   5   1   0    3.30    4.80
   5   1   0    3.70    3.80
   6  -1   0    0.60    4.70
   6  -1   0    3.30    2.80
  -6  -1   0    0.90    6.20
   6   1   0    0.30    5.40
   6   1   0    4.90    2.80
   7  -1   0    7.90    8.00
   7  -1   0   17.10   10.00
   7   1   0    2.00    8.50
   0  -2   0 1029.50   52.69
   0  -2   0  991.60   47.20
   0   2   0 1070.19   47.20
   0   2   0 1015.60   52.69
  -1  -2   0 1051.89   55.39
  -1  -2   0 1117.89   49.70
  -1  -2   0 1069.89   49.70
   1   2   0 1088.79   55.39
   1   2   0 1047.20   49.70
   1   2   0 1125.69   49.70
   2  -2   0  442.16   23.20
  -2  -2   0  453.85   20.90
  -2  -2   0  458.25   23.50
   2  -2   0  418.36   20.50
  -2   2   0  446.26   23.20
   2   2   0  450.45   20.90
   2   2   0  449.46   23.50
   2   2   0  440.06   20.90
   3  -2   0  332.57   18.00
   3  -2   0  301.17   15.70
  -3  -2   0  335.27   18.30
   3  -2   0  346.37   15.80
   3   2   0  337.47   18.30
   3   2   0  366.86   16.20
  -3   2   0  342.97   18.20
   3   2   0  308.27   16.10
   4  -2   0    7.10    3.40
  -4  -2   0    9.10    4.00
   4  -2   0    4.70    2.40
   4  -2   0    3.90    2.00
   4   2   0    9.30    4.10
  -4   2   0    2.50    3.60
   4   2   0    6.10    2.40
   4   2   0    1.50    2.30
  -5  -2   0    9.70    5.20
   5  -2   0    8.70    4.80
   5  -2   0    6.70    3.30
   5  -2   0    7.30    2.30
   5   2   0    0.40    5.00
   5   2   0    4.10    2.30
   6  -2   0    4.40    2.50
   6  -2   0    1.00    4.70
   6   2   0   -2.70    5.50
   6   2   0    0.20    3.10
   0  -3   0   -1.40    2.00
   0  -3   0    0.00    1.00
   0  -3   0   -0.70    1.30
   0   3   0   -1.20    1.10
   0   3   0   -0.60    1.20
   0   3   0    1.00    1.70
  -1  -3   0  295.97   14.10
  -1  -3   0  307.87   14.10
  -1  -3   0  294.67   15.90
   1   3   0  298.87   14.10
   1   3   0  300.77   14.20
   1   3   0  293.37   16.00
   2  -3   0   81.99    4.10
  -2  -3   0   85.99    6.30
   2  -3   0   84.49    5.80
  -2  -3   0   77.79    4.90
   2   3   0   88.49    6.60
   2   3   0   85.69    4.90
   2   3   0   81.39    4.90
   3  -3   0  202.48   11.70
   3  -3   0  197.78    9.90
  -3  -3   0  207.48   12.30
   3  -3   0  199.78    9.90
   3   3   0  205.58   12.30
   3   3   0  217.98   10.70
   3   3   0  219.88   10.80
  -4  -3   0    8.00    4.20
   4  -3   0    8.40    1.70
   4  -3   0   14.50    4.10
   4  -3   0    5.80    2.30
   4   3   0   16.20    3.20
   4   3   0    2.80    4.10
   4   3   0    6.00    2.20
   5  -3   0    8.30    4.60
   5  -3   0   -0.40    2.00
   5  -3   0   -2.90    2.70
  -5  -3   0   -9.90    5.20
   5   3   0    2.80    2.90
   5   3   0    0.40    4.00
   6  -3   0   45.90    5.40
   6  -3   0   35.20    3.70
   6   3   0   47.10    6.90
   6   3   0   38.30    4.70
   0  -4   0  963.80   42.80
   0  -4   0  890.51   47.80
   0  -4   0  937.81   42.80
   0   4   0  940.41   42.80
   0   4   0  910.11   47.80
   0   4   0  953.80   42.80
   1  -4   0  218.08   12.40
  -1  -4   0  230.68   12.80
   1  -4   0  232.88   10.70
  -1  -4   0  239.58   11.30
   1  -4   0  235.98   10.70
  -1  -4   0  236.08   11.30
   1   4   0  229.28   12.90
   1   4   0  237.38   11.30
   1   4   0  236.88   11.30
   2  -4   0  679.43   34.20
   2  -4   0  737.53   38.70
  -2  -4   0  730.33   34.90
  -2  -4   0  764.52   39.00
   2   4   0  793.72   35.00
   2   4   0  791.22   35.00
   2   4   0  761.02   39.10
   3  -4   0  132.09    6.90
  -3  -4   0  145.39    7.90
  -3  -4   0  145.29    9.40
   3  -4   0  136.29    6.80
   3  -4   0  142.79    8.80
   3   4   0  143.39    9.50
   3   4   0  150.18    7.80
   3   4   0  137.09    7.70
  -4  -4   0    7.00    4.60
   4  -4   0    5.00    1.50
   4  -4   0   16.90    4.10
   4  -4   0    7.20    2.00
   4   4   0    6.70    2.50
   4   4   0    7.70    4.50
   4   4   0    7.40    2.80
   5  -4   0   30.30    5.80
   5  -4   0   29.10    3.00
   5  -4   0   32.30    3.70
   5   4   0   31.70    3.90
   5   4   0   10.60    6.10
   5   4   0   31.30    4.50
   6  -4   0   20.80    4.40
   6  -4   0   13.60    2.60
   6   4   0   17.30    3.90
   6   4   0   29.60    6.60
   0  -5   0    1.40    1.50
   0  -5   0    1.00    1.10
   0  -5   0    3.90    2.30
   0   5   0    2.10    2.30
   0   5   0    1.50    1.20
   0   5   0    1.10    1.30
   1  -5   0  229.88   13.20
  -1  -5   0  249.97   11.90
  -1  -5   0  234.38   13.70
  -1  -5   0  251.87   12.00
   1  -5   0  250.07   11.40
   1  -5   0  254.07   11.50
   1   5   0  242.48   13.80
   1   5   0  250.87   11.90
   1   5   0  253.07   12.10
  -2  -5   0   43.50    5.50
  -2  -5   0   53.29    4.00
   2   5   0   55.39    4.10
   2   5   0   51.09    5.90
   2   5   0   56.29    4.00
  -3  -5   0    8.80    3.80
   3  -5   0   11.60    1.30
  -3  -5   0   12.20    2.40
   3  -5   0    9.50    1.10
   3  -5   0   11.00    2.80
   3   5   0   14.80    3.90
   3   5   0   12.50    2.40
   3   5   0   12.80    2.50
   4  -5   0    4.10    1.80
   4  -5   0    4.80    3.20
  -4  -5   0    6.40    4.90
   4  -5   0    3.10    1.30
   4   5   0    3.00    3.00
   4   5   0   -0.90    4.70
   4   5   0    5.30    2.90
   5  -5   0   29.60    5.60
  -5  -5   0   37.60    6.40
   5  -5   0   31.20    2.80
   5  -5   0   34.30    3.80
   5   5   0   36.60    6.40
   5   5   0   27.80    4.20
   5   5   0   31.00    4.60
   6  -5   0   22.40    2.90
   6  -5   0   25.70    7.50
   6  -5   0   28.60    4.80
  -6  -5   0   40.20    7.50
   6   5   0   34.30    5.60
   6   5   0   32.80    7.20
   6   5   0   16.00    7.00
   0  -6   0   54.49    3.60
   0  -6   0   50.39    4.40
   0  -6   0   54.79    3.30
   0   6   0   51.29    4.80
   0   6   0   53.79    3.30
   0   6   0   53.29    3.20
  -1  -6   0  204.48   12.00
  -1  -6   0  211.98   10.50
   1  -6   0  197.18   11.60
  -1  -6   0  208.98   10.50
   1  -6   0  214.58   10.00
   1  -6   0  218.78   10.00
   1   6   0  202.48   12.10
  -1   6   0  217.38    9.70
   1   6   0  211.18   10.50
  -1   6   0  218.18    9.70
   1   6   0  211.68   10.40
  -2  -6   0  241.28   12.50
  -2  -6   0  241.98   14.20
   2  -6   0  255.57   13.80
   2   6   0  256.27   12.50
   2   6   0  253.37   12.50
   2   6   0  255.27   14.40
  -3  -6   0   34.00    4.70
  -3  -6   0   34.40    3.90
   3  -6   0   30.50    1.80
   3  -6   0   32.10    4.30
   3  -6   0   37.40    2.00
   3   6   0   32.70    3.70
   3   6   0   39.60    4.50
   3   6   0   31.30    5.20
   4  -6   0   20.70    2.50
   4  -6   0   21.70    3.90
   4  -6   0   24.20    2.00
   4   6   0   29.80    3.90
   4   6   0   21.40    3.40
   5  -6   0   57.59    3.70
  -5  -6   0   59.09    7.70
   5  -6   0   60.99    7.90
   5  -6   0   54.19    4.50
   5   6   0   58.79    5.90
   5   6   0   67.39    7.60
   5   6   0   47.30    7.40
  -6  -6   0   42.70    7.70
   6  -6   0   47.50    3.40
   6  -6   0   49.10    8.10
   6  -6   0   29.20    5.10
   6   6   0   20.00    7.60
   6   6   0   47.40    6.30
   6   6   0   40.20    6.90
   0  -7   0    2.40    1.60
   0  -7   0    4.20    1.80
   0  -7   0    0.80    2.30
   0   7   0    2.40    1.40
   0   7   0    2.50    1.40
   0   7   0    2.80    2.70
   1  -7   0   80.69    4.20
   1  -7   0   76.39    4.20
  -1  -7   0   72.49    4.80
  -1  -7   0   83.89    6.60
   1  -7   0   72.79    5.60
  -1  -7   0   74.99    5.00
   1   7   0   81.29    4.80
  -1   7   0   78.79    3.80
  -1   7   0   81.09    3.90
   1   7   0   78.89    5.00
   1   7   0   75.59    6.40
   2  -7   0   19.70    1.30
  -2  -7   0   19.40    3.70
   2  -7   0   17.50    3.00
  -2  -7   0   19.30    2.70
   2   7   0   18.00    2.50
   2   7   0   17.80    3.70
   2   7   0   24.30    2.60
  -3  -7   0    1.70    4.00
   3  -7   0    6.00    2.70
  -3  -7   0    4.50    2.50
   3   7   0    3.50    4.20
   3   7   0    6.70    2.60
   3   7   0    3.00    2.50
   4  -7   0   27.10    1.90
   4  -7   0   30.90    5.10
   4  -7   0   31.10    2.40
   4   7   0   36.60    4.90
   4   7   0   27.00    3.90
   4   7   0   30.80    6.20
   5  -7   0   31.90    6.60
  -5  -7   0   33.00    6.90
   5  -7   0   21.40    2.20
   5  -7   0   19.50    2.90
   5   7   0   26.40    4.90
   5   7   0   22.00    6.30
   5   7   0   17.80    4.20
   6  -7   0    2.70    1.90
   6  -7   0    9.20    7.50
  -6  -7   0   -3.70    7.10
   6   7   0    7.40    7.60
   6   7   0    2.80    4.90
   6   7   0    0.20    6.20
   0  -8   0    7.40    1.90
   0  -8   0    7.20    2.60
   0  -8   0    5.40    1.80
   0   8   0    9.00    1.60
   0   8   0    8.90    1.60
   0   8   0   10.50    2.90
  -1  -8   0   -0.50    2.70
   1  -8   0    2.00    1.30
   1  -8   0    0.40    2.10
   1  -8   0    1.40    1.20
  -1  -8   0   -0.30    1.70
  -1  -8   0    1.60    1.70
  -1   8   0    0.00    2.00
   1   8   0    1.40    1.60
  -1   8   0    0.00    0.70
  -1   8   0    0.80    0.80
   1   8   0    2.30    1.60
   1   8   0    1.20    2.90
   2  -8   0    5.50    2.90
  -2  -8   0   10.10    3.60
  -2  -8   0   10.70    2.40
   2  -8   0   10.40    1.10
   2   8   0    9.60    2.30
   2   8   0   10.20    2.30
   2   8   0   10.40    3.90
   3  -8   0   19.60    3.70
  -3  -8   0   25.60    4.80
   3  -8   0   15.40    3.90
  -3  -8   0   24.00    3.40
   3   8   0   23.80    3.20
   3   8   0   13.40    3.10
   3   8   0   20.50    5.00
   4  -8   0   14.70    4.30
  -4  -8   0   14.30    5.80
   4   8   0   18.20    3.90
   4   8   0   10.00    3.40
   4   8   0   16.10    6.30
   5  -8   0    9.40    1.30
  -5  -8   0   31.30    6.90
   5  -8   0   11.60    6.20
   5   8   0    9.70    6.80
   5   8   0   15.60    4.30
   5   8   0   18.10    5.80
   6  -8   0    3.60    7.90
  -6  -8   0   -1.80    8.10
   6  -8   0    1.00    3.10
   6  -8   0    3.10    2.00
   6   8   0   12.30    8.50
   6   8   0    3.60    6.60
   6   8   0    0.00    8.00
   0  -9   0   -0.20    1.70
   0  -9   0   -2.70    2.50
   0  -9   0   -0.60    1.80
   0   9   0    1.50    1.40
   0   9   0    1.60    2.70
   0   9   0   -1.60    1.40
   1  -9   0    0.40    1.50
  -1  -9   0    0.80    1.70
   1  -9   0    2.80    1.30
  -1  -9   0    2.50    2.20
   1  -9   0    1.20    2.30
  -1  -9   0    2.20    2.80
  -1   9   0    0.50    0.90
   1   9   0    5.40    3.20
   1   9   0    1.50    1.90
   1   9   0    0.30    1.80
  -1   9   0    1.40    2.40
  -1   9   0    1.80    0.80
  -2  -9   0   21.90    4.70
   2  -9   0   12.60    3.40
  -2  -9   0   20.60    2.90
   2   9   0   20.00    4.50
   2   9   0   18.50    2.70
   2   9   0   14.10    2.50
  -3  -9   0   14.00    4.70
  -3  -9   0   10.30    3.20
   3  -9   0    8.60    4.20
   3   9   0   12.50    3.20
   3   9   0   10.60    5.10
   3   9   0   17.00    3.30
   4  -9   0   39.20    5.10
   4  -9   0   21.10    5.50
  -4  -9   0   30.10    6.60
   4   9   0   28.90    6.70
   4   9   0   39.70    5.40
   4   9   0   37.70    4.60
  -5  -9   0    8.50    6.80
   5  -9   0   -2.40    6.20
   5   9   0    4.00    4.80
   5   9   0   -4.30    5.40
   5   9   0    0.70    6.90
   6  -9   0    7.60    8.80
  -6  -9   0   10.50    8.00
   6   9   0   -1.40    7.30
   6   9   0    9.20    6.60
   0 -10   0   41.60    5.30
   0 -10   0   45.80    4.00
   0 -10   0   49.99    3.70
   0  10   0   52.09    3.70
   0  10   0   55.09    3.60
   0  10   0   53.49    5.10
   1 -10   0   53.49    3.70
  -1 -10   0   50.59    5.70
  -1 -10   0   47.60    4.50
  -1 -10   0   44.40    4.40
   1 -10   0   40.90    4.90
   1 -10   0   50.49    3.60
   1  10   0   48.50    4.00
  -1  10   0   48.80    2.80
  -1  10   0   51.29    2.80
  -1  10   0   44.60    5.10
   1  10   0   53.49    5.50
  -2 -10   0   96.39    6.40
   2 -10   0   89.89    7.50
  -2 -10   0   99.59    8.10
   2  10   0   91.89    8.40
   2  10   0   90.19    6.00
   2  10   0   98.39    6.70
   3 -10   0   -1.00    4.40
  -3 -10   0    2.40    3.30
   3  10   0    1.20    2.90
   3  10   0    2.00    2.90
   4 -10   0   -5.30    5.90
  -4 -10   0    1.60    6.40
   4  10   0    1.80    5.70
   4  10   0    5.90    4.50
   4  10   0   -3.80    3.40
   5 -10   0   34.80    9.10
   5 -10   0   56.59    8.00
  -5 -10   0   52.99    8.00
   5  10   0   44.10    6.50
   5  10   0   42.00    6.50
   5  10   0   41.90    7.90
   0 -11   0    0.90    2.30
   0 -11   0    2.10    3.10
   0 -11   0    3.70    1.80
   0  11   0    0.80    3.00
   0  11   0    2.60    1.60
   0  11   0   -0.50    1.70
  -1 -11   0   15.50    2.70
  -1 -11   0   20.80    4.50
   1 -11   0   18.20    2.30
   1 -11   0   16.50    3.60
  -1  11   0   17.40    3.40
   1  11   0   19.20    2.70
  -1  11   0   16.10    1.80
  -1  11   0   16.00    1.80
   1  11   0   12.90    4.10
   2 -11   0   64.49    7.00
  -2 -11   0   70.29    7.60
  -2 -11   0   68.29    6.20
   2  11   0   59.49    4.90
   2  11   0   59.79    5.90
   2  11   0   68.59    7.70
  -3 -11   0   14.20    5.10
   3 -11   0    4.10    4.30
   3  11   0    4.90    3.40
   3  11   0   13.20    6.00
   3  11   0   10.50    3.30
   4 -11   0    8.40    4.90
  -4 -11   0    8.50    5.80
   4  11   0   20.90    6.40
   4  11   0    4.30    4.30
   4  11   0    9.70    4.10
   5 -11   0   27.50    9.10
  -5 -11   0   68.19   10.00
   5 -11   0   51.09    8.80
   5  11   0   52.49    8.40
   5  11   0   61.49    8.50
   5  11   0   47.20    7.20
   0 -12   0   45.00    6.30
   0 -12   0   46.50    3.80
   0  12   0   47.40    3.60
   0  12   0   53.99    4.30
   0  12   0   40.20    6.00
  -1 -12   0  121.09    7.40
  -1 -12   0  116.59    9.20
   1 -12   0  124.49    9.50
  -1  12   0  125.19    6.20
  -1  12   0  129.19    6.20
  -1  12   0  118.39    8.40
   1  12   0  126.39    7.10
   1  12   0  120.29   10.00
  -2 -12   0  160.38    9.30
   2 -12   0  137.79   10.40
  -2 -12   0  155.98   11.10
   2  12   0  161.98    9.20
   2  12   0  152.08    8.90
  -3 -12   0   23.00    5.80
   3 -12   0   16.10    5.40
   3  12   0   19.40    6.20
   3  12   0   17.90    3.90
   3  12   0   14.00    4.00
   4 -12   0   12.00    7.30
   4 -12   0    9.20    6.30
  -4 -12   0    8.30    6.30
   4  12   0   26.70    7.30
   4  12   0   13.10    5.00
   5 -12   0   17.90   10.20
   5 -12   0   29.70    8.30
   5  12   0   25.50    7.10
   5  12   0   54.09    9.10
   5  12   0   19.50    6.70
   0 -13   0    5.00    2.20
   0 -13   0    2.80    4.10
   0  13   0   -1.20    1.70
   0  13   0    3.60    3.80
   0  13   0    1.80    2.10
   1 -13   0   29.70    5.40
  -1 -13   0   27.70    5.20
   1  13   0   29.90    3.70
  -1  13   0   33.40    2.50
  -1  13   0   33.30    2.60
  -1  13   0   37.30    5.00
   1  13   0   37.40    5.70
   1  13   0   38.80    4.00
  -2 -13   0   12.70    5.20
  -2 -13   0    6.50    3.60
   2 -13   0   10.20    4.40
   2  13   0    7.50    6.30
   2  13   0    3.60    3.20
   2  13   0    8.30    3.00
  -3 -13   0    4.30    5.70
   3  13   0   -2.50    3.80
   3  13   0    0.30    3.50
   3  13   0   -1.50    6.10
   4 -13   0   -5.10    7.60
  -4 -13   0    3.00    6.60
   4 -13   0   13.60    7.10
   4  13   0    2.50    5.00
   4  13   0   10.20    7.80
   4  13   0    6.20    5.00
   5 -13   0    7.00    9.90
   5 -13   0    0.50   10.90
   5  13   0    4.20    6.80
   5  13   0    8.70    7.40
   0 -14   0    2.50    4.40
   0  14   0    4.00    4.20
   0  14   0    3.90    2.30
   1 -14   0   71.39    9.20
  -1  14   0   73.79    4.10
  -1  14   0   69.39    4.20
   1  14   0   74.29    6.20
   1  14   0   69.59    5.20
  -2 -14   0   47.30    6.80
   2 -14   0   41.00    6.10
   2  14   0   51.89    5.50
   2  14   0   36.40    5.00
   2  14   0   52.09    7.20
  -3 -14   0   -2.60    6.40
   3 -14   0   -5.20    6.30
   3  14   0   -3.90    3.30
   3  14   0    6.10    4.40
   3  14   0    1.70    7.00
   4 -14   0    1.60    8.90
   4 -14   0    7.00    7.80
  -4 -14   0   15.50    7.80
   4  14   0   12.50    5.30
   4  14   0    7.40    5.80
   4  14   0   11.40    8.80
   0  15   0   -0.80    4.30
   0  15   0   -2.10    2.70
   0  15   0   -2.10    1.90
  -1 -15   0   62.69    7.20
   1  15   0   54.69    6.90
  -1  15   0   49.80    3.40
   1  15   0   48.40    4.90
  -1  15   0   52.09    3.30
   1  15   0   44.80    4.50
  -2 -15   0   11.00    6.60
   2 -15   0   -3.30    5.30
   2  15   0   -3.20    3.10
   2  15   0    5.70    4.30
   2  15   0    0.80    6.50
   3 -15   0   18.60    8.00
  -3 -15   0   40.40    8.40
   3  15   0   41.00    5.20
   3  15   0   41.80    6.70
   3  15   0   55.29    9.10
   4 -15   0   14.40   10.30
   4 -15   0   15.40    7.90
  -4 -15   0   -5.10    8.90
   4  15   0   12.00    5.90
   4  15   0    1.80    5.90
   4  15   0    8.50   10.10
   0 -16   0  529.15   30.90
   0  16   0  586.94   26.40
   0  16   0  531.25   30.40
   0  16   0  566.64   26.50
  -1 -16   0   13.80    6.70
   1 -16   0    9.20    7.30
   1  16   0   15.20    4.00
   1  16   0   26.10    6.40
  -2 -16   0   25.50    7.80
   2 -16   0   13.20    7.60
   2  16   0   24.30    7.90
  -3 -16   0   45.50    9.30
   3 -16   0   26.00    9.40
   3  16   0   37.30    5.40
   3  16   0   40.30   11.10
   0 -17   0   -2.00    6.90
   0  17   0    3.40    2.60
   0  17   0   -2.10    3.50
   0  17   0   -2.60    5.70
   1 -17   0   93.49   11.70
  -1 -17   0   99.99   14.20
   1  17   0   87.49    6.40
   1  17   0  103.89   12.70
  -1  17   0   89.29    5.10
   1  17   0   97.09    8.10
  -1  17   0   94.29    5.10
  -2 -17   0    4.90    8.70
   2 -17   0    1.60    8.80
   2  17   0    4.20    9.10
   2  17   0   -7.10    3.70
   0 -18   0  280.17   20.40
   0  18   0  288.57   15.10
   0  18   0  296.07   19.00
  -1 -18   0   20.20    9.90
   1 -18   0   20.50    9.60
   1  18   0   -0.90    4.20
   1  18   0   10.20    3.30
   1  18   0   29.20    8.50
   2  18   0   -4.10    4.20
   7   0  -1    1.20    3.70
   7   0  -1    2.30    7.90
   6   0  -1    2.50    2.60
  -6   0   1   -4.70    5.50
   6   0  -1    3.30    4.90
   5   0  -1   44.30    5.60
  -5   0   1   51.29    6.20
   5   0  -1   47.30    4.30
   5   0  -1   40.00    6.20
   4   0  -1   13.50    2.80
   4   0  -1   12.30    1.90
   4   0  -1   21.50    4.20
  -4   0   1    9.60    4.00
   3   0  -1   35.30    5.00
   3   0  -1   38.90    3.30
   3   0  -1   40.20    3.10
  -3   0   1   34.40    5.00
   2   0  -1   52.39    3.30
  -2   0   1   57.19    4.90
   2   0  -1   52.59    4.90
  -2   0   1   55.49    3.30
   1   0  -1   18.30    1.80
  -1   0   1   30.70    3.30
   1   0  -1   27.20    2.60
  -1   0   1   21.00    2.00
   0   0  -1    0.00    0.40
   0   0  -1    0.40    0.40
   1   0   1   36.60    3.60
  -1   0  -1   28.00    3.60
   2   0   1   65.19    4.70
  -2   0  -1   46.20    3.20
   2   0   1   53.99    3.60
  -2   0  -1   58.99    4.80
  -3   0  -1   89.29    7.20
  -3   0  -1   89.29    5.10
   3   0   1   87.99    6.70
   3   0   1   97.29    5.40
   4   0   1   31.70    4.50
   4   0   1   26.20    3.00
   4   0   1   30.10    3.40
  -4   0  -1   24.60    5.00
   5   0   1    3.00    2.60
   5   0   1   12.40    5.00
   5   0   1    3.90    3.70
  -5   0  -1   -3.60    5.00
   6   0   1   12.80    2.80
   6   0   1   11.30    5.70
   7  -1  -1   -1.00    8.60
   7   1  -1    8.90    4.00
   7   1  -1    3.00    8.10
   6  -1  -1    9.40    2.80
   6  -1  -1   12.60    4.90
   6   1  -1   17.50    5.50
   6   1  -1   14.50    3.00
   5  -1  -1   28.70    5.60
   5  -1  -1   36.30    3.70
   5  -1  -1   31.50    4.30
   5   1  -1   32.80    4.10
  -5   1   1   23.10    5.30
   5   1  -1   31.40    5.80
   5   1  -1   29.70    3.40
   4  -1  -1    1.00    3.60
   4  -1  -1    1.40    2.30
  -4  -1   1    2.30    3.80
   4  -1  -1   -1.00    1.50
   4   1  -1    0.50    1.60
   4   1  -1    0.80    2.60
   4   1  -1   -5.60    3.70
  -4   1   1    5.40    3.70
   3  -1  -1   49.40    3.30
  -3  -1   1   51.79    5.60
   3  -1  -1   55.19    3.50
   3  -1  -1   52.89    5.30
  -3   1   1   42.50    5.30
   3   1  -1   50.89    5.60
   3   1  -1   51.69    3.50
   2  -1  -1  195.98   10.10
   2  -1  -1  213.38   11.80
  -2  -1   1  233.78   10.40
  -2  -1   1  220.98   11.90
   2   1  -1  223.98   11.90
  -2   1   1  221.48   11.80
  -2   1   1  204.78   10.00
   2   1  -1  205.38   10.30
   2   1  -1  198.18   10.20
  -1  -1   1 1548.55   78.29
  -1  -1   1 1492.05   70.19
   1  -1  -1 1646.84   70.19
   1   1  -1 1546.95   70.19
   1   1  -1 1554.44   78.29
  -1   1   1 1432.66   70.09
   0  -1  -1    6.00    1.00
   0  -1  -1    7.50    0.90
  -1  -1  -1   58.99    4.90
  -1  -1  -1   60.49    3.50
   1  -1   1   62.19    3.30
   1  -1   1   60.69    4.10
  -1   1  -1   58.59    3.20
   1   1   1   53.99    3.50
   1   1   1   57.99    4.60
  -1   1  -1   60.09    4.10
   2  -1   1   27.90    2.40
  -2  -1  -1   30.20    3.40
   2  -1   1   33.90    3.90
   2   1   1   27.90    2.90
   2   1   1   27.50    4.10
  -2   1  -1   29.60    3.90
  -2   1  -1   23.80    2.10
   3  -1   1  541.65   29.50
   3  -1   1  553.34   26.30
  -3  -1  -1  552.74   29.70
  -3  -1  -1  577.94   26.40
   3   1   1  551.64   29.70
  -3   1  -1  562.14   29.60
  -3   1  -1  573.34   26.20
   3   1   1  592.94   26.50
   4  -1   1   95.29    7.50
   4  -1   1   87.09    5.50
  -4  -1  -1   96.29    7.70
   4  -1   1   88.39    5.80
   4   1   1   89.79    6.20
   4   1   1   87.19    5.90
   4   1   1   90.99    7.60
  -4   1  -1   93.99    7.60
  -5  -1  -1   18.10    5.70
   5  -1   1   22.60    4.10
   5  -1   1   19.10    5.20
   5  -1   1   17.70    3.00
   5   1   1   22.60    4.60
   5   1   1   25.40    3.30
   5   1   1   11.40    5.70
   6  -1   1    3.30    2.60
   6  -1   1   10.20    5.30
  -6  -1  -1    4.00    6.50
   6   1   1    6.10    3.20
   6   1   1   12.70    6.00
   7  -2  -1   22.30    9.10
   7  -2  -1    9.50    7.20
   7   2  -1   10.80    4.50
   7   2  -1    7.90    7.00
  -6  -2   1   36.50    6.90
   6  -2  -1   36.10    4.00
   6  -2  -1   49.10    5.60
   6   2  -1   35.50    4.20
   6   2  -1   42.90    6.40
   5  -2  -1   46.50    3.80
   5  -2  -1   40.90    4.90
   5   2  -1   38.30    4.60
   5   2  -1   34.90    6.20
   4  -2  -1   17.80    4.00
   4  -2  -1   19.40    2.70
  -4  -2   1   17.60    4.40
   4  -2  -1   14.90    2.10
   4   2  -1   16.10    4.20
   4   2  -1   17.50    2.80
   4   2  -1   16.70    2.30
  -3  -2   1  145.89    9.30
  -3  -2   1  149.88    7.70
   3  -2  -1  148.59    7.30
   3  -2  -1  148.99    9.00
   3  -2  -1  151.48    7.40
   3   2  -1  145.49    9.40
   3   2  -1  135.49    7.70
   3   2  -1  139.19    7.60
   2  -2  -1   68.49    3.70
  -2  -2   1   73.69    5.60
  -2  -2   1   69.59    4.50
   2  -2  -1   68.29    5.30
   2   2  -1   75.29    5.80
   2   2  -1   75.19    4.30
   2   2  -1   75.49    4.30
  -1  -2   1  438.76   22.50
  -1  -2   1  432.06   20.20
   1  -2  -1  438.66   19.90
  -1   2   1  413.46   19.90
   1   2  -1  444.56   20.20
   1   2  -1  439.46   22.70
   0  -2  -1 1287.27   66.69
   0  -2   1 1237.08   66.49
   0  -2  -1 1341.27   59.69
   0   2   1 1386.76   59.59
   0   2  -1 1230.98   66.39
   0   2   1 1346.37   66.59
   1  -2   1 5195.78  215.78
  -1  -2  -1 4925.11  216.08
   1  -2   1 4454.35  240.68
  -1  -2  -1 4711.33  241.18
  -1   2  -1 4253.67  215.48
   1   2   1 4744.43  216.18
   1   2   1 4795.72  240.98
   2  -2   1  276.67   12.60
  -2  -2  -1  288.47   13.00
   2  -2   1  264.77   14.20
  -2  -2  -1  275.17   14.70
  -2   2  -1  274.67   14.40
   2   2   1  250.07   12.80
   2   2   1  261.57   14.70
  -2   2  -1  242.28   12.40
   3  -2   1  113.09    7.40
   3  -2   1  111.29    6.00
  -3  -2  -1  105.49    7.90
   3   2   1  112.89    6.50
   3   2   1  107.29    7.90
   3   2   1  109.99    6.40
  -3   2  -1  107.09    7.30
   4  -2   1  190.48    9.50
  -4  -2  -1  187.08   11.90
   4  -2   1  190.48   11.50
   4  -2   1  181.28    9.70
  -4  -2  -1  193.98   10.00
   4   2   1  195.78   10.30
  -4   2  -1  173.78   11.50
   4   2   1  186.48   12.30
   4   2   1  181.58    9.80
  -5  -2  -1   13.70    5.40
   5  -2   1    5.10    3.40
   5  -2   1    8.00    2.30
   5   2   1    7.30    5.00
   5   2   1    4.10    3.00
   6  -2   1   46.70    6.00
   6  -2   1   35.50    4.30
   6   2   1   45.60    6.90
   6   2   1   50.59    5.30
   6  -3  -1   -5.00    4.00
   6  -3  -1    0.90    2.00
   6   3  -1    2.00    2.90
   6   3  -1   -1.40    5.40
   6   3  -1   13.20    6.40
  -5  -3   1   36.30    6.20
   5  -3  -1   34.70    3.30
   5  -3  -1   32.50    4.40
   5   3  -1   43.20    6.40
   5   3  -1   52.29    6.20
   5   3  -1   43.00    4.80
   4  -3  -1   17.70    2.50
   4  -3  -1   15.30    2.00
  -4  -3   1   18.90    4.40
   4  -3  -1   18.50    3.90
   4   3  -1   13.70    4.50
   4   3  -1   14.30    2.40
   4   3  -1   20.20    3.40
   3  -3  -1    3.60    1.10
  -3  -3   1    7.10    1.70
  -3  -3   1    8.90    3.30
   3  -3  -1    6.60    2.90
   3   3  -1    5.30    1.80
   3   3  -1    6.60    2.40
   3   3  -1    4.30    3.50
  -2  -3   1   72.89    5.50
   2  -3  -1   64.19    5.00
   2  -3  -1   57.09    3.30
  -2  -3   1   63.89    4.10
   2   3  -1   67.79    4.10
   2   3  -1   67.19    5.70
   2   3  -1   69.79    4.20
  -1  -3   1  111.49    5.60
   1  -3  -1  115.49    5.10
  -1  -3   1  100.99    6.70
   1  -3  -1  100.29    6.50
   1   3  -1  102.19    6.60
   1   3  -1  102.69    5.60
  -1   3   1  106.89    5.00
   1   3  -1  107.39    5.60
   0  -3  -1 2172.38   98.09
   0  -3   1 2030.70  109.39
   0  -3  -1 2172.58  109.39
   0   3   1 2197.48  109.39
   0   3  -1 2074.89  109.49
   0   3   1 2231.28   98.19
   1  -3   1 9999.00  419.36
  -1  -3  -1 9066.89  468.85
  -1  -3  -1 9208.58  420.36
   1   3   1 8462.45  420.16
  -1   3  -1 9389.16  418.96
   1   3   1 9044.59  468.65
  -2  -3  -1   69.39    5.90
  -2  -3  -1   70.69    4.70
   2  -3   1   66.19    3.60
   2  -3   1   65.59    4.80
   2   3   1   60.39    4.20
   2   3   1   71.69    4.40
   2   3   1   60.69    5.90
  -3  -3  -1   42.80    5.70
   3  -3   1   49.80    4.70
  -3  -3  -1   37.10    4.00
   3  -3   1   42.30    3.10
   3   3   1   38.20    5.60
   3   3   1   41.60    4.00
   3   3   1   39.40    3.60
   4  -3   1   63.99    4.10
  -4  -3  -1   49.40    7.30
   4  -3   1   58.79    5.90
   4  -3   1   56.09    4.20
   4   3   1   55.99    7.10
   4   3   1   70.39    5.50
   4   3   1   50.19    4.60
  -5  -3  -1   -3.20    5.00
   5  -3   1    1.70    1.90
   5  -3   1   -1.00    3.10
   5   3   1   13.10    5.10
   5   3   1    5.60    3.10
   5   3   1    4.60    3.50
   6  -3   1   27.30    5.80
   6  -3   1   25.90    3.20
   6  -3   1   27.10    7.30
   6   3   1   22.70    4.30
   6   3   1   21.20    5.40
  -6  -4   1   17.60    6.60
   6  -4  -1    9.20    2.50
   6  -4  -1    9.30    4.00
   6   4  -1   19.90    5.30
   6   4  -1    5.10    6.80
   6   4  -1   10.00    3.70
  -5  -4   1   32.00    5.40
   5  -4  -1   38.70    3.90
   5  -4  -1   30.90    3.20
   5  -4  -1   35.20    5.70
   5   4  -1   35.30    6.60
   5   4  -1   39.90    5.00
   5   4  -1   41.60    4.90
   4  -4  -1   11.60    1.60
  -4  -4   1   18.10    4.60
   4  -4  -1   15.40    2.20
   4  -4  -1   15.60    3.60
   4   4  -1    9.20    4.50
   4   4  -1   11.10    2.50
   4   4  -1   17.40    3.20
  -3  -4   1   20.50    3.80
  -3  -4   1   17.20    2.50
   3  -4  -1   14.40    1.60
   3  -4  -1   19.20    3.20
   3   4  -1   11.60    3.80
   3   4  -1   18.80    2.90
   3   4  -1   17.10    2.30
  -2  -4   1  864.11   45.10
  -2  -4   1  917.71   40.50
   2  -4  -1  870.81   39.80
   2   4  -1  820.12   40.40
   2   4  -1  863.31   45.20
   2   4  -1  898.21   40.50
   1  -4  -1  624.04   27.50
  -1  -4   1  592.74   27.80
   1  -4  -1  564.24   31.00
  -1  -4   1  580.74   31.10
  -1   4   1  608.74   27.40
  -1   4   1  641.04   27.40
   1   4  -1  605.74   27.90
   1   4  -1  589.94   31.10
   1   4  -1  589.74   27.80
   0  -4   1 1182.38   63.39
   0  -4  -1 1273.27   56.99
   0  -4   1 1245.98   57.19
   0  -4  -1 1226.48   63.69
   0   4  -1 1179.18   63.49
   0   4   1 1229.48   63.69
   0   4  -1 1313.47   56.89
   0   4  -1 1270.97   56.99
   0   4   1 1277.47   56.99
   1  -4   1 3265.47  146.39
  -1  -4  -1 3081.29  146.29
  -1  -4  -1 3097.19  163.38
   1  -4   1 3072.99  163.08
   1   4   1 3183.68  163.18
  -1   4  -1 3214.28  145.89
   1   4   1 3136.99  146.29
  -1   4  -1 3597.84  146.09
   1   4   1 3177.48  146.79
   2  -4   1   76.09    3.60
   2  -4   1   66.39    4.90
  -2  -4  -1   66.19    6.20
  -2  -4  -1   66.29    4.60
   2   4   1   72.59    6.40
   2   4   1   67.19    4.50
   2   4   1   70.59    4.60
  -3  -4  -1   30.20    3.80
   3  -4   1   18.40    2.10
  -3  -4  -1   24.10    4.10
   3  -4   1   27.40    3.20
   3   4   1   19.70    4.00
   3   4   1   27.70    3.20
   3   4   1   23.10    2.60
  -4  -4  -1   20.10    3.40
   4  -4   1   18.40    3.70
   4  -4   1   13.70    1.90
  -4  -4  -1   23.80    5.00
   4  -4   1   18.70    2.60
   4   4   1   20.00    3.70
   4   4   1   11.50    2.70
   4   4   1   10.90    4.60
  -5  -4  -1   -3.00    5.10
   5  -4   1    0.90    3.40
   5  -4   1   -0.20    2.10
   5   4   1    4.80    5.30
   5   4   1   10.00    3.80
   5   4   1    6.10    3.60
   6  -4   1   10.40    5.30
   6  -4   1    7.80    2.60
   6  -4   1   21.50    8.40
   6   4   1   16.80    4.00
   6   4   1   16.00    5.20
   6  -5  -1   25.70    7.90
  -6  -5   1   22.70    7.20
   6  -5  -1   26.80    3.20
   6  -5  -1   33.80    4.70
   6   5  -1   26.80    5.20
   6   5  -1   27.50    6.00
   6   5  -1   19.90    7.20
   5  -5  -1   18.20    3.00
  -5  -5   1   26.80    6.00
   5  -5  -1   14.20    2.10
   5  -5  -1   26.50    5.40
   5   5  -1   17.00    4.30
   5   5  -1   22.30    5.10
   5   5  -1   14.70    6.00
   4  -5  -1    4.10    1.20
  -4  -5   1    2.60    4.50
   4  -5  -1    0.40    3.50
   4  -5  -1    0.90    1.70
   4   5  -1    2.70    2.80
   4   5  -1    4.00    4.90
   4   5  -1   -5.00    2.60
  -3  -5   1    7.90    2.10
   3  -5  -1    9.10    1.00
   3  -5  -1    9.50    2.90
  -3  -5   1   11.30    3.70
   3   5  -1   10.40    2.50
   3   5  -1    6.60    2.10
   3   5  -1   12.00    3.90
  -2  -5   1  565.24   26.50
   2  -5  -1  610.24   25.80
  -2  -5   1  537.65   29.60
   2   5  -1  551.94   26.60
   2   5  -1  555.44   26.50
   2   5  -1  561.64   29.70
   1  -5  -1   76.89    5.80
   1  -5  -1   84.59    4.20
  -1  -5   1   74.79    5.90
  -1  -5   1   80.09    4.90
   1   5  -1   76.99    5.70
   1   5  -1   81.59    4.70
   1   5  -1   77.79    4.80
  -1   5   1   87.39    3.90
  -1   5   1   79.89    3.90
   0  -5  -1   38.60    3.00
   0  -5   1   38.00    2.50
   0  -5  -1   35.70    4.20
   0  -5   1   29.50    3.40
   0   5  -1   40.10    2.40
   0   5   1   37.60    2.70
   0   5  -1   33.10    3.30
   0   5   1   35.60    4.20
   0   5  -1   38.00    2.70
   0   5   1   38.00    2.50
  -1  -5  -1  200.68    9.90
  -1  -5  -1  193.88   11.40
   1  -5   1  199.18    9.30
   1  -5   1  185.38   10.60
  -1   5  -1  222.38    9.20
   1   5   1  199.58    9.80
  -1   5  -1  192.98    9.20
   1   5   1  183.98   11.50
   1   5   1  200.58   10.00
  -2  -5  -1  144.39    8.20
  -2  -5  -1  154.18    9.80
   2  -5   1  152.68    8.80
   2  -5   1  167.18    7.30
   2   5   1  151.28   10.00
   2   5   1  155.58    8.20
   2   5   1  153.68    8.20
  -3  -5  -1   10.60    2.90
  -3  -5  -1    8.70    4.00
   3  -5   1    5.40    1.50
   3  -5   1    5.80    2.70
   3   5   1    7.90    2.20
   3   5   1    9.00    2.70
   3   5   1   13.40    3.80
  -4  -5  -1    5.70    2.70
   4  -5   1    1.00    2.00
   4  -5   1    0.30    1.40
  -4  -5  -1    3.10    4.80
   4  -5   1    1.70    3.40
   4   5   1   -0.80    3.00
   4   5   1    4.70    3.40
  -5  -5  -1   43.80    6.70
   5  -5   1   33.30    3.40
   5  -5   1   28.10    3.80
   5   5   1   34.80    4.90
   5   5   1   36.10    6.40
   5   5   1   40.90    5.20
   6  -5   1    9.80    8.20
   6  -5   1    2.40    4.70
   6  -5   1    2.20    2.20
  -6  -5  -1    5.90    6.60
   6   5   1   -1.80    5.20
   6   5   1   -8.30    6.30
   6   5   1   11.50    5.10
  -6  -6   1   17.50    7.00
   6  -6  -1   10.20    4.30
   6  -6  -1   11.50    8.40
   6   6  -1   11.10    7.00
   6   6  -1    9.90    7.00
   6   6  -1    3.90    5.00
   5  -6  -1   23.80    2.40
   5  -6  -1   26.10    5.30
  -5  -6   1   29.60    6.20
   5  -6  -1   26.70    3.10
   5   6  -1   32.10    4.90
   5   6  -1   22.90    6.40
   5   6  -1   29.30    4.30
   4  -6  -1   40.30    2.50
   4  -6  -1   41.80    5.00
   4  -6  -1   37.10    2.90
  -4  -6   1   47.90    6.10
   4   6  -1   45.90    4.70
   4   6  -1   38.00    5.00
   3  -6  -1  163.78    9.80
  -3  -6   1  158.98   10.40
  -3  -6   1  157.58    8.70
   3  -6  -1  164.08    7.50
   3   6  -1  163.48    8.80
   3   6  -1  167.98    9.00
   3   6  -1  148.59   10.60
  -2  -6   1  112.19    7.70
   2  -6  -1  110.39    7.40
   2  -6  -1  121.79    5.50
  -2  -6   1  117.29    6.50
   2   6  -1  117.59    6.50
   2   6  -1  112.09    7.90
   2   6  -1  110.79    6.50
   1  -6  -1  142.09    6.90
  -1  -6   1  140.79    7.40
  -1  -6   1  128.49    8.70
   1  -6  -1  130.39    8.60
  -1   6   1  147.89    6.70
   1   6  -1  139.59    7.30
   1   6  -1  144.39    7.60
  -1   6   1  155.48    6.70
  -1   6   1  139.49    8.60
   1   6  -1  127.99    8.80
   0  -6  -1   11.10    2.00
   0  -6  -1   12.50    2.80
   0  -6   1   12.20    2.30
   0  -6   1   10.50    1.70
   0   6  -1   12.10    2.30
   0   6   1   13.10    1.70
   0   6   1   11.70    1.50
   0   6  -1   10.80    1.70
   0   6  -1   10.90    1.50
   0   6   1    6.90    2.70
  -1  -6  -1   -2.70    2.90
  -1  -6  -1    0.30    1.90
   1  -6   1    0.30    1.80
   1  -6   1    0.30    1.00
  -1   6  -1   -0.60    0.80
   1   6   1   -1.10    1.70
   1   6   1    3.00    3.20
   1   6   1    3.00    1.70
  -2  -6  -1  131.49    8.90
  -2  -6  -1  131.99    7.40
   2  -6   1  145.09    6.30
   2   6   1  138.69    7.70
   2   6   1  121.19    9.10
   2   6   1  121.59    7.30
   3  -6   1    6.00    1.30
   3  -6   1    7.80    2.80
  -3  -6  -1    3.10    2.90
  -3  -6  -1    4.20    4.00
   3   6   1    6.10    2.50
   3   6   1    3.70    4.10
   3   6   1    5.40    2.30
   4  -6   1    7.00    2.00
   4  -6   1   10.10    1.50
  -4  -6  -1   10.60    3.20
   4  -6   1   10.70    4.30
   4   6   1    6.80    3.70
   4   6   1   16.80    3.40
   5  -6   1    6.90    2.80
  -5  -6  -1    1.30    6.30
   5  -6   1    3.00    1.80
   5  -6   1    1.10    5.60
   5   6   1    0.70    4.20
   5   6   1    6.90    4.30
   5   6   1   -7.10    5.80
  -6  -6  -1   26.80    7.50
   6  -6   1   11.50    2.40
   6  -6   1   14.10    7.70
   6  -6   1    9.90    4.40
   6   6   1    4.50    4.50
   6   6   1   16.60    7.40
   6   6   1    6.50    6.10
   6  -7  -1   31.40    3.30
  -6  -7   1   41.60    7.90
   6  -7  -1   33.30    9.10
   6   7  -1   49.10    7.30
   6   7  -1   32.90    8.20
   6   7  -1   44.20    5.90
   5  -7  -1   24.20    2.20
  -5  -7   1   29.60    6.20
   5  -7  -1   18.00    5.50
   5  -7  -1   26.30    2.80
   5   7  -1   18.40    4.70
   5   7  -1   16.70    6.30
   4  -7  -1   33.60    2.50
   4  -7  -1   36.70    5.10
   4  -7  -1   35.70    2.20
   4   7  -1   39.40    4.80
   4   7  -1   42.20    4.60
  -3  -7   1   46.70    5.10
   3  -7  -1   39.80    4.70
  -3  -7   1   34.20    4.00
   3   7  -1   42.10    6.20
   3   7  -1   37.80    4.20
   3   7  -1   39.50    4.40
   2  -7  -1   16.80    1.40
   2  -7  -1   12.30    2.70
  -2  -7   1   14.20    2.30
  -2  -7   1   16.20    3.30
   2   7  -1   15.20    3.60
   2   7  -1   13.60    2.30
   2   7  -1   11.70    2.30
  -1  -7   1  516.35   24.80
  -1  -7   1  495.95   27.60
   1  -7  -1  543.15   24.40
   1  -7  -1  499.85   27.60
   1   7  -1  548.75   24.90
   1   7  -1  497.15   27.70
  -1   7   1  564.84   24.20
  -1   7   1  513.25   27.60
   1   7  -1  529.85   24.80
  -1   7   1  548.35   24.20
   0  -7   1   81.19    6.00
   0  -7  -1   87.69    6.50
   0  -7  -1   93.79    5.30
   0  -7   1   86.99    5.10
   0   7  -1   95.29    5.00
   0   7   1   94.69    5.10
   0   7  -1   90.39    4.90
   0   7   1   97.49    5.00
   0   7  -1   82.99    6.00
   0   7   1   86.49    6.50
  -1  -7  -1  148.49    9.50
  -1  -7  -1  150.38    8.00
   1  -7   1  152.08    7.40
   1  -7   1  139.19    8.50
  -1   7  -1  164.28    7.10
   1   7   1  143.69    9.60
   1   7   1  149.09    7.90
  -1   7  -1  151.48    7.20
   1   7   1  151.98    8.00
  -2  -7  -1   47.40    4.90
   2  -7   1   41.10    2.40
  -2  -7  -1   39.40    3.90
   2  -7   1   43.50    4.20
   2   7   1   43.70    3.70
   2   7   1   40.80    6.00
   2   7   1   37.20    3.80
  -3  -7  -1   71.09    7.50
   3  -7   1   77.39    3.80
  -3  -7  -1   66.29    5.60
   3  -7   1   73.09    6.00
   3   7   1   74.29    5.60
   3   7   1   75.49    7.60
   3   7   1   72.49    5.50
   4  -7   1   27.80    2.80
  -4  -7  -1   35.20    6.30
   4  -7   1   27.70    2.30
  -4  -7  -1   37.20    4.30
   4  -7   1   28.20    4.80
   4   7   1   30.90    6.40
   4   7   1   36.10    4.40
   4   7   1   25.90    4.70
  -5  -7  -1   27.80    6.70
   5  -7   1    8.70    2.90
   5  -7   1   17.00    6.00
   5  -7   1   13.00    1.80
   5   7   1   13.50    4.90
   5   7   1   13.90    5.70
   5   7   1   29.60    6.70
   6  -7   1    7.00    9.10
   6  -7   1    9.70    2.30
  -6  -7  -1   -1.00    7.90
   6   7   1    8.30    6.20
   6   7   1    7.20    6.60
   6   7   1   19.90    8.20
  -6  -8   1   14.90    7.90
   6  -8  -1   10.10    3.20
   6  -8  -1   10.70    2.10
   6  -8  -1   14.40    9.40
   6   8  -1   18.90    5.60
   6   8  -1   23.40    8.40
   6   8  -1   17.80    8.00
   5  -8  -1    0.10    1.20
  -5  -8   1    2.20    6.20
   5  -8  -1   -5.40    5.10
   5   8  -1    1.30    5.30
   5   8  -1   12.20    6.30
  -4  -8   1   92.39    9.00
   4  -8  -1   94.99    8.50
   4   8  -1   98.29    8.10
   4   8  -1   95.99    9.50
   4   8  -1   91.19    7.10
  -3  -8   1   27.90    3.30
   3  -8  -1   15.00    4.30
  -3  -8   1   26.00    4.70
   3   8  -1   21.10    3.30
   3   8  -1   14.30    4.80
   3   8  -1   24.80    3.50
  -2  -8   1   48.70    5.50
  -2  -8   1   46.80    4.00
   2  -8  -1   53.79    2.80
   2  -8  -1   42.90    5.00
   2   8  -1   48.90    5.70
   2   8  -1   43.90    4.00
   2   8  -1   44.00    4.00
   1  -8  -1   47.80    4.70
   1  -8  -1   51.69    3.20
  -1  -8   1   52.19    3.70
  -1  -8   1   43.20    5.20
   1   8  -1   37.90    5.00
   1   8  -1   48.50    3.70
  -1   8   1   52.79    2.80
  -1   8   1   50.29    2.80
  -1   8   1   48.60    4.60
   1   8  -1   47.90    3.60
   0  -8  -1   83.99    6.40
   0  -8   1   87.19    5.10
   0  -8   1   81.29    6.10
   0  -8  -1   91.29    5.30
   0   8   1   93.09    5.00
   0   8   1   92.49    5.10
   0   8  -1   82.99    6.10
   0   8  -1   89.39    4.90
   0   8  -1   95.09    4.90
   0   8   1   81.29    6.40
   1  -8   1   58.19    4.80
   1  -8   1   64.79    3.80
  -1  -8  -1   66.89    4.60
  -1  -8  -1   64.39    6.00
  -1   8  -1   67.09    3.40
   1   8   1   69.39    4.20
   1   8   1   64.29    4.40
   1   8   1   53.59    6.10
  -1   8  -1   70.49    3.50
   2  -8   1   31.80    4.40
  -2  -8  -1   42.10    5.10
   2  -8   1   42.00    2.40
  -2  -8  -1   31.50    3.90
   2   8   1   38.60    3.80
   2   8   1   46.20    5.30
   2   8   1   38.20    4.70
   3  -8   1   55.29    5.60
  -3  -8  -1   53.89    7.20
   3  -8   1   52.29    2.80
  -3  -8  -1   49.60    5.10
   3  -8   1   53.79    6.10
   3   8   1   52.09    7.60
   3   8   1   50.59    5.30
   3   8   1   54.29    4.90
  -4  -8  -1    5.70    3.50
   4  -8   1    4.10    1.30
   4  -8   1    7.00    4.50
  -4  -8  -1    3.30    5.40
   4   8   1   11.90    5.60
   4   8   1    3.40    3.60
   4   8   1    5.20    4.20
   5  -8   1   12.90    6.40
   5  -8   1   16.60    2.00
  -5  -8  -1   13.00    6.90
   5   8   1   16.00    7.00
   5   8   1   17.60    5.20
   5   8   1   15.00    4.40
   6  -8   1    6.90    2.10
  -6  -8  -1   22.40    6.90
   6  -8   1   21.20   10.10
   6  -8   1    9.80    3.70
   6   8   1   32.70    8.90
   6   8   1    7.70    8.70
   6   8   1   15.70    6.20
  -6  -9   1   39.90    8.30
   6  -9  -1   16.00    9.40
   6   9  -1   10.50    6.30
   6   9  -1   13.30    7.00
   6   9  -1   15.60    8.50
  -5  -9   1   23.70    6.40
   5  -9  -1   22.00    6.30
   5   9  -1   23.00    5.40
   5   9  -1    2.10    6.80
  -4  -9   1  161.68   12.30
   4   9  -1  165.48   10.40
   4   9  -1  183.58   11.10
   4   9  -1  180.48   12.60
  -3  -9   1   10.30    4.40
   3  -9  -1    8.10    3.80
  -3  -9   1   12.50    3.10
   3   9  -1    7.50    2.90
   3   9  -1    8.30    4.80
   3   9  -1    6.30    3.00
  -2  -9   1   -0.70    2.00
  -2  -9   1    1.90    3.40
   2  -9  -1   -2.30    1.30
   2  -9  -1   -0.50    3.20
   2   9  -1    2.60    3.70
   2   9  -1    0.20    2.00
   2   9  -1    1.20    2.40
   1  -9  -1  132.39    8.60
  -1  -9   1  124.99    8.60
  -1  -9   1  134.69    7.50
   1  -9  -1  141.99    7.10
  -1   9   1  141.59    6.70
  -1   9   1  133.99    8.50
   1   9  -1  134.49    7.30
  -1   9   1  145.69    6.70
   1   9  -1  129.99    7.40
   1   9  -1  138.69    9.00
   0  -9  -1   80.99    6.60
   0  -9   1   89.49    5.20
   0  -9  -1   85.59    5.40
   0  -9   1   85.19    6.40
   0   9  -1   87.19    4.90
   0   9   1   83.99    5.00
   0   9  -1   86.09    6.10
   0   9   1   89.09    6.50
   0   9  -1   83.49    4.90
   0   9   1   88.89    4.90
  -1  -9  -1   41.10    5.60
   1  -9   1   46.20    4.60
  -1  -9  -1   51.19    4.50
   1  -9   1   44.80    3.30
  -1   9  -1   51.39    2.80
   1   9   1   52.49    4.00
  -1   9  -1   53.19    2.80
   1   9   1   49.00    3.90
   1   9   1   51.09    5.90
  -2  -9  -1  119.79    9.30
   2  -9   1  128.29    8.20
  -2  -9  -1  132.59    7.60
   2  -9   1  127.69    6.30
   2   9   1  123.89    7.60
   2   9   1  132.09    9.60
   2   9   1  127.79    7.60
   3  -9   1  121.59    6.00
   3  -9   1  136.29    8.70
   3  -9   1  125.89    9.10
  -3  -9  -1  121.69    8.10
   3   9   1  117.59    8.10
   3   9   1  129.99    8.00
   4  -9   1   -6.30    3.90
  -4  -9  -1   -6.60    4.30
  -4  -9  -1  -10.90    5.40
   4  -9   1    6.50    5.60
   4   9   1   -3.40    4.30
   4   9   1   -9.90    5.90
   4   9   1    1.10    3.70
   5  -9   1    3.70    6.90
  -5  -9  -1   -9.80    6.70
   5   9   1   -3.30    4.50
   5   9   1   16.80    7.00
   5   9   1   12.40    5.10
   6  -9   1   14.90   10.60
   6   9   1   -4.00    7.10
   6   9   1    3.40    6.60
   6  10  -1   13.30    7.20
   6  10  -1   19.80    7.70
  -5 -10   1   14.80    7.00
   5 -10  -1   22.10    6.40
   5 -10  -1   22.00    7.90
   5  10  -1   17.50    7.50
   5  10  -1   21.60    5.60
   4 -10  -1   48.60    6.50
   4 -10  -1   40.20    6.70
  -4 -10   1   52.39    6.90
   4  10  -1   53.99    6.00
   4  10  -1   49.60    5.50
   4  10  -1   51.69    7.20
  -3 -10   1    1.90    2.90
   3 -10  -1    0.50    4.10
  -3 -10   1    5.90    4.60
   3  10  -1   -1.40    5.90
   3  10  -1    4.70    3.00
   3  10  -1    2.80    2.90
   2 -10  -1   12.00    3.60
   2 -10  -1   16.00    2.10
  -2 -10   1   19.40    3.00
  -2 -10   1   16.80    4.20
   2  10  -1   15.60    2.80
   2  10  -1   14.50    2.60
   2  10  -1   15.80    5.10
  -1 -10   1   33.20    4.00
   1 -10  -1   32.00    3.20
  -1 -10   1   31.10    4.00
   1 -10  -1   26.70    3.80
  -1  10   1   30.00    2.30
   1  10  -1   24.50    3.30
   1  10  -1   35.40    4.70
  -1  10   1   31.40    3.70
  -1  10   1   30.60    2.20
   0 -10   1   48.40    5.60
   0 -10   1   55.89    3.90
   0 -10  -1   48.90    5.80
   0 -10  -1   60.19    4.40
   0  10   1   52.49    3.70
   0  10   1   55.59    4.00
   0  10  -1   61.39    3.80
   0  10  -1   57.69    3.80
   0  10   1   54.09    6.00
   0  10  -1   54.49    5.30
  -1 -10  -1    0.70    2.50
   1 -10   1    1.00    1.70
   1 -10   1   -4.30    2.70
  -1 -10  -1   -0.60    3.20
   1  10   1    1.60    2.10
  -1  10  -1    0.20    1.00
   1  10   1   -0.10    3.40
  -1  10  -1   -0.90    1.00
   1  10   1    2.20    2.40
  -2 -10  -1   16.00    3.20
  -2 -10  -1   18.80    4.80
   2 -10   1    8.90    3.40
   2 -10   1   17.80    1.80
   2  10   1   21.60    5.00
   2  10   1   17.50    3.60
   2  10   1   16.90    2.80
  -3 -10  -1   53.19    6.50
   3 -10   1   47.00    6.20
   3 -10   1   39.80    5.40
   3 -10   1   37.80    2.50
  -3 -10  -1   44.10    4.90
   3  10   1   44.60    5.20
   3  10   1   46.70    5.10
   3  10   1   45.00    6.90
  -4 -10  -1   39.00    5.30
   4 -10   1   33.80    5.80
   4 -10   1   32.50    6.60
  -4 -10  -1   33.40    6.70
   4  10   1   32.40    5.50
   4  10   1   38.60    5.00
   4  10   1   28.90    6.90
   5 -10   1   10.60    8.90
   5 -10   1   -2.20    7.40
  -5 -10  -1   11.90    7.20
   5  10   1   -0.90    5.30
   5  10   1    0.30    7.50
   5  10   1   -2.20    5.30
   5 -11  -1   -2.30    8.30
   5 -11  -1   22.90    8.20
  -5 -11   1   21.60    7.60
   5  11  -1   26.40    8.10
   5  11  -1   17.90    6.00
  -4 -11   1   13.70    6.10
   4 -11  -1   -3.20    6.40
   4 -11  -1    3.60    4.90
   4  11  -1    8.70    6.30
   4  11  -1    3.60    4.10
   4  11  -1    7.70    4.10
   3 -11  -1   -5.50    4.30
   3  11  -1    5.00    3.80
   3  11  -1    5.00    3.90
  -2 -11   1   32.50    4.30
   2 -11  -1   30.00    2.70
   2 -11  -1   24.20    4.50
  -2 -11   1   30.10    4.90
   2  11  -1   29.30    3.80
   2  11  -1   28.70    3.60
   2  11  -1   33.30    5.40
   1 -11  -1   22.70    4.10
  -1 -11   1   21.10    3.40
   1 -11  -1   27.70    3.00
  -1 -11   1   30.30    4.20
   1  11  -1   23.20    3.00
  -1  11   1   26.00    3.80
  -1  11   1   23.80    2.20
   1  11  -1   31.40    4.80
  -1  11   1   24.10    2.30
   0 -11   1    6.10    2.30
   0 -11  -1    5.30    2.40
   0 -11   1    4.00    3.50
   0 -11  -1    7.80    3.60
   0  11   1    2.30    3.80
   0  11  -1    6.00    3.20
   0  11  -1    7.60    2.00
   0  11  -1    6.40    1.80
   0  11   1    4.30    1.90
   0  11   1    8.80    2.10
  -1 -11  -1    3.60    2.40
   1 -11   1    4.30    2.10
   1 -11   1   -0.30    3.20
  -1 -11  -1    4.70    4.30
   1  11   1    5.80    3.90
  -1  11  -1    2.60    1.10
   1  11   1    1.00    2.00
  -1  11  -1    5.70    1.30
  -2 -11  -1   81.39    6.30
  -2 -11  -1   78.19    8.20
   2 -11   1   83.29    4.70
   2 -11   1   73.99    7.00
   2  11   1   74.29    5.50
   2  11   1   84.29    6.20
   2  11   1   82.99    8.20
  -3 -11  -1   25.60    5.80
   3 -11   1   27.60    5.10
   3 -11   1   38.80    4.90
  -3 -11  -1   32.50    4.50
   3  11   1   19.20    6.20
   3  11   1   30.70    4.20
   3  11   1   28.30    4.30
  -4 -11  -1    4.10    4.70
   4 -11   1   -1.30    5.60
  -4 -11  -1   16.70    6.70
   4 -11   1    2.70    6.30
   4  11   1    4.00    5.20
   4  11   1    7.30    5.40
   4  11   1    1.00    6.80
  -5 -11  -1   11.60    8.00
   5 -11   1   10.50    8.10
   5 -11   1    1.30    8.50
   5  11   1    7.70    5.80
   5  11   1   25.80    8.50
   5  11   1   -3.60    6.90
   5 -12  -1   -6.20    7.50
  -5 -12   1    2.90    8.20
   5 -12  -1    5.30   10.00
   5  12  -1   10.40    7.40
   5  12  -1    0.90    8.40
  -4 -12   1   14.10    6.70
   4 -12  -1   -7.10    6.30
   4 -12  -1   14.00    5.40
   4  12  -1   12.60    4.50
   4  12  -1   16.40    7.50
  -3 -12   1   20.70    5.70
   3  12  -1    8.50    4.50
   3  12  -1   18.20    7.40
  -2 -12   1   86.09    6.50
  -2 -12   1   88.59    8.50
   2 -12  -1   80.39    8.80
   2 -12  -1   89.59    5.00
   2  12  -1   89.49    6.90
   2  12  -1   78.39    8.50
   2  12  -1   85.59    6.40
  -1 -12   1   66.19    5.80
   1 -12  -1   59.29    7.70
  -1 -12   1   70.59    7.10
  -1  12   1   68.69    4.00
  -1  12   1   70.59    4.00
  -1  12   1   61.39    6.40
   1  12  -1   66.69    7.20
   1  12  -1   70.89    5.00
   1  12  -1   65.49    5.20
   0 -12   1   19.20    4.20
   0 -12   1   18.10    2.90
   0 -12  -1   12.30    4.20
   0 -12  -1   12.60    2.50
   0  12  -1   13.70    2.50
   0  12   1   13.00    2.30
   0  12  -1   14.50    4.00
   0  12  -1   14.50    2.30
   0  12   1   13.10    2.40
   0  12   1   18.00    4.00
   1 -12   1   34.10    4.90
   1 -12   1   34.70    3.70
  -1 -12  -1   46.00    5.60
  -1 -12  -1   37.70    4.20
   1  12   1   36.30    3.80
   1  12   1   52.69    5.90
  -1  12  -1   37.00    2.70
  -1  12  -1   41.00    2.80
   2 -12   1   71.69    7.60
   2 -12   1   78.49    4.80
  -2 -12  -1   81.99    7.30
   2  12   1   70.19    6.20
   2  12   1   84.89    8.80
   2  12   1   75.09    5.60
  -3 -12  -1   18.30    6.10
  -3 -12  -1   19.10    5.00
   3 -12   1   19.90    5.40
   3  12   1   15.00    4.00
   3  12   1   16.00    6.30
  -4 -12  -1   14.70    5.30
  -4 -12  -1    8.40    6.30
   4  12   1   32.80    7.50
   4  12   1   14.80    6.20
  -5 -12  -1    6.20    8.30
   5 -12   1   -0.10   10.30
   5 -12   1    0.20    8.80
   5  12   1    3.70    8.20
   5  12   1   10.10    8.50
   5  12   1    5.00    6.50
  -5 -13   1   20.90    9.30
   5 -13  -1   -6.20   10.90
   5 -13  -1   -0.20    8.50
   5  13  -1   17.10    8.50
   5  13  -1   20.10   10.30
   4 -13  -1   11.50    7.20
   4 -13  -1   17.70    7.00
  -4 -13   1   15.30    7.20
   4  13  -1   14.60    5.30
   4  13  -1   22.60    8.90
   4  13  -1   14.70    5.00
  -3 -13   1    2.70    5.80
   3 -13  -1   -3.50    6.10
   3  13  -1   13.90    3.70
   3  13  -1    6.10    3.90
   3  13  -1   14.10    7.80
  -2 -13   1  138.59    9.40
   2 -13  -1  126.59   11.10
   2 -13  -1  151.38    7.40
   2  13  -1  137.59    9.20
   2  13  -1  135.89    8.20
  -1 -13   1    0.40    2.60
  -1 -13   1    6.20    4.90
   1 -13  -1   -2.80    2.10
   1 -13  -1    5.60    4.40
  -1  13   1   -1.80    1.50
  -1  13   1    2.70    1.50
   1  13  -1   -1.80    2.70
  -1  13   1   -1.90    4.00
   1  13  -1    1.80    2.30
   1  13  -1   -4.90    5.00
   0 -13   1   48.10    5.50
   0 -13  -1   46.90    5.90
   0 -13   1   44.90    5.10
   0 -13  -1   45.40    4.60
   0  13  -1   42.30    3.80
   0  13  -1   50.29    5.50
   0  13  -1   50.89    4.10
   0  13   1   50.29    3.90
   0  13   1   51.69    4.70
   0  13   1   53.29    5.80
   1 -13   1  407.16   18.70
   1 -13   1  346.47   21.40
   1  13   1  382.76   19.10
  -1  13  -1  392.16   18.00
  -1  13  -1  380.16   18.00
   1  13   1  388.26   18.80
   2 -13   1    8.30    4.70
  -2 -13  -1   10.40    5.60
   2 -13   1   11.90    2.60
   2  13   1    6.40    6.10
   2  13   1    9.30    4.10
   2  13   1   10.10    2.60
  -3 -13  -1    4.90    4.30
   3 -13   1   -3.40    5.40
  -3 -13  -1   13.60    6.10
   3  13   1    3.00    5.90
   3  13   1    1.50    3.40
   3  13   1    7.40    4.10
   4 -13   1   10.40    6.90
   4 -13   1    1.60    7.60
  -4 -13  -1   11.70    7.10
   4  13   1    4.40    4.80
   4  13   1   -3.90    6.30
   4  13   1    7.10    7.50
   4 -14  -1    9.60    7.70
   4 -14  -1   14.40    8.20
  -4 -14   1    3.70    8.20
   4  14  -1   25.00    9.90
   4  14  -1   14.80    6.40
   4  14  -1   19.70    6.10
   3 -14  -1   -2.10    6.80
  -3 -14   1    4.50    6.60
   3  14  -1   15.00    7.80
   3  14  -1   12.00    4.40
   3  14  -1   12.90    3.80
   2 -14  -1   16.90    5.50
  -2 -14   1   30.40    6.20
   2 -14  -1   22.60    2.60
   2  14  -1   19.10    4.40
   2  14  -1   18.60    7.20
   2  14  -1   21.70    3.50
  -1 -14   1   16.80    5.40
  -1 -14   1   19.10    3.60
   1 -14  -1   21.10    3.00
   1  14  -1   17.90    3.40
   1  14  -1   21.40    5.60
   1  14  -1   16.30    2.90
  -1  14   1   15.50    2.00
  -1  14   1   16.70    1.90
   0 -14   1   15.00    4.60
   0 -14   1    7.80    2.80
   0 -14  -1    9.80    3.00
   0  14   1    8.10    2.30
   0  14   1    4.80    2.60
   0  14  -1    2.30    4.20
   0  14  -1    7.20    2.00
   0  14  -1   12.60    2.50
  -1 -14  -1  303.87   15.60
   1 -14   1  320.27   15.40
  -1 -14  -1  275.07   18.20
   1 -14   1  282.37   17.90
  -1  14  -1  304.37   14.20
   1  14   1  293.67   18.20
   1  14   1  316.27   15.70
  -1  14  -1  303.17   14.20
   1  14   1  295.07   15.10
   2 -14   1  141.09   12.00
  -2 -14  -1  181.48   11.10
  -2 -14  -1  180.48   12.90
   2  14   1  170.38    9.60
   2  14   1  158.18   10.30
   2  14   1  181.48   12.80
  -3 -14  -1   20.70    7.10
  -3 -14  -1   14.90    5.20
   3 -14   1   12.00    6.50
   3  14   1   16.60    4.10
   3  14   1   14.00    5.70
   3  14   1   -0.10    6.80
   4 -14   1   -4.70    8.60
   4 -14   1   -5.30    8.40
  -4 -14  -1   16.10    7.90
   4  14   1    2.70    7.50
   4  14   1   -6.10    5.10
   4  14   1    2.80    8.10
  -4 -15   1    6.90    9.40
   4 -15  -1    1.00    7.40
   4 -15  -1  -10.60   10.40
   4  15  -1    1.00    7.30
   4  15  -1   -6.70    7.10
   4  15  -1   12.40   12.00
  -3 -15   1   15.30    7.50
   3 -15  -1   15.50    8.00
   3  15  -1    8.40    4.00
   3  15  -1   -0.30    8.40
   3  15  -1    8.50    4.60
  -2 -15   1    1.50    7.20
   2 -15  -1   -2.00    5.70
   2  15  -1   -3.70    3.50
   2  15  -1   -3.60    6.30
   2  15  -1   -0.70    3.30
   1 -15  -1   67.99    9.50
   1 -15  -1   77.09    5.90
  -1  15   1   84.59    4.60
   1  15  -1   81.39    5.80
  -1  15   1   81.79    4.80
   1  15  -1  106.99   10.10
  -1  15   1   66.69    8.90
   1  15  -1   86.29    6.50
   0 -15   1   49.10    5.30
   0 -15  -1   59.69    7.00
   0 -15  -1   56.29    4.60
   0 -15   1   48.70    7.00
   0  15  -1   52.19    6.20
   0  15   1   51.39    4.90
   0  15   1   48.60    4.10
   0  15  -1   50.59    4.60
   0  15  -1   45.20    3.80
   0  15   1   57.69    7.50
  -1 -15  -1   86.59    7.20
   1 -15   1   71.09    9.80
  -1 -15  -1   79.99   11.30
   1  15   1   88.69    5.90
  -1  15  -1   82.69    4.80
  -1  15  -1   87.89    4.60
   1  15   1   86.89    9.30
   1  15   1   83.89    7.00
  -2 -15  -1   -0.90    6.40
   2 -15   1   -2.20    5.90
  -2 -15  -1   10.30    5.30
   2  15   1    4.90    4.60
   2  15   1   -3.20    2.60
   2  15   1   11.70    7.70
  -3 -15  -1   26.60    6.20
   3 -15   1   13.20    7.60
  -3 -15  -1   28.20    7.90
   3  15   1   33.40    4.70
   3  15   1   27.90    6.70
   3  15   1   20.20    8.00
  -4 -15  -1   23.50    9.30
   4 -15   1   23.60    9.10
   4 -15   1   24.40   10.20
   4  15   1   38.30    7.80
   4  15   1    3.50    6.70
   4  15   1    5.30    9.60
  -3 -16   1    3.70    8.70
   3 -16  -1   -3.80    9.00
   3  16  -1    3.60    6.00
   3  16  -1   -3.00    9.40
   3  16  -1    9.10    5.20
   2 -16  -1   -1.60    7.60
  -2 -16   1   -3.30    8.30
   2  16  -1   -2.00    2.70
   2  16  -1    7.20    7.50
   1 -16  -1   56.49    5.10
   1 -16  -1   50.49    7.70
  -1 -16   1   59.69    8.00
  -1  16   1   56.89    3.70
   1  16  -1   54.89    5.00
   1  16  -1   62.29    6.20
   1  16  -1   67.79    7.50
   0 -16  -1   81.99   10.30
   0 -16  -1   83.79    6.40
   0  16   1   87.29    6.30
   0  16   1   88.69    9.50
   0  16  -1   86.19    9.20
   0  16  -1   82.39    5.40
   0  16  -1   84.39    6.30
   0  16   1   80.09    5.30
  -1 -16  -1   25.00    4.60
  -1 -16  -1    4.80    6.70
  -1  16  -1   16.00    1.90
   1  16   1   13.80    3.20
   1  16   1   11.10    4.20
   1  16   1   12.80    7.30
  -2 -16  -1    1.60    5.60
  -2 -16  -1   -5.50    7.50
   2  16   1   -3.60    2.80
   2  16   1    2.10    7.60
   2  16   1    6.70    4.90
   3 -16   1   -6.20    8.40
  -3 -16  -1    7.80    8.60
   3  16   1   -2.50    8.70
   3  16   1    0.40    5.10
   3  16   1    3.40    4.50
   3  17  -1    6.90    6.10
  -2 -17   1   21.20    8.80
   2 -17  -1   12.50    7.90
   2  17  -1    5.30    3.80
   2  17  -1   32.10   10.40
   1 -17  -1    0.70    8.50
  -1 -17   1   19.90    8.90
   1  17  -1    9.40    4.20
   1  17  -1   10.50    7.80
  -1  17   1    6.00    1.90
  -1  17   1    6.90    1.80
   1  17  -1    3.20    2.90
   0 -17  -1   36.80    8.10
   0 -17   1   45.40    8.70
   0  17   1   42.70    5.60
   0  17   1   42.60    6.90
   0  17  -1   49.30    7.10
   0  17   1   41.20    3.90
   0  17  -1   36.40    4.30
  -1 -17  -1    8.50    7.50
   1 -17   1   -0.90    7.60
  -1 -17  -1   -8.00    4.50
   1  17   1    3.00    3.10
  -1  17  -1    3.50    1.70
   1  17   1    3.40    4.50
   1  17   1   -0.20    8.20
  -1  17  -1    2.50    1.70
   2 -17   1    0.20    8.20
  -2 -17  -1    7.30   10.00
   2  17   1   -2.50    9.10
   2  17   1    0.90    3.40
   2  18  -1    2.00    4.50
  -1 -18   1   13.40   10.30
   1 -18  -1   -7.80    8.50
   1  18  -1   -0.90    4.30
  -1  18   1    8.50    1.90
  -1  18   1    4.30    1.70
   1  18  -1   19.90    8.00
   1  18  -1   -0.40    3.00
   0 -18   1   89.49   11.20
   0 -18  -1   73.79   11.70
   0  18  -1   85.19    7.10
   0  18  -1   97.59   12.50
   0  18   1   82.09    5.80
   0  18  -1   92.09    5.80
   0  18   1   81.99    7.30
   0  18   1   96.59   11.70
  -1 -18  -1   19.80    9.40
   1 -18   1   28.50    9.40
   1  18   1    0.90    4.60
   1  18   1   18.10    3.80
   1  18   1   39.00    8.90
   7   0  -2   -2.40    7.60
   7   0  -2    9.10    3.80
   6   0  -2   18.40    5.60
   6   0  -2   17.50    2.60
   5   0  -2    4.70    5.20
   5   0  -2    1.30    3.00
   5   0  -2    9.20    2.40
  -5   0   2   10.40    5.30
   4   0  -2   33.30    3.40
   4   0  -2   34.70    4.70
   4   0  -2   34.60    4.10
  -4   0   2   34.30    4.80
   3   0  -2   57.49    5.70
  -3   0   2   61.49    3.90
   3   0  -2   63.39    3.90
  -3   0   2   57.09    5.70
  -2   0   2  280.97   15.40
   2   0  -2  294.57   13.60
  -2   0   2  295.57   13.60
   2   0  -2  273.57   15.50
  -1   0   2   10.10    1.40
   1   0  -2   13.60    2.10
   1   0  -2   10.20    1.60
   0   0   2   19.70    2.50
   0   0  -2   15.80    2.40
   0   0   2   20.60    2.20
   0   0  -2   18.40    1.80
   1   0   2  174.08    9.40
  -1   0  -2  164.08    9.40
   1   0   2  171.28    8.40
   2   0   2  118.29    7.50
  -2   0  -2  115.79    7.60
  -2   0  -2  114.29    6.10
  -3   0  -2    4.70    3.00
  -3   0  -2    5.50    1.60
   3   0   2    7.80    2.30
   3   0   2    9.20    2.80
  -4   0  -2   95.29    6.10
  -4   0  -2  109.59    8.70
   4   0   2   94.59    6.60
   4   0   2  114.29    8.10
   5   0   2    7.50    3.50
   5   0   2    0.50    2.20
  -5   0  -2    1.20    5.30
   5   0   2   10.70    5.00
   6   0   2    4.80    3.00
   6   0   2    6.90    6.00
  -6   0  -2    5.10    7.60
   7  -1  -2    3.30    7.50
   7  -1  -2    4.20    3.70
   7   1  -2   10.10    4.00
   7   1  -2    1.50    8.10
   6  -1  -2   11.30    6.10
   6  -1  -2   12.30    2.90
   6  -1  -2   14.00    5.10
   6   1  -2   14.40    5.80
   6   1  -2    9.10    3.10
   6   1  -2   22.20    6.20
   5  -1  -2   10.60    2.50
   5  -1  -2    7.70    3.60
   5  -1  -2   13.20    5.10
   5   1  -2    8.90    2.10
   5   1  -2    8.80    4.10
  -4  -1   2  136.09    9.40
   4  -1  -2  124.29    9.30
   4  -1  -2  129.99    7.50
   4  -1  -2  134.29    7.20
   4   1  -2  132.59    7.90
   4   1  -2  139.39    9.60
   4   1  -2  137.89    7.50
  -3  -1   2   52.29    3.60
   3  -1  -2   49.70    5.30
  -3  -1   2   53.69    5.50
   3  -1  -2   61.09    3.60
  -3   1   2   53.09    3.40
   3   1  -2   58.09    5.60
   3   1  -2   58.09    3.90
   2  -1  -2   65.39    5.20
   2  -1  -2   65.69    3.70
  -2  -1   2   71.99    4.10
  -2  -1   2   71.89    5.30
  -2   1   2   61.49    3.70
   2   1  -2   61.89    3.90
   2   1  -2   62.69    5.30
  -1  -1   2   -1.90    2.10
  -1  -1   2   -0.20    1.20
   1  -1  -2    2.50    1.30
   1   1  -2    0.20    2.20
   1   1  -2    0.60    1.20
  -1   1   2    0.80    1.00
   0  -1  -2 1929.11  105.49
   0  -1  -2 2111.99   94.69
   0  -1   2 2223.38   94.59
   0   1  -2 2012.70  105.39
   0   1  -2 2172.08   94.69
   0   1   2 2024.70  105.49
   0   1   2 2037.40   94.59
  -1  -1  -2  532.75   27.70
  -1  -1  -2  529.35   24.80
   1  -1   2  536.25   27.50
   1   1   2  552.34   24.80
   1   1   2  561.64   27.80
  -1   1  -2  534.95   27.50
  -1   1  -2  496.05   24.80
  -2  -1  -2   62.79    5.60
   2  -1   2   63.69    4.80
   2  -1   2   54.39    3.60
   2   1   2   60.79    4.10
  -2   1  -2   58.99    3.60
  -2   1  -2   56.19    5.00
   2   1   2   55.89    5.10
   3  -1   2   66.29    5.30
  -3  -1  -2   58.49    5.90
   3  -1   2   65.99    4.40
  -3  -1  -2   65.49    4.40
   3   1   2   68.99    4.60
  -3   1  -2   61.59    4.00
  -3   1  -2   59.99    5.90
   3   1   2   69.59    5.90
  -4  -1  -2   42.40    4.10
  -4  -1  -2   44.80    6.30
   4  -1   2   44.90    5.80
   4  -1   2   42.90    4.40
  -4   1  -2   40.90    3.80
  -4   1  -2   41.00    5.10
   4   1   2   39.40    3.70
   4   1   2   38.30    5.10
  -5  -1  -2    4.30    5.40
   5  -1   2   -0.40    3.80
   5  -1   2    4.20    2.50
   5   1   2    6.40    2.40
   5   1   2    4.20    3.60
   5   1   2   10.00    5.30
   6  -1   2   17.20    5.70
   6  -1   2   24.70    7.50
   6  -1   2   13.30    3.40
  -6  -1  -2   24.30    7.80
   6   1   2   17.10    3.90
  -6   1  -2   11.70    8.60
   6   1   2   15.30    6.50
   6   1   2    6.20    8.60
   7  -2  -2    4.70    7.10
   7   2  -2    6.40    8.50
   7   2  -2    0.10    4.50
   6  -2  -2   46.30    5.80
   6  -2  -2   40.10    4.20
   6   2  -2   42.50    6.20
   6   2  -2   42.50    4.50
   5  -2  -2   80.29    6.30
   5  -2  -2   85.59    8.40
   5  -2  -2   88.29    5.30
   5   2  -2   79.09    6.60
   5   2  -2   81.29    9.10
   5   2  -2   86.09    6.10
   4  -2  -2   20.20    2.50
   4  -2  -2   15.20    4.00
  -4  -2   2   27.20    4.50
   4  -2  -2   17.80    2.60
  -4  -2   2   22.20    2.70
   4   2  -2   19.50    4.40
   4   2  -2   14.00    2.30
   4   2  -2   16.80    2.80
  -3  -2   2   64.89    4.20
  -3  -2   2   73.79    6.10
   3  -2  -2   64.09    5.80
   3  -2  -2   69.69    4.00
   3   2  -2   64.49    6.10
   3   2  -2   70.79    4.50
   3   2  -2   66.19    4.40
  -3   2   2   65.19    3.70
   2  -2  -2  187.98   10.90
   2  -2  -2  204.98    9.30
  -2  -2   2  196.38    9.60
  -2  -2   2  192.28   11.10
   2   2  -2  186.88   11.30
   2   2  -2  203.38    9.70
  -2   2   2  187.28    9.30
  -1  -2   2  111.89    5.80
   1  -2  -2  113.09    5.60
  -1  -2   2  107.39    6.60
   1   2  -2  114.69    5.80
   1   2  -2  110.59    6.60
  -1   2   2  114.19    5.50
   0  -2  -2  928.81   39.60
   0  -2   2  903.91   39.50
   0  -2  -2  856.71   44.20
   0   2  -2  741.13   39.50
   0   2   2  839.92   44.20
   0   2   2  898.11   39.60
  -1  -2  -2  769.12   39.60
  -1  -2  -2  787.12   35.50
   1  -2   2  827.72   35.30
   1  -2   2  717.13   39.20
  -1   2  -2  823.42   35.30
   1   2   2  757.32   39.60
   1   2   2  709.43   35.40
  -1   2  -2  747.23   39.20
   2  -2   2  150.68    8.70
  -2  -2  -2  146.39    9.30
  -2  -2  -2  143.29    7.80
   2  -2   2  168.68    7.70
  -2   2  -2  151.18    8.80
  -2   2  -2  140.39    7.40
   2   2   2  159.78    8.10
   2   2   2  161.38    9.40
  -3  -2  -2    6.80    3.30
   3  -2   2    6.90    2.00
   3  -2   2    9.30    2.80
  -3   2  -2    6.30    1.50
   3   2   2   11.70    3.20
  -3   2  -2    3.60    3.00
   3   2   2    4.10    2.40
   4  -2   2   89.19    5.90
   4  -2   2   98.19    7.40
  -4  -2  -2   96.99    8.40
  -4  -2  -2   94.39    6.30
   4   2   2   92.79    6.50
  -4   2  -2   89.79    7.50
   4   2   2   92.19    8.00
   4   2   2   87.29    5.90
   5  -2   2   20.90    4.10
  -5  -2  -2   20.20    5.70
   5  -2   2   15.50    2.60
   5   2   2   16.80    3.00
   5   2   2   27.70    4.70
   5   2   2   22.20    5.70
   6  -2   2    9.90    6.40
   6  -2   2   -0.60    2.90
   6  -2   2   13.20    7.20
   6   2   2   -3.80    4.00
  -6   2  -2    0.90    8.30
   7  -3  -2   13.00    6.50
   7   3  -2   15.50    5.50
   6  -3  -2  181.98    9.80
   6  -3  -2  189.28   11.70
   6   3  -2  166.88   12.00
   6   3  -2  197.08   11.10
   6   3  -2  204.78   13.80
  -5  -3   2   28.30    5.70
   5  -3  -2   24.20    2.90
   5  -3  -2   30.20    3.90
   5   3  -2   19.40    5.80
   5   3  -2   22.70    3.60
   5   3  -2   32.20    5.00
  -4  -3   2   16.80    4.50
   4  -3  -2   18.70    2.60
   4  -3  -2   20.80    4.10
  -4  -3   2   20.20    2.70
   4  -3  -2   19.00    2.40
   4   3  -2    8.30    4.60
   4   3  -2   18.80    2.70
   4   3  -2   16.10    3.00
  -3  -3   2   32.50    3.00
   3  -3  -2   32.50    4.00
  -3  -3   2   36.50    4.30
   3  -3  -2   32.00    2.40
   3   3  -2   30.10    3.30
   3   3  -2   33.30    4.30
   3   3  -2   32.80    3.50
  -2  -3   2   83.69    6.00
   2  -3  -2   83.89    4.30
  -2  -3   2   85.19    4.90
   2   3  -2   85.89    4.90
  -2   3   2   77.89    4.20
   2   3  -2   86.89    6.30
  -1  -3   2  187.68    9.10
  -1  -3   2  177.98   10.10
   1  -3  -2  199.78    8.80
   1  -3  -2  180.48   10.30
   1   3  -2  180.08    9.00
  -1   3   2  180.08    8.70
   1   3  -2  182.68   10.20
   0  -3  -2  425.46   19.00
   0  -3  -2  395.26   21.30
   0  -3   2  409.76   18.90
   0  -3   2  385.06   20.80
   0   3   2  422.46   19.00
   0   3   2  400.86   21.30
  -1  -3  -2  364.66   17.80
  -1  -3  -2  374.46   20.00
   1  -3   2  353.46   19.30
   1  -3   2  400.06   17.50
   1   3   2  383.46   17.80
   1   3   2  370.56   20.20
  -1   3  -2  386.16   17.50
   2  -3   2   31.00    3.50
   2  -3   2   39.40    2.70
  -2  -3  -2   43.00    3.80
  -2  -3  -2   35.00    5.00
   2   3   2   44.10    5.20
  -2   3  -2   35.30    2.40
  -2   3  -2   35.30    3.70
   2   3   2   35.20    3.20
   3  -3   2   19.00    2.30
   3  -3   2   22.00    3.00
  -3  -3  -2   22.20    3.00
  -3  -3  -2   20.80    3.90
   3   3   2   19.10    2.60
  -3   3  -2   17.50    1.90
  -3   3  -2   17.60    3.40
   3   3   2   15.60    3.70
   4  -3   2   37.50    5.50
   4  -3   2   37.00    3.90
  -4  -3  -2   37.60    5.70
   4   3   2   34.90    4.30
   4   3   2   50.79    6.70
   4   3   2   31.50    3.90
  -4   3  -2   38.50    5.30
   5  -3   2    5.80    3.60
  -5  -3  -2    4.80    5.60
  -5  -3  -2    2.20    3.50
   5  -3   2   -1.80    2.00
   5   3   2    4.60    3.60
   5   3   2   -2.20    5.90
   5   3   2    3.60    3.20
   6  -3   2    0.00    5.20
   6  -3   2    3.20    2.80
   6  -3   2   16.40    8.00
   6   3   2    7.00    6.30
   6   3   2   -5.90    3.70
   6  -4  -2  240.08   13.60
   6  -4  -2  225.78   12.20
   6   4  -2  253.27   14.00
   6   4  -2  269.77   15.60
   6   4  -2  246.18   16.30
   5  -4  -2   66.79    5.40
   5  -4  -2   66.79    4.30
  -5  -4   2   54.09    8.10
   5   4  -2   72.79    7.30
   5   4  -2   58.79    5.40
   5   4  -2   65.09    8.60
  -4  -4   2   31.50    3.40
  -4  -4   2   37.60    5.20
   4  -4  -2   32.40    2.60
   4   4  -2   33.30    3.80
   4   4  -2   36.20    4.40
   4   4  -2   31.40    5.20
   3  -4  -2  184.38   11.70
  -3  -4   2  197.38   11.60
   3  -4  -2  196.08    9.40
  -3  -4   2  203.48   10.10
   3   4  -2  201.48   11.80
   3   4  -2  183.18   10.00
   3   4  -2  205.88   10.40
  -2  -4   2   49.80    4.80
   2  -4  -2   50.79    2.80
  -2  -4   2   46.00    3.60
   2   4  -2   46.70    3.90
   2   4  -2   46.10    3.70
   2   4  -2   46.70    5.50
  -2   4   2   42.60    2.40
  -1  -4   2   51.89    4.20
  -1  -4   2   49.99    3.40
   1  -4  -2   44.10    4.40
   1  -4  -2   52.19    3.10
   1   4  -2   52.29    4.40
  -1   4   2   53.19    2.90
   1   4  -2   47.90    3.40
   0  -4  -2  874.71   45.40
   0  -4  -2  911.81   40.60
   0  -4   2  865.41   45.00
   0  -4   2  872.71   40.60
   0   4  -2  836.52   44.90
   0   4   2  928.81   40.60
   0   4   2  883.01   45.40
   1  -4   2  254.07   11.50
  -1  -4  -2  244.38   11.90
  -1  -4  -2  232.28   13.50
   1  -4   2  229.08   12.60
   1   4   2  250.87   11.80
   1   4   2  231.78   13.60
  -1   4  -2  250.87   11.40
   2  -4   2    3.50    2.10
   2  -4   2    8.40    1.60
  -2  -4  -2    6.90    2.50
  -2  -4  -2    7.50    3.40
   2   4   2    6.90    2.00
   2   4   2   11.90    3.40
  -2   4  -2    7.90    1.10
   3  -4   2   23.30    2.80
  -3  -4  -2   25.50    3.10
   3  -4   2   27.10    3.30
  -3  -4  -2   29.00    4.50
   3   4   2   27.70    3.30
   3   4   2   21.40    3.00
   3   4   2   26.60    4.40
   4  -4   2   79.49    6.70
   4  -4   2   69.69    5.10
  -4  -4  -2   82.89    8.40
  -4  -4  -2   78.59    6.20
   4   4   2   77.19    5.90
   4   4   2   83.59    8.00
   4   4   2   74.59    5.60
   5  -4   2   34.70    4.70
   5  -4   2   37.70    3.70
  -5  -4  -2   40.30    6.60
   5   4   2   30.50    4.20
   5   4   2   39.30    5.00
   5   4   2   29.00    6.10
   6  -4   2    5.60    5.80
   6  -4   2   22.30    8.50
  -6  -4  -2   13.90    8.60
   6  -4   2    8.00    3.20
   6   4   2    1.90    6.90
   6   4   2   -2.40    6.50
   6   4   2    7.10    5.10
   6  -5  -2   40.60    3.70
  -6  -5   2   48.20    7.30
   6  -5  -2   40.00    7.30
   6  -5  -2   39.90    5.20
   6   5  -2   46.90    6.80
   6   5  -2   45.20    5.80
   6   5  -2   71.29    9.60
   5  -5  -2   28.90    2.70
   5  -5  -2   27.60    3.40
  -5  -5   2   21.50    6.00
   5   5  -2   27.70    4.50
   5   5  -2   34.90    6.60
   5   5  -2   34.70    4.90
   4  -5  -2   14.30    1.90
  -4  -5   2   12.60    4.50
  -4  -5   2   10.00    2.60
   4   5  -2   11.80    2.80
   4   5  -2   15.90    3.30
   4   5  -2    7.20    4.80
  -3  -5   2  267.57   12.90
   3  -5  -2  254.07   14.50
  -3  -5   2  245.38   14.50
   3  -5  -2  256.37   11.90
   3   5  -2  260.97   14.70
   3   5  -2  255.37   12.80
   3   5  -2  230.98   12.70
   2  -5  -2   56.39    3.10
  -2  -5   2   55.39    4.00
  -2  -5   2   46.40    5.50
   2   5  -2   50.29    5.90
   2   5  -2   51.99    3.90
   2   5  -2   54.39    4.00
   1  -5  -2   13.50    1.60
  -1  -5   2   12.60    1.80
  -1  -5   2   12.00    2.50
   1  -5  -2   11.90    2.70
  -1   5   2   11.70    2.70
   1   5  -2   11.20    2.50
  -1   5   2   10.40    1.40
   1   5  -2   11.80    2.10
   0  -5   2   55.99    3.90
   0  -5  -2   57.29    5.30
   0  -5  -2   65.79    3.90
   0   5  -2   64.99    3.50
   0   5   2   61.79    3.90
   0   5  -2   58.19    3.90
   0   5   2   63.79    5.10
   1  -5   2  294.47   13.50
  -1  -5  -2  286.97   14.00
   1  -5   2  267.67   15.00
  -1  -5  -2  275.87   15.90
  -1   5  -2  315.47   13.50
   1   5   2  281.67   16.00
   1   5   2  292.27   14.00
  -2  -5  -2  612.84   31.50
  -2  -5  -2  558.24   28.10
   2  -5   2  681.43   27.60
   2  -5   2  575.74   30.80
   2   5   2  614.04   31.60
   2   5   2  631.74   28.20
  -2   5  -2  505.85   27.20
  -3  -5  -2   62.69    6.90
   3  -5   2   65.79    3.90
  -3  -5  -2   58.39    4.80
   3  -5   2   57.19    5.20
   3   5   2   58.19    5.10
   3   5   2   56.69    4.70
   3   5   2   66.79    6.90
  -4  -5  -2   82.19    6.80
   4  -5   2   85.49    7.50
   4  -5   2   85.39    5.50
   4   5   2   83.39    6.40
   4   5   2   76.39    6.10
   5  -5   2   46.40    4.00
  -5  -5  -2   54.49    7.60
   5  -5   2   53.79    5.60
  -5  -5  -2   50.59    6.00
   5   5   2   78.39    8.70
   5   5   2   46.70    5.70
   5   5   2   54.49    5.70
   6  -5   2    9.80    4.70
  -6  -5  -2   25.50    7.70
   6  -5   2   14.20    8.80
   6  -5   2   12.60    2.80
   6   5   2    7.20    4.70
   6   5   2   -2.10    5.70
   6   5   2    9.40    7.50
   6  -6  -2    7.10    4.30
  -6  -6   2    5.50    7.00
   6  -6  -2    7.30    7.00
   6   6  -2   19.60    7.70
   6   6  -2   19.30    5.40
   6   6  -2   13.50    7.30
   5  -6  -2   10.90    1.80
   5  -6  -2   11.30    2.90
   5  -6  -2    5.80    4.60
  -5  -6   2   12.00    5.80
   5   6  -2    8.90    6.00
   5   6  -2   13.90    4.60
  -4  -6   2    5.30    4.50
   4  -6  -2    8.70    1.40
  -4  -6   2   10.00    2.70
   4  -6  -2    9.00    4.10
   4   6  -2   11.20    2.90
   4   6  -2   13.30    5.50
   4   6  -2   12.40    3.40
   3  -6  -2  115.39    5.60
  -3  -6   2  102.39    8.60
  -3  -6   2  113.09    6.70
   3   6  -2  120.79    8.60
   3   6  -2  113.39    6.90
   3   6  -2  114.39    7.10
   2  -6  -2  204.68   12.40
  -2  -6   2  214.48   12.20
  -2  -6   2  221.78   10.90
   2   6  -2  216.68   11.00
   2   6  -2  214.38   10.90
   2   6  -2  213.28   12.50
   1  -6  -2  205.88    9.80
  -1  -6   2  198.28   10.10
  -1  -6   2  189.78   11.30
   1  -6  -2  197.68   11.60
   1   6  -2  194.98   11.40
  -1   6   2  219.58    9.60
   1   6  -2  200.78   10.10
  -1   6   2  207.38   11.60
   1   6  -2  203.78   10.10
   0  -6   2   50.99    3.30
   0  -6   2   47.70    3.80
   0  -6  -2   57.19    4.00
   0  -6  -2   47.60    5.30
   0   6  -2   53.69    3.40
   0   6   2   54.79    5.10
   0   6   2   57.89    3.70
   0   6  -2   57.89    3.60
   0   6  -2   50.89    3.80
   1  -6   2  632.84   34.70
  -1  -6  -2  656.33   35.40
  -1  -6  -2  655.43   31.60
   1  -6   2  687.23   31.20
   1   6   2  662.73   35.40
   1   6   2  685.23   31.60
  -1   6  -2  737.13   31.10
  -1   6  -2  687.13   31.10
   2  -6   2 2791.02  117.79
  -2  -6  -2 2556.94  132.09
   2  -6   2 2482.65  131.49
  -2  -6  -2 2398.86  118.39
   2   6   2 2621.54  118.39
   2   6   2 2587.14  132.09
   2   6   2 2628.94  118.39
   3  -6   2   25.20    2.70
  -3  -6  -2   28.40    4.80
  -3  -6  -2   25.50    3.50
   3  -6   2   27.80    3.50
   3   6   2   28.60    3.50
   3   6   2   29.10    4.90
   3   6   2   27.80    3.30
  -4  -6  -2   29.50    5.90
   4  -6   2   19.40    3.10
   4  -6   2   28.90    4.80
  -4  -6  -2   30.70    4.10
   4   6   2   29.00    4.20
   4   6   2   22.50    5.90
   4   6   2   28.40    4.00
   5  -6   2    4.60    3.40
  -5  -6  -2   11.40    4.10
  -5  -6  -2   19.00    6.30
   5  -6   2    6.00    1.90
   5   6   2   18.80    6.20
   5   6   2    6.70    3.80
   5   6   2    5.80    4.30
  -6  -6  -2   16.00    7.80
   6  -6   2    9.20    2.60
   6  -6   2   -5.80    5.00
   6  -6   2   18.80    9.30
   6   6   2   -2.30    6.00
   6   6   2   -6.20    6.20
   6   6   2   16.50    7.70
   6  -7  -2    5.10    2.30
   6  -7  -2    4.40    8.60
  -6  -7   2   -2.20    7.20
   6   7  -2    8.90    6.20
   6   7  -2    3.20    7.20
   6   7  -2    8.30    5.00
   5  -7  -2   19.50    2.90
   5  -7  -2   24.70    5.60
  -5  -7   2   25.60    5.60
   5  -7  -2   18.70    2.20
   5   7  -2   25.10    5.90
   5   7  -2   12.40    4.00
   5   7  -2   12.40    6.30
  -4  -7   2  109.99    7.50
   4   7  -2   99.39    7.20
   4   7  -2  108.19    7.60
  -3  -7   2   25.00    4.00
   3  -7  -2   16.50    1.70
   3  -7  -2   16.00    3.70
  -3  -7   2   17.70    2.90
   3   7  -2   17.00    3.10
   3   7  -2   13.70    2.80
   3   7  -2   16.50    4.80
   2  -7  -2    2.40    1.40
   2  -7  -2   -2.70    2.50
  -2  -7   2    1.30    2.00
  -2  -7   2    3.80    3.20
   2   7  -2    1.50    1.90
   2   7  -2   -0.90    1.70
   2   7  -2    1.40    3.00
  -1  -7   2  373.96   18.20
   1  -7  -2  362.86   20.50
  -1  -7   2  364.96   20.20
   1  -7  -2  397.96   18.00
  -1   7   2  383.86   17.80
   1   7  -2  389.86   18.20
   1   7  -2  380.16   18.30
   1   7  -2  367.06   20.30
  -1   7   2  384.16   20.50
  -1   7   2  407.66   17.80
   0  -7   2  293.67   14.00
   0  -7  -2  279.47   16.20
   0  -7   2  272.77   15.50
   0  -7  -2  294.97   14.20
   0   7   2  289.37   16.20
   0   7   2  301.17   14.10
   0   7  -2  299.67   14.00
   0   7  -2  282.37   15.50
   0   7   2  305.87   14.10
   0   7  -2  313.27   14.00
   1  -7   2  518.25   28.50
   1  -7   2  564.44   25.70
  -1  -7  -2  536.25   29.30
  -1  -7  -2  551.84   26.10
   1   7   2  556.34   26.00
   1   7   2  543.95   29.30
  -1   7  -2  590.74   25.50
  -1   7  -2  560.24   25.60
   1   7   2  551.04   26.10
   2  -7   2  910.41   47.70
  -2  -7  -2  903.71   43.40
  -2  -7  -2  896.21   48.40
   2  -7   2  926.81   47.80
   2  -7   2  979.80   42.70
   2   7   2  941.51   43.40
   2   7   2  927.91   48.60
   2   7   2  942.21   43.40
   3  -7   2    8.80    2.90
  -3  -7  -2    4.90    2.90
   3  -7   2    4.40    1.50
  -3  -7  -2    5.00    4.60
   3   7   2    5.60    4.50
   3   7   2    5.30    2.70
   3   7   2    7.00    2.80
   4  -7   2   21.20    4.70
   4  -7   2   22.00    2.70
  -4  -7  -2   21.60    6.00
  -4  -7  -2   24.90    4.20
   4   7   2   19.00    4.60
   4   7   2   21.00    6.20
   4   7   2   27.00    4.20
   5  -7   2   11.80    3.50
   5  -7   2   14.60    2.10
  -5  -7  -2   21.20    7.00
  -5  -7  -2   21.20    4.70
   5   7   2   22.00    4.90
   5   7   2   13.10    5.10
   5   7   2   33.50    6.50
  -6  -7  -2   33.50    8.70
   6  -7   2   11.90    2.60
   6  -7   2   12.30    9.60
   6   7   2    6.00    5.50
   6   7   2   11.00    7.10
   6   7   2   14.00    7.80
   6  -8  -2    9.70    3.50
  -6  -8   2   16.40    7.30
   6  -8  -2   10.30    8.30
   6  -8  -2    2.40    2.30
   6   8  -2    8.80    6.70
   6   8  -2   13.10    7.60
   6   8  -2    9.00    5.70
   5  -8  -2   15.60    2.40
  -5  -8   2   19.60    5.80
   5   8  -2   11.60    5.80
   5   8  -2   25.40    6.30
  -4  -8   2   60.29    5.70
  -4  -8   2   55.29    8.30
   4   8  -2   64.89    6.30
   4   8  -2   63.89    8.90
   4   8  -2   62.69    5.90
  -3  -8   2   29.00    4.50
   3  -8  -2   25.60    2.20
  -3  -8   2   29.40    3.50
   3  -8  -2   23.20    4.70
   3   8  -2   32.70    4.30
   3   8  -2   24.50    3.30
   3   8  -2   15.70    4.70
  -2  -8   2  130.79    9.00
   2  -8  -2  147.79    7.20
   2  -8  -2  138.59    9.10
  -2  -8   2  149.49    8.00
   2   8  -2  133.69    9.10
   2   8  -2  148.19    8.00
   2   8  -2  145.19    7.90
  -1  -8   2  136.89    7.70
   1  -8  -2  149.99    7.40
   1  -8  -2  135.49    8.90
  -1  -8   2  128.99    8.60
   1   8  -2  132.19    8.80
   1   8  -2  141.69    7.70
  -1   8   2  137.39    8.70
  -1   8   2  147.09    7.00
   1   8  -2  144.99    7.50
  -1   8   2  152.18    7.00
   0  -8  -2   16.60    2.60
   0  -8  -2   20.60    3.40
   0  -8   2   11.20    2.50
   0  -8   2   10.10    2.00
   0   8  -2   12.30    2.00
   0   8   2   16.00    2.10
   0   8   2   15.60    2.10
   0   8  -2   12.90    1.80
   0   8   2   12.40    3.30
   0   8  -2   13.20    2.40
   1  -8   2   20.60    2.70
  -1  -8  -2   16.70    3.80
  -1  -8  -2   17.40    3.00
   1  -8   2   19.80    2.20
  -1   8  -2   17.70    1.80
   1   8   2   18.30    2.40
  -1   8  -2   19.40    1.80
   1   8   2   18.00    3.90
   1   8   2   22.30    3.00
   2  -8   2   82.09    5.90
  -2  -8  -2   78.59    7.50
   2  -8   2   83.99    4.40
  -2  -8  -2   79.59    5.80
   2   8   2   87.89    7.80
   2   8   2   72.29    5.60
   2   8   2   75.79    5.70
   3  -8   2   12.00    4.30
   3  -8   2   14.80    1.90
   3  -8   2   23.00    3.80
  -3  -8  -2   21.10    5.50
  -3  -8  -2   28.20    3.80
   3   8   2   22.50    3.70
   3   8   2   21.80    3.60
   4  -8   2    7.20    4.50
   4  -8   2    2.90    1.90
  -4  -8  -2   16.60    5.90
  -4  -8  -2    3.50    4.60
   4   8   2    5.90    5.70
   4   8   2    2.50    3.70
   4   8   2    2.90    4.40
  -5  -8  -2    3.30    4.60
   5  -8   2    5.60    1.80
   5  -8   2   -5.70    6.20
  -5  -8  -2    5.60    6.80
   5  -8   2    1.70    2.80
   5   8   2   14.30    6.70
   5   8   2    3.30    5.00
   5   8   2    2.90    5.80
   6  -8   2    1.30    2.50
   6  -8   2   13.20   10.30
   6  -8   2    5.30    4.50
   6   8   2    7.70    6.30
   6   8   2    2.40    7.40
   6  -9  -2    4.50    8.30
  -6  -9   2   23.60    7.70
   6   9  -2    0.60    8.40
   6   9  -2   15.80    8.10
   6   9  -2   -9.60    8.50
   5  -9  -2    4.80    5.80
   5  -9  -2   -0.30    7.50
  -5  -9   2   -0.30    5.80
   5   9  -2    8.00    6.80
   5   9  -2    5.40    5.10
   4  -9  -2   32.00    6.60
  -4  -9   2   50.09    6.90
   4  -9  -2   25.10    5.80
  -4  -9   2   38.20    4.60
   4   9  -2   22.80    6.50
   4   9  -2   35.20    4.50
   4   9  -2   34.40    4.70
  -3  -9   2   -1.40    4.80
   3  -9  -2   -1.70    3.80
  -3  -9   2    5.60    3.00
   3  -9  -2    4.40    1.50
   3   9  -2    2.10    2.70
   3   9  -2    4.80    4.80
   3   9  -2   -0.20    3.60
  -2  -9   2    0.60    3.20
   2  -9  -2    2.70    1.60
   2  -9  -2   -0.20    3.00
  -2  -9   2    4.00    2.20
   2   9  -2    1.00    4.10
   2   9  -2    2.90    2.10
   2   9  -2    5.30    2.20
   1  -9  -2  723.43   39.70
  -1  -9   2  705.63   39.40
  -1  -9   2  751.72   35.50
   1  -9  -2  798.12   35.30
   1   9  -2  788.12   35.50
   1   9  -2  718.43   39.40
   1   9  -2  754.32   35.50
  -1   9   2  811.22   35.00
  -1   9   2  770.82   35.00
  -1   9   2  754.82   39.70
   0  -9   2  167.78    8.40
   0  -9   2  155.48    9.50
   0  -9  -2  149.99   10.20
   0  -9  -2  170.58    8.80
   0   9   2  164.58    8.50
   0   9  -2  166.68    8.40
   0   9   2  161.68    8.40
   0   9  -2  159.48    9.40
   0   9   2  154.58   10.30
   0   9  -2  174.38    8.30
   1  -9   2   27.90    3.10
  -1  -9  -2   30.10    4.40
   1  -9   2   29.50    2.60
  -1  -9  -2   30.60    3.50
   1   9   2   32.20    4.50
   1   9   2   29.40    3.30
  -1   9  -2   27.60    2.20
   1   9   2   29.50    3.40
  -1   9  -2   30.40    2.40
  -2  -9  -2   34.00    5.30
   2  -9   2   28.50    2.60
   2  -9   2   24.20    3.30
  -2  -9  -2   28.30    3.60
   2   9   2   28.90    3.50
   2   9   2   30.20    5.20
   2   9   2   24.90    3.20
   3  -9   2  267.87   14.90
   3  -9   2  261.77   15.40
  -3  -9  -2  263.27   14.50
   3  -9   2  262.17   12.50
   3   9   2  265.27   14.10
   3   9   2  252.47   13.90
   3   9   2  264.87   16.60
  -4  -9  -2    9.60    4.20
  -4  -9  -2    2.80    6.10
   4  -9   2    5.90    1.70
   4  -9   2    1.40    4.60
   4   9   2    4.80    6.10
   4   9   2    4.00    4.00
   4   9   2    4.40    4.20
  -5  -9  -2    6.60    7.20
   5  -9   2    1.00    6.60
   5  -9   2    1.90    1.70
  -5  -9  -2    2.10    5.20
   5  -9   2    2.60    2.60
   5   9   2    9.20    6.80
   5   9   2    2.50    6.20
   5   9   2    7.30    5.40
   6  10  -2    4.40    7.60
   5 -10  -2   13.40    6.70
  -5 -10   2   15.50    6.70
   5 -10  -2    8.40    7.40
   5  10  -2   14.30    7.80
   5  10  -2   16.90    5.50
  -4 -10   2    2.80    5.70
   4 -10  -2    3.40    5.40
  -4 -10   2   13.00    4.50
   4 -10  -2    9.90    4.80
   4  10  -2   11.90    6.40
   4  10  -2   11.60    3.90
   4  10  -2   11.80    4.40
   3 -10  -2    9.40    4.60
  -3 -10   2    7.60    4.80
  -3 -10   2   15.50    3.50
   3 -10  -2   12.20    1.80
   3  10  -2   10.50    3.40
   3  10  -2    4.50    5.30
   3  10  -2   11.80    3.30
   2 -10  -2    1.00    1.60
  -2 -10   2    0.30    2.40
  -2 -10   2    1.50    3.50
   2 -10  -2    1.30    3.30
   2  10  -2   -1.80    2.40
   2  10  -2   -2.30    4.60
   2  10  -2    4.40    2.20
   1 -10  -2  207.78   13.10
   1 -10  -2  233.18   11.30
  -1 -10   2  208.38   12.90
  -1 -10   2  223.38   11.40
   1  10  -2  207.28   13.00
  -1  10   2  229.48   10.80
   1  10  -2  219.38   11.30
  -1  10   2  238.78   10.70
  -1  10   2  225.78   13.20
   0 -10  -2    7.20    2.60
   0 -10  -2   10.90    3.70
   0 -10   2    8.80    2.80
   0 -10   2    9.50    2.30
   0  10   2    9.80    1.90
   0  10  -2   10.90    3.00
   0  10   2    7.70    3.40
   0  10  -2    8.80    1.90
   0  10  -2    6.60    1.90
   0  10   2    7.50    2.20
  -1 -10  -2   66.09    6.90
  -1 -10  -2   74.79    5.80
   1 -10   2   71.19    4.50
   1 -10   2   59.99    5.70
   1  10   2   72.69    5.10
   1  10   2   71.99    4.70
  -1  10  -2   77.39    4.00
  -1  10  -2   74.19    4.00
   1  10   2   74.49    7.30
  -2 -10  -2  651.83   35.10
   2 -10   2  628.24   34.20
   2 -10   2  676.83   30.30
  -2 -10  -2  636.24   31.30
   2  10   2  660.33   35.30
   2  10   2  654.23   31.20
   2  10   2  660.83   31.10
  -3 -10  -2   36.20    4.70
   3 -10   2   36.00    5.00
   3 -10   2   35.40    2.80
  -3 -10  -2   24.80    6.20
   3 -10   2   34.50    4.90
   3  10   2   33.10    6.70
   3  10   2   28.20    4.20
   3  10   2   33.30    5.40
   4 -10   2    4.10    4.80
  -4 -10  -2    2.70    6.40
   4 -10   2    2.50    1.40
  -4 -10  -2    4.80    4.30
   4 -10   2   14.00    6.00
   4  10   2    1.20    4.40
   4  10   2    6.70    6.50
   4  10   2    7.40    4.10
   5 -10   2    5.80    7.50
  -5 -10  -2   36.20    8.10
  -5 -10  -2   10.50    7.10
   5 -10   2   10.10    9.20
   5  10   2    6.60    5.80
   5  10   2   10.20    7.10
   5  10   2   11.80    7.60
   5 -11  -2    3.60    8.00
  -5 -11   2    9.80    7.30
   5 -11  -2   -6.70    7.80
   5  11  -2   14.90    8.50
   5  11  -2    0.40    5.50
  -4 -11   2   19.40    6.10
   4 -11  -2   14.50    5.20
   4 -11  -2    6.40    6.20
   4  11  -2   16.90    4.50
   4  11  -2   28.20    7.00
   4  11  -2   20.40    5.50
  -3 -11   2   31.80    4.40
   3 -11  -2   30.80    2.70
   3  11  -2   29.30    4.30
   3  11  -2   25.70    4.10
  -2 -11   2    0.70    4.50
   2 -11  -2   -2.60    4.00
  -2 -11   2   -3.10    2.70
   2 -11  -2    1.30    2.10
   2  11  -2    1.50    2.60
   2  11  -2    0.10    5.20
   2  11  -2    2.10    3.10
   1 -11  -2   10.30    2.50
   1 -11  -2   10.50    3.80
  -1 -11   2    9.70    2.60
  -1 -11   2   11.60    3.90
  -1  11   2   10.20    1.80
  -1  11   2   13.90    3.80
   1  11  -2   10.20    4.10
  -1  11   2   10.10    1.80
   1  11  -2    8.90    2.50
   0 -11  -2   31.80    4.20
   0 -11   2   29.90    4.20
   0 -11   2   30.90    3.90
   0 -11  -2   35.80    4.80
   0  11   2   28.00    3.00
   0  11   2   38.10    4.70
   0  11  -2   32.80    3.10
   0  11  -2   26.80    3.20
   0  11  -2   35.80    3.90
   0  11   2   27.60    3.60
  -1 -11  -2   67.79    7.30
   1 -11   2   69.19    4.60
   1 -11   2   62.49    6.30
  -1 -11  -2   70.39    5.40
  -1  11  -2   65.49    3.90
   1  11   2   62.59    5.70
  -1  11  -2   73.39    4.00
   1  11   2   77.29    7.40
   1  11   2   69.89    5.10
   2 -11   2  367.26   17.10
  -2 -11  -2  354.56   18.20
   2 -11   2  341.47   19.50
   2  11   2  360.46   18.20
   2  11   2  364.36   17.90
  -3 -11  -2   88.69    7.50
   3 -11   2   87.49    8.00
   3 -11   2   88.19    8.10
   3 -11   2   88.29    5.00
  -3 -11  -2   92.49   10.00
   3  11   2   99.59   10.00
   3  11   2   89.89    7.50
   3  11   2   81.59    6.80
  -4 -11  -2   11.90    6.60
   4 -11   2   22.60    7.40
  -4 -11  -2    7.80    4.80
   4 -11   2   11.80    5.50
   4  11   2   21.20    7.20
   4  11   2    8.50    5.40
   4  11   2   11.60    4.80
  -5 -11  -2   18.10    6.70
   5 -11   2   16.30    9.90
   5 -11   2   13.20    8.30
  -5 -11  -2    1.40    8.50
   5  11   2    6.90    7.70
   5  11   2   35.10    8.50
   5 -12  -2    9.30    9.20
   5 -12  -2   -1.50    7.60
  -5 -12   2    4.80    8.50
   5  12  -2    9.90    6.40
   5  12  -2   -8.80    9.00
   4 -12  -2   -1.10    6.80
  -4 -12   2    8.10    7.60
   4 -12  -2    4.30    6.00
   4  12  -2    1.50    7.60
   4  12  -2    9.90    4.50
   3 -12  -2   57.09    3.60
   3 -12  -2   38.70    7.00
  -3 -12   2   46.80    6.10
  -3 -12   2   61.09    7.50
   3  12  -2   61.79    6.30
   3  12  -2   62.09    8.50
   2 -12  -2   12.60    2.50
  -2 -12   2   13.30    4.60
   2 -12  -2   14.70    4.80
  -2 -12   2   12.10    3.40
   2  12  -2   17.60    3.80
   2  12  -2   11.90    5.30
  -1 -12   2   20.90    3.50
  -1 -12   2   20.80    4.60
   1 -12  -2   22.00    4.50
  -1  12   2   20.00    2.30
   1  12  -2   18.40    3.00
  -1  12   2   15.70    3.80
   1  12  -2   16.60    4.80
   0 -12  -2   17.10    3.40
   0 -12   2   17.30    3.20
   0 -12   2   17.00    3.90
   0 -12  -2   22.10    4.80
   0  12  -2   15.00    2.40
   0  12   2   15.30    4.10
   0  12  -2   20.90    3.60
   0  12   2   16.50    2.70
  -1 -12  -2   35.00    4.40
   1 -12   2   34.30    3.80
   1 -12   2   29.50    4.20
  -1  12  -2   30.90    2.80
  -2 -12  -2  107.49    9.90
   2 -12   2  108.29    6.10
  -2 -12  -2  115.19    8.50
   2 -12   2   84.59    8.60
   2  12   2  110.89    9.80
   2  12   2  107.79    7.50
   3 -12   2   16.40    4.90
  -3 -12  -2   18.60    6.40
   3 -12   2   10.40    2.00
  -3 -12  -2   14.70    4.70
   3 -12   2    5.60    5.00
   3  12   2   10.10    4.20
   3  12   2   14.40    5.90
   4 -12   2   12.40    7.80
   4 -12   2   23.80    6.40
  -4 -12  -2   30.20    7.80
  -4 -12  -2   16.10    6.60
   4  12   2   27.50    5.70
   4  12   2   24.10    5.60
   4  12   2   19.40    7.70
   5 -12   2    2.20   10.10
   5 -12   2   20.50    9.30
   5  12   2   23.60    9.10
   5  12   2   32.10    9.20
   5 -13  -2   10.70   10.30
  -5 -13   2   26.90   10.00
   5 -13  -2    8.50   10.80
   5  13  -2   16.30   11.20
   5  13  -2    9.90    7.00
   4 -13  -2   -3.00    7.30
  -4 -13   2   12.10    7.40
   4  13  -2    6.30    4.90
   4  13  -2   13.10    9.00
   4  13  -2    4.70    4.80
  -3 -13   2   28.80    5.00
   3 -13  -2   24.10    7.30
  -3 -13   2   42.40    6.80
   3 -13  -2   33.90    3.00
   3  13  -2   35.40    4.60
   3  13  -2   28.70    8.60
   3  13  -2   36.70    5.70
  -2 -13   2   20.70    5.20
   2 -13  -2   20.00    5.20
   2 -13  -2   22.40    2.90
  -2 -13   2   19.80    4.00
   2  13  -2   19.50    4.20
   2  13  -2   22.40    3.60
   2  13  -2   15.70    5.90
   1 -13  -2    6.40    2.70
  -1 -13   2    8.50    4.90
  -1 -13   2    8.10    3.00
   1  13  -2    6.90    2.50
   1  13  -2   13.60    5.00
  -1  13   2    3.70    1.50
  -1  13   2    7.90    1.90
   1  13  -2    5.60    2.50
   0 -13  -2    8.10    2.60
   0 -13   2    7.20    2.70
   0 -13   2   13.10    4.30
   0  13  -2    5.30    2.20
   0  13  -2    6.40    2.30
   0  13   2    8.30    2.10
   0  13   2   10.50    3.00
   0  13  -2    9.70    3.80
  -1 -13  -2  113.39    9.90
   1 -13   2  117.39    7.20
  -1 -13  -2  128.59    8.50
   1 -13   2  101.09    9.40
  -1  13  -2  110.79    6.00
  -1  13  -2  115.99    6.10
   1  13   2  131.09   10.80
   1  13   2  115.39    6.90
   2 -13   2    9.00    2.60
  -2 -13  -2    9.90    5.70
   2 -13   2    1.10    4.20
   2  13   2    9.60    4.30
   2  13   2    5.20    3.20
   2  13   2    5.50    5.20
   3 -13   2    6.50    5.30
   3 -13   2    0.80    2.00
   3 -13   2   -1.20    5.40
  -3 -13  -2   12.20    6.10
   3  13   2    1.60    6.10
   3  13   2    4.20    3.60
   3  13   2    2.30    5.30
  -4 -13  -2   26.30    7.90
  -4 -13  -2   11.40    6.00
   4 -13   2    6.30    7.90
   4  13   2    2.50    7.30
   4  13   2    1.70    5.20
   4  13   2    5.70    5.80
  -4 -14   2   -2.60    8.30
   4 -14  -2    7.50    8.20
   4  14  -2   28.70   10.50
   4  14  -2    7.80    7.30
   4  14  -2    4.10    5.20
   3 -14  -2   25.70    2.80
  -3 -14   2   26.00    7.00
  -3 -14   2   18.50    6.00
   3 -14  -2   10.80    7.50
   3  14  -2   12.40    9.00
   3  14  -2   30.50    4.50
   3  14  -2   28.80    5.80
   2 -14  -2    1.50    2.40
   2 -14  -2    8.90    6.30
  -2 -14   2    9.10    3.90
   2  14  -2    3.50    3.90
   2  14  -2    2.30    2.50
  -1 -14   2   33.90    6.10
   1 -14  -2   27.10    5.70
   1 -14  -2   33.40    4.20
  -1 -14   2   39.70    4.70
  -1  14   2   38.20    5.50
  -1  14   2   33.00    2.80
   1  14  -2   40.90    6.00
   1  14  -2   29.80    4.10
   1  14  -2   25.70    3.30
  -1  14   2   32.30    3.40
   0 -14  -2    5.00    3.10
   0 -14  -2   -0.20    5.10
   0 -14   2   -1.40    5.10
   0 -14   2    3.10    3.30
   0  14  -2    0.20    2.70
   0  14   2    7.60    2.10
   0  14   2   -0.30    3.00
   0  14  -2    5.90    3.90
   0  14  -2    0.80    1.80
   0  14   2   -1.80    4.30
   1 -14   2   48.20    5.70
   1 -14   2   50.29    5.80
  -1 -14  -2   53.89    6.60
  -1 -14  -2   43.50    5.10
  -1  14  -2   47.80    3.20
   1  14   2   47.80    5.20
   1  14   2   43.30    4.60
  -1  14  -2   47.40    3.40
   1  14   2   52.89    7.50
   2 -14   2   -0.90    5.30
  -2 -14  -2   21.10    6.20
   2 -14   2    7.40    2.80
  -2 -14  -2   12.20    5.10
   2  14   2    4.50    5.70
   2  14   2    6.20    2.90
   2  14   2   12.90    4.10
  -3 -14  -2   12.70    6.70
   3 -14   2    2.40    6.60
  -3 -14  -2   10.40    6.40
   3 -14   2    4.60    5.50
   3  14   2   -0.10    3.70
   3  14   2   18.00    6.60
   3  14   2    8.70    4.90
  -4 -14  -2   28.30    8.30
   4 -14   2   17.80    8.00
  -4 -14  -2   25.00    7.30
   4  14   2   29.70    7.30
   4  14   2   21.90    7.50
   4  14   2   39.70    8.10
   4 -15  -2   10.80    9.80
  -4 -15   2   19.60    9.80
   4  15  -2   17.70    6.20
   4  15  -2   20.20   11.50
  -3 -15   2   -0.70    7.40
   3 -15  -2    4.00    7.20
   3  15  -2    6.80    4.80
   3  15  -2   11.30    9.70
   3  15  -2    7.40    4.90
   2 -15  -2    8.90    6.40
  -2 -15   2   11.90    6.10
  -2 -15   2   11.20    5.10
   2 -15  -2   12.00    2.70
   2  15  -2   16.30    3.80
   2  15  -2   13.90    3.50
   2  15  -2   18.30    7.60
  -1 -15   2   17.90    6.40
  -1 -15   2   15.00    4.50
   1 -15  -2    8.30    6.10
   1 -15  -2   17.40    3.00
   1  15  -2   12.80    2.30
  -1  15   2   16.50    4.60
  -1  15   2   16.60    2.00
  -1  15   2   14.40    2.30
   1  15  -2   11.00    3.60
   1  15  -2   12.70    6.10
   0 -15  -2   12.00    3.50
   0 -15   2   12.30    4.00
   0 -15  -2   23.50    6.00
   0 -15   2   14.70    5.50
   0  15  -2   13.70    2.30
   0  15  -2   15.20    4.50
   0  15   2   16.60    3.70
   0  15  -2   12.30    3.20
   0  15   2   16.40    2.70
   0  15   2   10.80    4.90
  -1 -15  -2   56.59    7.50
   1 -15   2   57.69    6.50
   1 -15   2   58.69    7.00
  -1 -15  -2   60.09    5.70
   1  15   2   67.09    8.50
   1  15   2   63.39    5.00
  -1  15  -2   51.59    3.60
   1  15   2   56.49    6.60
  -1  15  -2   56.89    4.00
  -2 -15  -2   16.30    5.80
  -2 -15  -2   16.40    6.80
   2 -15   2    5.70    6.20
   2 -15   2    8.60    3.30
   2  15   2    5.50    3.00
   2  15   2   17.40    6.50
   2  15   2    7.30    5.10
   3 -15   2   -1.20    6.80
  -3 -15  -2   15.10    7.80
   3 -15   2    0.40    6.90
  -3 -15  -2    3.40    7.00
   3  15   2   14.50    7.50
   3  15   2   -1.30    4.70
   3  15   2    1.40    5.20
   3 -16  -2   10.80    8.40
  -3 -16   2   13.50    8.80
   3  16  -2   21.50   11.40
   3  16  -2    2.60    4.80
   3  16  -2   27.10    4.60
   2 -16  -2    7.60    2.90
  -2 -16   2    5.90    7.10
  -2 -16   2    7.40    5.60
   2 -16  -2    7.20    6.90
   2  16  -2   -1.90    2.80
   2  16  -2   14.60    8.70
   1 -16  -2    4.80    6.40
  -1 -16   2    4.90    4.10
  -1 -16   2   -3.30    7.30
   1 -16  -2    6.20    3.40
   1  16  -2   10.70    6.50
  -1  16   2    7.30    2.10
  -1  16   2    7.60    1.80
  -1  16   2    1.10    5.10
   1  16  -2    8.20    3.00
   1  16  -2    8.40    3.80
   0 -16   2   10.30    6.50
   0 -16   2    3.60    4.40
   0 -16  -2    5.20    6.10
   0 -16  -2   12.20    3.70
   0  16   2   11.90    2.40
   0  16  -2    5.50    3.30
   0  16  -2    6.40    2.40
   0  16   2    4.20    3.70
   0  16   2    2.50    5.40
   0  16  -2    5.80    5.10
  -1 -16  -2   23.70    6.90
   1 -16   2   20.30    4.90
   1 -16   2   22.40    7.10
  -1 -16  -2   22.20    5.30
  -1  16  -2   18.00    2.10
   1  16   2   28.60    6.40
   1  16   2   18.80    3.30
   1  16   2   16.00    4.60
   2 -16   2   -5.40    7.20
  -2 -16  -2    2.60    7.40
   2 -16   2    0.50    3.60
  -2 -16  -2   -2.90    5.90
   2  16   2    0.80    4.20
   2  16   2    4.00    7.50
   2  16   2   -2.70    3.20
  -3 -16  -2    7.20    6.80
  -3 -16  -2    4.00    8.60
   3  16   2   -0.70    6.10
   3  16   2   -5.30    8.20
   3  16   2   -4.10    7.10
  -2 -17   2    7.40    9.60
   2 -17  -2    1.60    9.30
   2 -17  -2    3.70    3.10
   2  17  -2    1.70    4.80
   2  17  -2   -7.70    3.90
   2  17  -2   -1.50   10.00
   1 -17  -2   -6.00    7.40
   1 -17  -2   -1.20    3.40
  -1 -17   2   11.40    8.30
  -1 -17   2   -0.70    5.60
   1  17  -2    0.00    4.20
  -1  17   2    1.50    1.90
   1  17  -2   -2.90    2.90
   1  17  -2   15.60    7.70
   0 -17  -2   31.60    4.80
   0 -17   2   32.50    8.60
   0 -17   2   43.70    6.00
   0 -17  -2   43.70    8.10
   0  17   2   24.00    6.90
   0  17  -2   34.60    3.90
   0  17   2   30.50    4.70
   0  17  -2   33.10    4.40
   0  17  -2   36.80    6.50
   0  17   2   32.20    3.70
  -1 -17  -2   15.10    5.40
  -1 -17  -2   17.30    7.80
   1 -17   2   12.70    5.50
   1  17   2   15.10    3.20
   1  17   2   14.80    7.50
   1  17   2   15.50    5.00
  -1  17  -2   17.40    2.00
  -1  17  -2   14.80    2.20
  -2 -17  -2   -1.50    8.90
  -2 -17  -2   -0.50    5.70
   2  17   2    2.90    8.70
   2  17   2    4.90    3.90
   1 -18  -2   11.90    8.90
   1 -18  -2    6.30    3.90
  -1 -18   2    9.30   10.00
   1  18  -2   11.00    3.30
  -1  18   2    2.90    2.10
   1  18  -2    2.80    8.50
   1  18  -2   -1.70    5.00
  -1  18   2    5.10    2.20
   0 -18   2   35.70    9.80
   0 -18  -2   17.40    8.70
   0 -18  -2   25.40    5.10
   0  18  -2   23.80    7.90
   0  18   2   23.30    3.50
   0  18  -2   29.00    4.00
   0  18   2   34.40    7.50
   0  18  -2   26.10    3.30
   0  18   2   24.20    4.80
  -1 -18  -2   22.60    5.30
  -1 -18  -2   24.80    9.40
   1 -18   2   19.80    9.80
   1  18   2   16.90    3.80
   1  18   2   36.20    9.10
   7   0  -3   12.00    8.30
   6   0  -3   57.39    4.30
   6   0  -3   58.89    6.90
   5   0  -3 1230.18   67.19
   5   0  -3 1290.27   59.89
   5   0  -3 1346.97   60.19
   4   0  -3    4.60    1.60
  -4   0   3    5.40    1.90
   4   0  -3    9.80    4.00
   3   0  -3    6.00    3.10
  -3   0   3   10.80    1.80
   3   0  -3    6.50    1.80
   2   0  -3  388.96   17.70
   2   0  -3  372.56   19.90
  -2   0   3  362.06   17.60
  -1   0   3 1258.87   57.99
   1   0  -3 1269.27   57.99
   0   0  -3   20.70    2.40
   0   0   3   17.70    2.20
   0   0   3   20.10    2.40
   0   0  -3   16.70    2.20
  -1   0  -3  128.69    6.60
   1   0   3  123.79    6.50
   1   0   3  128.09    7.30
  -1   0  -3  123.29    7.50
   2   0   3    3.20    2.20
  -2   0  -3    7.40    2.80
   2   0   3    1.60    1.70
  -3   0  -3    2.40    2.00
   3   0   3    5.90    3.10
  -3   0  -3    2.00    3.50
   4   0   3    1.10    3.40
   4   0   3    1.10    4.60
  -4   0  -3   -1.40    2.20
  -4   0  -3   -0.30    4.20
  -5   0  -3   -1.40    6.50
   5   0   3    5.10    2.60
   5   0   3   -4.90    4.50
   5   0   3   -6.80    5.20
  -5   0  -3    1.00    3.00
   6   0   3    5.10    2.80
   6   0   3   13.60    7.00
   6   0   3   20.50    7.80
  -6   0  -3   -0.70    8.10
   7  -1  -3    6.80    8.00
   7   1  -3  -10.40    8.60
   7   1  -3    1.50    4.20
   6  -1  -3   31.20    5.60
   6  -1  -3   19.00    2.50
   6   1  -3   17.40    5.20
  -5  -1   3  278.27   16.00
   5  -1  -3  255.87   13.10
   5  -1  -3  258.27   16.00
   5  -1  -3  248.48   13.70
   5   1  -3  260.17   16.20
   5   1  -3  272.87   13.50
   5   1  -3  238.08   14.00
  -4  -1   3   25.10    2.80
   4  -1  -3   25.40    2.90
  -4  -1   3   26.80    4.60
   4  -1  -3   21.60    4.30
   4   1  -3   22.20    2.50
   4   1  -3   23.10    4.70
  -4   1   3   20.70    2.60
  -3  -1   3   26.60    2.60
   3  -1  -3   21.80    2.50
   3  -1  -3   28.90    3.80
  -3  -1   3   28.10    3.70
  -3   1   3   23.70    2.40
   3   1  -3   22.10    2.50
   3   1  -3   27.90    3.80
   2  -1  -3   98.99    7.10
  -2  -1   3  112.79    6.10
   2  -1  -3  112.39    5.80
   2   1  -3  112.49    6.00
  -2   1   3  107.19    5.80
   2   1  -3  113.89    7.50
  -1  -1   3    8.90    1.60
   1  -1  -3   12.10    1.90
   1   1  -3   14.50    2.20
  -1   1   3   10.80    1.60
   1   1  -3   12.90    1.70
   0  -1   3   27.10    2.50
   0  -1  -3   23.50    3.50
   0  -1  -3   22.20    2.70
   0   1   3   25.20    2.50
   0   1  -3   22.20    2.40
   0   1   3   26.80    2.70
   0   1  -3   21.70    2.60
  -1  -1  -3  120.59    6.40
  -1  -1  -3  111.19    7.10
   1  -1   3  108.09    6.00
   1  -1   3  116.69    6.50
   1   1   3  127.19    6.40
   1   1   3  108.29    6.90
  -1   1  -3  112.69    6.60
  -2  -1  -3   97.19    7.00
   2  -1   3  103.19    6.40
  -2  -1  -3   91.49    5.60
   2  -1   3  102.29    5.80
  -2   1  -3  101.99    5.50
  -2   1  -3  102.09    6.70
   2   1   3   92.69    5.60
   2   1   3  105.19    7.00
  -3  -1  -3   19.70    4.10
   3  -1   3   21.10    2.90
   3  -1   3   18.30    3.50
   3   1   3   16.30    3.70
  -3   1  -3   17.60    2.30
   3   1   3   17.60    2.60
  -3   1  -3   16.30    3.60
   4  -1   3    2.40    3.80
  -4  -1  -3    5.90    5.30
   4  -1   3    8.70    3.30
  -4  -1  -3    5.80    2.90
  -4   1  -3   -2.20    4.10
   4   1   3    1.10    2.60
   4   1   3   -0.90    4.50
  -4   1  -3    3.60    2.50
   5  -1   3   12.30    6.20
   5  -1   3    5.30    2.60
  -5  -1  -3    6.40    6.70
   5  -1   3    8.20    4.70
  -5  -1  -3    7.30    3.40
  -5   1  -3   10.10    6.00
   5   1   3    5.00    6.10
   5   1   3   11.50    2.50
   5   1   3    1.70    4.90
  -6  -1  -3   10.70    8.40
   6  -1   3   14.30    7.70
   6  -1   3   -3.70    6.30
   6   1   3   -1.80    7.10
  -6   1  -3    8.70    8.30
   6   1   3    6.70    7.80
   7  -2  -3   11.20    7.60
   7   2  -3    5.40    9.40
   7   2  -3   11.80    3.90
   6  -2  -3   26.50    3.60
   6  -2  -3   29.00    5.40
   6   2  -3   35.60    6.80
   6   2  -3   28.30    4.00
   5  -2  -3   72.79    6.10
   5  -2  -3   74.39    5.00
  -5  -2   3   72.19    8.40
   5   2  -3   86.69    8.60
   5   2  -3   70.49    6.40
   5   2  -3   77.09    5.50
  -4  -2   3  117.89    6.80
   4  -2  -3  125.89    8.80
   4  -2  -3  126.69    6.60
  -4  -2   3  123.69    9.00
   4   2  -3  128.79    7.60
   4   2  -3  115.99    6.90
  -4   2   3  112.39    6.30
   4   2  -3  111.29    9.20
  -3  -2   3  118.89    6.80
   3  -2  -3  121.99    6.50
   3  -2  -3  132.49    8.40
  -3  -2   3  124.59    8.30
   3   2  -3  132.99    6.90
  -3   2   3  135.49    6.60
   3   2  -3  122.19    8.40
  -2  -2   3  480.75   24.50
  -2  -2   3  479.45   21.90
   2  -2  -3  427.36   21.60
  -2   2   3  446.06   21.60
   2   2  -3  472.85   21.80
   2   2  -3  479.95   24.40
  -1  -2   3   49.30    3.20
   1  -2  -3   44.70    2.90
   1  -2  -3   42.50    4.10
   1   2  -3   43.60    3.10
   1   2  -3   42.10    3.70
  -1   2   3   43.10    2.90
   0  -2   3   24.50    2.70
   0  -2  -3   27.20    2.90
   0  -2  -3   20.80    2.60
   0   2   3   24.80    2.70
   0   2  -3   20.30    2.00
   0   2   3   25.30    2.80
   0   2  -3   24.70    2.70
  -1  -2  -3  441.96   23.40
   1  -2   3  437.66   22.90
  -1  -2  -3  452.85   21.00
  -1   2  -3  432.66   22.90
   1   2   3  459.95   21.00
   1   2   3  451.95   23.50
   2  -2   3   26.60    2.90
  -2  -2  -3   31.80    3.60
   2  -2   3   27.80    2.90
  -2  -2  -3   23.80    3.00
  -2   2  -3   23.90    2.50
   2   2   3   22.40    2.90
   2   2   3   28.60    3.40
  -2   2  -3   25.90    3.80
  -3  -2  -3    0.40    3.30
   3  -2   3    4.50    2.40
  -3  -2  -3    0.10    1.90
   3  -2   3   -3.60    2.20
  -3   2  -3   -1.00    3.10
   3   2   3    1.70    2.20
   3   2   3   -0.90    3.00
  -3   2  -3   -1.20    1.80
  -4  -2  -3   30.30    3.80
   4  -2   3   28.10    3.90
  -4  -2  -3   35.90    6.10
   4  -2   3   32.00    4.60
  -4   2  -3   30.40    3.50
   4   2   3   33.10    5.00
   4   2   3   32.80    4.30
  -4   2  -3   25.20    5.30
  -5  -2  -3    4.30    3.10
   5  -2   3   10.20    4.40
  -5  -2  -3   12.80    6.00
   5   2   3    9.80    2.70
   5   2   3    4.80    5.50
   5   2   3    7.30    4.70
   6  -2   3   19.40    7.80
   6  -2   3    1.70    6.30
   6  -2   3    7.40    3.10
   6   2   3    1.10    3.10
   6   2   3    5.60    9.40
  -6   2  -3   -8.40    8.00
   6  -3  -3   17.40    3.10
   6  -3  -3   31.00    5.10
   6   3  -3   22.20    5.60
   5  -3  -3   32.30    3.60
   5  -3  -3   35.30    4.00
  -5  -3   3   32.10    3.90
  -5  -3   3   29.60    6.10
   5   3  -3   37.00    4.50
   5   3  -3   20.70    6.10
   5   3  -3   45.40    5.00
   4  -3  -3    9.00    1.80
   4  -3  -3    7.90    4.10
  -4  -3   3   13.20    2.30
  -4  -3   3   11.80    4.30
   4   3  -3    9.00    2.70
   4   3  -3   12.40    2.80
   4   3  -3   14.90    4.60
  -3  -3   3   18.70    2.40
  -3  -3   3   20.80    3.90
   3  -3  -3   24.20    2.50
   3  -3  -3   22.40    3.70
  -3   3   3   19.50    2.00
   3   3  -3   22.20    3.80
   3   3  -3   18.50    2.50
  -2  -3   3  426.46   22.50
  -2  -3   3  428.96   20.30
   2  -3  -3  454.15   20.00
   2   3  -3  420.86   20.20
   2   3  -3  420.76   22.70
  -2   3   3  409.86   19.90
  -1  -3   3   28.40    3.30
   1  -3  -3   30.70    3.90
  -1  -3   3   32.40    2.70
   1  -3  -3   32.50    2.70
   1   3  -3   27.70    3.30
   1   3  -3   31.20    2.70
  -1   3   3   29.30    2.30
   0  -3   3   12.10    1.90
   0  -3  -3   12.00    2.00
   0  -3  -3   10.40    2.60
   0   3   3   11.90    1.80
   0   3  -3    8.60    1.80
   0   3   3   10.30    2.50
  -1  -3  -3  113.49    6.30
  -1  -3  -3  117.69    7.90
   1  -3   3   99.89    6.10
   1  -3   3  119.39    6.00
   1   3   3  118.39    7.50
   1   3   3  109.49    6.20
  -1   3  -3  124.69    6.00
   2  -3   3   21.10    3.10
  -2  -3  -3   25.30    3.20
  -2  -3  -3   38.20    4.30
   2  -3   3   32.10    2.90
  -2   3  -3   26.50    2.40
   2   3   3   29.80    3.60
  -2   3  -3   25.40    3.40
   2   3   3   32.10    4.60
   3  -3   3   85.39    6.30
  -3  -3  -3   84.49    7.40
  -3  -3  -3   90.69    6.10
   3  -3   3   84.29    5.40
   3   3   3   95.59    7.80
  -3   3  -3   90.89    4.90
  -3   3  -3   85.09    6.40
   3   3   3   79.39    5.60
   4  -3   3   12.90    4.30
  -4  -3  -3    2.30    4.80
   4  -3   3    7.10    3.60
   4   3   3    5.30    3.60
   4   3   3   -0.40    4.40
  -4   3  -3    4.80    1.90
  -4   3  -3    8.80    4.30
  -5  -3  -3   57.49    7.70
  -5  -3  -3   58.19    6.40
   5  -3   3   47.60    6.00
   5   3   3   58.69    5.90
   5   3   3   46.50    6.10
   5   3   3   48.90    6.90
   6  -3   3    1.30    6.00
   6  -3   3    8.70    2.90
   6  -3   3   10.80    9.00
   6   3   3   13.00    8.60
   6   3   3    8.40    6.00
   6   3   3    7.90    4.70
   6  -4  -3    5.20    4.40
   6  -4  -3    9.00    2.70
   6   4  -3    8.30    3.70
   6   4  -3   16.20    6.80
  -5  -4   3   19.50    5.80
   5  -4  -3   23.70    3.70
   5  -4  -3   22.60    2.70
  -5  -4   3   30.60    3.60
   5   4  -3   24.40    3.60
   5   4  -3    9.00    5.40
   5   4  -3   27.00    4.30
   4  -4  -3   34.60    2.90
  -4  -4   3   30.00    3.60
  -4  -4   3   29.80    4.90
   4   4  -3   22.60    3.20
   4   4  -3   28.90    5.20
   4   4  -3   27.80    3.70
   3  -4  -3  382.66   20.70
  -3  -4   3  381.66   20.80
  -3  -4   3  367.06   18.50
   3  -4  -3  399.26   18.00
   3   4  -3  404.66   18.70
  -3   4   3  367.06   17.80
   3   4  -3  382.36   20.90
  -2  -4   3  151.28    8.10
  -2  -4   3  152.38    9.10
   2  -4  -3  167.88    7.70
  -2   4   3  149.29    7.50
   2   4  -3  147.59    9.30
   2   4  -3  162.88    8.10
  -1  -4   3   22.80    3.00
   1  -4  -3   24.60    2.60
  -1  -4   3   20.70    2.90
   1  -4  -3   27.70    3.20
  -1   4   3   20.00    2.30
   1   4  -3   21.20    3.20
   1   4  -3   21.00    2.50
   0  -4  -3   73.79    5.70
   0  -4  -3   72.69    4.70
   0  -4   3   74.39    4.30
   0   4   3   66.49    5.50
   0   4   3   75.09    4.60
   1  -4   3 1054.49   46.40
  -1  -4  -3  969.20   51.99
  -1  -4  -3  946.81   46.60
   1   4   3  993.30   46.60
  -1   4  -3 1091.29   46.40
   1   4   3  988.10   51.99
  -2  -4  -3  154.28    8.50
   2  -4   3  166.38    8.10
  -2  -4  -3  168.08   10.10
   2  -4   3  148.59    8.90
   2   4   3  160.68    8.50
  -2   4  -3  148.19    7.80
   2   4   3  181.48   10.50
   3  -4   3    5.60    2.90
  -3  -4  -3    4.90    4.10
   3  -4   3    4.20    2.20
  -3  -4  -3    6.90    2.50
   3   4   3    5.10    3.70
  -3   4  -3    5.50    1.40
   3   4   3    3.60    2.40
  -4  -4  -3    8.30    3.70
   4  -4   3    5.50    4.10
   4  -4   3    3.70    3.40
   4   4   3    2.00    2.70
   4   4   3    7.30    3.30
   5  -4   3   17.70    4.40
  -5  -4  -3   24.40    6.90
   5   4   3   32.30    6.30
   5   4   3   28.70    5.70
   5   4   3   21.30    4.30
   6  -4   3    8.80    2.80
  -6  -4  -3   -4.70    8.10
   6  -4   3   11.50    9.30
   6  -4   3   -3.70    6.60
   6   4   3   10.40    7.70
   6   4   3   11.50    4.40
   6   4   3   13.60    8.60
  -6  -5   3    5.80    6.30
   6  -5  -3    6.50    4.60
   6  -5  -3   16.80    2.70
   6   5  -3   10.40    5.30
   6   5  -3   20.90    7.00
   6   5  -3   17.70    6.10
   5  -5  -3    3.00    2.00
  -5  -5   3    7.00    5.20
  -5  -5   3   -0.60    2.20
   5  -5  -3   -1.30    2.80
   5   5  -3    5.50    5.20
   5   5  -3    2.60    3.70
   5   5  -3    5.00    3.20
   4  -5  -3   42.50    3.10
   4  -5  -3   49.10    6.10
  -4  -5   3   43.50    4.20
  -4  -5   3   44.30    5.40
   4   5  -3   35.20    4.20
   4   5  -3   42.00    4.50
   4   5  -3   34.60    5.70
  -3  -5   3   86.19    7.00
  -3  -5   3   99.79    5.90
   3  -5  -3   94.89    4.90
   3   5  -3   98.49    7.90
  -3   5   3   86.99    4.50
   3   5  -3   92.19    6.00
   3   5  -3   87.59    5.80
  -2  -5   3   21.50    2.90
  -2  -5   3   16.90    2.30
   2  -5  -3   17.30    1.90
   2  -5  -3   18.70    3.30
  -2   5   3   19.70    1.70
   2   5  -3   17.90    3.40
   2   5  -3   18.60    2.30
   1  -5  -3   25.20    2.80
  -1  -5   3   30.60    2.90
  -1  -5   3   27.30    3.20
   1  -5  -3   27.40    3.50
   1   5  -3   27.00    2.80
   1   5  -3   27.00    3.80
  -1   5   3   29.30    3.50
  -1   5   3   26.70    2.40
   0  -5  -3  379.36   18.10
   0  -5   3  393.96   17.90
   0  -5  -3  364.16   20.40
   0  -5   3  366.76   19.50
   0   5   3  382.66   20.40
   0   5   3  393.66   18.00
  -1  -5  -3  444.16   22.30
   1  -5   3  481.55   22.00
  -1  -5  -3  460.85   25.10
   1   5   3  482.35   22.30
  -1   5  -3  489.25   21.90
   1   5   3  459.65   25.10
  -2  -5  -3  277.37   14.10
  -2  -5  -3  277.27   15.80
   2  -5   3  293.17   13.40
   2  -5   3  258.07   14.70
   2   5   3  284.97   15.90
  -2   5  -3  276.37   13.10
   2   5   3  279.87   13.80
   3  -5   3   86.09    5.00
   3  -5   3   77.09    5.90
  -3  -5  -3   83.29    7.70
  -3  -5  -3   74.29    5.80
   3   5   3   81.79    7.70
  -3   5  -3   79.19    4.20
   3   5   3   78.49    5.80
   4  -5   3   68.89    6.90
   4  -5   3   55.29    5.00
  -4  -5  -3   66.39    6.70
   4   5   3   67.79    6.00
   4   5   3   63.69    7.80
   4   5   3   57.49    5.70
   5  -5   3   14.50    4.70
  -5  -5  -3   24.60    6.90
  -5  -5  -3   30.30    5.50
   5   5   3   36.20    6.10
   5   5   3   28.90    6.50
   5   5   3   18.60    4.70
   6  -5   3    1.90    6.30
   6  -5   3    9.60    9.10
   6  -5   3    0.40    2.50
  -6  -5  -3    7.80    8.90
   6   5   3   -6.40    8.70
   6   5   3    7.50    7.90
   6   5   3    5.80    6.10
   6  -6  -3   23.90    4.90
   6  -6  -3   16.00    2.50
   6  -6  -3   28.30    6.90
  -6  -6   3   13.30    6.50
   6   6  -3   21.70    7.30
   6   6  -3   12.60    6.40
   6   6  -3   12.60    5.80
   5  -6  -3    2.10    1.70
   5  -6  -3    6.20    5.00
  -5  -6   3    5.00    5.20
   5  -6  -3   -1.60    2.80
  -5  -6   3    4.20    2.80
   5   6  -3    5.00    5.20
   5   6  -3   -3.70    3.40
   5   6  -3   11.30    5.80
  -4  -6   3   34.20    5.10
  -4  -6   3   25.70    3.90
   4   6  -3   21.30    5.60
   4   6  -3   21.10    3.50
   4   6  -3   18.60    4.20
  -3  -6   3   86.19    6.70
  -3  -6   3   72.79    5.40
   3   6  -3   75.79    6.00
   3   6  -3   77.09    5.40
   3   6  -3   83.29    7.60
   2  -6  -3   33.10    4.90
  -2  -6   3   33.90    4.90
  -2  -6   3   38.90    3.40
   2  -6  -3   38.50    2.90
  -2   6   3   39.40    2.30
   2   6  -3   42.20    3.50
   2   6  -3   41.80    5.20
   2   6  -3   39.00    3.70
   1  -6  -3  221.28   10.50
  -1  -6   3  214.58   10.60
   1  -6  -3  206.48   12.30
  -1  -6   3  208.78   11.60
   1   6  -3  207.68   11.80
  -1   6   3  207.88   12.20
  -1   6   3  230.88   10.30
   1   6  -3  203.98   10.60
   0  -6  -3  564.74   25.50
   0  -6  -3  540.45   28.70
   0  -6   3  549.54   25.40
   0  -6   3  516.75   27.80
   0   6  -3  499.15   27.80
   0   6   3  580.14   25.50
   0   6  -3  542.05   25.30
   0   6   3  545.85   28.60
   1  -6   3  204.38    9.60
   1  -6   3  188.38   10.20
  -1  -6  -3  190.98   10.10
   1  -6   3  174.38   10.20
  -1  -6  -3  195.18   11.70
   1   6   3  203.68   10.10
   1   6   3  207.08   11.80
  -1   6  -3  205.08    9.50
   2  -6   3  179.08   10.10
  -2  -6  -3  175.08    9.80
  -2  -6  -3  179.38   11.60
   2  -6   3  193.88    9.20
  -2   6  -3  186.28    8.80
   2   6   3  186.58    9.70
   2   6   3  181.98   11.70
  -3  -6  -3  141.89   10.30
  -3  -6  -3  136.29    8.70
   3  -6   3  128.99    8.60
   3  -6   3  133.19    7.20
   3   6   3  140.09    8.20
   3   6   3  145.69    8.20
   3   6   3  119.19   10.30
   4  -6   3   79.79    7.20
  -4  -6  -3   67.79    6.40
   4  -6   3   68.39    5.50
  -4  -6  -3   68.39    8.90
   4   6   3   74.09    9.60
   4   6   3   81.29    7.10
   4   6   3   67.99    6.50
  -5  -6  -3   30.20    6.00
  -5  -6  -3   45.70    7.30
   5  -6   3   20.30    4.60
   5   6   3   32.50    7.30
   5   6   3   26.80    5.40
   5   6   3   25.70    5.40
   6  -6   3   13.90    9.60
   6  -6   3   -1.30    2.70
  -6  -6  -3   16.80    9.30
   6  -6   3    5.10    6.20
   6   6   3   -5.60    6.70
   6   6   3   -4.10    7.00
   6   6   3   12.60    8.60
   6  -7  -3    3.00    2.40
  -6  -7   3   14.60    6.80
   6  -7  -3    3.30    6.70
   6   7  -3   25.80    7.70
   6   7  -3    5.20    6.30
   6   7  -3    2.50    8.00
   5  -7  -3    5.40    2.70
  -5  -7   3    6.40    3.40
   5  -7  -3    8.10    5.10
  -5  -7   3    1.10    5.40
   5  -7  -3    1.00    1.80
   5   7  -3    2.60    3.70
   5   7  -3   16.60    6.20
   5   7  -3    5.50    5.60
  -4  -7   3   24.80    3.40
   4  -7  -3   14.10    2.10
   4  -7  -3   18.30    4.70
   4   7  -3   19.00    3.60
   4   7  -3   21.20    4.00
   3  -7  -3    2.40    3.80
  -3  -7   3   -5.90    4.00
  -3  -7   3    1.90    3.00
   3  -7  -3    3.50    1.50
   3   7  -3   -2.10    2.50
   3   7  -3    3.20    2.40
   3   7  -3   -4.20    4.60
   2  -7  -3    4.70    3.10
  -2  -7   3    8.20    3.10
   2  -7  -3    6.70    1.70
  -2  -7   3    5.60    2.10
   2   7  -3    3.10    3.40
  -2   7   3    4.30    0.90
   2   7  -3    8.10    2.60
   2   7  -3    6.60    2.00
   1  -7  -3    7.40    2.00
   1  -7  -3    4.60    3.00
  -1  -7   3    6.00    1.80
  -1  -7   3    8.60    2.20
  -1   7   3    4.50    2.70
   1   7  -3    6.30    1.90
   1   7  -3    5.90    1.80
   1   7  -3    9.20    2.50
  -1   7   3    6.10    1.40
   0  -7  -3  549.45   29.30
   0  -7  -3  574.54   26.10
   0  -7   3  523.65   28.40
   0   7  -3  573.14   25.80
   0   7   3  581.34   25.90
   0   7  -3  513.05   28.40
   0   7   3  550.94   29.20
  -1  -7  -3   22.90    2.90
   1  -7   3   23.20    2.60
   1  -7   3   22.50    2.50
  -1  -7  -3   26.70    4.10
  -1   7  -3   23.50    2.30
   1   7   3   21.60    4.00
   1   7   3   24.90    2.70
   2  -7   3   74.19    5.20
  -2  -7  -3   78.19    5.50
  -2  -7  -3   82.79    7.30
   2  -7   3   72.59    5.10
   2  -7   3   82.89    4.40
   2   7   3   74.79    7.50
   2   7   3   77.09    5.30
  -2   7  -3   65.19    3.80
  -3  -7  -3  336.47   17.20
  -3  -7  -3  346.57   19.70
   3  -7   3  347.87   16.20
   3  -7   3  312.17   18.30
   3   7   3  332.77   17.10
   3   7   3  347.87   17.20
   3   7   3  346.47   19.80
   4  -7   3   11.10    4.20
  -4  -7  -3   13.90    4.60
   4  -7   3    5.50    3.10
  -4  -7  -3    8.10    5.70
   4   7   3   13.70    4.00
   4   7   3    9.60    3.60
   4   7   3   12.10    5.70
  -5  -7  -3    8.30    6.90
  -5  -7  -3   16.10    5.90
   5  -7   3   13.90    4.40
   5   7   3    3.90    5.00
   5   7   3    9.60    5.50
   5   7   3    9.80    6.20
   6  -7   3    6.50    2.70
   6  -7   3    2.00    9.80
   6   7   3   11.60    7.90
   6   7   3    6.90    6.90
   6  -8  -3    2.00    2.50
   6  -8  -3   -8.00    3.80
   6  -8  -3    1.90    7.30
   6   8  -3    2.20    5.70
   6   8  -3    3.70    6.80
   6   8  -3   13.60    8.20
   5  -8  -3    2.40    1.90
   5  -8  -3   -2.10    5.40
  -5  -8   3    2.10    5.80
  -5  -8   3    1.60    4.30
   5  -8  -3   -1.30    2.60
   5   8  -3    3.40    5.90
   5   8  -3    7.60    4.40
   5   8  -3    9.20    6.30
  -4  -8   3   -0.20    3.90
   4  -8  -3    3.10    1.60
   4  -8  -3   -0.40    4.40
   4  -8  -3   -0.70    4.70
   4   8  -3    8.20    3.80
   4   8  -3    4.30    5.90
   4   8  -3    3.80    3.20
   3  -8  -3    5.80    1.80
  -3  -8   3    7.40    4.00
   3  -8  -3    2.00    3.80
  -3  -8   3    5.20    2.80
   3   8  -3    1.90    3.10
   3   8  -3    0.10    5.00
   3   8  -3    4.50    2.70
  -2  -8   3   18.10    2.70
   2  -8  -3   15.60    2.30
   2  -8  -3   19.20    3.70
  -2  -8   3   20.60    3.70
   2   8  -3   21.70    3.60
   2   8  -3   20.50    2.80
  -2   8   3   19.00    1.40
  -2   8   3   19.50    1.60
   2   8  -3   17.80    3.30
   1  -8  -3  144.59    9.40
   1  -8  -3  150.28    7.80
  -1  -8   3  136.79    8.60
  -1  -8   3  147.49    7.90
   1   8  -3  143.69    7.80
   1   8  -3  143.79    8.00
  -1   8   3  151.78    9.30
   1   8  -3  138.09    8.90
  -1   8   3  147.69    7.40
  -1   8   3  156.68    7.40
   0  -8  -3   46.10    3.80
   0  -8   3   46.60    4.00
   0  -8   3   51.69    3.70
   0  -8  -3   42.90    5.70
   0   8  -3   45.40    3.30
   0   8   3   46.00    5.30
   0   8  -3   49.99    3.50
   0   8  -3   43.10    3.70
   0   8   3   43.40    3.30
   1  -8   3   11.30    1.90
  -1  -8  -3    9.80    2.60
  -1  -8  -3   13.00    3.90
   1  -8   3    8.10    2.00
   1   8   3   10.30    2.10
   1   8   3   11.80    3.80
  -1   8  -3    9.90    1.50
  -1   8  -3    9.40    1.60
   1   8   3   11.30    2.70
   2  -8   3  236.58   10.90
  -2  -8  -3  229.28   13.80
  -2  -8  -3  223.98   11.80
   2  -8   3  217.28   12.10
   2  -8   3  221.78   12.10
   2   8   3  228.48   11.60
  -2   8  -3  217.48   10.30
   2   8   3  218.68   11.70
  -2   8  -3  193.48   10.30
   2   8   3  235.88   13.80
   3  -8   3 1151.88   60.39
  -3  -8  -3 1174.38   54.99
   3   8   3 1174.98   54.89
   3   8   3 1187.38   54.89
  -4  -8  -3   53.59    6.30
   4  -8   3   52.19    7.40
  -4  -8  -3   61.29    9.00
   4  -8   3   40.10    4.40
   4   8   3   47.90    5.60
   4   8   3   45.30    6.10
   4   8   3   46.50    7.20
  -5  -8  -3   25.90    7.40
  -5  -8  -3   28.80    6.80
   5  -8   3   21.70    4.20
   5   8   3   24.60    6.10
   5   8   3   21.50    5.30
   5   8   3   22.30    7.00
   6  -9  -3   -2.70    8.10
   6  -9  -3   -4.60    3.10
   6  -9  -3   -0.80    9.10
   6  -9  -3    1.50    2.70
  -6  -9   3   10.70    7.90
   6   9  -3   13.50    7.70
   6   9  -3   -4.80    6.50
   6   9  -3   17.40    9.40
   5  -9  -3    1.30    2.00
   5  -9  -3    5.30    7.50
  -5  -9   3    9.30    6.20
  -5  -9   3    3.30    3.90
   5  -9  -3    2.70    6.50
   5   9  -3   10.00    6.50
   5   9  -3    8.40    7.20
   4  -9  -3    3.10    2.00
   4  -9  -3   -6.30    5.70
   4  -9  -3    2.40    4.50
  -4  -9   3    6.30    3.60
  -4  -9   3    7.50    5.30
   4   9  -3   -0.70    3.70
   4   9  -3   -4.80    3.30
   4   9  -3    8.40    6.10
  -3  -9   3    6.30    4.30
   3  -9  -3    3.30    1.90
   3  -9  -3    0.30    4.10
  -3  -9   3    5.80    3.10
   3   9  -3    2.30    3.10
   3   9  -3    4.20    2.90
  -2  -9   3   19.60    3.70
   2  -9  -3   13.20    3.70
   2  -9  -3   14.20    2.40
  -2  -9   3   14.20    2.80
   2   9  -3   15.10    2.70
  -2   9   3   18.50    1.50
   2   9  -3   20.40    4.30
  -2   9   3   15.90    1.20
   2   9  -3   17.30    3.20
  -1  -9   3   41.00    4.00
   1  -9  -3   41.10    3.30
   1  -9  -3   32.80    4.60
  -1  -9   3   36.50    3.50
   1   9  -3   37.20    3.80
   1   9  -3   35.80    3.80
  -1   9   3   34.90    3.00
   1   9  -3   39.50    4.00
  -1   9   3   38.70    2.80
  -1   9   3   37.40    4.50
   0  -9   3   35.60    3.20
   0  -9  -3   40.10    4.70
   0  -9   3   36.90    4.20
   0  -9  -3   30.30    3.90
   0   9  -3   39.10    3.20
   0   9   3   37.30    4.40
   0   9   3   34.00    3.60
   0   9   3   35.20    3.40
   0   9  -3   29.60    3.20
   0   9  -3   34.40    3.80
  -1  -9  -3   19.30    3.60
   1  -9   3   20.60    2.60
   1  -9   3   22.50    2.80
  -1  -9  -3   26.80    4.50
  -1   9  -3   19.20    2.20
   1   9   3   31.00    4.70
   1   9   3   23.30    3.00
   1   9   3   26.30    3.30
  -1   9  -3   22.10    2.40
  -2  -9  -3  150.98   10.80
   2  -9   3  134.29    8.90
   2  -9   3  147.59    7.60
   2  -9   3  152.58    8.60
  -2  -9  -3  141.59    8.90
   2   9   3  151.18    8.50
   2   9   3  153.58   10.90
   2   9   3  139.79    8.70
   3  -9   3  167.48   10.70
  -3  -9  -3  163.08   12.60
   3  -9   3  162.88    8.50
  -3  -9  -3  166.68   10.40
   3  -9   3  179.58   10.80
   3   9   3  166.18   12.80
   3   9   3  162.98   10.30
   3   9   3  169.98   10.50
   4  -9   3   16.20    2.70
  -4  -9  -3   26.30    5.90
   4  -9   3   14.00    4.70
   4  -9   3   14.90    6.20
  -4  -9  -3   27.10    6.60
   4   9   3   17.50    4.50
   4   9   3   11.50    4.40
   4   9   3   20.30    6.80
  -5  -9  -3   19.20    7.60
  -5  -9  -3    7.20    5.80
   5   9   3    8.80    7.30
   5   9   3    4.80    5.60
   5   9   3   15.10    7.50
   5 -10  -3   -6.10    8.00
   5 -10  -3    3.20    2.10
  -5 -10   3   -2.80    6.70
   5 -10  -3    2.10    6.20
   5 -10  -3    3.10    1.90
   5  10  -3    8.70    7.10
   5  10  -3    3.80    5.60
   5  10  -3   11.50    8.70
  -4 -10   3   18.50    6.00
  -4 -10   3   25.10    4.50
   4 -10  -3   26.10    5.80
   4 -10  -3   23.10    4.90
   4 -10  -3   15.30    2.40
   4  10  -3   24.60    4.50
   4  10  -3   27.00    5.50
   4  10  -3   29.20    8.00
   3 -10  -3   48.90    3.60
  -3 -10   3   47.30    5.50
  -3 -10   3   52.69    7.20
   3  10  -3   51.39    6.50
   3  10  -3   42.10    5.60
   3  10  -3   50.29    5.60
  -2 -10   3   -2.60    3.50
   2 -10  -3    3.60    2.10
  -2 -10   3   -1.00    3.20
   2 -10  -3    7.50    4.00
  -2  10   3    3.80    0.60
   2  10  -3    5.80    2.60
   2  10  -3   -3.10    4.70
   2  10  -3    4.00    3.00
  -2  10   3    4.90    0.80
  -1 -10   3   23.40    3.30
   1 -10  -3   23.70    3.00
   1 -10  -3   27.70    4.30
  -1 -10   3   29.10    3.60
   1  10  -3   20.60    2.80
  -1  10   3   21.50    4.20
  -1  10   3   20.70    2.50
  -1  10   3   22.30    3.00
   1  10  -3   23.70    3.80
   0 -10   3   96.99    6.80
   0 -10   3  104.79    6.30
   0 -10  -3  102.99    6.60
   0 -10  -3  102.69    8.40
   0  10   3  102.39    6.00
   0  10   3  103.19    8.00
   0  10  -3  107.99    5.90
   0  10   3  104.29    6.20
   0  10  -3   93.99    6.60
   0  10  -3   98.39    5.80
  -1 -10  -3    2.80    4.10
   1 -10   3    1.70    2.60
   1 -10   3    5.40    2.00
  -1 -10  -3    6.20    2.70
   1  10   3   11.50    4.20
  -1  10  -3    5.90    1.60
  -1  10  -3    6.50    1.70
   1  10   3    5.60    2.40
   1  10   3    7.30    2.10
   2 -10   3  455.85   21.00
  -2 -10  -3  438.26   22.10
   2 -10   3  454.65   23.40
   2 -10   3  412.36   23.40
   2  10   3  448.16   21.80
   2  10   3  450.65   22.10
  -3 -10  -3  332.97   18.00
   3 -10   3  344.97   19.00
   3 -10   3  341.37   16.30
  -3 -10  -3  347.17   20.60
   3 -10   3  352.06   18.80
   3  10   3  337.77   17.70
   3  10   3  346.67   17.90
   3  10   3  333.97   20.40
  -4 -10  -3    3.60    4.60
  -4 -10  -3  -14.60    6.30
   4 -10   3    9.80    4.90
   4 -10   3    7.50    2.40
   4 -10   3    0.00    5.70
   4  10   3   -5.10    4.30
   4  10   3    5.60    6.60
   4  10   3    0.30    4.50
   5 -10   3    7.00    2.90
  -5 -10  -3   16.70    8.40
  -5 -10  -3   -2.00    7.50
   5  10   3    4.60    7.90
   5  10   3   19.00    8.50
   5  10   3   10.90    6.90
   5 -11  -3   -4.50    7.00
  -5 -11   3    1.10    7.30
   5 -11  -3    9.90    8.60
   5  11  -3    6.50    9.40
   4 -11  -3   -0.30    6.00
   4 -11  -3   14.70    2.20
  -4 -11   3   19.60    4.60
  -4 -11   3   14.20    6.40
   4  11  -3   10.70    4.50
   4  11  -3    8.80    7.20
   4  11  -3    4.60    5.30
  -3 -11   3   11.20    5.10
  -3 -11   3   11.70    3.80
   3 -11  -3   11.90    2.40
   3 -11  -3    8.60    4.70
   3  11  -3    5.60    6.00
   3  11  -3   11.50    4.30
   3  11  -3   13.10    3.80
   2 -11  -3    3.20    2.60
  -2 -11   3   -2.10    4.40
  -2 -11   3    2.00    3.00
   2  11  -3    4.20    2.70
   2  11  -3    9.20    5.30
   2  11  -3    0.90    2.50
  -1 -11   3   -1.20    3.80
   1 -11  -3    3.40    2.70
  -1 -11   3    3.40    2.90
   1 -11  -3    0.30    3.80
  -1  11   3    0.00    3.10
  -1  11   3    4.30    1.60
  -1  11   3    1.60    2.00
   1  11  -3    3.40    3.70
   1  11  -3    5.00    2.50
   0 -11   3  302.67   17.70
   0 -11  -3  319.97   18.80
   0 -11  -3  353.76   16.50
   0 -11   3  320.77   16.00
   0  11  -3  303.67   17.60
   0  11  -3  340.47   15.90
   0  11  -3  320.97   15.90
   0  11   3  338.77   16.00
   0  11   3  333.97   16.10
   0  11   3  331.57   18.60
  -1 -11  -3   30.20    4.30
  -1 -11  -3   21.10    5.40
   1 -11   3   18.90    2.70
   1 -11   3   20.20    3.40
  -1  11  -3   18.40    2.40
  -1  11  -3   19.10    2.50
   1  11   3   24.10    3.20
   1  11   3   19.60    3.20
  -2 -11  -3   79.19    9.00
  -2 -11  -3   82.59    7.90
   2 -11   3   90.49    5.40
   2 -11   3   79.39    6.90
   2  11   3   92.49    9.30
   2  11   3   71.69    6.70
   2  11   3   82.89    6.80
   3 -11   3   41.60    3.80
  -3 -11  -3   46.70    6.60
   3 -11   3   36.50    5.70
   3 -11   3   45.70    5.10
  -3 -11  -3   56.19    7.40
   3  11   3   47.10    5.40
   3  11   3   43.40    5.20
   3  11   3   45.40    6.70
   4 -11   3    6.00    5.90
  -4 -11  -3   13.70    7.20
  -4 -11  -3    2.00    6.10
   4 -11   3    0.50    6.70
   4  11   3    1.00    6.50
   4  11   3    6.00    6.80
  -5 -11  -3   -4.10    6.50
   5 -11   3   16.70    8.90
   5 -11   3   12.00    2.40
   5  11   3   13.60    7.30
   5  11   3   25.00    7.70
   5  11   3   38.90    9.20
   5 -12  -3   -1.80    8.90
   5 -12  -3    1.10    7.80
  -5 -12   3   21.70    8.50
   5  12  -3   16.20    8.40
   5  12  -3    2.60   10.10
   4 -12  -3    4.60    6.40
  -4 -12   3   12.90    5.00
  -4 -12   3   26.40    7.20
   4 -12  -3   15.40    2.20
   4  12  -3    4.90    8.00
   4  12  -3   12.00    4.90
   4  12  -3    6.50    4.80
   3 -12  -3   87.39    9.20
  -3 -12   3   78.19    7.30
   3 -12  -3   81.89    5.20
   3  12  -3   88.89    7.20
   2 -12  -3   38.30    5.60
  -2 -12   3   36.40    5.90
  -2 -12   3   40.10    4.50
   2 -12  -3   40.30    4.00
   2  12  -3   37.20    6.40
   2  12  -3   33.70    4.50
   2  12  -3   35.80    4.60
  -1 -12   3   40.90    4.70
  -1 -12   3   43.30    5.10
   1 -12  -3   43.40    4.30
  -1  12   3   48.30    3.80
   1  12  -3   43.10    6.30
  -1  12   3   42.30    3.10
   1  12  -3   38.10    4.30
   1  12  -3   29.20    3.70
   0 -12   3   37.90    4.10
   0 -12   3   37.50    4.60
   0  12  -3   36.30    4.00
   0  12   3   34.30    4.40
   0  12  -3   27.80    3.50
   0  12   3   38.00    3.60
   0  12  -3   34.10    3.70
  -1 -12  -3   44.10    6.20
  -1 -12  -3   37.60    5.20
   1 -12   3   39.00    5.40
   1 -12   3   48.60    4.40
  -1  12  -3   51.69    3.50
   1  12   3   43.50    3.90
   1  12   3   55.79    6.60
  -1  12  -3   46.70    3.20
  -2 -12  -3   68.19    7.60
   2 -12   3   56.79    6.80
   2 -12   3   66.59    5.00
  -2 -12  -3   73.29    7.70
   2  12   3   64.69    8.70
   2  12   3   69.39    6.60
   2  12   3   65.19    5.60
   3 -12   3   38.50    3.90
   3 -12   3   35.60    5.50
  -3 -12  -3   44.50    7.20
  -3 -12  -3   50.59    6.60
   3 -12   3   43.50    5.40
   3  12   3   47.30    6.60
   3  12   3   44.70    5.90
   3  12   3   32.10    7.00
   4 -12   3   54.99    7.50
   4 -12   3   36.00    7.80
  -4 -12  -3   50.69    8.40
  -4 -12  -3   41.80    7.00
   4 -12   3   42.20    3.80
   4  12   3   45.20    6.60
   4  12   3   45.20    8.00
   4  12   3   36.80    6.80
   5  13  -3   11.60    7.40
   4 -13  -3   30.40    8.60
  -4 -13   3   27.10    5.90
   4 -13  -3   32.00    2.90
  -4 -13   3   32.90    9.40
   4  13  -3   29.50    6.10
   4  13  -3   30.10    6.70
   4  13  -3   32.60    9.80
  -3 -13   3    6.40    6.00
  -3 -13   3   -0.20    4.20
   3 -13  -3    5.60    2.40
   3 -13  -3   -1.60    5.80
   3  13  -3    5.50    3.90
   3  13  -3   12.30    7.30
   3  13  -3    4.90    3.70
   2 -13  -3    2.80    2.70
   2 -13  -3    1.90    5.00
  -2 -13   3    0.40    5.60
  -2 -13   3   -0.40    3.40
   2  13  -3    5.80    3.20
   2  13  -3    1.10    3.20
   2  13  -3    5.60    6.00
  -1 -13   3    5.20    3.50
  -1 -13   3    6.90    4.50
   1 -13  -3    3.20    2.80
   1 -13  -3    2.40    4.30
  -1  13   3    1.90    1.70
   1  13  -3    4.00    2.40
   1  13  -3   -0.30    2.30
   1  13  -3    4.00    4.50
  -1  13   3    6.20    2.30
  -1  13   3    4.30    3.70
   0 -13  -3    1.10    5.30
   0 -13   3    6.00    4.00
   0 -13  -3   12.60    3.80
   0 -13   3    9.40    2.70
   0  13  -3    6.50    2.10
   0  13  -3    5.30    2.40
   0  13   3    6.30    4.20
   0  13  -3   10.60    3.60
   0  13   3    7.60    3.00
   0  13   3    6.80    2.30
  -1 -13  -3    7.80    4.20
  -1 -13  -3   15.90    5.10
   1 -13   3    6.90    3.20
   1 -13   3    6.70    3.80
  -1  13  -3    7.30    2.20
  -1  13  -3    7.60    1.50
   1  13   3    7.60    5.30
   1  13   3    6.20    2.80
   2 -13   3   48.60    5.40
  -2 -13  -3   54.49    6.10
   2 -13   3   57.09    5.00
  -2 -13  -3   65.49    9.00
   2  13   3   53.19    6.10
   2  13   3   58.19    6.30
   2  13   3   58.59    7.30
   3 -13   3    1.50    5.20
   3 -13   3    1.90    5.00
  -3 -13  -3   -7.00    6.50
   3 -13   3    2.90    2.40
   3  13   3   -5.10    4.80
   3  13   3    7.70    4.40
   3  13   3   -8.40    6.20
   4 -13   3   23.80    7.40
   4 -13   3   15.60    8.70
  -4 -13  -3   21.70    8.40
   4 -13   3   11.40    2.40
   4  13   3   12.70    6.60
   4  13   3   24.80    7.70
   4  13   3   19.50    7.70
  -4 -14   3    5.70    7.40
   4 -14  -3    2.30    1.90
   4 -14  -3   -0.90    8.30
  -4 -14   3    8.20    8.70
   4  14  -3    9.90    5.90
   4  14  -3   -5.10   10.80
   4  14  -3    5.80    6.80
   3 -14  -3   25.90    8.20
  -3 -14   3   50.79    6.30
   3 -14  -3   48.20    4.10
  -3 -14   3   52.29    7.60
   3  14  -3   40.50    8.60
   3  14  -3   49.90    6.20
   3  14  -3   48.70    6.40
  -2 -14   3   15.00    4.90
   2 -14  -3    8.60    6.20
   2 -14  -3   23.50    3.60
  -2 -14   3   25.10    5.90
   2  14  -3   18.80    4.60
   2  14  -3   17.90    6.90
   2  14  -3   16.40    3.20
  -1 -14   3   16.70    5.30
   1 -14  -3   14.20    3.40
  -1 -14   3    7.80    3.40
   1 -14  -3    8.20    5.00
  -1  14   3    8.40    4.80
   1  14  -3    6.40    2.50
  -1  14   3   13.90    2.50
  -1  14   3   13.60    1.90
   1  14  -3   12.70    5.30
   1  14  -3   11.50    3.40
   0 -14  -3    6.70    5.80
   0 -14  -3    3.90    3.50
   0 -14   3    0.20    5.00
   0 -14   3    5.10    3.20
   0  14  -3    4.00    3.90
   0  14  -3    2.30    2.60
   0  14   3    2.30    3.00
   0  14  -3    0.70    2.30
   0  14   3    6.20    4.20
   0  14   3    5.90    2.10
  -1 -14  -3   24.50    6.00
  -1 -14  -3   27.80    4.50
   1 -14   3   23.40    5.30
   1 -14   3   25.10    3.80
   1  14   3   24.40    4.30
   1  14   3   29.40    6.10
   1  14   3   20.70    2.80
  -1  14  -3   19.80    2.30
  -1  14  -3   26.10    3.10
   2 -14   3   12.90    2.80
   2 -14   3   11.60    5.20
  -2 -14  -3   17.50    6.10
  -2 -14  -3   17.30    4.60
   2  14   3    5.90    3.40
   2  14   3   16.70    6.00
   2  14   3    6.50    4.20
  -3 -14  -3    1.70    5.40
   3 -14   3    2.20    2.90
  -3 -14  -3    7.90    7.30
   3 -14   3    5.50    5.70
   3 -14   3    7.70    6.50
   3  14   3   26.80    7.00
   3  14   3   -0.60    6.30
   3  14   3    0.30    4.90
  -4 -14  -3   10.50    7.60
   4 -14   3    7.00    9.20
   4 -14   3   14.40    8.10
   4 -14   3    8.10    2.20
   4  14   3   17.80    7.20
   4  14   3   -6.50    6.60
   4 -15  -3    2.60    9.90
  -4 -15   3    9.40    9.90
   4  15  -3   18.60   12.60
   4  15  -3   -0.10    5.90
   4  15  -3   30.80    7.90
   3 -15  -3   -3.80    2.70
  -3 -15   3   -1.40    5.40
  -3 -15   3   11.40    8.90
   3 -15  -3    4.10    7.40
   3  15  -3   -0.60    4.40
   3  15  -3   -3.00    8.60
   3  15  -3    3.30    4.10
  -2 -15   3   34.60    7.00
   2 -15  -3   49.99    7.60
   2 -15  -3   42.60    4.40
  -2 -15   3   46.60    6.50
   2  15  -3   47.90    8.30
   2  15  -3   40.90    4.70
   2  15  -3   33.40    5.50
  -1 -15   3    5.30    6.00
  -1 -15   3    3.70    4.20
   1 -15  -3   -0.30    6.30
   1 -15  -3   -2.80    3.20
  -1  15   3    6.60    4.50
   1  15  -3    2.10    3.50
  -1  15   3    3.70    1.70
  -1  15   3    1.00    2.60
   1  15  -3    2.70    5.40
   1  15  -3   -2.80    2.40
   0 -15  -3    5.40    3.30
   0 -15   3    2.10    4.00
   0 -15   3    2.60    5.30
   0 -15  -3   -2.70    6.20
   0  15   3    1.90    5.30
   0  15   3    3.10    2.40
   0  15  -3    3.40    3.20
   0  15  -3    2.70    4.50
   0  15   3   -1.00    3.30
   0  15  -3    3.90    2.10
  -1 -15  -3   -6.00    6.40
   1 -15   3   -1.40    3.50
   1 -15   3    1.80    5.20
  -1 -15  -3    6.60    4.80
  -1  15  -3    0.10    1.70
  -1  15  -3    2.50    2.20
   1  15   3    4.00    2.70
   1  15   3   -0.40    4.10
   1  15   3    4.80    6.10
  -2 -15  -3   13.60    5.00
  -2 -15  -3   19.50    6.80
   2 -15   3   11.90    6.20
   2 -15   3   12.60    3.50
   2  15   3    7.50    3.70
   2  15   3   13.00    5.60
   2  15   3   27.00    7.00
  -3 -15  -3    7.20    7.50
   3 -15   3    1.30    6.30
   3 -15   3    6.40    6.80
  -3 -15  -3    0.00    6.30
   3  15   3    7.20    7.30
   3  15   3   -2.70    5.60
   3  15   3    9.00    6.40
   3 -16  -3   17.30    3.20
  -3 -16   3   10.50    6.40
   3 -16  -3   -5.90    8.20
  -3 -16   3   14.80   10.40
   3  16  -3   15.70    5.80
   3  16  -3    0.70    5.30
   3  16  -3    5.00   10.10
  -2 -16   3   31.60    5.70
  -2 -16   3   33.20    8.50
   2 -16  -3   31.00    4.10
   2 -16  -3   31.10    8.50
   2  16  -3   34.60    4.60
   2  16  -3   30.90    8.90
  -1 -16   3    8.20    7.80
   1 -16  -3   10.70    7.00
  -1 -16   3   10.70    4.30
   1 -16  -3    8.50    3.60
   1  16  -3    1.10    3.80
  -1  16   3    4.90    1.80
   1  16  -3    4.60    6.20
   1  16  -3    3.40    2.60
  -1  16   3   10.70    5.30
  -1  16   3    7.70    2.80
   0 -16   3    2.70    6.80
   0 -16  -3   -4.20    4.10
   0 -16  -3   10.70    7.10
   0 -16   3    3.90    4.40
   0  16  -3    8.20    3.60
   0  16   3    3.90    4.20
   0  16  -3    1.20    2.20
   0  16   3    6.50    2.50
   0  16   3    9.50    5.40
   0  16  -3   -3.10    4.40
  -1 -16  -3    7.70    5.40
   1 -16   3    9.10    4.90
  -1 -16  -3   15.40    6.60
   1 -16   3   14.40    6.40
   1  16   3   17.00    6.20
  -1  16  -3    7.70    1.90
   1  16   3    9.70    4.80
   2 -16   3    9.00    7.10
  -2 -16  -3   11.20    7.90
   2 -16   3    9.40    4.30
  -2 -16  -3    1.10    5.40
   2  16   3   -3.80    5.40
   2  16   3   10.00    7.10
  -3 -16  -3    0.20    7.50
   3 -16   3    7.70    4.10
   3  16   3    6.90    5.90
   2 -17  -3   -5.30    8.30
  -2 -17   3   -7.30    9.30
   2 -17  -3   -0.10    3.80
  -2 -17   3    1.80    5.60
   2  17  -3   -5.50    3.10
   2  17  -3    8.60   10.00
   2  17  -3   -1.00    4.90
   1 -17  -3   11.70    4.10
  -1 -17   3   17.50    6.20
   1 -17  -3   27.40    8.10
  -1 -17   3   27.00    8.30
   1  17  -3   23.90    7.30
   1  17  -3   11.90    4.60
   1  17  -3   21.10    3.30
  -1  17   3   20.30    2.30
   0 -17  -3    1.80    8.30
   0 -17   3   -6.80    8.00
   0 -17  -3    1.50    4.30
   0 -17   3    3.40    5.40
   0  17  -3   -0.70    3.80
   0  17   3    6.60    2.70
   0  17   3   -3.80    3.70
   0  17  -3    4.40    5.80
   0  17  -3   -1.30    2.50
   0  17   3    6.40    6.50
   1 -17   3    4.90    5.70
   1 -17   3    5.70    7.60
  -1 -17  -3    6.80    4.80
  -1 -17  -3    9.70    7.80
  -1  17  -3   12.00    2.20
   1  17   3   12.30    7.30
   1  17   3    0.60    4.70
  -1  17  -3   10.70    2.60
   1  17   3   12.20    3.60
   2 -17   3    2.60    4.90
  -2 -17  -3   10.30    8.90
  -2 -17  -3    5.40    7.90
   2 -17   3    2.70    7.60
   2  17   3    8.90    8.00
   2  17   3   -5.70    4.80
  -1 -18   3   10.50    5.70
  -1 -18   3   11.80   10.70
   1 -18  -3   18.60    9.50
  -1  18   3   12.30    3.10
  -1  18   3    9.80    2.50
   1  18  -3    4.40    8.10
   0 -18  -3   -2.20    4.90
   0 -18   3    3.80    6.40
   0 -18  -3   -8.30   10.00
   0  18   3    3.40    7.30
   0  18  -3   -0.70    4.40
   0  18  -3    7.40    2.90
   0  18   3    0.60    4.20
   6   0  -4    0.90    4.50
   6   0  -4   -1.10    2.70
  -5   0   4   48.80    4.10
   5   0  -4   54.89    6.70
   5   0  -4   54.49    6.40
   5   0  -4   46.60    4.10
   4   0  -4    0.10    1.60
   4   0  -4    0.80    4.10
  -4   0   4    1.60    2.00
  -3   0   4    0.90    1.80
   3   0  -4    0.80    1.50
   3   0  -4   -1.00    3.10
   2   0  -4  108.49    5.80
  -2   0   4   95.99    5.60
   2   0  -4  101.49    6.80
  -1   0   4  229.48   11.40
   1   0  -4  237.78   11.40
   0   0   4   56.39    3.90
   0   0  -4   51.29    3.70
   0   0   4   54.49    4.00
   0   0  -4   46.60    4.00
  -1   0  -4   26.70    2.90
  -1   0  -4   24.50    3.50
   1   0   4   19.90    2.40
   1   0   4   23.90    3.20
   2   0   4  112.19    7.20
   2   0   4  110.19    6.40
  -2   0  -4  119.69    7.40
  -3   0  -4    4.20    3.30
   3   0   4    4.30    2.90
   3   0   4    0.00    3.40
  -3   0  -4    2.90    2.50
  -4   0  -4   49.80    4.90
   4   0   4   48.40    6.10
  -4   0  -4   45.60    6.80
  -5   0  -4    1.40    6.30
  -5   0  -4    0.20    3.50
   5   0   4   -0.50    5.30
   5   0   4    8.90    6.70
   6   0   4   19.70    3.90
  -6   0  -4   18.70    9.20
   6   0   4   10.70    8.70
   6   0   4   13.60    6.50
   6  -1  -4   23.80    5.70
   6  -1  -4   26.20    3.30
   6  -1  -4   23.40    6.30
   6   1  -4   30.50    6.80
   6   1  -4   30.90    6.40
   6   1  -4   18.30    3.10
  -5  -1   4   58.09    4.60
   5  -1  -4   51.09    4.50
  -5   1   4   59.99    4.30
   5   1  -4   48.70    6.90
   5   1  -4   58.99    4.90
  -4  -1   4  166.28    8.60
   4  -1  -4  159.08    8.30
   4  -1  -4  143.79   10.40
   4   1  -4  166.28   10.70
   4   1  -4  151.38    8.30
  -4   1   4  144.89    8.20
   3  -1  -4   44.30    3.30
  -3  -1   4   50.49    3.60
   3  -1  -4   50.49    5.30
   3   1  -4   47.80    3.80
  -3   1   4   52.89    3.60
   3   1  -4   45.30    5.80
   2  -1  -4  885.61   42.40
  -2  -1   4  887.91   42.50
   2  -1  -4  891.21   47.40
  -2   1   4  973.60   42.50
   2   1  -4  893.41   47.30
   2   1  -4  976.90   42.50
   1  -1  -4  354.06   16.20
  -1  -1   4  335.47   16.10
   1  -1  -4  334.97   18.00
   1   1  -4  330.47   16.20
  -1   1   4  348.97   16.10
   1   1  -4  331.57   17.80
   0  -1   4   33.30    3.20
   0  -1  -4   30.90    3.50
   0  -1  -4   28.80    3.00
   0   1  -4   30.50    2.80
   0   1   4   33.20    2.90
   0   1   4   33.10    3.20
   0   1  -4   28.90    2.90
  -1  -1  -4   22.50    3.00
   1  -1   4   20.90    2.30
   1  -1   4   20.00    2.60
  -1  -1  -4   21.60    2.60
   1   1   4   19.30    2.90
  -1   1  -4   22.00    2.40
  -1   1  -4   19.60    2.70
   1   1   4   20.10    2.40
   2  -1   4  140.19    7.40
   2  -1   4  142.79    8.00
  -2  -1  -4  139.89    7.60
  -2  -1  -4  135.69    8.60
  -2   1  -4  135.49    8.20
   2   1   4  134.59    8.30
   2   1   4  125.39    7.30
  -2   1  -4  118.79    7.10
  -3  -1  -4   14.70    3.70
   3  -1   4   14.70    3.50
   3  -1   4   16.00    3.20
  -3   1  -4    5.40    3.60
   3   1   4   15.60    3.40
   3   1   4   13.50    2.60
  -3   1  -4   13.40    2.70
   4  -1   4    2.60    3.80
   4  -1   4   -4.80    4.60
  -4  -1  -4    4.40    2.60
  -4  -1  -4    0.60    5.70
  -4   1  -4    4.40    5.20
   4   1   4    1.40    3.80
  -4   1  -4    1.60    2.60
   4   1   4    7.60    4.60
  -5  -1  -4    5.20    3.80
   5  -1   4   -0.20    6.20
  -5  -1  -4    5.00    6.50
   5  -1   4    1.50    5.20
  -5   1  -4   -4.50    3.50
  -5   1  -4   -3.50    6.00
   5   1   4    3.90    6.10
   6  -1   4    2.60    8.20
   6  -1   4    5.90    7.30
   6  -1   4    8.10    2.90
  -6   1  -4   -3.80    9.00
   6   1   4   10.00    8.90
   6   1   4    4.80    6.60
   6   1   4   11.50    3.80
   6  -2  -4   30.30    5.40
   6  -2  -4   33.40    3.80
   6   2  -4   27.40    6.30
   6   2  -4   19.50    3.30
   5  -2  -4   64.59    4.90
  -5  -2   4   64.59    4.90
   5  -2  -4   77.29    8.20
   5   2  -4   75.79    7.30
   5   2  -4   70.89    5.20
   5   2  -4   64.99    8.40
  -4  -2   4  617.44   30.70
   4  -2  -4  589.04   27.00
   4  -2  -4  586.14   30.80
  -4  -2   4  526.75   27.20
  -4   2   4  548.15   26.90
   4   2  -4  577.24   27.30
  -3  -2   4   51.79    3.90
   3  -2  -4   43.50    5.30
   3  -2  -4   48.90    3.40
  -3   2   4   43.00    3.20
   3   2  -4   41.80    3.50
   3   2  -4   35.70    5.30
  -2  -2   4  144.89    7.30
   2  -2  -4  127.99    6.80
   2   2  -4  132.19    7.00
  -2   2   4  122.99    6.80
   2   2  -4  138.89    8.10
   1  -2  -4  464.85   23.10
   1  -2  -4  477.35   25.90
  -1  -2   4  518.25   23.20
  -1   2   4  503.75   23.10
   1   2  -4  487.55   25.60
   1   2  -4  513.15   23.20
   0  -2   4  225.88   11.00
   0  -2  -4  238.18   11.30
   0  -2  -4  231.88   12.60
   0   2  -4  207.58   10.90
   0   2  -4  210.78   11.70
   0   2   4  239.78   11.00
   0   2   4  216.88   12.20
   1  -2   4  350.16   18.10
  -1  -2  -4  342.77   16.80
  -1  -2  -4  353.06   18.80
   1  -2   4  348.47   16.60
  -1   2  -4  336.37   18.10
   1   2   4  363.26   16.80
   1   2   4  351.66   18.70
  -2  -2  -4   44.80    4.40
   2  -2   4   54.69    4.30
  -2  -2  -4   49.00    5.10
   2  -2   4   43.10    3.80
   2   2   4   50.69    5.50
   2   2   4   42.30    4.30
  -2   2  -4   48.70    4.30
  -2   2  -4   46.20    3.70
   3  -2   4   48.60    4.60
  -3  -2  -4   44.10    4.20
  -3  -2  -4   44.60    6.60
   3  -2   4   55.29    5.70
  -3   2  -4   40.30    5.30
  -3   2  -4   44.90    3.80
   3   2   4   42.90    4.30
   3   2   4   47.30    5.70
   4  -2   4   10.80    4.00
  -4  -2  -4   15.10    6.10
   4  -2   4   12.90    4.70
  -4   2  -4   10.00    5.10
  -4   2  -4   14.30    2.70
   4   2   4   20.50    5.80
   4   2   4   14.30    4.30
  -5  -2  -4   48.50    7.90
   5  -2   4   49.30    6.70
   5  -2   4   38.50    6.00
  -5  -2  -4   49.90    6.30
   5   2   4   53.19    7.60
  -5   2  -4   47.20    4.70
   5   2   4   49.20    6.50
   5   2   4   62.29    5.80
   6  -2   4    4.70    3.50
   6  -2   4   -5.50    7.00
   6  -2   4   19.40    8.50
  -6   2  -4   -9.10   10.10
   6   2   4   10.30    9.30
   6   2   4    1.70    4.60
   6   2   4   -6.70    6.00
   6  -3  -4   27.90    5.40
   6  -3  -4   28.40    3.30
   6   3  -4   25.40    4.60
   6   3  -4   26.50    5.80
   5  -3  -4  106.59    6.50
  -5  -3   4  108.79    6.90
   5   3  -4  126.99    7.60
   5   3  -4  110.99    8.90
   5   3  -4  108.59    9.60
  -4  -3   4  495.95   24.20
  -4  -3   4  523.85   27.30
   4  -3  -4  498.65   23.80
   4  -3  -4  521.25   27.40
   4   3  -4  503.95   27.40
   4   3  -4  490.85   24.20
  -4   3   4  491.95   23.60
  -3  -3   4   -3.50    1.90
   3  -3  -4    1.70    1.60
  -3  -3   4    0.60    3.30
   3  -3  -4   -0.70    3.40
   3   3  -4   -0.70    1.70
  -3   3   4    0.40    1.40
   3   3  -4   -1.00    3.20
   2  -3  -4   97.49    5.30
  -2  -3   4  100.09    5.60
  -2  -3   4   94.29    6.50
   2   3  -4   90.09    5.50
  -2   3   4   93.89    5.20
   2   3  -4   98.29    6.50
  -1  -3   4   28.60    3.00
   1  -3  -4   37.60    2.90
   1  -3  -4   34.00    4.20
  -1   3   4   37.00    3.10
   1   3  -4   25.90    3.60
   1   3  -4   29.20    3.00
   0  -3   4    0.60    1.60
   0  -3  -4    1.50    2.30
   0  -3  -4    0.60    3.00
   0   3  -4   -0.20    1.60
   0   3   4   -0.90    1.60
   0   3   4    0.30    2.30
   1  -3   4  704.23   31.30
  -1  -3  -4  605.04   31.30
  -1  -3  -4  681.63   35.10
   1   3   4  706.73   31.40
   1   3   4  681.33   35.00
  -1   3  -4  646.64   31.40
   2  -3   4   13.60    2.40
  -2  -3  -4   13.90    2.70
   2  -3   4   12.60    2.40
  -2  -3  -4   23.00    3.70
  -2   3  -4   11.60    2.50
  -2   3  -4   16.20    2.20
   2   3   4   20.00    3.40
   2   3   4   14.20    2.60
  -3  -3  -4   15.60    4.30
  -3  -3  -4   17.00    3.50
   3  -3   4   11.60    3.50
   3  -3   4   11.90    3.00
  -3   3  -4   15.80    2.30
   3   3   4   13.20    3.90
  -3   3  -4   20.90    3.80
   3   3   4   11.70    2.90
   4  -3   4   52.09    5.80
   4  -3   4   63.59    7.20
  -4  -3  -4   63.49    6.20
  -4  -3  -4   58.39    7.50
   4   3   4   47.90    5.60
  -4   3  -4   55.09    7.20
  -4   3  -4   48.00    4.20
   5  -3   4   17.80    5.20
  -5  -3  -4    9.50    3.80
  -5  -3  -4   15.30    7.40
   5   3   4    8.80    6.70
   5   3   4   14.10    6.00
   5   3   4   18.20    4.30
   6  -3   4    2.50    3.30
  -6  -3  -4    0.60    5.50
  -6  -3  -4    3.10    9.60
   6  -3   4   -0.10    8.20
   6  -3   4   -0.90    6.90
   6   3   4   -6.40    9.00
   6   3   4    6.00    5.70
   6   3   4    3.00    8.00
   6  -4  -4   18.30    2.70
   6  -4  -4   10.50    4.70
   6   4  -4   29.30    6.90
   6   4  -4   15.10    7.10
   6   4  -4    8.70    3.80
   5  -4  -4   44.30    3.80
  -5  -4   4   39.10    6.00
  -5  -4   4   42.90    4.30
   5   4  -4   48.00    4.70
   5   4  -4   49.80    6.70
   5   4  -4   44.90    5.30
   4  -4  -4   88.49    5.60
  -4  -4   4   89.99    6.40
  -4  -4   4   85.09    7.80
   4   4  -4   86.69    6.40
   4   4  -4   86.89    7.10
   4   4  -4  112.89    9.20
  -4   4   4   81.39    4.80
  -3  -4   4   11.40    2.60
  -3  -4   4   10.90    3.30
   3  -4  -4    7.60    3.50
   3  -4  -4   11.00    1.90
  -3   4   4   16.10    2.00
   3   4  -4   11.50    3.70
   3   4  -4   14.70    2.60
  -2  -4   4   30.60    4.20
   2  -4  -4   27.70    3.70
  -2  -4   4   30.30    3.10
   2  -4  -4   31.90    2.80
  -2   4   4   32.60    2.50
   2   4  -4   33.10    4.60
   2   4  -4   29.60    3.10
   1  -4  -4  113.89    6.30
  -1  -4   4  113.39    6.20
   1  -4  -4  105.39    7.40
   1   4  -4  104.49    6.10
   1   4  -4  110.09    6.70
  -1   4   4  124.59    6.10
   0  -4  -4   65.39    5.70
   0  -4   4   63.39    4.00
   0  -4  -4   66.79    4.70
   0   4  -4   62.49    4.00
   0   4   4   57.69    5.40
   0   4   4   67.59    4.20
  -1  -4  -4  375.76   20.30
  -1  -4  -4  333.37   18.00
   1   4   4  379.26   20.20
   1   4   4  375.86   18.00
  -1   4  -4  407.36   17.80
   2  -4   4   16.20    2.40
  -2  -4  -4   19.40    2.90
   2  -4   4   16.40    2.20
  -2  -4  -4   19.70    4.30
   2   4   4   13.80    2.70
  -2   4  -4   15.30    2.10
   2   4   4   20.30    3.60
   3  -4   4  161.98    8.80
  -3  -4  -4  152.78    9.20
  -3  -4  -4  173.58   10.90
   3  -4   4  154.88    9.80
  -3   4  -4  148.49    8.20
   3   4   4  187.48   10.90
   3   4   4  164.68    9.20
   4  -4   4  311.07   17.60
   4  -4   4  367.56   19.80
  -4  -4  -4  375.86   18.40
   4   4   4  341.57   18.10
  -4   4  -4  366.16   16.90
   5  -4   4    2.70    4.80
  -5  -4  -4   -0.60    7.10
   5   4   4   -0.90    4.10
   5   4   4    4.70    7.40
   5   4   4   -5.10    5.00
   6  -4   4    9.30    6.90
  -6  -4  -4   -5.20    9.70
   6  -4   4    5.60    3.30
   6  -4   4    8.20    8.60
   6   4   4   -2.90    4.80
   6   4   4   -0.50    7.00
   6   4   4    6.60   11.20
   6  -5  -4    6.10    4.30
   6  -5  -4    1.70    2.70
   6   5  -4    2.70    4.00
   6   5  -4   12.00    6.90
   6   5  -4   13.50    7.10
   5  -5  -4    1.00    1.70
  -5  -5   4   -2.60    5.20
  -5  -5   4    5.60    2.60
   5   5  -4    4.80    5.60
   5   5  -4    0.60    3.90
   5   5  -4   -0.30    3.50
  -4  -5   4    4.60    4.30
  -4  -5   4    8.40    2.70
   4   5  -4    6.50    3.10
  -4   5   4    7.20    1.20
   4   5  -4    7.50    5.10
   4   5  -4    9.10    2.70
  -3  -5   4   67.39    4.80
   3  -5  -4   63.09    4.10
  -3  -5   4   65.69    6.00
   3   5  -4   82.59    7.20
   3   5  -4   68.69    4.90
  -3   5   4   64.89    3.80
   2  -5  -4    7.20    3.10
   2  -5  -4    4.70    1.70
  -2  -5   4    6.40    1.90
  -2  -5   4    5.20    2.70
  -2   5   4    4.60    1.20
   2   5  -4    4.50    3.00
   2   5  -4    3.10    2.30
  -1  -5   4   44.80    3.40
   1  -5  -4   41.10    4.80
   1  -5  -4   48.60    3.70
  -1  -5   4   39.60    3.80
   1   5  -4   49.10    3.90
  -1   5   4   47.00    3.30
  -1   5   4   43.80    4.70
   1   5  -4   43.50    4.10
   0  -5  -4  143.49    9.10
   0  -5  -4  149.59    7.60
   0  -5   4  141.99    7.30
   0   5  -4  126.59    7.50
   0   5   4  140.39    7.40
   0   5   4  141.59    8.80
  -1  -5  -4   42.00    5.50
   1  -5   4   50.99    3.30
  -1  -5  -4   45.40    4.10
  -1   5  -4   49.00    3.50
   1   5   4   48.60    5.30
   1   5   4   45.50    3.70
   2  -5   4   63.29    4.20
  -2  -5  -4   57.69    6.90
  -2  -5  -4   55.89    5.30
   2  -5   4   49.90    4.10
  -2   5  -4   59.39    3.70
   2   5   4   50.79    4.50
   2   5   4   63.09    6.30
   3  -5   4   60.29    5.80
  -3  -5  -4   77.99    5.90
   3  -5   4   71.09    5.10
  -3  -5  -4   84.89    7.80
   3   5   4   69.69    7.70
  -3   5  -4   65.99    4.30
   3   5   4   71.99    6.30
  -4  -5  -4  339.17   19.10
   4  -5   4  323.37   18.10
   4  -5   4  298.47   16.00
  -4  -5  -4  304.67   16.60
   4   5   4  271.87   16.50
  -4   5  -4  335.27   15.10
   4   5   4  345.27   19.10
  -5  -5  -4   15.30    8.50
  -5  -5  -4    5.50    4.40
   5  -5   4   12.80    4.80
   5  -5   4    4.30    6.20
   5   5   4    5.90    5.30
   5   5   4    2.90    6.60
   5   5   4   -0.90    4.70
   6  -5   4    4.80    6.80
  -6  -5  -4   -2.00   10.40
   6  -5   4   16.00   10.00
   6   5   4   11.50    5.70
   6   5   4   -7.10    9.40
   6   5   4   -7.60   11.40
   6  -6  -4   10.80    2.60
   6  -6  -4    8.10    4.70
  -6  -6   4   23.50    7.00
   6   6  -4    6.60    6.50
   6   6  -4    5.00    5.80
   6   6  -4   15.90    7.50
   5  -6  -4   13.30    5.30
  -5  -6   4    0.80    3.00
   5  -6  -4    4.00    2.10
  -5  -6   4    1.10    5.20
   5   6  -4    4.60    6.20
   5   6  -4    0.20    4.20
   5   6  -4    0.30    4.20
  -4  -6   4   19.50    4.80
   4  -6  -4   13.20    2.20
  -4  -6   4   20.50    3.40
   4  -6  -4   21.70    5.20
   4   6  -4   17.00    4.50
   4   6  -4   19.90    3.50
  -3  -6   4   21.00    3.80
   3  -6  -4   16.00    4.20
  -3  -6   4   15.60    2.80
   3  -6  -4   11.90    2.00
   3   6  -4   16.40    3.10
  -3   6   4   14.10    1.60
   3   6  -4   10.30    2.70
   3   6  -4   18.80    4.80
  -2  -6   4    8.30    2.50
   2  -6  -4    3.20    1.90
   2  -6  -4    3.10    3.00
  -2  -6   4    3.60    2.00
   2   6  -4    2.40    3.10
  -2   6   4    2.60    1.20
   2   6  -4    4.10    2.00
   1  -6  -4   69.19    6.10
  -1  -6   4   72.89    4.70
   1  -6  -4   71.09    4.50
  -1  -6   4   73.99    4.90
   1   6  -4   70.89    4.90
  -1   6   4   81.39    6.00
  -1   6   4   73.79    4.20
   1   6  -4   70.19    5.10
   0  -6  -4   23.70    3.80
   0  -6  -4   23.10    3.00
   0  -6   4   22.10    2.60
   0   6   4   21.70    2.60
   0   6   4   27.80    3.70
  -1  -6  -4   36.20    4.40
   1  -6   4   27.70    3.10
  -1  -6  -4   24.60    3.20
   1   6   4   27.90    4.10
   1   6   4   26.00    3.10
  -1   6  -4   28.60    2.70
   2  -6   4   46.20    3.60
  -2  -6  -4   37.10    4.50
   2  -6   4   34.90    3.40
  -2  -6  -4   50.69    6.40
   2   6   4   47.40    6.00
   2   6   4   48.30    4.30
  -2   6  -4   47.90    3.30
  -3  -6  -4   74.99    6.40
   3  -6   4   62.29    6.10
   3  -6   4   80.99    5.30
  -3  -6  -4   91.29    8.70
   3   6   4   81.39    9.20
   3   6   4   85.79    6.30
  -3   6  -4   70.49    4.30
   4  -6   4   13.10    3.50
  -4  -6  -4   19.30    7.00
  -4  -6  -4   14.60    5.00
   4  -6   4   13.90    4.50
   4   6   4   12.20    3.90
   4   6   4   10.70    5.90
   4   6   4   18.50    5.30
  -5  -6  -4   15.80    5.00
   5  -6   4    7.90    5.10
  -5  -6  -4    4.10    7.40
   5  -6   4   10.70    6.30
   5   6   4   10.20    7.20
   5   6   4    8.80    4.40
   5   6   4    6.90    6.70
   6  -7  -4   -1.30    4.30
   6  -7  -4    8.00    2.80
  -6  -7   4   11.20    7.20
   6  -7  -4   16.30    6.60
   6   7  -4    6.30    6.30
   6   7  -4   -2.70    6.60
   6   7  -4   -8.40    8.50
   5  -7  -4   -1.90    2.10
   5  -7  -4    1.40    5.20
  -5  -7   4  -10.40    6.20
  -5  -7   4   -3.30    4.20
   5   7  -4    9.60    6.80
   5   7  -4    6.50    4.70
   4  -7  -4   28.20    5.30
   4  -7  -4   27.20    5.30
  -4  -7   4   30.30    4.00
   4  -7  -4   24.60    2.80
   4   7  -4   24.40    3.80
   4   7  -4   21.20    4.40
  -3  -7   4   27.20    3.40
   3  -7  -4   21.30    2.70
  -3  -7   4   34.10    4.90
   3  -7  -4   22.00    4.70
   3   7  -4   31.30    3.70
   3   7  -4   31.70    5.10
  -3   7   4   25.70    1.80
   3   7  -4   33.60    3.90
  -2  -7   4   84.19    5.50
  -2  -7   4   84.59    6.30
   2  -7  -4   82.69    7.00
   2  -7  -4   79.79    5.00
   2   7  -4   76.89    6.60
  -2   7   4   84.59    4.40
   2   7  -4   81.19    5.40
   1  -7  -4   34.80    5.20
  -1  -7   4   37.90    3.90
   1  -7  -4   33.90    3.50
  -1  -7   4   33.20    3.60
  -1   7   4   39.30    3.00
   1   7  -4   37.50    3.40
  -1   7   4   34.50    4.10
   1   7  -4   41.20    4.30
   0  -7   4   69.49    4.20
   0  -7  -4   54.59    6.40
   0  -7  -4   72.69    4.90
   0   7   4   64.69    6.10
   0   7   4   71.19    4.50
   0   7  -4   59.89    4.00
  -1  -7  -4    7.50    3.70
   1  -7   4    5.50    1.90
  -1  -7  -4    5.70    2.60
   1   7   4    6.30    3.50
   1   7   4    4.80    2.50
  -1   7  -4    4.70    2.00
  -2  -7  -4  156.18   10.40
  -2  -7  -4  145.79    8.60
   2  -7   4  136.89    8.10
   2  -7   4  147.69    7.70
   2  -7   4  142.29    8.10
  -2   7  -4  148.09    7.40
   2   7   4  148.89   10.30
   2   7   4  141.79    8.30
   3  -7   4   61.29    4.90
  -3  -7  -4   65.79    6.10
   3  -7   4   46.60    5.60
   3   7   4   60.79    5.90
  -3   7  -4   56.79    3.20
  -4  -7  -4    6.80    6.90
   4  -7   4    3.00    3.60
   4  -7   4    6.00    4.40
  -4  -7  -4   13.40    4.50
   4   7   4   10.90    6.00
   4   7   4   13.30    4.70
   4   7   4   15.50    4.70
  -5  -7  -4    9.60    6.60
  -5  -7  -4    7.00    7.70
   5  -7   4    5.10    4.80
   5  -7   4    4.70    6.20
   5   7   4    9.30    4.90
   5   7   4    7.20    7.60
   5   7   4    1.90    7.10
  -6  -8   4   24.10    7.90
   6  -8  -4   35.40    7.50
   6   8  -4   23.40    6.20
   6   8  -4   22.40    9.90
   6   8  -4   14.60    7.50
  -5  -8   4   -0.40    7.00
  -5  -8   4    1.60    4.00
   5  -8  -4    2.50    5.80
   5  -8  -4    9.90    2.30
   5   8  -4   12.60    8.40
   5   8  -4   13.50    5.30
   5   8  -4    1.00    5.20
  -4  -8   4    2.70    4.20
   4  -8  -4    7.10    2.00
   4  -8  -4   -1.40    4.50
   4  -8  -4   -3.40    4.90
   4   8  -4   -3.20    7.20
   4   8  -4    6.00    3.70
   4   8  -4    3.60    3.20
  -3  -8   4   14.10    4.00
  -3  -8   4   10.10    3.20
   3   8  -4    7.40    4.60
   3   8  -4   15.40    3.70
   3   8  -4   13.60    4.00
   2  -8  -4    8.20    2.30
  -2  -8   4   14.70    3.50
  -2  -8   4    8.70    3.00
   2  -8  -4    8.30    3.60
  -2   8   4    8.80    1.30
   2   8  -4    9.40    3.90
   2   8  -4   10.60    2.70
   2   8  -4    8.10    3.00
  -1  -8   4   27.70    3.20
  -1  -8   4   26.60    3.90
   1  -8  -4   38.40    3.60
   1  -8  -4   32.90    4.30
   1   8  -4   27.50    4.10
  -1   8   4   26.20    2.60
  -1   8   4   29.70    3.90
   1   8  -4   25.40    3.10
   0  -8   4  114.19    6.40
   0  -8  -4  120.29    6.80
   0  -8   4  117.99    6.40
   0  -8  -4  106.49    8.50
   0   8  -4  106.29    6.30
   0   8  -4  117.09    6.40
   0   8   4  113.79    6.40
   0   8   4  115.89    8.30
  -1  -8  -4   81.09    5.50
  -1  -8  -4   68.19    7.10
   1  -8   4   70.49    4.80
   1   8   4   76.59    5.10
  -1   8  -4   79.99    4.70
   1   8   4   71.29    7.00
  -2  -8  -4  309.57   15.90
   2  -8   4  300.47   15.00
   2  -8   4  296.97   16.20
  -2  -8  -4  325.67   18.20
   2  -8   4  289.47   16.20
  -2   8  -4  319.97   14.70
   2   8   4  308.17   15.60
   2   8   4  326.87   18.20
   3  -8   4  189.38   11.20
  -3  -8  -4  196.28   11.80
  -3  -8  -4  196.28   13.10
   3  -8   4  178.78    9.80
   3  -8   4  175.98   10.90
   3   8   4  191.88   13.30
   3   8   4  182.88   10.90
   3   8   4  181.68   10.90
   4  -8   4   21.80    4.70
  -4  -8  -4   28.50    6.70
  -4  -8  -4   35.70    6.30
   4  -8   4   18.30    3.80
   4   8   4   31.30    5.40
   4   8   4   37.00    6.60
   4   8   4   24.40    4.80
   5  -8   4    3.90    4.60
   5  -8   4    4.60    6.40
  -5  -8  -4   10.60    7.90
  -5  -8  -4   11.00    6.90
   5   8   4   13.20    8.10
   5   8   4   24.20    7.70
   5   8   4    9.20    6.80
   6  -9  -4   -5.90    8.30
   6  -9  -4   -4.90    4.10
   6  -9  -4   -2.10    8.30
  -6  -9   4   -2.80    9.00
   6  -9  -4    7.10    3.30
   6   9  -4    6.40    8.00
   6   9  -4    4.30   11.20
   6   9  -4    3.80    6.50
   5  -9  -4   21.60    6.60
  -5  -9   4   18.80    4.80
   5  -9  -4   18.40    3.00
  -5  -9   4   21.80    7.00
   5   9  -4   13.90    8.10
   5   9  -4   13.30    5.90
   5   9  -4   18.60    6.00
  -4  -9   4    5.60    4.90
   4  -9  -4    2.50    2.10
  -4  -9   4    6.20    3.70
   4  -9  -4    2.70    5.10
   4   9  -4    2.70    4.90
   4   9  -4    5.70    3.60
   4   9  -4   11.90    6.40
   3  -9  -4   36.00    5.70
   3  -9  -4   39.10    3.70
  -3  -9   4   45.50    5.90
  -3  -9   4   45.30    5.20
   3   9  -4   47.80    6.20
   3   9  -4   48.50    5.50
   3   9  -4   45.70    5.80
  -2  -9   4   74.29    6.60
   2  -9  -4   68.79    4.70
  -2  -9   4   71.59    5.40
   2  -9  -4   67.09    7.30
  -2   9   4   70.69    4.20
   2   9  -4   76.59    5.90
   2   9  -4   67.89    7.60
  -2   9   4   66.49    3.80
   2   9  -4   63.49    5.30
  -1  -9   4    3.20    2.70
   1  -9  -4    2.80    2.60
   1  -9  -4    3.40    3.60
  -1  -9   4    2.70    2.60
  -1   9   4    5.20    1.70
   1   9  -4    5.70    2.20
   1   9  -4    7.80    2.50
  -1   9   4    6.10    3.20
   1   9  -4    6.00    3.00
   0  -9   4   23.00    3.20
   0  -9  -4   33.90    4.80
   0  -9  -4   27.00    3.20
   0   9   4   34.10    4.40
   0   9  -4   24.90    3.20
   0   9  -4   21.40    2.80
   0   9  -4   26.60    3.30
   0   9   4   25.70    3.00
  -1  -9  -4   11.30    3.70
  -1  -9  -4   11.80    4.40
   1  -9   4   12.50    2.30
   1   9   4   16.00    4.40
  -1   9  -4   10.70    2.30
   1   9   4   11.90    2.50
  -1   9  -4    9.80    1.90
   2  -9   4   52.39    4.60
   2  -9   4   59.69    4.60
   2  -9   4   58.29    4.50
  -2  -9  -4   50.99    6.50
   2   9   4   60.29    5.60
   2   9   4   53.49    5.20
  -2   9  -4   56.19    3.40
  -2   9  -4   61.09    3.60
   3  -9   4   98.99    6.50
  -3  -9  -4  118.69   10.40
   3  -9   4  104.19    7.80
   3  -9   4  103.09    7.40
  -3  -9  -4   97.19    9.00
   3   9   4  101.29    7.90
   3   9   4  111.89    7.90
   3   9   4  101.39   10.00
  -4  -9  -4    6.60    6.50
   4  -9   4    4.20    5.10
   4  -9   4   -1.30    3.10
  -4  -9  -4    0.10    5.00
   4  -9   4   -0.50    5.60
   4   9   4    1.30    4.30
   4   9   4   -1.80    5.10
   4   9   4   23.40    6.80
  -5  -9  -4    2.30    6.30
   5  -9   4    3.50    6.60
  -5  -9  -4    0.00    8.20
   5   9   4   -0.60    8.60
   5   9   4   25.60    7.90
   5   9   4    8.80    7.70
   5 -10  -4    4.10    2.80
   5 -10  -4    3.20    7.00
  -5 -10   4    3.30    7.00
  -5 -10   4    5.80    4.80
   5 -10  -4    3.70    6.20
   5  10  -4   -2.40    5.90
   5  10  -4   12.10    9.30
   5  10  -4    5.80    5.00
  -4 -10   4   12.70    4.30
  -4 -10   4    7.80    5.70
   4 -10  -4    6.20    2.50
   4 -10  -4    9.00    5.40
   4  10  -4    5.10    4.00
   4  10  -4   11.10    8.00
   4  10  -4    6.20    4.30
  -3 -10   4   18.90    5.70
  -3 -10   4   22.70    4.20
   3 -10  -4   20.40    3.00
   3 -10  -4   15.10    5.00
   3  10  -4   18.00    4.00
   3  10  -4   31.50    6.60
   3  10  -4   23.30    4.00
  -2 -10   4   32.90    4.40
  -2 -10   4   30.00    4.80
   2  10  -4   31.20    4.10
  -2  10   4   33.40    2.40
  -2  10   4   33.90    2.80
   2  10  -4   26.00    3.50
   2  10  -4   34.90    5.30
   1 -10  -4   70.49    7.50
   1 -10  -4   79.89    5.40
  -1 -10   4   68.89    5.20
  -1 -10   4   69.69    6.00
   1  10  -4   59.19    6.20
  -1  10   4   68.79    4.30
   1  10  -4   69.99    5.00
  -1  10   4   76.29    5.00
  -1  10   4   64.39    6.70
   1  10  -4   72.29    5.10
   0 -10  -4    7.30    3.40
   0 -10   4    4.40    2.10
   0 -10   4    6.20    2.40
   0 -10  -4   -1.20    4.00
   0  10  -4    2.40    2.10
   0  10  -4    1.60    2.10
   0  10   4    4.60    3.70
   0  10  -4    2.10    2.10
   0  10   4    1.40    2.40
   0  10   4    3.70    2.20
   1 -10   4   12.40    2.30
  -1 -10  -4   18.00    3.70
   1 -10   4   14.40    2.70
   1  10   4    9.00    2.60
  -1  10  -4   11.60    2.00
   1  10   4   13.30    3.50
  -1  10  -4   10.70    2.00
   2 -10   4    7.80    2.60
   2 -10   4    5.70    2.60
  -2 -10  -4    9.00    4.00
   2 -10   4    8.40    2.60
  -2 -10  -4    9.30    5.40
   2  10   4    1.00    4.80
  -2  10  -4    9.80    1.70
   2  10   4    9.10    3.40
   2  10   4    8.40    3.90
  -3 -10  -4  216.58   14.90
   3 -10   4  207.78   12.30
  -3 -10  -4  199.48   12.70
   3 -10   4  206.48   12.40
   3 -10   4  207.38   11.00
   3  10   4  225.68   14.50
   3  10   4  222.48   12.40
   3  10   4  217.38   12.60
  -4 -10  -4    5.60    5.30
  -4 -10  -4    0.40    6.70
   4 -10   4   14.00    5.40
   4 -10   4    0.00    5.70
   4 -10   4    6.90    3.40
   4  10   4   10.60    6.80
   4  10   4   20.10    7.10
   4  10   4    7.90    5.20
   5 -10   4    3.30    9.50
   5 -10   4    9.20    7.90
   5 -10   4    1.80    4.40
  -5 -10  -4    8.60    8.80
  -5 -10  -4   -9.30    8.30
   5  10   4   16.40    8.80
   5  10   4    7.50    8.40
   5 -11  -4   -8.50    7.00
   5 -11  -4  -16.30    7.70
  -5 -11   4   15.00    8.10
   5 -11  -4    2.10    3.10
  -5 -11   4   -0.40    5.60
   5  11  -4   12.00   10.40
   5  11  -4    2.40    5.70
   4 -11  -4   15.40    3.00
  -4 -11   4   10.40    7.00
  -4 -11   4   -2.90    4.20
   4 -11  -4   13.20    6.20
   4  11  -4    1.50    7.50
   4  11  -4    5.50    5.00
   4  11  -4   -0.70    4.20
   3 -11  -4    7.50    2.80
   3 -11  -4    5.60    4.80
  -3 -11   4    4.20    3.80
  -3 -11   4    5.20    5.80
   3  11  -4   21.30    6.80
   3  11  -4    9.10    4.60
   3  11  -4    6.00    3.70
  -2 -11   4   36.30    5.10
   2 -11  -4   25.70    5.10
  -2 -11   4   31.50    4.50
   2 -11  -4   29.20    3.90
   2  11  -4   23.50    3.40
   2  11  -4   25.90    3.70
   2  11  -4   31.40    5.80
  -2  11   4   29.50    2.20
  -2  11   4   22.40    2.60
  -1 -11   4    7.90    2.60
  -1 -11   4   11.20    3.70
   1  11  -4   11.60    3.80
  -1  11   4    9.00    2.00
  -1  11   4    8.20    2.40
   0 -11   4   20.60    3.30
   0 -11  -4   22.40    4.00
   0 -11   4   20.90    3.40
   0  11  -4   21.20    2.90
   0  11  -4   18.80    2.90
   0  11  -4   21.50    2.90
   0  11   4   22.60    3.40
  -1 -11  -4    6.70    3.40
  -1 -11  -4    0.60    4.60
   1 -11   4    0.20    2.50
   1 -11   4    4.80    2.60
   1  11   4    3.00    4.80
   1  11   4    5.90    3.50
  -1  11  -4    3.30    2.10
  -1  11  -4    3.10    1.70
  -2 -11  -4    4.90    5.70
   2 -11   4   -0.30    2.80
   2 -11   4    0.00    2.80
   2 -11   4    3.40    2.70
  -2 -11  -4    2.40    4.10
  -2  11  -4   -1.40    1.20
   2  11   4   -0.30    4.20
  -2  11  -4    0.10    1.10
   2  11   4   -4.50    5.10
   3 -11   4    3.70    4.20
   3 -11   4    4.00    2.90
   3 -11   4   -2.40    3.90
  -3 -11  -4    1.30    4.70
  -3 -11  -4   -2.40    6.00
   3  11   4    6.60    4.30
   3  11   4    1.70    5.90
  -4 -11  -4   53.19    8.20
   4 -11   4   40.80    6.30
  -4 -11  -4   57.29    8.50
   4 -11   4   31.20    4.10
   4 -11   4   43.70    6.70
   4  11   4   44.90    8.10
   4  11   4   43.30    7.30
   4  11   4   44.40    6.70
   5 -12  -4    7.60    9.90
  -5 -12   4    6.60    6.60
   5 -12  -4   13.00    9.30
  -5 -12   4    6.90   10.10
   5 -12  -4    7.40    2.90
   5  12  -4   -3.80   11.20
   5  12  -4    1.80    7.90
   5  12  -4    9.70    9.20
  -4 -12   4   25.00    7.10
   4 -12  -4   23.60    3.50
  -4 -12   4   18.60    6.60
   4 -12  -4   32.00    7.30
   4  12  -4   12.30    5.00
   4  12  -4   41.00    8.90
   4  12  -4   20.40    6.50
   3 -12  -4   38.40    6.20
   3 -12  -4   42.10    4.00
  -3 -12   4   38.30    5.20
   3  12  -4   30.30    5.60
   3  12  -4   32.00    4.80
   2 -12  -4   29.00    3.70
   2 -12  -4   28.40    5.20
  -2 -12   4   32.60    5.50
  -2 -12   4   30.70    4.40
  -2  12   4   27.90    2.60
  -2  12   4   26.70    2.10
   2  12  -4   24.50    3.90
   2  12  -4   31.70    6.20
   2  12  -4   34.50    4.40
  -1 -12   4   12.70    4.20
   1 -12  -4   10.00    3.60
  -1 -12   4   12.40    3.10
   1 -12  -4   17.60    4.90
   1  12  -4   15.50    4.30
   1  12  -4   14.10    3.00
  -1  12   4   11.50    2.60
  -1  12   4   11.40    2.20
  -1  12   4   15.20    4.10
   0 -12  -4   16.20    4.10
   0 -12   4   19.20    3.50
   0 -12  -4   20.80    5.40
   0 -12   4   22.90    4.00
   0  12  -4   23.40    3.40
   0  12  -4   21.30    2.70
   0  12   4   17.00    3.40
   0  12  -4   17.00    3.00
   0  12   4   25.70    4.80
   0  12   4   19.80    3.00
   1 -12   4   32.80    3.70
  -1 -12  -4   27.40    5.90
   1 -12   4   34.20    4.40
  -1  12  -4   27.80    3.00
  -1  12  -4   30.00    3.40
   1  12   4   26.20    4.50
   1  12   4   42.70    5.80
   1  12   4   27.10    3.70
  -2 -12  -4   12.10    4.80
  -2 -12  -4   15.40    6.00
   2 -12   4   11.30    3.50
   2 -12   4   13.80    3.60
   2 -12   4   17.90    2.90
   2  12   4   20.90    4.20
   2  12   4   23.00    5.70
   2  12   4   11.90    4.20
  -3 -12  -4   54.99    7.00
   3 -12   4   54.19    7.70
   3 -12   4   47.40    6.70
  -3 -12  -4   63.49    8.30
   3 -12   4   58.09    5.20
   3  12   4   66.79    9.60
   3  12   4   53.89    6.50
   3  12   4   57.19    6.90
  -4 -12  -4  147.89   13.60
   4 -12   4  154.98   11.50
  -4 -12  -4  156.68   13.80
   4 -12   4  133.99   12.20
   4  12   4  143.89   11.80
   4  12   4  136.69   12.90
   4  12   4  120.59   12.20
   4 -13  -4   69.99    5.10
  -4 -13   4   73.09   10.20
  -4 -13   4   66.99    7.90
   4 -13  -4   48.40    8.80
   4  13  -4   75.89    8.90
   4  13  -4   80.89   11.60
   4  13  -4   63.49    8.20
  -3 -13   4   82.99   10.60
   3 -13  -4   85.49   10.10
  -3 -13   4   70.09    7.90
   3 -13  -4   72.69    5.30
   3  13  -4   87.29    8.50
   3  13  -4   75.09    7.50
   3  13  -4   79.79   11.50
  -2 -13   4    0.70    4.50
  -2 -13   4   -8.70    5.20
   2 -13  -4    2.50    2.90
   2 -13  -4    3.50    5.00
   2  13  -4    3.10    3.50
   2  13  -4    8.10    6.00
   2  13  -4    0.30    4.10
  -2  13   4    2.50    1.00
  -1 -13   4   -2.70    4.60
   1 -13  -4    3.50    4.60
  -1 -13   4   -1.20    3.70
   1 -13  -4   -3.10    3.40
   1  13  -4    3.10    2.50
  -1  13   4   -4.70    3.70
   1  13  -4    3.90    3.20
  -1  13   4   -0.10    1.90
   1  13  -4    5.20    4.60
  -1  13   4    5.00    2.40
   0 -13   4   11.50    4.20
   0 -13  -4   15.90    5.50
   0 -13   4   14.20    3.50
   0 -13  -4   11.40    3.90
   0  13   4   20.50    2.70
   0  13  -4   13.30    2.50
   0  13   4    8.20    4.00
   0  13   4   11.10    3.50
   0  13  -4   14.90    3.30
   0  13  -4   11.40    2.90
   1 -13   4   28.50    3.90
  -1 -13  -4   35.60    6.30
  -1 -13  -4   37.20    5.00
   1 -13   4   34.30    4.30
   1  13   4   34.00    3.70
  -1  13  -4   32.00    2.90
   1  13   4   43.20    6.00
  -1  13  -4   27.80    3.50
  -2 -13  -4   10.30    5.80
   2 -13   4   10.30    3.30
   2 -13   4   10.60    3.70
  -2 -13  -4   12.40    5.80
   2 -13   4    3.50    3.70
   2  13   4    9.90    3.50
   2  13   4    6.80    4.40
   2  13   4   17.70    6.00
   3 -13   4   67.29    6.20
   3 -13   4   68.69    7.80
   3 -13   4   72.99    8.20
  -3 -13  -4   68.19    7.80
  -3 -13  -4   72.89   10.70
   3  13   4   89.79   10.50
   3  13   4   64.39    7.70
   3  13   4   69.49    9.10
  -4 -13  -4   90.39   11.30
   4 -13   4   70.39    6.10
   4 -13   4   74.49   11.10
   4 -13   4   75.39   10.00
   4  13   4   67.59    9.70
   4  13   4   89.89   10.60
   4 -14  -4  100.99    6.40
  -4 -14   4  109.19   13.80
   4 -14  -4   96.19   14.20
   4  14  -4  101.79   10.50
   4  14  -4   85.59   14.00
  -3 -14   4   41.00    8.50
   3 -14  -4   40.90    4.40
   3 -14  -4   21.40    7.00
  -3 -14   4   35.70    7.00
   3  14  -4   25.30    9.40
   3  14  -4   28.00    5.10
   3  14  -4   34.90    6.30
   2 -14  -4   -1.70    2.80
   2 -14  -4   19.70    5.80
  -2 -14   4    0.20    4.80
  -2 -14   4   -0.20    6.80
   2  14  -4   11.70    6.60
   2  14  -4    0.30    3.40
   2  14  -4   -4.80    3.50
   1 -14  -4   20.70    5.50
  -1 -14   4   17.90    5.50
   1 -14  -4   17.60    3.60
  -1 -14   4   17.80    4.00
   1  14  -4   13.10    3.00
  -1  14   4   14.80    2.90
  -1  14   4   18.00    4.40
   1  14  -4   17.70    3.80
   1  14  -4   21.90    5.30
  -1  14   4   16.80    2.10
   0 -14   4   71.79    7.00
   0 -14   4   68.69    7.80
   0 -14  -4   77.89    6.70
   0 -14  -4   63.49    8.70
   0  14   4   70.79    5.20
   0  14   4   69.69    6.60
   0  14   4   85.79    7.70
   0  14  -4   63.49    6.60
   0  14  -4   67.19    6.00
   0  14  -4   65.09    5.00
   1 -14   4   49.40    7.00
  -1 -14  -4   45.80    7.10
   1 -14   4   60.59    6.10
  -1 -14  -4   67.79    7.80
   1  14   4   63.29    5.20
  -1  14  -4   59.59    3.80
  -1  14  -4   55.89    4.60
   1  14   4   62.99    7.90
  -2 -14  -4   16.00    5.60
   2 -14   4   15.90    4.40
   2 -14   4   14.20    4.40
  -2 -14  -4   13.60    6.50
   2 -14   4   12.00    3.90
   2  14   4    8.10    4.60
   2  14   4   18.10    6.60
   2  14   4   14.80    6.10
   3 -14   4   32.10    6.10
  -3 -14  -4   42.40    7.30
   3 -14   4   42.10    5.90
   3 -14   4   29.60    4.40
  -3 -14  -4   19.60    8.20
   3  14   4   44.40    7.80
   3  14   4   25.40    7.00
   3  14   4   14.40    6.70
  -3 -15   4   34.70    8.10
  -3 -15   4   21.60    7.60
   3 -15  -4   27.90    3.90
   3 -15  -4   12.50    7.90
   3  15  -4   27.10   10.40
   3  15  -4   16.60    6.20
   2 -15  -4   34.80    4.50
  -2 -15   4   22.60    5.30
   2 -15  -4   42.10    7.30
   2  15  -4   19.20    4.40
   2  15  -4   28.20    5.50
   1 -15  -4    5.40    3.80
  -1 -15   4   -1.10    4.80
   1 -15  -4    9.60    5.80
  -1 -15   4    4.70    6.10
  -1  15   4    1.90    3.10
  -1  15   4   -1.70    4.60
   1  15  -4    0.20    2.90
   1  15  -4    0.40    3.90
   1  15  -4    3.40    5.40
   0 -15  -4    2.50    3.60
   0 -15  -4   -3.50    5.50
   0 -15   4    6.30    4.40
   0 -15   4    5.00    5.00
   0  15  -4    6.80    3.40
   0  15   4    8.90    2.80
   0  15   4   11.70    4.70
   0  15   4   -0.50    3.60
   0  15  -4    3.10    2.20
  -1 -15  -4   59.19    7.20
  -1 -15  -4   42.00    5.80
   1 -15   4   41.40    5.00
   1 -15   4   48.30    6.10
   1  15   4   45.10    4.90
  -1  15  -4   46.40    3.40
   1  15   4   38.80    5.80
   1  15   4   55.89    8.20
  -1  15  -4   38.60    4.20
   2 -15   4   32.30    4.80
   2 -15   4   29.10    5.50
   2 -15   4   27.30    5.40
  -2 -15  -4   42.00    7.90
  -2 -15  -4   14.30    6.40
   2  15   4   41.30    7.10
   2  15   4   34.40    4.90
   3 -15   4    9.00    6.40
  -3 -15  -4   19.30    7.60
   3 -15   4   13.90    6.50
   3  15   4   -6.50    7.80
   3  15   4    5.00    5.50
   3 -16  -4   -1.40    3.50
   3 -16  -4   15.60    9.10
  -3 -16   4    2.10    8.10
  -3 -16   4    5.10   10.60
   3  16  -4    3.40   10.30
   3  16  -4    1.90    5.00
  -2 -16   4    8.00    8.20
   2 -16  -4    4.10    8.40
  -2 -16   4   12.90    6.70
   2 -16  -4    9.40    4.50
   2  16  -4    9.90    3.50
   2  16  -4   19.00    8.40
  -1 -16   4   28.10    6.00
   1 -16  -4    6.80    6.70
  -1 -16   4   26.50    7.50
   1 -16  -4   39.90    5.00
  -1  16   4   24.20    2.80
  -1  16   4   26.40    5.60
   1  16  -4   29.10    6.10
  -1  16   4   21.80    3.60
   1  16  -4   23.80    4.90
   0 -16   4    4.40    5.30
   0 -16  -4   -2.10    3.90
   0 -16  -4   -4.00    6.10
   0 -16   4   -0.70    6.30
   0  16  -4    4.00    2.70
   0  16   4    7.40    5.30
   0  16   4    0.00    2.50
   0  16   4    0.80    4.00
   0  16  -4    1.40    4.10
  -1 -16  -4   -5.00    6.50
  -1 -16  -4   10.50    6.50
   1 -16   4    4.10    4.70
   1 -16   4    4.20    5.90
   1  16   4   -3.20    4.70
   1  16   4    2.90    3.40
   1  16   4   18.40    6.80
  -1  16  -4   -0.10    1.80
   2 -16   4    2.80    5.10
  -2 -16  -4   -5.80    6.20
  -2 -16  -4   29.60    8.10
   2 -16   4    6.40    6.00
   2 -16   4   -1.80    5.40
   2  16   4    7.90    5.40
   2  16   4    3.60    6.70
   2  16   4   -5.90    5.30
  -2 -17   4   14.80    9.70
   2 -17  -4   20.00    9.00
  -2 -17   4   21.20    7.80
   2  17  -4   15.40    9.60
   2  17  -4   16.10    4.60
   1 -17  -4   25.70    5.10
  -1 -17   4   26.40    7.90
   1 -17  -4   27.20    8.50
  -1 -17   4   13.80    5.60
   1  17  -4   23.90    3.60
   1  17  -4   -1.50    4.60
  -1  17   4   13.10    2.30
   0 -17   4    4.80    5.90
   0 -17  -4    2.00    5.60
   0 -17  -4   -8.00    7.20
   0 -17   4    3.60    7.00
   0  17  -4   11.40    2.50
   0  17  -4    7.40    4.60
   0  17   4   -0.50    4.70
   0  17   4   14.00    6.20
   0  17   4    2.10    2.80
   1 -17   4    3.60    7.30
  -1 -17  -4   -1.80    5.60
   1 -17   4    5.40    5.50
  -1 -17  -4    3.20    7.70
  -1  17  -4    4.60    2.20
   1  17   4    8.00    3.80
  -1  17  -4   -1.80    3.00
   1  17   4   10.80    7.30
   6   0  -5   -1.20    4.70
   6   0  -5   -0.40    3.10
  -5   0   5   87.59    5.80
   5   0  -5   87.59    5.80
   5   0  -5   97.09    8.80
  -4   0   5   55.79    4.60
   4   0  -5   61.89    4.80
   4   0  -5   64.09    7.20
   3   0  -5    6.90    1.90
   3   0  -5    8.50    3.40
  -3   0   5    6.70    2.00
   2   0  -5    4.70    1.70
  -2   0   5    4.40    1.60
   2   0  -5    3.70    3.00
   1   0  -5    1.90    2.20
  -1   0   5    3.90    1.80
   1   0  -5    2.80    1.80
   0   0  -5   36.40    3.40
   0   0   5   41.80    3.70
   0   0   5   33.40    3.20
   0   0  -5   36.00    3.80
   1   0   5  309.27   14.60
  -1   0  -5  295.27   16.10
   1   0   5  310.07   16.00
  -1   0  -5  280.97   14.60
   2   0   5  174.18    9.60
   2   0   5  194.08   10.80
  -2   0  -5  170.88    9.50
  -2   0  -5  187.98   10.80
  -3   0  -5   -1.20    4.30
  -3   0  -5   -3.00    2.00
   3   0   5    3.00    3.70
   3   0   5    2.30    3.40
   4   0   5    0.60    4.50
   4   0   5    0.90    4.30
  -4   0  -5   -4.10    3.40
  -4   0  -5    0.20    5.10
  -5   0  -5  147.79    9.00
  -5   0  -5  127.69   12.50
   5   0   5  109.29    9.80
   5   0   5  133.59   12.00
   6   0   5   10.70   11.40
  -6   0  -5    6.20    6.40
   6   0   5    8.40    9.20
   6   0   5   24.70    4.80
  -6   0  -5   13.50   10.60
   6  -1  -5    5.80    5.50
  -6  -1   5   -0.90    2.30
   6  -1  -5    9.10    3.00
   6   1  -5   -2.30    3.40
   6   1  -5    2.80    6.40
  -5  -1   5   87.49    5.80
   5  -1  -5   89.89    5.80
   5   1  -5   77.89    8.10
  -5   1   5   79.49    5.30
   5   1  -5   80.99    5.70
   4  -1  -5   19.10    2.80
  -4  -1   5   15.60    2.30
   4   1  -5   25.10    4.90
   4   1  -5   20.50    2.70
   3  -1  -5   34.00    4.90
   3  -1  -5   32.60    3.30
  -3  -1   5   33.30    3.20
   3   1  -5   27.70    3.20
   3   1  -5   36.10    4.80
  -3   1   5   31.10    3.20
  -2  -1   5   42.60    3.30
   2  -1  -5   39.30    3.30
  -2   1   5   48.30    3.50
   2   1  -5   38.90    4.30
   2   1  -5   43.30    3.40
  -1  -1   5  486.35   22.40
   1  -1  -5  481.05   24.90
   1  -1  -5  474.75   22.40
   1   1  -5  472.05   22.40
  -1   1   5  441.16   22.30
   1   1  -5  485.55   24.70
   0  -1  -5    9.20    2.30
   0  -1   5   10.90    2.10
   0  -1  -5   17.70    2.80
   0   1  -5   13.50    2.30
   0   1   5   11.80    2.40
   0   1   5   11.40    2.50
   0   1  -5    8.90    2.10
  -1  -1  -5   87.99    5.40
  -1  -1  -5   82.79    6.10
   1  -1   5   85.09    5.40
   1  -1   5   80.49    5.20
   1   1   5   84.89    5.80
   1   1   5   82.19    5.20
  -1   1  -5   77.09    5.20
  -1   1  -5   87.09    5.60
   2  -1   5  548.05   27.60
  -2  -1  -5  493.85   25.10
   2  -1   5  502.15   25.00
  -2  -1  -5  536.45   27.80
  -2   1  -5  518.85   27.60
   2   1   5  549.65   25.20
   2   1   5  541.45   27.80
   3  -1   5   11.50    3.60
   3  -1   5   18.60    3.90
  -3  -1  -5   12.10    4.20
  -3   1  -5   12.00    3.20
   3   1   5   16.40    4.30
   3   1   5   13.00    3.20
  -3   1  -5   12.00    4.60
   4  -1   5  111.69    9.10
   4  -1   5  153.18   10.60
  -4  -1  -5  119.09   11.20
  -4  -1  -5  145.49    8.70
   4   1   5  125.69    9.20
  -4   1  -5  131.79   10.30
  -4   1  -5  136.59    8.30
   4   1   5  134.59   10.40
  -5  -1  -5  140.79   12.20
   5  -1   5  151.78   12.10
  -5  -1  -5  139.09    9.80
   5  -1   5  104.19   10.70
   5   1   5  160.58   12.50
   5   1   5  111.09    9.70
  -5   1  -5  164.78    9.50
   6  -1   5    6.90    8.90
  -6  -1  -5    9.40   10.90
   6  -1   5    7.00   11.20
   6   1   5   11.30    4.20
   6   1   5    7.20   10.00
  -6   1  -5   10.90   10.50
   6  -2  -5    7.50    5.30
   6  -2  -5    8.70    3.10
  -6  -2   5    3.20    2.70
   6   2  -5    1.70    3.70
   6   2  -5   10.30    6.30
   5  -2  -5   16.00    2.40
  -5  -2   5   16.20    2.90
   5   2  -5   11.20    5.50
   5   2  -5   14.50    2.90
  -5   2   5   15.20    2.20
  -4  -2   5   29.80    3.50
   4   2  -5   35.00    3.80
   4   2  -5   37.50    5.50
   3  -2  -5   30.60    4.40
  -3  -2   5   32.10    3.20
   3  -2  -5   30.40    2.90
   3   2  -5   39.20    5.10
   3   2  -5   36.90    3.40
  -3   2   5   25.00    2.90
   2  -2  -5   36.80    4.50
   2  -2  -5   40.40    3.20
  -2  -2   5   38.90    3.30
   2   2  -5   46.00    4.70
  -2   2   5   41.40    3.10
   2   2  -5   33.80    3.30
   1  -2  -5  398.86   20.50
   1  -2  -5  365.76   18.20
  -1  -2   5  397.96   18.30
   1   2  -5  387.66   18.30
   1   2  -5  371.06   20.00
  -1   2   5  370.56   18.20
   0  -2   5   76.09    4.80
   0  -2  -5   74.59    4.90
   0  -2  -5   78.89    5.70
   0   2  -5   77.79    4.80
   0   2  -5   73.59    4.70
   0   2   5   78.79    5.00
   0   2   5   74.49    5.50
  -1  -2  -5   31.30    3.40
   1  -2   5   25.00    2.60
   1  -2   5   26.90    3.00
  -1  -2  -5   26.40    3.40
  -1   2  -5   27.60    3.00
   1   2   5   22.50    3.10
  -1   2  -5   27.90    3.50
   1   2   5   26.20    3.70
  -2  -2  -5   32.90    4.00
  -2  -2  -5   38.00    4.50
   2  -2   5   28.00    3.40
   2  -2   5   38.70    4.30
  -2   2  -5   34.20    3.70
  -2   2  -5   29.70    4.30
   2   2   5   36.60    3.90
   2   2   5   26.70    3.50
   3  -2   5   32.70    4.30
   3  -2   5   52.49    5.90
  -3  -2  -5   41.60    4.70
  -3  -2  -5   43.00    5.60
   3   2   5   33.50    4.20
  -3   2  -5   39.80    4.20
   3   2   5   43.00    6.10
  -3   2  -5   39.30    5.80
   4  -2   5   44.90    5.50
  -4  -2  -5   48.20    7.60
   4  -2   5   51.19    7.70
  -4   2  -5   43.40    5.00
   4   2   5   51.29    6.70
  -4   2  -5   52.79    6.50
  -5  -2  -5  132.19   13.20
   5  -2   5  128.59   11.20
  -5  -2  -5  137.59    9.80
   5  -2   5  104.19    9.20
   5   2   5  115.19    9.70
  -5   2  -5  113.39   11.90
   5   2   5  135.09   12.30
  -5   2  -5  137.59    8.50
  -6  -3   5   12.60    3.10
   6  -3  -5    6.00    2.90
   6  -3  -5    2.30    5.10
   6   3  -5    3.50    6.30
   6   3  -5    9.90    7.00
   6   3  -5    8.40    3.60
  -5  -3   5   11.50    2.90
   5  -3  -5    6.40    2.50
   5   3  -5    6.30    4.10
  -5   3   5    7.50    1.80
   5   3  -5   14.30    5.80
   5   3  -5   10.20    3.10
  -4  -3   5  146.19    8.00
   4   3  -5  120.69    7.70
   4   3  -5  123.29   10.40
  -4   3   5  132.59    7.10
  -3  -3   5   12.70    2.30
   3  -3  -5   14.20    2.30
   3  -3  -5   13.50    3.80
  -3   3   5   14.50    1.90
   3   3  -5   15.20    3.80
   3   3  -5   15.90    2.50
  -2  -3   5   32.60    3.10
   2  -3  -5   27.80    3.10
   2  -3  -5   29.80    3.60
   2   3  -5   31.20    4.50
   2   3  -5   25.50    3.10
  -2   3   5   30.00    2.80
   1  -3  -5  135.19    7.10
  -1  -3   5  136.39    7.20
   1  -3  -5  140.69    8.50
   1   3  -5  131.09    7.70
   1   3  -5  121.49    7.10
  -1   3   5  131.79    7.00
   0  -3  -5   59.49    5.70
   0  -3   5   60.39    4.00
   0  -3  -5   57.79    4.20
   0   3   5   55.49    4.70
   0   3  -5   55.69    3.60
   0   3  -5   55.59    3.90
   0   3   5   50.09    3.80
   0   3  -5   56.59    3.50
  -1  -3  -5   25.90    3.50
   1  -3   5   23.30    2.90
  -1  -3  -5   27.10    3.60
   1   3   5   29.50    3.20
   1   3   5   26.90    3.30
  -2  -3  -5   -0.10    2.60
   2  -3   5    5.70    2.30
  -2  -3  -5    1.10    3.40
  -2   3  -5    0.00    2.30
   2   3   5    0.40    2.40
  -2   3  -5    3.30    2.30
   2   3   5    8.50    3.70
   3  -3   5   38.90    4.40
  -3  -3  -5   49.99    5.70
   3  -3   5   44.30    4.60
  -3  -3  -5   37.70    4.70
   3   3   5   48.10    6.60
  -3   3  -5   46.40    4.20
   3   3   5   39.10    4.90
  -3   3  -5   42.20    5.60
  -4  -3  -5   60.39    6.10
   4  -3   5   70.09    7.50
   4  -3   5   52.19    5.70
  -4   3  -5   51.89    4.90
   4   3   5   64.89    7.20
  -4   3  -5   53.69    7.50
   5  -3   5    4.20    6.00
  -5  -3  -5   -3.20    9.30
  -5  -3  -5   -0.40    5.00
  -5   3  -5    3.20    3.70
   5   3   5   -4.60    7.00
   5   3   5    8.80    5.50
   6  -4  -5    1.00    2.70
   6  -4  -5    0.40    5.00
  -6  -4   5   -0.30    3.30
   6   4  -5    0.20    5.30
   6   4  -5   13.30    7.30
   6   4  -5    4.00    4.90
   5  -4  -5   15.90    2.60
  -5  -4   5   13.10    2.90
  -5   4   5   15.40    2.00
   5   4  -5   18.50    4.30
   5   4  -5   11.50    4.00
   5   4  -5   18.40    6.30
  -4  -4   5   55.09    6.50
  -4  -4   5   39.90    4.20
   4  -4  -5   38.40    3.70
   4  -4  -5   43.80    5.90
   4   4  -5   42.10    5.20
   4   4  -5   52.09    7.20
  -4   4   5   40.60    3.30
  -3  -4   5  110.49    7.80
   3  -4  -5  105.19    6.10
  -3  -4   5  106.29    6.50
   3   4  -5  116.19    8.60
  -3   4   5   95.99    5.70
   3   4  -5  102.79    6.40
  -2  -4   5    4.70    2.30
   2  -4  -5    4.80    2.00
   2  -4  -5    6.30    3.00
  -2   4   5    3.00    1.60
   2   4  -5    7.30    2.20
   2   4  -5    5.70    3.10
  -1  -4   5  232.98   11.60
   1  -4  -5  236.18   11.60
   1  -4  -5  229.38   13.20
  -1   4   5  236.78   11.50
   1   4  -5  233.18   11.60
   1   4  -5  223.48   12.50
   0  -4  -5  301.07   14.20
   0  -4  -5  282.87   15.80
   0  -4   5  284.67   13.90
   0   4   5  295.57   14.00
   0   4   5  280.97   15.70
   0   4  -5  267.77   13.90
  -1  -4  -5   41.20    4.40
   1  -4   5   41.00    3.80
  -1  -4  -5   40.30    5.70
   1   4   5   34.30    3.50
  -1   4  -5   38.20    3.60
   1   4   5   41.80    5.20
   2  -4   5   23.90    3.20
  -2  -4  -5   22.60    3.40
  -2  -4  -5   29.20    4.30
   2  -4   5   18.20    3.00
   2   4   5   25.50    4.40
  -2   4  -5   23.90    2.90
   2   4   5   21.50    3.30
   3  -4   5    8.10    3.30
   3  -4   5   -1.60    3.50
  -3  -4  -5   12.30    3.70
  -3  -4  -5    4.30    4.70
   3   4   5   11.00    4.60
   3   4   5   10.20    3.60
  -3   4  -5    7.10    2.50
  -3   4  -5    7.90    3.60
  -4  -4  -5   69.49    9.20
   4  -4   5   85.29    8.30
   4  -4   5   61.89    6.90
  -4  -4  -5   80.49    8.00
  -4   4  -5   73.19    5.50
   4   4   5   90.09   10.20
   4   4   5   65.69    6.90
   5  -4   5    0.50    5.70
  -5  -4  -5   -5.90    8.10
   5   4   5    6.50    6.60
   5   4   5   -0.80    7.40
   5   4   5    1.30    4.80
  -6  -5   5   11.90    3.40
   6  -5  -5    5.50    3.00
   6   5  -5    3.10    6.00
   6   5  -5    7.10    7.50
   6   5  -5    8.50    4.60
  -5  -5   5   -9.10    5.80
   5  -5  -5    1.60    2.10
   5  -5  -5    2.70    5.60
  -5  -5   5    5.70    3.00
   5   5  -5   -3.50    6.20
   5   5  -5    5.10    3.40
   5   5  -5   -1.20    4.00
  -4  -5   5   55.49    5.20
  -4  -5   5   58.79    7.00
   4  -5  -5   58.89    7.20
   4  -5  -5   55.29    4.20
  -4   5   5   55.69    3.60
   4   5  -5   68.69    7.80
   4   5  -5   58.79    5.40
  -3  -5   5  478.65   24.60
  -3  -5   5  472.15   22.30
   3   5  -5  469.55   24.70
  -3   5   5  412.66   21.40
   3   5  -5  451.85   22.10
  -2  -5   5   51.09    4.00
  -2  -5   5   45.30    4.60
   2  -5  -5   45.50    3.50
   2  -5  -5   48.50    5.50
   2   5  -5   49.90    5.60
   2   5  -5   50.79    4.10
  -2   5   5   44.80    3.30
   1  -5  -5    0.10    2.90
  -1  -5   5    1.90    2.30
   1  -5  -5   -1.60    1.80
   1   5  -5    0.40    2.20
   1   5  -5    0.60    1.90
  -1   5   5    1.20    1.80
   0  -5  -5   83.69    5.20
   0  -5   5   79.59    5.10
   0  -5  -5   80.39    6.50
   0   5   5   73.19    4.80
   0   5  -5   70.79    5.00
   0   5   5   80.39    6.10
  -1  -5  -5   41.60    5.60
   1  -5   5   42.10    3.80
  -1  -5  -5   45.80    4.30
   1   5   5   41.40    5.20
   1   5   5   52.49    4.50
  -1   5  -5   45.90    3.40
  -2  -5  -5   10.50    4.20
   2  -5   5    9.10    2.70
  -2  -5  -5    8.50    3.30
   2   5   5    6.10    2.90
  -2   5  -5   10.00    2.50
   2   5   5   11.80    4.40
   3  -5   5   48.40    5.60
  -3  -5  -5   62.89    7.90
  -3  -5  -5   56.29    5.90
   3  -5   5   52.19    5.30
   3   5   5   57.89    7.40
   3   5   5   61.29    5.80
  -3   5  -5   62.99    4.50
   4  -5   5   44.60    5.50
  -4  -5  -5   42.70    5.50
  -4  -5  -5   40.80    7.10
   4  -5   5   33.80    5.00
  -4   5  -5   40.50    4.20
   4   5   5   38.70    5.60
   4   5   5   42.60    6.90
  -5  -5  -5   12.60    8.60
   5  -5   5    8.80    5.70
  -5  -5  -5    4.30    5.00
   5  -5   5   15.20    6.60
   5   5   5    7.90    6.00
   5   5   5   14.30    9.30
   5   5   5   11.40    5.80
   6  -6  -5   17.20    6.60
   6  -6  -5   11.60    3.10
  -6  -6   5   12.20    3.90
   6   6  -5    9.60    5.20
   6   6  -5    7.40    6.90
  -5  -6   5    6.00    4.10
   5  -6  -5   -1.10    5.40
  -5  -6   5   -1.90    5.50
   5  -6  -5    3.40    2.00
   5   6  -5    2.40    3.70
   5   6  -5    8.30    6.70
   5   6  -5   13.10    6.10
  -4  -6   5  142.99    9.00
   4  -6  -5  148.49   10.60
   4  -6  -5  122.09   10.00
   4   6  -5  130.49    8.90
   4   6  -5  134.49    8.40
  -4   6   5  124.59    6.60
  -3  -6   5  589.04   27.80
   3  -6  -5  525.85   27.20
  -3  -6   5  592.34   30.70
   3   6  -5  603.54   30.90
  -3   6   5  564.84   26.90
   3   6  -5  594.14   27.70
   2  -6  -5    2.90    3.40
   2  -6  -5    6.20    2.30
  -2  -6   5    9.40    2.80
  -2  -6   5    6.00    2.40
   2   6  -5    6.30    2.30
   2   6  -5    6.30    3.30
  -2   6   5    5.10    1.70
   1  -6  -5   63.89    5.90
   1  -6  -5   52.89    4.00
  -1  -6   5   52.49    4.20
   1   6  -5   54.99    4.40
  -1   6   5   54.89    3.90
   1   6  -5   51.09    4.10
  -1   6   5   58.09    5.50
   0  -6  -5   93.79    7.90
   0  -6   5   91.99    5.60
   0  -6  -5   95.09    5.90
   0   6   5  106.19    7.10
   0   6  -5   82.09    5.90
   0   6   5  100.09    5.80
  -1  -6  -5   60.79    4.90
   1  -6   5   49.10    4.00
  -1  -6  -5   55.39    6.30
   1   6   5   58.09    6.00
   1   6   5   50.49    4.40
  -1   6  -5   59.29    4.10
  -2  -6  -5    4.10    4.20
   2  -6   5    6.00    2.20
  -2  -6  -5    9.90    3.50
  -2   6  -5    9.40    2.60
   2   6   5    0.70    2.90
   2   6   5    7.30    4.10
   3  -6   5   39.50    5.10
   3  -6   5   37.70    4.80
  -3  -6  -5   50.89    5.70
   3   6   5   44.80    5.50
  -3   6  -5   45.70    3.80
  -4  -6  -5  105.59   10.50
  -4  -6  -5  106.89    9.50
   4  -6   5   94.59    7.40
   4  -6   5   90.29    8.40
   4   6   5   99.79    8.20
   4   6   5   96.59   10.40
  -4   6  -5   95.99    5.40
   5  -6   5    6.60    5.40
  -5  -6  -5    3.40    8.60
  -5  -6  -5   -5.50    5.20
   5  -6   5    7.70    6.40
   5   6   5   14.00    9.60
   5   6   5    5.80    6.50
   5   6   5    0.30    6.00
  -6  -7   5   39.70    6.30
  -6  -7   5   29.60    8.40
   6  -7  -5   22.30    3.40
   6   7  -5   33.70    7.70
   6   7  -5   16.10    9.70
   6   7  -5   26.80    7.70
   5  -7  -5   22.00    5.80
   5  -7  -5   13.20    2.80
   5  -7  -5   11.60    6.30
  -5  -7   5   13.30    6.10
  -5  -7   5   19.30    4.00
   5   7  -5   19.40    4.60
   5   7  -5   15.60    6.30
   5   7  -5   22.40    7.70
  -4  -7   5   54.39    5.60
   4  -7  -5   57.19    6.20
   4  -7  -5   41.60    3.60
   4  -7  -5   47.90    6.20
   4   7  -5   47.40    6.10
  -4   7   5   39.20    2.40
   4   7  -5   50.69    6.30
  -3  -7   5   99.59    6.60
  -3  -7   5   88.79    7.50
   3   7  -5  101.99    8.90
   3   7  -5  104.99    7.30
  -3   7   5   83.59    5.00
   2  -7  -5    3.20    3.70
  -2  -7   5    4.50    2.30
   2  -7  -5    3.10    2.40
  -2  -7   5    3.30    2.90
   2   7  -5    3.20    2.50
   2   7  -5    2.80    4.00
  -2   7   5    0.10    1.60
   1  -7  -5   25.50    4.20
   1  -7  -5   27.80    3.10
  -1  -7   5   25.30    3.40
  -1  -7   5   26.80    3.30
   1   7  -5   22.60    2.90
  -1   7   5   28.80    3.00
   1   7  -5   26.90    3.70
  -1   7   5   33.60    3.90
   0  -7   5   17.30    2.40
   0  -7  -5   18.10    3.30
   0  -7  -5   19.80    4.20
   0   7   5   12.80    3.60
   0   7   5   16.90    2.40
  -1  -7  -5   71.49    7.00
  -1  -7  -5   65.49    5.40
   1  -7   5   63.29    4.60
   1   7   5   73.69    6.90
   1   7   5   73.19    5.00
  -1   7  -5   64.29    4.60
  -2  -7  -5    4.30    4.60
   2  -7   5    5.90    2.70
  -2  -7  -5    7.50    3.50
  -2   7  -5    5.40    2.10
   2   7   5    8.80    3.80
   2   7   5    2.90    4.20
   3  -7   5   11.80    3.30
   3  -7   5   10.40    3.10
  -3  -7  -5    9.60    5.10
  -3  -7  -5    4.80    5.50
   3   7   5   11.50    4.80
  -3   7  -5    6.00    2.20
   3   7   5   24.80    6.00
  -4  -7  -5   32.90    5.80
  -4  -7  -5   46.30    7.30
   4  -7   5   25.40    4.60
   4  -7   5   29.20    5.00
   4   7   5   39.50    6.80
   4   7   5   37.20    7.10
  -5  -7  -5   -9.90    8.90
   5  -7   5   -0.20    5.90
   5  -7   5   10.30    7.10
  -5  -7  -5    6.40    7.00
   5   7   5   -3.60    8.30
   5   7   5    7.40    8.60
   5   7   5   -7.60    6.70
  -6  -8   5    8.70    8.80
   6  -8  -5    7.90    3.10
  -6  -8   5    7.90    6.30
   6   8  -5   11.50    8.20
   6   8  -5    3.10    7.80
   6   8  -5   32.80   11.50
   5  -8  -5    4.50    6.40
  -5  -8   5   -3.10    6.10
   5  -8  -5    7.20    6.20
  -5  -8   5    5.30    5.20
   5  -8  -5   -0.50    2.50
   5   8  -5   -1.20    5.00
   5   8  -5   -1.50    8.90
   5   8  -5    3.20    5.50
   4  -8  -5    1.50    5.10
  -4  -8   5    6.80    3.80
   4  -8  -5   -0.60    4.80
   4  -8  -5    5.50    2.50
   4   8  -5    3.70    4.40
   4   8  -5    7.10    4.30
   4   8  -5    7.30    7.50
  -3  -8   5   -4.90    4.50
  -3  -8   5   -1.30    3.40
   3  -8  -5    4.40    2.40
   3  -8  -5   -4.60    4.20
  -3   8   5   -0.30    1.20
   3   8  -5    7.60    5.60
   3   8  -5   -1.90    3.00
   3   8  -5    1.60    3.40
  -2  -8   5    2.30    2.60
  -2  -8   5    2.00    3.20
   2  -8  -5    4.30    2.60
   2  -8  -5    1.40    3.90
   2   8  -5    3.50    3.20
   2   8  -5   -2.60    3.70
  -2   8   5    0.40    1.40
   1  -8  -5    7.60    2.90
  -1  -8   5   14.70    2.70
   1  -8  -5   15.10    4.10
  -1  -8   5   10.00    2.80
   1   8  -5    9.30    3.00
   1   8  -5    5.80    2.80
  -1   8   5   11.50    2.10
  -1   8   5    6.40    3.40
   0  -8   5   28.70    3.80
   0  -8  -5   35.60    4.00
   0  -8  -5   35.80    4.90
   0   8   5   29.80    3.00
   0   8   5   38.50    4.50
   0   8  -5   25.20    3.40
  -1  -8  -5   -5.00    4.00
  -1  -8  -5    8.40    3.30
   1  -8   5    3.10    2.00
   1   8   5    5.50    4.20
   1   8   5   -0.60    2.40
  -1   8  -5   -1.40    2.10
  -2  -8  -5    6.00    4.00
   2  -8   5    0.40    2.70
   2   8   5   13.70    3.60
  -2   8  -5    7.00    2.40
  -3  -8  -5   48.40    6.60
   3  -8   5   51.69    5.00
   3  -8   5   41.70    5.00
   3  -8   5   42.40    4.90
  -3  -8  -5   58.19    7.20
  -3   8  -5   44.10    3.30
   3   8   5   48.80    5.90
   3   8   5   55.09    7.10
  -4  -8  -5    0.40    5.20
  -4  -8  -5   13.20    6.90
   4  -8   5    3.50    4.50
   4  -8   5    5.90    4.90
   4   8   5    0.10    6.20
   4   8   5    8.80    6.30
  -5  -8  -5   19.50    9.40
   5  -8   5    5.40    7.20
   5  -8   5   -0.20    5.80
  -5  -8  -5    3.10    6.20
   5   8   5    7.50    9.00
   5   8   5   -5.30    7.30
   5   8   5    5.00    9.10
   5  -9  -5   10.20    6.80
   5  -9  -5   31.50    6.30
   5  -9  -5   16.60    3.40
  -5  -9   5   23.60    5.20
  -5  -9   5   23.20    7.10
   5   9  -5   13.70    5.60
   5   9  -5   17.60    6.30
   5   9  -5   10.20    9.00
  -4  -9   5    3.70    6.30
   4  -9  -5    4.60    5.40
   4  -9  -5    2.60    2.40
  -4  -9   5    2.60    3.90
   4   9  -5   -0.60    6.40
   4   9  -5    5.50    4.40
   4   9  -5    0.60    4.90
   3  -9  -5   47.80    4.10
   3  -9  -5   46.10    6.20
  -3  -9   5   49.99    5.50
  -3  -9   5   47.90    6.60
   3   9  -5   47.00    5.80
   3   9  -5   66.19    8.40
  -3   9   5   47.60    2.80
   3   9  -5   50.09    5.60
  -2  -9   5  177.88   11.40
  -2  -9   5  194.48   10.50
   2   9  -5  174.78   11.90
   2   9  -5  190.58   10.60
   2   9  -5  187.28   10.40
  -1  -9   5   15.70    3.20
   1  -9  -5   11.00    4.50
  -1  -9   5   14.60    3.00
   1  -9  -5   18.70    3.30
  -1   9   5   12.40    3.80
   1   9  -5   14.50    2.70
   1   9  -5   13.30    3.10
  -1   9   5   11.80    2.30
   0  -9  -5   35.40    4.20
   0  -9   5   35.30    3.70
   0  -9  -5   41.30    5.40
   0   9   5   33.10    3.70
   0   9  -5   30.10    3.90
   0   9   5   39.20    5.00
  -1  -9  -5   18.20    3.90
   1  -9   5   15.20    2.60
  -1   9  -5   18.10    2.70
   1   9   5   15.30    3.50
  -2  -9  -5    5.30    5.00
   2  -9   5    4.60    2.80
  -2  -9  -5   -8.40    4.60
  -2   9  -5    4.70    2.30
   2   9   5   10.10    3.70
   2   9   5    7.50    5.00
   3  -9   5    8.50    3.10
   3  -9   5    1.60    3.30
  -3  -9  -5    4.80    5.90
  -3  -9  -5    6.00    5.80
   3   9   5   14.30    4.50
   3   9   5    7.90    5.40
   3   9   5    5.00    4.10
  -4  -9  -5   -0.10    7.10
   4  -9   5    3.90    5.80
   4  -9   5    5.70    4.40
  -4  -9  -5    2.60    6.80
   4  -9   5    0.00    4.90
   4   9   5   -0.80    5.00
   4   9   5   11.20    6.70
   4   9   5    1.30    6.30
  -5  -9  -5   11.30   10.00
   5  -9   5    0.10    5.80
   5  -9   5    3.80    8.00
   5   9   5   11.70    9.20
   5   9   5    2.40    7.10
   5   9   5   13.30    8.30
  -5 -10   5    1.50    8.70
   5 -10  -5    8.10    6.40
  -5 -10   5    7.40    6.50
   5 -10  -5   -5.20    7.00
   5 -10  -5    2.20    3.20
   5  10  -5  -11.50    9.50
   5  10  -5    0.50    6.40
   5  10  -5    1.30    5.80
   4 -10  -5   22.50    3.10
  -4 -10   5   15.90    5.70
  -4 -10   5   25.10    7.10
   4 -10  -5   28.00    6.00
   4  10  -5   18.70    5.90
   4  10  -5   19.40    5.80
   4  10  -5   15.30    8.50
   3 -10  -5  154.98    8.70
  -3 -10   5  154.38   10.00
  -3 -10   5  156.98   11.50
   3 -10  -5  174.78   11.70
   3  10  -5  149.99    9.80
   3  10  -5  159.88   10.20
   3  10  -5  176.98   12.20
  -2 -10   5   41.80    6.10
   2 -10  -5   49.10    4.70
   2 -10  -5   60.29    7.80
  -2 -10   5   52.39    6.20
   2  10  -5   49.99    6.80
  -2  10   5   55.29    3.50
   2  10  -5   52.19    6.00
   2  10  -5   63.89    6.20
  -1 -10   5    9.90    3.30
  -1 -10   5    8.50    3.10
   1  10  -5   11.70    3.40
   1  10  -5    9.00    2.60
  -1  10   5    7.20    2.10
   1  10  -5    9.20    2.70
   0 -10  -5   50.09    4.70
   0 -10   5   40.90    4.70
   0  10  -5   41.60    3.90
   1 -10   5    9.40    2.50
  -1 -10  -5   10.80    3.80
  -1 -10  -5   11.90    5.10
   1  10   5   13.90    3.40
  -1  10  -5   11.30    2.50
   1  10   5   15.00    4.60
   2 -10   5    2.90    2.80
  -2 -10  -5    5.30    5.40
  -2 -10  -5    7.80    4.40
  -2  10  -5    2.60    1.50
   2  10   5   -1.40    4.80
  -2  10  -5    2.20    2.10
   2  10   5    0.00    3.50
   2  10   5    7.60    4.30
  -3 -10  -5   27.70    6.60
   3 -10   5   15.50    3.80
  -3 -10  -5   22.30    6.70
   3  10   5   23.50    4.70
   3  10   5   12.40    4.70
   3  10   5   16.00    5.90
  -4 -10  -5   19.10    7.30
  -4 -10  -5   12.50    6.40
   4 -10   5    9.30    4.90
   4 -10   5    9.70    4.30
   4 -10   5    5.90    5.60
   4  10   5   -1.50    6.80
   4  10   5   18.40    6.70
  -5 -11   5   12.80    8.20
   5 -11  -5    4.60    3.60
   5 -11  -5   16.20    8.20
  -5 -11   5    3.90    6.20
   5 -11  -5   27.60    7.30
   5  11  -5   -9.30    6.90
   5  11  -5   10.10   11.50
   5  11  -5   -6.40    6.10
   4 -11  -5   25.60    6.70
   4 -11  -5   29.80    3.80
  -4 -11   5   35.20    7.60
   4  11  -5   21.30    5.00
   4  11  -5   20.60    5.50
   4  11  -5   30.40    8.40
  -3 -11   5  185.68   12.40
   3 -11  -5  154.98    9.30
  -3 -11   5  166.88   10.80
   3  11  -5  182.08   11.40
   3  11  -5  169.18   11.00
   3  11  -5  180.98   13.00
  -2 -11   5   29.80    4.10
   2 -11  -5   34.70    4.40
   2 -11  -5   32.70    5.50
  -2 -11   5   35.20    5.30
   2  11  -5   35.30    6.10
   2  11  -5   29.00    4.50
  -2  11   5   28.50    2.60
  -2  11   5   32.00    3.50
   2  11  -5   32.10    4.90
   1 -11  -5    3.30    4.70
  -1 -11   5    3.10    3.50
  -1 -11   5    8.60    3.70
   1 -11  -5    6.80    3.50
  -1  11   5    3.20    3.00
  -1  11   5    2.40    3.80
   1  11  -5    3.20    3.50
  -1  11   5   -1.50    2.10
   1  11  -5    4.50    2.30
   0 -11  -5    2.50    4.80
   0  11  -5    2.90    2.70
   0  11  -5    3.90    2.50
   0  11   5    3.00    3.90
   0  11   5    1.90    3.10
   0  11   5   -1.00    2.40
   1 -11   5   13.90    3.40
  -1 -11  -5   10.30    4.70
  -1 -11  -5   10.70    5.40
   1  11   5    9.20    3.50
  -1  11  -5    6.20    2.50
  -1  11  -5    7.40    2.00
   1  11   5    6.40    3.40
   1  11   5   14.50    5.00
   2 -11   5    9.00    3.10
  -2 -11  -5    6.30    5.80
  -2 -11  -5    7.50    4.50
   2  11   5   16.10    4.00
   2  11   5   12.90    5.30
  -2  11  -5   10.00    2.20
   2  11   5   11.50    4.00
  -2  11  -5    6.00    1.60
   3 -11   5  126.49    8.90
  -3 -11  -5  159.98   12.60
  -3 -11  -5  152.58   12.40
   3  11   5  131.09   10.60
   3  11   5  139.49   11.00
   3  11   5  175.98   12.50
   4 -11   5   12.00    5.30
  -4 -11  -5   18.50    7.50
   4 -11   5    9.60    4.30
   4 -11   5    4.90    5.90
  -4 -11  -5   29.70    8.30
   4  11   5    8.30    7.30
   4  11   5    7.90    6.40
   4  11   5   18.20    8.40
   4 -12  -5   25.30    7.00
   4 -12  -5   21.30    3.90
  -4 -12   5    8.60    7.10
   4  12  -5   23.10   10.00
   4  12  -5   15.50    5.40
   4  12  -5   19.40    7.10
  -3 -12   5  163.18   10.90
   3 -12  -5  166.48   12.40
  -3 -12   5  169.58   11.80
   3 -12  -5  157.98    9.30
   3  12  -5  149.29   11.00
   3  12  -5  151.58   13.60
   3  12  -5  171.88   10.70
   2 -12  -5   23.80    3.80
  -2 -12   5   15.70    5.30
   2 -12  -5   24.60    5.60
  -2 -12   5   15.10    4.60
   2  12  -5   22.60    4.60
  -2  12   5   13.30    1.80
  -2  12   5   15.80    2.60
   2  12  -5   16.30    6.10
   2  12  -5   17.90    4.10
   1 -12  -5   28.30    4.40
   1 -12  -5   32.90    5.80
  -1 -12   5   30.60    4.60
  -1 -12   5   38.20    5.00
  -1  12   5   28.60    3.50
  -1  12   5   29.70    4.80
   1  12  -5   36.50    4.50
  -1  12   5   28.80    3.20
   1  12  -5   24.50    3.60
   0 -12  -5   64.29    5.60
   0 -12   5   62.09    5.10
   0 -12  -5   66.49    7.40
   0 -12   5   53.89    6.10
   0  12   5   62.79    7.40
   0  12   5   56.79    4.70
   0  12  -5   60.29    4.70
   0  12   5   60.79    5.40
   0  12  -5   66.39    5.30
   1 -12   5   26.30    4.00
  -1 -12  -5   25.50    4.70
  -1 -12  -5   35.90    6.40
  -1  12  -5   23.80    3.00
  -1  12  -5   25.30    3.20
   1  12   5   21.20    4.10
   1  12   5   27.70    4.00
   1  12   5   26.30    5.50
   2 -12   5    6.00    3.30
  -2 -12  -5    1.10    5.80
  -2 -12  -5    9.10    5.40
   2  12   5    8.40    4.80
  -2  12  -5    2.90    1.40
   2  12   5   12.20    5.90
   2  12   5   -2.30    4.00
  -3 -12  -5  -14.40    6.90
   3 -12   5    8.00    3.90
   3  12   5    9.40    6.60
   3  12   5    7.70    6.70
   3  12   5   19.60    5.40
   4 -12   5   66.69    8.10
  -4 -12  -5   67.59    9.50
   4 -12   5   47.70    7.10
   4  12   5   49.60    8.80
   4  12   5   56.39    8.70
   4 -13  -5   40.20    8.30
  -4 -13   5   43.60    9.70
   4 -13  -5   46.30    4.80
   4  13  -5   16.30   10.40
   4  13  -5   26.20    6.70
   4  13  -5   38.80    8.00
  -3 -13   5    7.90    5.20
   3 -13  -5   -0.70    5.80
   3 -13  -5    4.30    3.70
   3  13  -5   15.70    9.20
   3  13  -5    8.50    4.80
   3  13  -5    8.10    4.70
  -2 -13   5    4.30    3.90
   2 -13  -5    5.30    3.60
   2 -13  -5   -0.70    5.00
  -2 -13   5    6.90    5.90
  -2  13   5    3.70    1.40
   2  13  -5    5.90    6.50
   2  13  -5    7.70    3.30
  -2  13   5    5.10    2.30
   2  13  -5    9.50    3.90
   1 -13  -5    8.00    3.80
  -1 -13   5    5.70    4.50
   1 -13  -5   -3.20    5.00
  -1 -13   5    3.10    3.30
   1  13  -5    4.90    4.20
   1  13  -5    0.70    2.60
  -1  13   5    1.70    3.90
   1  13  -5    0.40    3.50
  -1  13   5    0.50    2.10
  -1  13   5    2.10    3.40
   0 -13   5    7.60    3.30
   0 -13   5    8.50    3.60
   0 -13  -5    7.70    3.80
   0 -13  -5    4.00    5.30
   0  13  -5    8.80    2.60
   0  13   5   10.70    2.70
   0  13   5    9.50    3.80
   0  13   5   13.50    4.80
   0  13  -5   11.10    3.30
  -1 -13  -5   16.40    5.00
   1 -13   5   17.10    3.90
  -1 -13  -5   20.70    5.60
  -1  13  -5   13.70    2.30
   1  13   5   30.00    5.80
   1  13   5   15.30    3.60
  -1  13  -5   18.40    3.20
   1  13   5   16.80    4.10
  -2 -13  -5    2.90    6.40
  -2 -13  -5    0.90    6.60
   2 -13   5    2.20    3.60
   2  13   5   14.90    6.50
   2  13   5    0.70    5.50
  -2  13  -5    3.10    1.40
   2  13   5    6.20    3.90
  -3 -13  -5   12.80    8.50
  -3 -13  -5    6.80    7.70
   3 -13   5    2.60    4.00
   3  13   5   19.20    7.20
   3  13   5   -2.80    5.50
   3  13   5   -5.50    6.00
   4 -14  -5   20.20    9.10
   4 -14  -5   39.60    4.70
  -4 -14   5   45.10    9.30
  -4 -14   5   40.80    7.90
   4  14  -5   27.60    7.40
   4  14  -5   39.30   13.10
  -3 -14   5   27.40    5.80
  -3 -14   5   18.30    8.10
   3 -14  -5   15.40    6.80
   3 -14  -5   17.90    4.30
   3  14  -5    3.30    6.00
   3  14  -5   25.10    9.50
   3  14  -5   14.60    5.10
  -2 -14   5   -5.50    5.50
   2 -14  -5   -1.70    3.60
   2 -14  -5    0.00    5.40
  -2 -14   5    1.30    5.90
   2  14  -5    6.50    3.40
   2  14  -5   -8.00    6.10
  -2  14   5   -0.60    1.40
   2  14  -5    4.50    5.10
  -1 -14   5   19.80    5.50
   1 -14  -5   19.50    3.60
  -1 -14   5   15.80    4.80
   1 -14  -5   11.50    5.10
  -1  14   5   16.70    4.40
  -1  14   5   11.70    4.00
   1  14  -5   15.40    4.90
  -1  14   5   21.20    2.70
   1  14  -5   14.50    4.30
   1  14  -5   17.50    2.80
   0 -14   5   14.30    4.10
   0 -14  -5   21.50    4.10
   0 -14  -5   12.30    5.90
   0 -14   5    8.70    3.50
   0  14   5   24.40    5.10
   0  14  -5   10.00    2.60
   0  14   5   15.10    4.40
   0  14  -5   14.10    3.70
   0  14   5   10.60    2.70
  -1 -14  -5   -4.80    5.80
  -1 -14  -5    9.50    6.10
   1 -14   5   10.60    4.20
  -1  14  -5   12.40    3.20
   1  14   5    2.10    2.80
  -1  14  -5    6.50    2.10
   1  14   5   14.00    5.50
   2 -14   5    4.80    4.50
  -2 -14  -5   22.60    7.30
  -2 -14  -5   19.90    6.50
   2  14   5    4.40    6.20
   2  14   5   16.30    4.60
   2  14   5   25.40    7.10
  -3 -14  -5   -4.10    8.30
  -3 -14  -5   11.20    9.50
   3 -14   5    7.30    4.50
   3  14   5    3.60    8.10
   3  14   5   17.50    7.90
   3 -15  -5   -7.10    4.00
  -3 -15   5    1.60    8.90
   3 -15  -5   12.00    7.40
  -3 -15   5   -3.20    6.10
   3  15  -5    1.60   11.10
   3  15  -5   10.10    5.60
   3  15  -5   -7.80    6.30
  -2 -15   5    3.10    6.20
  -2 -15   5   -6.30    6.70
   2 -15  -5    6.50    4.70
   2 -15  -5    9.80    6.60
   2  15  -5   -1.90    7.60
  -2  15   5    2.50    1.80
   2  15  -5   -2.70    3.40
   2  15  -5   -4.00    4.20
  -2  15   5    0.60    1.40
   1 -15  -5   48.80    5.90
   1 -15  -5   47.30    7.20
  -1 -15   5   61.09    8.40
  -1 -15   5   43.50    6.50
   1  15  -5   49.30    4.50
   1  15  -5   54.19    8.10
  -1  15   5   69.29    7.70
  -1  15   5   63.59    6.20
  -1  15   5   46.50    4.10
   1  15  -5   64.19    6.90
   0 -15  -5   -6.00    4.20
   0 -15   5    0.90    4.60
   0 -15   5   -2.30    3.80
   0 -15  -5    0.80    6.00
   0  15   5    9.10    5.00
   0  15   5    2.10    4.60
   0  15   5    3.20    2.80
   0  15  -5    0.50    3.60
   0  15  -5    2.70    2.60
  -1 -15  -5   28.90    7.20
   1 -15   5   17.40    4.70
  -1 -15  -5   15.90    6.00
   1  15   5    3.90    4.20
  -1  15  -5   13.70    2.30
  -1  15  -5   18.50    3.30
   1  15   5   16.60    6.40
   1  15   5   28.50    4.20
  -2 -15  -5    7.00    6.60
   2 -15   5    8.40    5.10
  -2 -15  -5    4.70    6.40
   2  15   5   28.80    7.10
   2  15   5   17.70    5.80
   2  15   5   -2.20    5.60
   2 -16  -5   35.60    7.70
  -2 -16   5   15.40    6.10
   2 -16  -5   17.00    4.70
   2  16  -5   15.80    5.20
  -1 -16   5    6.00    5.10
  -1 -16   5    6.20    6.50
   1 -16  -5    5.30    4.90
   1 -16  -5   12.00    6.90
   1  16  -5    0.70    4.60
   1  16  -5    3.50    3.30
  -1  16   5   10.70    2.40
  -1  16   5   10.00    4.10
   1  16  -5    7.10    5.80
   0 -16  -5   14.60    6.30
   0 -16   5   13.60    4.90
   0 -16  -5    7.20    6.70
   0 -16   5   14.00    5.60
   0  16   5   17.40    5.20
   0  16  -5   14.80    3.20
   0  16   5    6.40    5.80
   0  16  -5   18.50    4.20
   0  16   5   14.80    3.20
  -1 -16  -5    7.80    7.70
   1 -16   5    6.90    5.40
  -1 -16  -5    6.30    7.20
   1  16   5    6.70    6.50
   1  16   5    2.10    4.70
  -1  16  -5    4.40    2.30
   1 -17  -5   19.30    9.00
  -1 -17   5   16.20    7.60
  -1 -17   5   17.10    7.80
   0 -17   5    0.70    5.70
   0 -17  -5  -15.00    6.60
   0 -17  -5   13.40    8.10
   0 -17   5   -4.10    6.50
   0  17  -5    2.90    5.30
  -6   0   6   25.50    3.00
   6   0  -6   21.00    6.80
   6   0  -6   19.80    3.40
   5   0  -6    3.50    5.50
  -5   0   6    7.90    2.60
   5   0  -6    8.60    3.10
  -4   0   6    5.30    2.30
   3   0  -6   -3.10    3.50
   3   0  -6   -0.80    2.00
  -3   0   6   -1.80    1.90
  -2   0   6   17.00    2.50
   2   0  -6   20.00    3.30
   2   0  -6   18.30    2.80
   1   0  -6   -2.20    2.40
  -1   0   6    3.80    1.90
   1   0  -6    0.70    1.90
   0   0  -6   -0.10    2.20
   0   0  -6    2.00    2.30
   0   0   6   -1.50    1.90
   1   0   6   37.70    3.70
  -1   0  -6   35.80    4.00
   1   0   6   38.90    3.70
  -1   0  -6   33.10    4.30
  -2   0  -6    1.40    3.40
  -2   0  -6    0.50    3.70
   2   0   6    3.30    2.60
   2   0   6    0.90    2.90
  -3   0  -6    6.90    5.30
   3   0   6    8.30    4.50
   3   0   6    3.90    3.30
  -4   0  -6   20.60    4.40
  -4   0  -6   19.40    6.60
   4   0   6   14.00    4.50
   4   0   6   15.70    6.20
  -5   0  -6  142.29   12.80
  -5   0  -6  154.18   10.40
   5   0   6  109.39   11.70
   5   0   6  160.88   14.30
  -6  -1   6    7.60    2.90
   6  -1  -6   -0.20    3.50
   6   1  -6   11.10    4.10
   6   1  -6   11.70    7.30
   6   1  -6    8.10    6.50
  -6   1   6    7.10    2.30
  -5  -1   6    1.00    2.50
   5  -1  -6    0.90    2.40
  -5   1   6   -3.00    2.20
   5   1  -6   -4.70    3.30
   5   1  -6  -12.50    5.10
   4  -1  -6   10.10    2.60
  -4  -1   6   14.20    2.30
   4  -1  -6   17.50    5.50
  -4   1   6   10.80    2.20
   4   1  -6   16.10    2.90
   3  -1  -6   20.20    4.10
   3  -1  -6   13.50    2.80
  -3  -1   6   19.50    2.70
   3   1  -6   14.50    2.70
   3   1  -6   13.40    4.10
  -3   1   6   18.90    2.60
   2  -1  -6   21.90    2.90
  -2  -1   6   23.20    3.00
   2  -1  -6   22.00    3.30
   2   1  -6   21.70    2.80
  -2   1   6   24.40    2.70
   2   1  -6   28.30    3.80
   1  -1  -6    1.20    2.30
  -1  -1   6    0.10    1.80
   1  -1  -6    2.20    2.00
  -1   1   6    4.80    2.20
   1   1  -6    5.80    2.30
   1   1  -6    2.00    2.00
   0  -1  -6   25.70    3.30
   0  -1  -6   19.20    2.80
   0  -1   6   18.10    2.50
   0   1  -6   22.40    2.70
   0   1   6   14.70    2.40
   0   1  -6   17.40    2.70
   0   1   6   16.00    2.60
   1  -1   6    4.50    2.30
  -1  -1  -6   11.70    3.00
   1  -1   6   10.00    2.30
  -1  -1  -6    1.90    3.20
  -1   1  -6    7.70    3.10
   1   1   6    7.80    2.50
  -1   1  -6    6.20    2.70
   1   1   6    7.10    2.30
   2  -1   6  120.99    7.70
   2  -1   6  107.29    7.10
  -2  -1  -6  121.19    7.50
  -2  -1  -6  120.09    8.50
  -2   1  -6  112.59    7.90
  -2   1  -6  124.99    7.60
   2   1   6  121.89    7.70
   2   1   6  126.89    8.40
   3  -1   6   29.20    4.50
  -3  -1  -6   21.50    5.30
   3  -1   6   11.90    4.20
  -3  -1  -6   22.30    4.00
  -3   1  -6   21.30    5.20
   3   1   6   24.20    5.10
   3   1   6   22.90    4.70
  -3   1  -6   23.50    4.00
   4  -1   6   20.20    5.20
   4  -1   6   21.20    5.70
  -4  -1  -6   19.40    7.00
  -4  -1  -6   19.50    4.80
   4   1   6   22.80    6.00
  -4   1  -6   26.80    6.30
   4   1   6   14.80    5.00
  -4   1  -6   18.20    4.30
   5  -1   6   31.50    8.60
  -5  -1  -6   35.50    8.70
  -5  -1  -6   31.80    6.10
   5  -1   6   12.70    7.70
   5   1   6   18.90    6.40
  -5   1  -6   31.80    5.30
   5   1   6   34.60    9.30
  -5   1  -6   25.30    9.10
   6  -2  -6    6.20    3.20
  -6  -2   6   -4.10    3.00
   6   2  -6    5.60    3.70
  -6   2   6   -3.10    2.10
   6   2  -6   -3.50    5.30
   5  -2  -6   -1.50    4.90
   5  -2  -6   -3.60    2.50
  -5  -2   6    3.30    2.70
   5   2  -6    9.00    3.60
   5   2  -6    3.50    5.60
  -5   2   6    2.90    2.00
   4  -2  -6   16.00    2.50
   4  -2  -6   22.80    4.90
   4   2  -6   16.70    3.10
  -4   2   6   14.70    2.60
   3  -2  -6    6.60    2.40
   3  -2  -6    2.20    3.70
  -3  -2   6    7.30    2.40
   3   2  -6    4.60    2.30
   3   2  -6    2.40    3.70
  -3   2   6    1.20    1.60
   2  -2  -6   17.30    2.80
   2  -2  -6   18.40    3.30
  -2  -2   6   18.90    2.50
  -2   2   6   17.40    2.50
   2   2  -6   20.40    2.70
   2   2  -6   22.20    3.30
   1  -2  -6   55.39    4.20
   1  -2  -6   57.59    5.50
  -1  -2   6   57.99    4.20
   1   2  -6   55.59    4.60
   1   2  -6   58.59    4.40
  -1   2   6   58.79    4.10
   1   2  -6   57.49    4.30
   0  -2  -6   68.39    4.90
   0  -2   6   67.29    4.70
   0  -2  -6   66.69    6.00
   0   2  -6   61.89    4.90
   0   2  -6   62.29    5.00
   0   2   6   76.29    5.40
   0   2   6   70.49    4.60
  -1  -2  -6   43.00    5.50
  -1  -2  -6   41.40    4.30
   1  -2   6   42.00    4.00
   1  -2   6   46.00    3.70
   1   2   6   52.39    4.90
  -1   2  -6   44.10    4.20
   1   2   6   46.50    4.00
  -1   2  -6   48.50    4.00
   2  -2   6   43.00    4.20
  -2  -2  -6   43.00    6.20
   2  -2   6   48.40    4.70
  -2  -2  -6   43.20    4.80
  -2   2  -6   41.90    5.00
   2   2   6   43.70    4.60
   2   2   6   39.10    5.30
   3  -2   6   44.80    6.30
  -3  -2  -6   45.80    5.50
  -3  -2  -6   45.80    5.70
   3  -2   6   28.90    4.60
  -3   2  -6   44.10    5.30
   3   2   6   48.80    6.70
   3   2   6   40.00    5.40
  -3   2  -6   41.90    5.00
   4  -2   6   67.09    7.90
   4  -2   6   49.90    6.60
  -4   2  -6   67.79    6.10
   4   2   6   56.09    7.00
  -4   2  -6   57.39    8.10
   5  -2   6   36.50    8.30
   5  -2   6   28.70    7.60
  -5  -2  -6   36.00    9.40
  -5  -2  -6   27.10    6.30
   5   2   6   34.10    9.80
  -5   2  -6   40.40    5.70
  -5   2  -6   41.80    9.60
   5   2   6   28.70    6.90
  -6  -3   6    3.80    3.20
   6  -3  -6    0.80    3.10
   6   3  -6    4.50    4.20
   6   3  -6   -7.30    5.60
   5  -3  -6    4.30    2.50
   5   3  -6    1.00    6.10
  -5   3   6    5.30    2.10
   5   3  -6    1.20    3.80
   4  -3  -6   46.90    6.50
   4  -3  -6   34.60    3.60
  -4   3   6   41.60    3.50
   4   3  -6   35.70    4.60
   3  -3  -6   27.90    3.10
  -3  -3   6   29.00    3.60
   3  -3  -6   30.90    4.60
  -3   3   6   30.40    3.20
   3   3  -6   28.70    4.70
   3   3  -6   34.70    3.90
   2  -3  -6   37.70    4.90
  -2  -3   6   24.80    3.30
   2  -3  -6   28.90    3.10
   2   3  -6   26.20    3.80
   2   3  -6   27.20    3.50
  -2   3   6   26.90    3.10
  -1  -3   6   -0.20    1.80
   1  -3  -6    2.30    2.10
   1  -3  -6    4.20    2.70
   1   3  -6    0.90    2.10
   1   3  -6    0.00    2.60
   1   3  -6    1.90    2.20
  -1   3   6   -1.60    2.10
   0  -3  -6   23.60    3.10
   0  -3  -6   25.80    3.90
   0  -3   6   17.60    2.60
   0   3   6   20.50    3.00
   0   3   6   16.50    2.60
   0   3  -6   16.10    2.70
   0   3  -6   24.40    2.60
   0   3  -6   25.70    2.80
   1  -3   6    7.90    2.30
  -1  -3  -6    9.90    3.70
  -1  -3  -6    6.50    3.00
   1   3   6    5.50    3.20
  -1   3  -6    5.70    2.80
   1   3   6    8.20    2.50
  -2  -3  -6   12.70    4.70
  -2  -3  -6   12.60    3.60
   2  -3   6    7.20    2.60
   2  -3   6   11.70    2.40
  -2   3  -6   13.50    3.30
   2   3   6   14.00    4.20
  -2   3  -6   10.20    2.80
   2   3   6   14.40    3.40
  -3  -3  -6   91.09    8.20
   3  -3   6   57.59    6.60
   3  -3   6   89.59    7.20
  -3  -3  -6   77.29    7.50
   3   3   6   74.09    6.60
   3   3   6   84.09    8.80
  -3   3  -6   79.79    6.00
  -3   3  -6   73.49    6.70
  -4  -3  -6   28.30    5.00
   4  -3   6   32.50    5.80
   4  -3   6   38.00    6.00
  -4  -3  -6   30.50    8.10
  -4   3  -6   37.20    6.60
   4   3   6   31.80    5.30
   4   3   6   35.30    6.80
  -4   3  -6   33.00    4.30
  -5  -3  -6  108.09   13.00
   5  -3   6   85.69    9.40
   5   3   6  143.89   15.00
  -5   3  -6  125.99    8.40
   5   3   6  102.59   11.60
   6  -4  -6    1.10    3.10
  -6  -4   6    9.40    3.90
   6   4  -6   -7.40    8.20
   6   4  -6   -4.50    6.00
   6   4  -6  -11.20    5.40
   5  -4  -6   -5.90    2.40
  -5  -4   6    0.00    3.40
   5   4  -6   11.30    6.60
   5   4  -6   -5.40    3.40
  -5   4   6    3.20    1.80
   4  -4  -6  151.98   10.30
  -4   4   6  140.29    7.50
   4   4  -6  123.09    8.40
   3  -4  -6   44.80    6.10
   3  -4  -6   43.50    4.00
  -3  -4   6   38.90    4.20
   3   4  -6   45.30    5.90
  -3   4   6   35.90    3.30
   3   4  -6   41.30    4.40
   2  -4  -6   21.10    3.00
  -2  -4   6   23.60    2.90
   2  -4  -6   23.50    3.80
   2   4  -6   25.60    3.90
  -2   4   6   27.20    3.00
   2   4  -6   24.60    3.00
  -1  -4   6    7.80    2.20
   1  -4  -6    9.70    3.30
   1  -4  -6    5.50    2.30
  -1   4   6    6.80    1.80
   1   4  -6    5.90    2.60
   1   4  -6    6.80    2.40
   0  -4   6  255.67   12.40
   0  -4  -6  250.87   14.00
   0  -4  -6  236.18   12.40
   0   4   6  239.48   13.70
   0   4   6  242.18   12.30
   0   4  -6  228.88   12.30
  -1  -4  -6   84.39    7.40
  -1  -4  -6   98.99    6.90
   1  -4   6  100.19    6.10
   1   4   6   87.39    6.00
   1   4   6   93.09    7.40
   2  -4   6   67.39    4.40
  -2  -4  -6   63.19    7.90
  -2  -4  -6   64.29    6.60
   2  -4   6   59.39    5.50
  -2   4  -6   63.49    5.10
   2   4   6   57.79    5.50
   2   4   6   66.59    6.80
   3  -4   6   99.99    7.20
  -3  -4  -6   83.69    7.20
  -3  -4  -6  103.19    9.00
   3  -4   6   74.09    7.20
   3   4   6  104.89    9.40
  -3   4  -6   97.99    6.30
   3   4   6   88.99    7.30
   4  -4   6    8.40    5.10
   4  -4   6    5.70    4.90
  -4  -4  -6    6.70    5.50
  -4  -4  -6   -8.40    6.80
  -4   4  -6    4.30    3.60
   4   4   6   13.50    6.50
   4   4   6   -0.20    4.80
  -5  -4  -6    3.50    9.60
   5  -4   6   -2.50    6.40
   5   4   6   15.50   10.30
   5   4   6    0.50    8.00
  -5   4  -6    9.20    3.90
  -6  -5   6    3.20    4.60
   6  -5  -6    0.00    3.60
   6   5  -6    6.70    6.70
   6   5  -6   -3.50    8.80
   6   5  -6    2.80    5.20
   5  -5  -6    1.70    2.50
  -5  -5   6    6.90    4.10
   5   5  -6    2.20    4.80
   5   5  -6    3.90    4.60
   5   5  -6    8.90    7.10
  -5   5   6    3.50    1.60
   4  -5  -6   28.00    5.40
   4  -5  -6   26.30    3.60
   4  -5  -6   41.00    5.80
  -4   5   6   31.40    2.80
   4   5  -6   31.20    4.10
   3  -5  -6   19.30    3.20
  -3  -5   6   20.70    3.30
   3   5  -6   31.40    5.50
   3   5  -6   24.30    3.50
  -2  -5   6   83.29    5.60
   2  -5  -6   74.89    5.30
   2  -5  -6   71.89    6.90
   2   5  -6   76.59    5.50
  -2   5   6   79.99    4.90
   2   5  -6   80.19    6.50
   1  -5  -6   26.70    3.30
   1  -5  -6   22.30    4.00
  -1  -5   6   19.20    2.80
   1   5  -6   18.70    2.90
   1   5  -6   21.60    2.90
  -1   5   6   23.20    2.80
   0  -5  -6  160.48    8.60
   0  -5  -6  157.78   10.00
   0  -5   6  151.08    8.30
   0   5   6  154.08    8.30
   0   5   6  154.18    9.60
   0   5  -6  137.89    8.50
   1  -5   6    4.50    2.20
  -1  -5  -6    8.00    4.40
  -1  -5  -6    4.60    3.20
  -1   5  -6    6.20    2.20
   1   5   6    4.40    2.40
   1   5   6    7.20    3.70
   2  -5   6   15.00    3.00
  -2  -5  -6   19.70    4.00
  -2  -5  -6   10.50    5.40
   2   5   6   20.90    4.90
   2   5   6   14.60    3.80
  -2   5  -6   13.40    2.60
  -3  -5  -6    2.20    4.10
   3  -5   6   10.70    3.40
   3  -5   6    8.50    4.00
   3   5   6    1.00    4.10
  -3   5  -6    8.90    2.90
   4  -5   6   30.80    5.70
   4  -5   6   26.10    5.40
  -4  -5  -6   30.60    8.70
  -4  -5  -6   29.70    5.70
   4   5   6   24.40    7.00
   4   5   6   27.40    7.00
  -4   5  -6   40.70    4.70
  -5  -5  -6   22.90   11.50
  -5  -5  -6    7.10    7.40
   5  -5   6    5.00    7.00
   5  -5   6   -7.90    6.50
   5   5   6    7.30    9.50
   5   5   6    4.70    7.20
  -5   5  -6    2.90    3.30
  -6  -6   6   12.60    4.70
   6  -6  -6   13.60    3.60
   6   6  -6    3.60    9.70
   6   6  -6   23.90    6.10
   6   6  -6   15.90    7.20
  -5  -6   6   24.10    4.20
   5  -6  -6   14.90    6.20
   5  -6  -6   17.40    6.00
   5  -6  -6   13.40    2.90
  -5   6   6   19.40    2.20
   5   6  -6   17.40    4.60
   5   6  -6   21.60    5.50
   5   6  -6   20.80    8.00
   4  -6  -6   11.40    2.60
   4  -6  -6    4.90    5.00
   4  -6  -6    4.10    5.00
  -4   6   6   17.30    2.10
   4   6  -6   13.70    3.70
  -3  -6   6  218.28   11.60
   3   6  -6  210.68   11.90
   3   6  -6  216.48   13.10
  -3   6   6  195.58   10.30
   2  -6  -6    7.70    2.80
   2  -6  -6    2.90    3.80
  -2  -6   6    3.50    3.10
   2   6  -6    6.80    4.00
   2   6  -6    7.10    2.70
  -2   6   6    5.70    2.00
   1  -6  -6  207.58   12.60
   1  -6  -6  209.08   10.80
  -1  -6   6  207.78   10.90
   1   6  -6  198.88   11.30
   1   6  -6  197.88   11.00
  -1   6   6  216.78   10.60
   0  -6   6   96.19    5.90
   0  -6  -6  102.69    7.60
   0  -6  -6   89.39    6.20
   0   6   6   91.49    6.00
   0   6   6   94.99    7.10
   0   6  -6   81.39    6.00
  -1  -6  -6   26.50    4.70
  -1  -6  -6   25.60    3.90
   1  -6   6   20.50    3.20
   1   6   6   21.90    3.20
  -1   6  -6   20.30    2.80
   1   6   6   20.90    3.90
  -2  -6  -6    5.80    3.90
   2  -6   6    1.40    3.20
  -2  -6  -6    2.70    4.60
  -2   6  -6    3.30    2.80
   2   6   6    5.90    4.00
   2   6   6    2.80    3.40
  -3  -6  -6   -1.70    5.50
  -3  -6  -6   -3.20    4.50
   3  -6   6    0.50    3.20
   3  -6   6   -0.60    3.00
   3   6   6   -2.30    4.80
   3   6   6   -1.30    4.10
  -3   6  -6    3.00    2.70
  -4  -6  -6   -4.10    8.40
   4  -6   6   -2.40    4.90
   4  -6   6   -0.20    4.70
  -4  -6  -6    0.90    5.30
  -4   6  -6    2.00    2.90
   4   6   6   -2.00    5.30
   4   6   6    0.70    6.50
   5  -6   6    1.70    6.60
  -5  -6  -6   -9.40    7.90
   5  -6   6    8.00    7.60
  -5  -6  -6    4.30   12.10
   5   6   6    1.60    6.10
   5   6   6   -4.20    9.50
   5   6   6    8.90    7.80
  -6  -7   6    3.60    5.40
   6   7  -6    5.10    8.00
   6   7  -6    6.00    7.40
   6   7  -6   18.10   10.20
   5  -7  -6   38.80    3.90
   5  -7  -6   50.59    7.20
   5  -7  -6   41.90    6.70
  -5  -7   6   52.09    7.50
  -5  -7   6   51.89    6.40
   5   7  -6   35.90    9.40
   5   7  -6   41.50    7.70
   5   7  -6   45.60    6.00
   4  -7  -6    3.80    2.60
   4  -7  -6   -5.70    4.70
   4  -7  -6    2.80    5.30
   4   7  -6    2.40    6.40
   4   7  -6    6.80    3.90
   4   7  -6    0.20    4.20
  -4   7   6    1.30    1.30
  -3  -7   6   10.20    4.50
   3  -7  -6    6.30    4.70
  -3  -7   6    9.60    3.40
   3  -7  -6   16.40    3.00
   3   7  -6    5.00    3.40
  -3   7   6    7.70    1.60
   3   7  -6    8.00    5.60
   2  -7  -6  136.59    9.50
  -2  -7   6  129.59    7.90
   2  -7  -6  110.99    7.50
   2   7  -6  130.29    8.90
   2   7  -6  122.79    8.30
  -1  -7   6   34.90    4.00
   1  -7  -6   31.60    3.90
   1  -7  -6   37.90    5.00
   1   7  -6   25.00    3.90
   1   7  -6   23.70    3.80
  -1   7   6   36.80    3.50
   0  -7  -6   39.60    5.00
   0  -7  -6   47.10    5.20
   0  -7   6   39.30    4.50
   0   7   6   44.90    4.10
   0   7  -6   27.40    4.00
   0   7   6   33.40    4.40
  -1  -7  -6   59.29    6.10
  -1  -7  -6   44.70    5.60
  -1   7  -6   41.60    4.40
   1   7   6   49.10    4.60
   1   7   6   49.40    6.10
  -2  -7  -6    6.60    4.20
   2  -7   6    6.00    3.40
  -2   7  -6    6.90    2.80
   2   7   6   10.60    3.80
  -3  -7  -6    1.40    6.00
  -3  -7  -6    0.80    4.80
   3  -7   6    1.00    4.00
   3   7   6    0.30    4.40
  -3   7  -6    5.50    2.80
   3   7   6    5.00    5.40
  -4  -7  -6   12.20    7.40
   4  -7   6   -2.50    4.80
   4  -7   6    8.30    4.90
  -4  -7  -6    6.30    8.80
   4   7   6   -3.10    5.60
   4   7   6   -6.40    7.70
  -5  -7  -6   12.20   11.00
   5  -7   6    0.00    6.60
   5  -7   6    4.00    8.10
   5   7   6   -6.00    6.50
   5   7   6    3.60    9.90
   5   7   6   14.90   10.50
  -5  -8   6   12.60    4.80
   5  -8  -6   13.70    6.30
   5  -8  -6   19.70    6.40
   5  -8  -6    7.90    3.20
  -5  -8   6    0.60    7.00
   5   8  -6    6.40    6.30
   5   8  -6    9.80    9.10
   5   8  -6    6.20    5.20
  -4  -8   6   -4.90    5.00
   4  -8  -6    5.00    2.90
   4  -8  -6    1.20    5.30
   4   8  -6    8.70    4.60
   4   8  -6   -3.30    7.70
  -4   8   6    0.90    1.20
   4   8  -6    2.40    4.10
   3  -8  -6  128.39   10.30
   3  -8  -6  110.79    7.30
  -3  -8   6  121.29    9.40
  -3  -8   6  137.49    8.50
   3   8  -6  125.59    8.30
   3   8  -6  132.79   10.50
  -3   8   6  117.19    6.40
  -2  -8   6 1242.68   55.49
  -2  -8   6 1205.18   60.89
   2   8  -6 1162.78   55.19
  -2   8   6 1113.19   54.59
   2   8  -6 1189.48   60.99
   1  -8  -6   14.60    4.40
  -1  -8   6   11.60    2.80
   1  -8  -6   10.70    2.90
   1   8  -6    7.60    2.80
   1   8  -6    8.00    2.70
  -1   8   6   12.00    2.10
   0  -8   6    4.40    2.40
   0  -8  -6    5.20    3.70
   0  -8  -6   10.50    4.50
   0   8   6    4.00    3.80
   0   8   6    4.30    2.10
  -1  -8  -6   55.09    5.70
   1  -8   6   44.40    4.50
  -1   8  -6   55.99    4.60
   1   8   6   49.10    4.80
  -2  -8  -6   21.20    4.70
  -2  -8  -6   19.50    5.50
   2  -8   6   12.20    3.80
  -2   8  -6   22.70    3.10
   2   8   6   20.10    4.90
   2   8   6   21.50    5.70
   3  -8   6   -0.10    4.30
  -3  -8  -6   -1.80    4.70
  -3  -8  -6    3.10    6.10
   3   8   6    3.80    5.30
   3   8   6   -7.20    5.50
  -3   8  -6    0.90    2.70
  -4  -8  -6   16.00    6.60
   4  -8   6   23.00    5.00
   4  -8   6   18.80    5.40
  -4  -8  -6   27.50    8.40
   4   8   6   20.10    8.10
   4   8   6   15.30    5.80
   4   8   6   17.40    8.00
  -5  -9   6   18.70    5.80
   5  -9  -6   17.00    3.60
  -5  -9   6   20.10    7.60
   5  -9  -6   34.60    7.30
   5  -9  -6   16.40    7.30
   5   9  -6   20.70   10.20
   5   9  -6   18.40    6.20
   5   9  -6   18.70    6.60
   4  -9  -6   11.60    5.50
   4  -9  -6    4.10    2.70
  -4  -9   6   -6.10    5.20
   4   9  -6   17.00    8.30
   4   9  -6    2.50    4.80
   4   9  -6   -0.60    4.40
  -3  -9   6  104.59    7.60
  -3  -9   6   97.99    8.70
   3  -9  -6   80.59    6.30
   3   9  -6  100.19    8.50
   3   9  -6   97.29    7.60
   3   9  -6  115.19    9.70
  -3   9   6   88.09    5.00
  -2  -9   6   80.69    6.90
   2  -9  -6   71.29    5.90
   2  -9  -6   91.69    8.50
  -2  -9   6   81.39    6.50
   2   9  -6   81.59    7.60
  -2   9   6   71.49    4.70
   2   9  -6   70.89    6.30
   1  -9  -6   43.10    5.90
  -1  -9   6   38.60    4.50
   1   9  -6   40.80    4.50
  -1   9   6   38.80    3.70
   1   9  -6   43.20    5.30
  -1   9   6   49.99    6.10
   0  -9   6   18.20    3.00
   0  -9  -6   25.90    4.50
   0   9   6   17.70    4.50
   0   9  -6   20.70    3.40
  -1  -9  -6   56.79    7.60
  -1  -9  -6   53.49    6.10
   1  -9   6   49.70    5.50
   1   9   6   60.59    5.70
   1   9   6   56.09    6.90
  -1   9  -6   48.10    4.60
  -2  -9  -6    3.20    5.40
   2  -9   6   -0.70    3.50
  -2  -9  -6   -5.60    4.30
  -2   9  -6   -0.60    3.00
   2   9   6    2.00    3.70
   2   9   6    0.40    4.50
   3  -9   6   -0.50    4.10
  -3  -9  -6    0.10    5.10
  -3  -9  -6    5.90    6.50
   3   9   6   -3.90    5.60
  -3   9  -6    0.70    2.50
   3   9   6    4.10    4.90
  -4  -9  -6    0.20    8.10
   4  -9   6    9.60    4.40
   4  -9   6   17.10    5.00
   4  -9   6    4.20    5.00
  -4  -9  -6   11.70    7.10
   4   9   6    9.40    7.40
   4   9   6   15.40    8.60
   4   9   6   14.10    8.80
   5 -10  -6   38.60    7.60
   5 -10  -6   31.50    7.90
  -5 -10   6   17.60    9.70
  -5 -10   6   18.10    7.70
   5 -10  -6   19.70    4.00
   5  10  -6   27.30   11.20
   5  10  -6   30.40    7.00
   5  10  -6    9.80    7.40
   4 -10  -6    7.90    6.50
  -4 -10   6   -1.90    5.90
   4 -10  -6    9.30    3.00
   4  10  -6    1.30    7.50
   4  10  -6    6.00    4.90
  -3 -10   6  235.78   14.20
   3 -10  -6  206.18   11.80
   3 -10  -6  241.58   14.90
  -3 -10   6  231.98   13.50
   3  10  -6  226.58   12.90
   3  10  -6  229.08   15.00
  -3  10   6  210.78   10.70
  -2 -10   6  192.18   11.10
  -2 -10   6  182.78   11.00
   2 -10  -6  155.88    9.60
   2 -10  -6  190.58   12.60
   2  10  -6  168.18   11.80
   2  10  -6  172.08   10.30
  -2  10   6  168.38    9.00
   1 -10  -6    6.60    4.70
  -1 -10   6    2.40    3.60
   1 -10  -6    5.90    3.60
   1  10  -6    4.90    3.60
  -1  10   6    3.40    3.70
   1  10  -6    5.90    2.90
  -1  10   6    4.70    2.10
   0 -10  -6   -2.20    5.00
   0 -10   6    3.70    3.30
   0  10   6    4.80    4.00
   0  10  -6    5.00    2.50
   0  10   6    1.50    2.10
  -1 -10  -6   37.10    6.10
  -1 -10  -6   41.20    6.00
   1 -10   6   23.30    4.00
  -1  10  -6   27.90    3.60
   1  10   6   28.70    4.50
   1  10   6   34.40    5.30
  -2 -10  -6    6.80    4.90
   2 -10   6    6.40    3.60
  -2 -10  -6   12.20    5.80
   2  10   6    2.50    4.10
   2  10   6    5.70    5.20
  -2  10  -6   -0.10    2.90
   3 -10   6   -2.00    3.90
  -3 -10  -6   -4.50    6.00
  -3 -10  -6   -4.10    6.60
   3  10   6    6.00    6.00
  -3  10  -6    1.90    1.40
   3  10   6    7.80    5.30
   3  10   6    9.60    6.10
  -4 -10  -6    4.50    7.70
  -4 -10  -6   14.40    8.70
   4 -10   6    7.30    5.90
   4  10   6   21.70    8.10
   4  10   6   10.50    9.10
   4  10   6    5.10    6.50
   5 -11  -6   27.80    4.30
  -5 -11   6   35.60    9.60
  -5 -11   6   30.50    7.50
   5  11  -6   26.90    7.90
   5  11  -6   28.70   10.00
   5  11  -6   30.80   11.80
   4 -11  -6    7.40    5.10
  -4 -11   6   11.60    7.60
  -4 -11   6    5.00    6.80
   4 -11  -6    6.50    3.20
   4  11  -6   11.70    5.50
   4  11  -6   11.20    5.50
   4  11  -6    6.40   10.00
   3 -11  -6   38.30    4.70
   3 -11  -6   34.50    6.20
  -3 -11   6   56.99    6.70
  -3 -11   6   46.90    6.50
  -3  11   6   39.40    2.70
   3  11  -6   38.30    5.30
   3  11  -6   45.80    7.80
   3  11  -6   51.29    6.70
   2 -11  -6   61.69    8.40
  -2 -11   6   59.29    6.30
   2 -11  -6   42.60    5.20
  -2 -11   6   56.09    6.80
   2  11  -6   49.00    5.40
   2  11  -6   51.89    6.00
  -2  11   6   50.49    3.70
   2  11  -6   51.19    7.60
  -1 -11   6   12.80    3.40
   1 -11  -6    8.70    3.60
  -1 -11   6   11.60    3.20
   1 -11  -6   21.30    5.60
   1  11  -6   16.10    3.40
   1  11  -6   15.90    3.40
   1  11  -6    7.00    3.90
  -1  11   6   15.90    4.20
   0 -11  -6   27.90    5.20
   0 -11   6   25.50    4.20
   0 -11  -6   33.70    6.10
   0  11   6   40.10    5.30
   0  11  -6   21.70    3.80
   0  11   6   24.70    3.20
   1 -11   6    4.10    3.10
  -1 -11  -6    4.70    4.70
  -1 -11  -6   17.90    5.60
  -1  11  -6    6.10    3.00
   1  11   6    0.20    4.60
   1  11   6    4.30    3.80
  -2 -11  -6   15.40    6.30
   2 -11   6   13.60    4.00
   2  11   6   30.90    6.30
  -2  11  -6   16.20    2.10
   2  11   6   27.40    4.70
   2  11   6   18.00    5.90
  -2  11  -6   20.50    3.10
  -3 -11  -6    2.60    6.40
   3 -11   6    4.60    4.80
  -3 -11  -6   -1.40    7.00
   3  11   6   12.10    6.20
   3  11   6    8.60    5.60
   3  11   6   10.90    6.80
  -4 -11  -6    1.30   10.20
   4 -11   6   14.80    6.00
   4  11   6   10.80    7.70
   4  11   6    6.70    9.50
  -4 -12   6    5.10    8.30
  -4 -12   6    7.40    6.40
   4 -12  -6    5.40    4.10
   4 -12  -6    7.10    6.60
   4  12  -6   20.10   10.60
   4  12  -6    8.80    7.30
   4  12  -6   15.80    6.20
  -3 -12   6   41.70    6.20
  -3 -12   6   51.19    7.20
   3 -12  -6   48.40    7.10
   3 -12  -6   36.10    4.80
   3  12  -6   39.30    5.80
   3  12  -6   48.60    6.60
   3  12  -6   35.20    8.30
   2 -12  -6   12.10    4.00
   2 -12  -6    2.20    5.10
  -2 -12   6   10.30    4.90
  -2 -12   6    6.60    4.90
   2  12  -6   11.10    4.10
   2  12  -6    9.90    6.10
  -2  12   6    9.10    3.00
   2  12  -6    6.10    3.70
  -2  12   6   11.70    1.80
  -1 -12   6   35.30    4.50
  -1 -12   6   38.00    5.20
   1 -12  -6   42.20    6.50
   1 -12  -6   49.30    5.70
   1  12  -6   27.80    3.90
  -1  12   6   35.80    3.50
  -1  12   6   28.40    4.10
   1  12  -6   39.30    5.00
  -1  12   6   34.20    5.00
   0 -12  -6   53.79    7.10
   0 -12  -6   54.19    6.90
   0 -12   6   50.59    6.40
   0  12  -6   48.80    5.50
   0  12   6   51.39    7.40
   0  12   6   47.30    6.30
   0  12   6   55.09    4.10
   0  12  -6   48.50    4.60
  -1 -12  -6   21.60    6.50
   1 -12   6   17.00    4.40
  -1 -12  -6   22.70    6.00
  -1  12  -6   24.20    3.50
   1  12   6   26.10    4.40
  -1  12  -6   16.70    2.60
   1  12   6   20.80    4.60
   1  12   6   33.00    5.90
   2 -12   6   17.10    4.20
  -2 -12  -6   17.10    6.00
  -2 -12  -6   15.80    6.50
   2  12   6    9.10    5.00
   2  12   6   17.00    5.70
  -2  12  -6   19.50    3.10
  -2  12  -6   11.60    2.00
   2  12   6   21.80    6.80
   3 -12   6    3.40    4.30
  -3 -12  -6   -3.90    7.30
  -3 -12  -6    2.50    7.70
   3  12   6   -1.00    6.10
   3  12   6    8.40    7.40
   3  12   6    1.40    6.50
   4 -13  -6   11.40    7.40
  -4 -13   6   -2.60    6.80
  -4 -13   6   -2.50    8.20
   4 -13  -6    3.10    4.40
   4  13  -6   -0.10    6.70
   4  13  -6   13.20   11.70
   4  13  -6   -1.00    7.80
   3 -13  -6   31.70    4.50
  -3 -13   6   15.40    5.80
   3 -13  -6   12.20    5.40
   3  13  -6   24.10    5.70
   3  13  -6   18.10    5.00
   2 -13  -6   -2.90    3.90
  -2 -13   6   -0.50    5.30
   2 -13  -6    2.20    5.50
  -2 -13   6   -0.80    4.00
  -2  13   6   -0.50    2.90
   2  13  -6    2.00    6.60
   2  13  -6    0.30    3.30
  -2  13   6    2.30    1.80
   2  13  -6   -1.70    4.30
  -1 -13   6    1.40    3.80
   1 -13  -6    1.60    4.50
   1 -13  -6    9.40    5.30
  -1 -13   6   -3.00    3.80
   1  13  -6    4.00    3.70
  -1  13   6    7.70    4.60
  -1  13   6    1.20    2.50
  -1  13   6    2.50    3.60
   1  13  -6   -2.30    2.90
   1  13  -6    0.80    4.20
   0 -13  -6   10.20    6.20
   0 -13  -6   13.60    5.30
   0  13   6   21.80    3.00
   0  13   6   24.60    5.10
   0  13  -6   11.00    2.80
   0  13   6   14.30    4.60
   0  13  -6   18.30    4.00
  -1 -13  -6   -1.20    4.70
  -1 -13  -6   -1.60    5.30
   1 -13   6   -1.80    3.50
   1  13   6    0.20    3.80
   1  13   6   -3.40    5.50
  -1  13  -6   -0.30    3.50
   1  13   6   -0.20    4.10
  -1  13  -6    2.50    2.30
  -2 -13  -6   13.80    6.70
   2 -13   6   12.80    4.70
  -2 -13  -6   19.00    7.30
   2  13   6    5.20    5.20
   2  13   6    8.40    5.50
  -2  13  -6   10.20    2.10
   2  13   6   24.90    6.00
   3 -13   6    7.20    5.40
  -3 -13  -6   13.30    8.30
  -3 -13  -6   14.00    8.30
   3  13   6   -4.30    6.10
   3  13   6   12.60    6.90
   3 -14  -6   10.10    6.80
   3 -14  -6   11.60    4.40
  -3 -14   6    8.30    7.80
  -3 -14   6    7.30    6.50
   3  14  -6    5.40    5.40
   3  14  -6   12.00   11.00
   3  14  -6   -3.50    6.70
   2 -14  -6    6.30    4.60
  -2 -14   6    2.70    6.00
   2 -14  -6    7.00    6.00
  -2 -14   6   15.30    6.70
  -2  14   6   -0.20    3.30
   2  14  -6    1.40    5.20
  -2  14   6    2.60    1.80
   2  14  -6    6.40    7.20
   2  14  -6    7.60    3.90
  -1 -14   6    2.80    5.20
  -1 -14   6   10.70    4.50
   1 -14  -6    0.10    3.80
   1 -14  -6    6.40    6.00
   1  14  -6    8.30    3.90
  -1  14   6    9.20    5.00
   1  14  -6    8.80    3.90
  -1  14   6    3.70    3.90
  -1  14   6    0.70    2.30
   1  14  -6    9.70    3.20
   0 -14  -6   24.60    5.40
   0 -14  -6   35.10    6.80
   0 -14   6   10.50    4.60
   0  14   6   15.60    5.10
   0  14   6   30.50    5.90
   0  14  -6   23.90    5.00
   0  14   6   30.30    3.90
  -1 -14  -6   22.20    6.70
  -1 -14  -6    5.50    7.00
   1 -14   6    7.20    4.90
  -1  14  -6    9.60    3.90
   1  14   6   -0.80    4.30
   1  14   6   11.10    6.10
   1  14   6    8.70    3.40
  -1  14  -6    5.90    2.40
   2 -14   6    5.10    5.00
  -2 -14  -6    2.10    9.00
  -2 -14  -6   12.30    7.70
   2  14   6    1.90    7.00
   2  14   6   13.80    5.30
   2  14   6   17.60    6.90
  -2  14  -6    2.70    2.30
  -2  14  -6    1.90    1.70
  -2 -15   6    2.60    6.90
   2 -15  -6   -4.50    6.60
   2 -15  -6    4.30    4.80
  -2 -15   6    1.50    5.80
   2  15  -6    5.30    4.80
   2  15  -6   -5.20    7.20
  -2  15   6   -0.80    1.70
   2  15  -6    6.00    4.30
   1 -15  -6   -4.10    4.20
  -1 -15   6    1.90    5.10
  -1 -15   6    2.80    4.70
   1 -15  -6   -3.80    6.60
  -1  15   6    1.40    2.50
   1  15  -6    3.60    4.70
  -1  15   6   -2.90    4.20
   1  15  -6    0.40    4.30
   1  15  -6    2.90    3.60
   0 -15   6    1.50    4.60
   0 -15  -6   -2.40    7.20
   0 -15  -6   -1.90    5.10
   0  15  -6   -7.10    2.80
   0  15   6   11.70    5.70
   0  15   6    6.70    5.60
   0  15   6   11.80    3.20
   0  15  -6   11.20    4.40
   1 -15   6    3.90    5.50
  -1 -15  -6   20.50    7.50
  -1 -15  -6   -7.90    6.60
   1  15   6    0.60    4.30
  -1  15  -6    1.40    3.90
  -1  15  -6    8.90    2.40
   1  15   6    7.50    6.30
  -2 -15  -6    5.00   10.40
   2 -15   6    5.30    5.50
   2  15   6    6.40    6.80
  -1 -16   6   -0.40    5.60
   1 -16  -6   -2.90    5.50
  -1 -16   6    3.30    6.40
   1 -16  -6   -3.40    7.30
  -1  16   6    2.60    2.50
  -1  16   6   -0.10    5.10
   1  16  -6   -7.30    3.80
   0 -16  -6  -12.90    7.10
   0 -16  -6   24.20    8.20
   0 -16   6    5.90    5.30
   0  16  -6    3.90    3.20
   0  16   6    1.30    5.90
   0  16   6    5.80    3.60
   0  16  -6   -0.50    5.60
   6   0  -7   16.10    3.90
  -6   0   7   16.40    3.10
   5   0  -7   -1.50    2.70
  -5   0   7    3.50    2.10
   4   0  -7   -3.00    4.60
   4   0  -7   -0.90    2.40
  -4   0   7   -0.90    1.90
  -3   0   7   -1.70    2.30
   3   0  -7    0.50    2.40
   3   0  -7   10.90    4.20
  -2   0   7    7.60    2.60
   2   0  -7    0.20    3.70
   2   0  -7    9.70    3.00
   2   0  -7    8.10    3.20
   1   0  -7   31.80    3.90
  -1   0   7   33.50    3.70
   1   0  -7   40.60    4.80
   0   0   7    5.50    2.40
   0   0  -7   -1.00    2.70
   0   0  -7    3.60    2.80
  -1   0  -7    6.80    3.20
  -1   0  -7    8.20    3.60
   1   0   7   10.70    2.60
   1   0   7    7.90    2.80
   2   0   7   13.70    3.40
   2   0   7    7.20    4.00
  -2   0  -7   11.00    4.50
  -2   0  -7   11.30    3.60
   3   0   7   13.50    4.70
   3   0   7    9.80    3.90
  -3   0  -7   -1.30    5.10
   4   0   7    0.20    4.90
  -4   0  -7   -1.10    4.90
   4   0   7    2.00    6.50
  -4   0  -7    6.50    7.40
   5   0   7   28.70    8.90
  -5   0  -7   57.29   10.80
   5   0   7   65.49   11.00
   6  -1  -7    1.40    4.10
  -6  -1   7   11.10    3.10
   6   1  -7    7.70    4.20
  -6   1   7    7.70    2.70
   5  -1  -7   -1.60    5.60
  -5  -1   7    0.30    2.00
   5  -1  -7    0.30    3.10
  -5   1   7    2.30    1.80
   5   1  -7   -0.50    3.00
   5   1  -7    5.40    6.70
   4  -1  -7   -2.60    2.90
   4  -1  -7   -2.40    4.60
  -4  -1   7    3.00    2.60
   4   1  -7   -0.80    5.10
   4   1  -7   -0.70    3.30
  -4   1   7    3.60    2.20
   3  -1  -7   12.30    5.00
   3  -1  -7   16.30    2.70
  -3  -1   7   12.10    3.20
   3   1  -7   21.20    5.10
  -3   1   7   15.00    2.20
   3   1  -7   18.30    3.40
  -2  -1   7    7.60    2.20
   2  -1  -7   10.00    3.60
   2  -1  -7    6.10    2.40
   2   1  -7    7.20    3.70
   2   1  -7    2.50    2.50
  -2   1   7    2.80    1.90
   2   1  -7    7.50    3.20
  -1  -1   7   11.00    2.60
   1  -1  -7   16.50    3.50
   1  -1  -7   11.60    2.70
  -1   1   7   13.10    2.50
   1   1  -7   16.60    2.90
   1   1  -7   15.50    3.00
   0  -1   7    2.90    2.40
   0  -1  -7    4.10    2.90
   0  -1  -7    1.20    3.50
   0   1  -7    3.70    2.70
   0   1  -7    3.90    2.70
   0   1   7   -0.80    2.80
   1  -1   7   26.00    3.80
   1  -1   7   30.40    4.00
  -1  -1  -7   26.90    4.40
  -1  -1  -7   31.80    4.60
   1   1   7   31.90    4.00
  -1   1  -7   31.10    3.80
   1   1   7   39.20    4.90
  -1   1  -7   26.20    3.80
   2  -1   7    5.60    3.10
  -2  -1  -7   12.00    3.80
   2  -1   7   10.60    3.30
  -2  -1  -7    9.20    4.40
   2   1   7   15.60    4.40
  -2   1  -7   11.80    3.90
   2   1   7   12.70    3.40
  -2   1  -7   10.10    3.50
   3  -1   7   13.80    5.10
  -3  -1  -7   19.10    6.00
   3  -1   7   28.00    5.00
  -3  -1  -7   16.10    5.20
  -3   1  -7   22.80    4.50
  -3   1  -7   24.60    5.70
   3   1   7   27.70    5.50
   3   1   7   22.70    5.20
  -4  -1  -7    6.30    4.50
   4  -1   7    4.10    6.80
   4  -1   7    5.50    6.10
   4   1   7    3.40    4.90
  -4   1  -7   -2.90    4.60
  -4   1  -7   15.30    7.20
  -5  -1  -7   -1.80    6.20
   5  -1   7   20.30    9.80
  -5  -1  -7   19.80   10.70
  -5   1  -7   14.00    9.90
   5   1   7    8.50    7.00
  -5   1  -7   15.30    6.10
   5   1   7    6.90   10.70
  -6  -2   7   13.90    3.60
   6  -2  -7   22.60    4.10
   6   2  -7   14.70    9.10
  -6   2   7   16.50    3.00
   6   2  -7   13.00    5.10
   6   2  -7    5.50    6.20
  -5  -2   7   25.30    3.30
   5  -2  -7   17.10    3.10
  -5   2   7   27.10    3.30
   5   2  -7   29.90    7.00
   5   2  -7   23.90    4.00
  -4  -2   7   13.70    2.70
   4  -2  -7   25.40    5.30
   4  -2  -7   11.30    2.70
   4   2  -7    6.80    5.90
  -4   2   7   13.30    2.40
   3  -2  -7    6.00    3.80
  -3  -2   7    6.70    2.80
   3  -2  -7    5.80    4.20
   3  -2  -7   -0.40    2.70
   3   2  -7    4.50    4.10
   3   2  -7    8.30    2.90
   2  -2  -7    8.50    3.30
   2  -2  -7    6.00    2.60
  -2  -2   7    8.90    2.50
   2   2  -7    5.90    2.60
  -2   2   7    3.80    2.00
   2   2  -7   11.90    3.90
  -1  -2   7   57.09    4.70
   1  -2  -7   60.99    5.80
   1  -2  -7   60.69    5.40
   1   2  -7   62.39    5.20
   1   2  -7   63.39    5.20
   1   2  -7   56.89    4.80
  -1   2   7   60.59    4.90
   0  -2   7   65.69    5.20
   0  -2  -7   62.69    5.70
   0  -2  -7   54.59    5.00
   0   2  -7   54.29    4.80
   0   2   7   64.39    5.60
   0   2   7   58.19    4.60
   0   2  -7   48.10    4.80
   1  -2   7   -0.30    2.50
  -1  -2  -7    0.00    3.90
  -1  -2  -7    0.90    3.30
  -1   2  -7   -2.20    2.70
   1   2   7    5.60    3.10
   1   2   7    0.60    2.70
  -1   2  -7   -1.90    3.50
  -2  -2  -7   50.69    5.60
   2  -2   7   43.60    4.90
  -2  -2  -7   48.40    7.00
   2  -2   7   44.80    4.90
  -2   2  -7   46.40    5.70
   2   2   7   58.09    6.80
   2   2   7   42.90    5.10
  -3  -2  -7   27.80    5.80
   3  -2   7   15.20    4.20
   3  -2   7   37.90    4.80
  -3  -2  -7   31.70    6.60
   3   2   7   38.30    6.00
  -3   2  -7   25.30    4.70
   3   2   7   19.40    4.80
  -3   2  -7   24.00    5.00
  -4  -2  -7    6.10    7.20
   4  -2   7    5.80    6.40
   4  -2   7    7.00    4.80
   4   2   7    2.10    5.30
  -4   2  -7    1.50    6.10
  -4   2  -7    5.10    4.80
   4   2   7    5.60    7.30
   5  -2   7   11.20    7.00
   5  -2   7   12.00   10.20
  -5  -2  -7    7.20   10.30
  -5   2  -7    6.30    9.30
   5   2   7   12.40    9.80
   5   2   7   13.70    7.70
  -5   2  -7   15.30    6.70
   6  -3  -7   14.40    3.90
  -6  -3   7   10.70    4.00
   6   3  -7   13.50    6.80
  -6   3   7   13.10    2.50
   6   3  -7   25.40    5.40
   5  -3  -7    5.00    2.90
  -5  -3   7    8.70    3.40
   5   3  -7   10.00    7.50
  -5   3   7    6.40    2.00
   5   3  -7    3.60    3.90
   4  -3  -7   38.70    4.30
  -4  -3   7   34.60    4.50
  -4   3   7   37.00    3.60
   4   3  -7   40.00    6.70
   3  -3  -7   -0.60    3.90
   3  -3  -7   -0.30    2.70
  -3  -3   7    1.90    2.50
   3   3  -7   -3.20    2.70
  -3   3   7    1.60    1.90
   3   3  -7    0.60    4.40
   2  -3  -7   25.60    4.20
  -2  -3   7   27.00    3.60
   2  -3  -7   23.30    3.10
   2   3  -7   23.50    3.50
   2   3  -7   32.80    4.30
  -2   3   7   28.60    3.00
  -1  -3   7   15.80    2.80
   1  -3  -7   16.10    3.80
   1  -3  -7   18.20    3.40
   1   3  -7   19.80    3.00
  -1   3   7   14.20    2.60
   1   3  -7   21.20    3.50
   1   3  -7   16.20    3.50
   0  -3   7   76.99    5.70
   0  -3  -7   61.09    5.40
   0  -3  -7   77.69    6.50
   0   3  -7   60.79    5.20
   0   3   7   83.49    6.10
   0   3  -7   69.09    5.10
   0   3  -7   77.19    4.90
   0   3   7   63.49    5.10
  -1  -3  -7    2.00    3.40
  -1  -3  -7    0.30    4.20
   1  -3   7    2.80    2.50
   1   3   7   -3.20    3.20
  -1   3  -7    0.10    3.50
   1   3   7    4.10    3.30
   2  -3   7   -1.80    2.90
  -2  -3  -7    0.70    4.80
   2  -3   7    2.60    2.50
  -2  -3  -7    1.90    5.30
   2   3   7   -4.50    3.30
   2   3   7    2.60    3.70
  -2   3  -7    7.40    3.30
  -3  -3  -7   17.00    4.90
  -3  -3  -7   15.80    5.80
   3  -3   7   18.00    4.20
   3  -3   7   13.20    4.00
  -3   3  -7   19.40    4.40
   3   3   7   26.40    6.20
   3   3   7   18.30    4.70
  -3   3  -7   15.20    4.90
  -4  -3  -7  -11.90    7.40
   4  -3   7    3.60    6.10
  -4  -3  -7   -7.30    4.90
   4  -3   7    1.20    5.90
  -4   3  -7    4.40    6.30
   4   3   7    4.20    5.90
   4   3   7    2.80    7.60
  -4   3  -7    2.20    4.40
   5  -3   7   12.20    8.40
  -5  -3  -7    1.60   12.60
   5   3   7   16.80   10.10
  -5   3  -7   15.40    5.90
   5   3   7   12.10   11.70
  -6  -4   7   12.10    4.60
   6  -4  -7    0.90    3.80
  -6   4   7    7.50    2.40
   6   4  -7    4.60    6.80
   6   4  -7   14.10    6.90
   5  -4  -7   20.10    6.00
  -5  -4   7    8.80    3.40
   5  -4  -7    4.30    2.30
  -5   4   7    8.30    2.20
   5   4  -7   -3.40    7.70
   5   4  -7    7.90    4.30
   4  -4  -7   48.10    7.20
   4  -4  -7   44.00    6.20
  -4  -4   7   60.79    5.90
   4  -4  -7   37.50    4.40
   4   4  -7   51.59    8.20
   4   4  -7   40.30    5.40
  -4   4   7   47.70    3.70
  -3  -4   7   22.70    3.40
   3   4  -7   21.40    5.70
  -3   4   7   23.30    3.10
   3   4  -7   21.40    3.70
   2  -4  -7  103.39    8.10
  -2  -4   7  103.19    6.50
  -2   4   7   93.19    5.80
   2   4  -7   95.99    6.60
   2   4  -7  102.79    7.60
   1  -4  -7  249.08   13.50
   1  -4  -7  280.47   15.20
  -1  -4   7  274.67   13.30
   1   4  -7  223.48   13.10
   1   4  -7  267.47   14.00
   1   4  -7  264.97   14.10
  -1   4   7  244.38   13.00
   0  -4   7   24.20    3.80
   0  -4  -7   36.30    5.00
   0  -4  -7   23.20    3.90
   0   4   7   29.20    3.80
   0   4  -7   26.20    3.40
   0   4   7   26.30    3.70
   1  -4   7   -3.20    3.20
  -1  -4  -7    1.50    4.70
  -1  -4  -7   -0.90    3.50
  -1   4  -7    1.70    3.40
   1   4   7    3.60    3.20
   1   4   7   -3.70    3.40
  -2  -4  -7   23.20    5.50
  -2  -4  -7   27.80    6.10
   2  -4   7   13.60    3.40
  -2   4  -7   24.00    4.00
   2   4   7   10.90    3.80
   2   4   7   27.40    4.80
   3  -4   7    1.10    4.20
  -3  -4  -7   10.20    4.90
   3  -4   7    7.60    3.70
  -3   4  -7    3.40    3.70
   3   4   7   11.40    5.70
   4  -4   7   16.90    6.10
   4  -4   7    6.70    6.00
  -4  -4  -7    7.70    6.70
  -4  -4  -7    4.10    9.10
   4   4   7   11.30    6.40
  -4   4  -7   12.60    4.80
   4   4   7   15.50    7.00
   5  -4   7    5.50    8.30
  -5  -4  -7   -8.90   11.30
   5   4   7    0.20   11.70
   5   4   7   -3.30   10.00
  -6  -5   7    4.60    5.30
   6   5  -7    9.90   10.80
   6   5  -7    9.40    7.70
   6   5  -7   10.90    6.20
   5  -5  -7    5.50    6.10
   5  -5  -7    2.40    6.10
  -5  -5   7    6.50    4.60
   5  -5  -7   13.60    3.30
   5   5  -7   14.50    8.80
  -5   5   7    8.20    1.90
   5   5  -7   -4.20    5.30
   4  -5  -7   42.00    5.80
  -4  -5   7   29.50    4.30
   4  -5  -7   31.70    4.00
   4  -5  -7   37.00    5.70
   4   5  -7   43.10    7.30
  -4   5   7   31.20    3.20
   4   5  -7   32.70    4.70
   3  -5  -7    3.30    2.90
   3  -5  -7    2.80    4.10
  -3  -5   7    0.30    3.00
   3   5  -7    3.20    5.70
  -3   5   7    4.00    1.70
   3   5  -7    4.10    3.90
   2  -5  -7   86.09    7.30
   2  -5  -7   67.59    5.70
  -2  -5   7   73.89    5.80
   2   5  -7   78.39    7.20
  -2   5   7   76.19    4.90
   2   5  -7   65.09    5.80
   1  -5  -7  516.95   25.20
  -1  -5   7  539.95   25.30
   1  -5  -7  555.14   28.40
   1   5  -7  461.65   25.10
  -1   5   7  515.05   25.00
   1   5  -7  553.44   27.20
   0  -5  -7    6.90    3.80
   0  -5  -7    7.70    3.40
   0  -5   7    2.30    3.00
   0   5  -7    6.10    3.30
   0   5   7    0.60    2.80
   0   5   7    5.90    3.80
   1  -5   7   18.00    3.70
  -1  -5  -7   22.60    4.70
  -1  -5  -7   16.00    4.70
   1   5   7   23.50    4.20
   1   5   7   16.10    3.90
   2  -5   7    4.10    3.90
  -2  -5  -7   21.80    6.30
  -2  -5  -7    9.10    4.50
   2   5   7   14.80    3.90
  -2   5  -7   10.60    3.80
   2   5   7   13.10    5.20
   3  -5   7    5.70    3.10
  -3  -5  -7    5.40    5.10
   3  -5   7   11.90    4.10
  -3  -5  -7    3.30    7.00
   3   5   7    5.70    6.30
   3   5   7   10.00    4.90
  -3   5  -7    2.30    4.10
   4  -5   7   15.10    5.20
   4  -5   7   17.10    5.60
  -4  -5  -7   14.70    6.10
  -4  -5  -7    6.80    9.90
  -4   5  -7   15.40    4.00
   4   5   7   15.80    7.40
   4   5   7   25.10    8.00
  -5  -6   7   16.20    4.50
   5  -6  -7   -3.40    2.90
   5  -6  -7   11.40    6.40
   5  -6  -7   19.40    6.30
   5   6  -7   11.80    8.30
   5   6  -7    9.00    5.00
   5   6  -7    0.80    6.90
  -5   6   7    6.60    1.70
   4  -6  -7   10.90    5.10
   4  -6  -7    7.10    5.00
   4  -6  -7    4.10    2.60
  -4  -6   7    9.80    3.50
   4   6  -7    6.40    4.80
  -4   6   7    0.30    1.80
   4   6  -7    1.70    7.50
   3  -6  -7   10.70    2.60
   3  -6  -7    8.30    4.70
  -3  -6   7   15.50    3.50
   3   6  -7   14.40    3.70
   3   6  -7   16.00    5.80
  -3   6   7   10.00    2.00
   2  -6  -7  102.69    7.10
  -2  -6   7  118.39    7.60
  -2   6   7  110.69    6.50
   2   6  -7  118.49    8.40
   2   6  -7  118.59    8.00
   1  -6  -7  152.98   10.10
  -1  -6   7  135.49    8.20
   1  -6  -7  127.59    8.10
   1   6  -7  135.49    8.60
   1   6  -7  129.19    8.10
   1   6  -7  151.28    8.00
  -1   6   7  132.59    7.70
   0  -6  -7   49.90    6.70
   0  -6  -7   43.00    5.10
   0  -6   7   52.89    5.30
   0   6   7   49.20    5.80
   0   6  -7   34.60    4.40
   0   6   7   53.69    4.70
  -1  -6  -7    7.70    4.10
  -1  -6  -7   13.80    4.70
   1  -6   7    5.10    2.90
   1   6   7   12.60    4.00
   1   6   7    8.10    3.20
  -1   6  -7    4.40    3.40
  -2  -6  -7   19.90    5.10
   2   6   7   15.40    5.10
  -2   6  -7   21.20    3.90
   3  -6   7   19.00    5.20
  -3  -6  -7   22.70    5.60
  -3  -6  -7   19.70    8.00
   3   6   7   33.50    6.40
   3   6   7   21.90    5.40
  -3   6  -7   16.10    4.30
   4  -6   7   22.10    6.50
  -4  -6  -7   29.60    8.30
   4  -6   7   27.70    5.60
  -4  -6  -7   33.10   10.50
  -4   6  -7   25.20    4.40
   4   6   7   34.20    9.30
   4   6   7   21.70    7.10
  -5  -7   7   12.60    5.90
   5  -7  -7   18.00    6.70
   5  -7  -7   14.00    6.60
   5  -7  -7    6.70    3.30
  -5   7   7    1.00    1.60
   5   7  -7    5.40    9.20
   5   7  -7    9.20    5.40
   5   7  -7   16.20    6.40
  -4  -7   7    4.50    3.60
   4  -7  -7   -3.30    5.30
   4  -7  -7   -3.10    2.90
   4  -7  -7   -0.10    5.50
   4   7  -7    5.40    7.80
   4   7  -7    6.40    4.40
  -4   7   7    2.90    1.50
  -3  -7   7  158.68    9.30
   3  -7  -7  167.88   11.10
   3  -7  -7  128.39    8.40
   3   7  -7  145.59   11.30
  -3   7   7  134.29    7.60
   3   7  -7  150.98    9.90
   2  -7  -7   37.70    4.80
  -2  -7   7   42.30    5.10
   2  -7  -7   44.30    5.50
   2   7  -7   43.90    6.20
  -2   7   7   36.60    3.90
   2   7  -7   33.90    4.50
   1  -7  -7   46.50    4.60
  -1  -7   7   43.30    5.50
   1   7  -7   34.50    4.70
   0  -7   7   -2.00    3.20
   0  -7  -7    1.70    4.30
   0  -7  -7    0.60    3.50
   0   7   7    2.90    2.20
   0   7  -7   -2.40    2.70
  -1  -7  -7  102.69    8.10
   1  -7   7   70.69    6.00
  -1   7  -7   89.09    6.40
   1   7   7   86.09    6.40
  -2  -7  -7   21.20    6.70
  -2  -7  -7   10.20    5.20
   2  -7   7   14.00    4.50
   2   7   7   18.10    4.30
   2   7   7   17.40    5.20
  -2   7  -7   11.30    3.60
   3  -7   7   17.80    4.60
  -3  -7  -7   34.50    7.50
  -3  -7  -7   21.50    6.30
   3   7   7   26.60    6.20
   3   7   7   37.20    6.50
  -3   7  -7   22.70    4.20
  -4  -7  -7   22.10   10.70
   4  -7   7   19.20    6.70
  -4  -7  -7   26.40    7.50
   4   7   7   35.90    8.70
   4   7   7   35.60    9.00
  -5  -8   7   14.70    5.80
   5  -8  -7    0.80    7.40
   5  -8  -7    9.00    3.60
   5  -8  -7   21.20    7.20
   5   8  -7   10.00    6.10
   5   8  -7   25.00   10.30
   5   8  -7   10.60    6.70
   4  -8  -7   18.20    3.30
  -4  -8   7    5.60    4.10
   4  -8  -7   12.10    5.60
  -4   8   7    7.20    1.50
   4   8  -7   18.90    8.10
   4   8  -7    6.90    4.80
   3  -8  -7   71.89    8.30
   3  -8  -7   51.49    5.40
  -3  -8   7   68.39    6.60
  -3   8   7   73.39    4.30
   3   8  -7   63.09    9.00
   3   8  -7   59.59    6.50
   2  -8  -7  274.57   15.30
   2  -8  -7  331.07   18.00
  -2  -8   7  303.07   15.70
   2   8  -7  300.77   15.90
  -2   8   7  290.77   14.70
   2   8  -7  291.37   16.70
   1  -8  -7    1.10    4.30
  -1  -8   7    2.60    3.00
  -1   8   7    7.60    2.40
   1   8  -7    1.00    3.20
   0  -8  -7   16.20    4.10
   0  -8   7   17.90    3.30
   0  -8  -7   18.90    5.00
   0   8   7   18.10    4.50
  -1  -8  -7  101.29    7.90
  -1  -8  -7  104.49    9.40
   1  -8   7   80.89    7.10
   1   8   7  108.89    8.50
  -1   8  -7  100.79    6.90
   1   8   7   82.19    6.70
  -2  -8  -7    8.70    6.10
   2  -8   7    2.30    4.40
  -2  -8  -7    2.60    6.20
  -2   8  -7    4.20    3.40
   2   8   7   15.50    5.20
   2   8   7   17.30    5.30
  -3  -8  -7    4.70    6.00
   3  -8   7   -1.60    4.90
  -3  -8  -7   19.70    7.30
   3   8   7    5.80    7.20
   3   8   7    1.80    6.70
  -3   8  -7    7.50    3.50
   4  -8   7    7.10    6.40
  -4  -8  -7   15.40    9.70
  -4  -8  -7    3.60    7.50
   4   8   7   18.70    8.70
   4   8   7   21.10    9.60
  -4   8  -7    6.10    3.10
  -5  -9   7    4.70    6.30
   5  -9  -7   -1.50    7.60
   5  -9  -7    4.70    4.10
   5   9  -7    5.20    8.20
   5   9  -7    9.40   11.40
   4  -9  -7    7.20    3.30
  -4  -9   7    4.40    4.60
   4  -9  -7   12.30    6.30
   4   9  -7    2.00    7.90
   4   9  -7    6.10    5.20
  -4   9   7    6.20    1.60
   3  -9  -7   19.90    3.40
   3  -9  -7   23.50    5.70
  -3  -9   7   28.80    5.50
   3   9  -7   31.00    6.70
  -3   9   7   25.40    2.60
   3   9  -7   29.50    4.80
   2  -9  -7   24.50    5.50
  -2  -9   7   22.60    4.40
   2  -9  -7   26.50    4.30
   2   9  -7   17.90    4.30
   2   9  -7   32.30    5.40
  -2   9   7   24.70    3.00
   1  -9  -7   21.60    5.20
  -1  -9   7   16.40    3.70
   1  -9  -7   13.30    4.50
  -1   9   7   24.90    3.20
   1   9  -7   13.00    3.70
   0  -9   7   18.00    3.60
   0  -9  -7   26.90    5.80
   0   9   7   18.80    3.00
   0   9   7   31.00    4.60
  -1  -9  -7  102.39    8.30
  -1  -9  -7  121.49    9.90
   1   9   7  115.19    9.10
  -1   9  -7   93.09    7.10
   1   9   7   96.59    7.50
  -2  -9  -7   -2.80    5.90
   2  -9   7    3.40    4.30
  -2  -9  -7   -8.70    5.10
   2   9   7   -3.20    4.50
   2   9   7   -3.30    5.80
  -2   9  -7    5.70    3.30
   3  -9   7    6.70    5.40
  -3  -9  -7    3.60    6.50
  -3  -9  -7    6.50    7.50
  -3   9  -7    9.20    3.60
   3   9   7   -0.10    6.30
   3   9   7   -0.10    6.40
  -4  -9  -7    0.60    7.80
  -4  -9  -7    5.50   10.50
   4  -9   7    4.30    6.60
   4   9   7    2.30    8.00
   4   9   7    4.40    8.80
   4   9   7   11.20    9.20
  -4 -10   7    6.40    6.30
  -4 -10   7    2.60    5.30
   4 -10  -7    7.70    3.50
   4 -10  -7    6.20    6.50
   4  10  -7   11.90    9.70
   4  10  -7    3.40    5.90
   4  10  -7    1.20    5.50
   3 -10  -7    4.60    3.50
   3 -10  -7    7.40    5.60
  -3 -10   7    3.80    4.20
   3  10  -7    0.40    5.60
   3  10  -7   -2.20    7.40
   3  10  -7   -3.20    4.20
  -3  10   7    5.00    1.40
   2 -10  -7  242.38   14.60
  -2 -10   7  227.58   12.60
   2 -10  -7  205.58   11.90
   2  10  -7  211.78   12.40
  -2  10   7  195.88   10.90
   2  10  -7  220.18   13.50
   1 -10  -7   50.99    6.30
  -1 -10   7   32.30    4.50
   1 -10  -7   37.40    4.40
   1  10  -7   28.10    5.00
  -1  10   7   39.30    3.80
   0 -10  -7   14.80    5.40
   0 -10  -7   12.20    5.70
   0 -10   7    9.90    3.30
   0  10   7   13.30    4.50
   0  10   7   17.80    3.10
   0  10  -7    7.40    3.80
   1 -10   7    1.30    4.00
  -1 -10  -7   -2.20    5.60
  -1  10  -7    2.20    3.40
   1  10   7    9.00    3.40
   1  10   7    9.70    4.70
   2 -10   7   23.10    5.00
  -2 -10  -7   43.20    7.20
  -2 -10  -7   48.50    6.90
   2  10   7   36.50    5.60
   2  10   7   40.00    6.30
  -2  10  -7   36.40    4.80
  -3 -10  -7   19.20    8.00
  -3 -10  -7   30.30    7.40
   3 -10   7   11.30    5.50
   3  10   7   16.30    7.10
   3  10   7   19.00    6.70
  -4 -11   7    6.90    8.10
   4 -11  -7    0.40    4.30
   4 -11  -7  -13.10    6.60
  -4 -11   7    5.10    6.20
   4  11  -7    0.30    6.40
   4  11  -7   -5.80    7.80
   4  11  -7   -9.50   10.60
  -3 -11   7    6.20    5.70
   3 -11  -7    5.20    6.10
   3 -11  -7    2.80    3.80
  -3 -11   7    4.60    4.60
   3  11  -7    5.70    4.90
   3  11  -7   12.70    7.20
   3  11  -7   -9.90    4.50
  -2 -11   7   11.90    4.40
   2 -11  -7   12.50    5.40
   2 -11  -7   13.50    3.50
  -2  11   7    8.20    2.10
   2  11  -7   11.50    4.40
   2  11  -7   20.60    5.50
   2  11  -7   13.10    4.10
   1 -11  -7   99.99    7.40
  -1 -11   7   89.59    8.60
   1 -11  -7  117.29   10.10
   1  11  -7   89.29    8.10
  -1  11   7  101.99    6.20
   0 -11  -7    7.60    5.50
   0 -11   7    5.70    3.60
   0 -11  -7    7.20    5.50
   0  11   7    7.10    4.60
   0  11   7    2.50    3.00
   0  11  -7    5.30    3.80
  -1 -11  -7   29.00    6.00
  -1 -11  -7   19.50    6.00
   1 -11   7   18.10    4.60
  -1  11  -7   18.70    4.00
   1  11   7   20.30    3.70
   1  11   7   23.60    5.10
  -2 -11  -7   28.20    7.10
   2 -11   7   17.50    5.00
  -2 -11  -7   27.50    7.30
  -2  11  -7   17.00    4.00
   2  11   7   20.80    5.50
   2  11   7   21.00    5.60
   3 -11   7    4.90    5.60
  -3 -11  -7    3.70    8.30
  -3 -11  -7    0.20    8.30
   3  11   7    4.00    6.60
  -3  11  -7    4.40    2.00
  -3  11  -7    8.20    2.80
   3  11   7   10.40    7.60
   3  11   7    5.00    6.90
  -4 -12   7   17.80    7.50
   4 -12  -7   22.40    5.20
  -4 -12   7   14.90    9.30
   4  12  -7   14.10    7.30
   4  12  -7   22.50   11.30
   4  12  -7   14.30    7.00
   3 -12  -7   17.10    4.80
  -3 -12   7    7.90    5.50
   3 -12  -7   16.60    6.90
  -3 -12   7    8.70    6.20
   3  12  -7   19.30    5.50
   3  12  -7    9.00    5.50
  -3  12   7    7.40    1.60
   3  12  -7   15.40    7.90
   2 -12  -7   99.59    7.40
   2 -12  -7  114.69   10.40
  -2 -12   7   93.39    8.70
   2  12  -7   97.79    9.40
   2  12  -7   94.69    8.30
  -2  12   7   86.39    5.40
   2  12  -7   89.99    7.60
   1 -12  -7  160.78   10.30
  -1 -12   7  146.69   10.90
   1 -12  -7  169.88   12.10
   1  12  -7  139.79    9.00
  -1  12   7  148.09    8.40
   0 -12   7    6.30    3.80
   0 -12  -7    5.90    4.90
   0 -12  -7    6.20    6.10
   0  12  -7    5.60    3.10
   0  12   7    6.80    5.00
   0  12   7    6.70    2.90
   0  12  -7    3.50    4.00
  -1 -12  -7  -14.10    6.60
  -1 -12  -7   -2.10    5.90
   1 -12   7    5.80    3.90
   1  12   7    8.80    3.70
   1  12   7    4.70    5.20
  -1  12  -7    1.40    3.60
  -1  12  -7    2.30    2.80
  -2 -12  -7   21.70    7.10
  -2 -12  -7    3.10    8.30
   2 -12   7    7.90    5.10
   2  12   7   13.00    6.00
  -2  12  -7    0.70    4.10
   2  12   7    8.90    5.50
   2  12   7   13.10    7.00
  -3 -12  -7    0.30    8.60
   3 -12   7    0.30    5.70
   3  12   7    2.90    8.50
   3  12   7   -0.70    7.30
   3 -13  -7   -6.00    6.90
  -3 -13   7   -3.20    7.50
   3 -13  -7   17.60    5.50
  -3 -13   7   -0.40    7.60
   3  13  -7   -6.00    5.50
  -3  13   7    0.80    1.60
   3  13  -7   -7.30    6.30
  -3  13   7   -2.50    2.50
   3  13  -7   11.70   10.10
  -2 -13   7   23.20    5.60
   2 -13  -7   48.00    7.20
   2 -13  -7   46.00    4.90
   2  13  -7   26.50    5.10
  -2  13   7   33.90    3.20
   2  13  -7   31.80    6.20
  -2  13   7   26.00    4.70
  -1 -13   7   40.50    5.80
   1 -13  -7   45.80    7.10
   1 -13  -7   38.90    6.20
  -1  13   7   33.20    5.20
  -1  13   7   43.30    3.90
   1  13  -7   37.00    4.60
   0 -13   7    0.80    4.30
   0 -13  -7    4.50    6.50
   0 -13  -7    8.40    5.70
   0  13   7    8.20    5.10
   0  13  -7    0.80    4.30
   0  13   7   -7.80    2.90
   0  13   7   -3.40    4.60
   0  13  -7    5.40    3.00
  -1 -13  -7   -0.40    6.50
   1 -13   7    0.20    5.30
  -1 -13  -7   10.50    6.60
  -1  13  -7   -0.50    2.90
   1  13   7    1.40    3.70
  -1  13  -7   -1.00    3.90
   1  13   7   -4.00    5.50
   1  13   7   -2.40    5.60
  -2 -13  -7    2.60    7.50
   2 -13   7    2.90    5.70
  -2 -13  -7   -0.40    7.70
   2  13   7    5.00    7.10
   2  13   7   -2.90    7.30
   2  13   7    2.20    6.30
  -2  13  -7    0.90    2.40
  -3 -14   7   15.80    8.90
   3  14  -7   16.80    7.30
   2 -14  -7    8.30    5.10
   2 -14  -7    9.00    7.00
  -2 -14   7    8.20    6.80
  -2 -14   7    3.30    5.80
  -2  14   7    2.70    2.10
   2  14  -7   -4.90    6.30
   2  14  -7    6.90    4.30
   2  14  -7    2.40    6.60
  -2  14   7    7.70    4.10
  -1 -14   7   19.80    5.40
   1 -14  -7   30.60    7.40
   1 -14  -7   25.00    6.70
  -1  14   7   19.00    5.80
  -1  14   7   36.80    4.20
   0 -14  -7   28.40    6.00
   0 -14   7    3.10    4.60
   0 -14  -7   12.50    7.20
   0  14   7   14.90    3.40
   0  14   7   11.00    5.60
   0  14  -7    2.60    3.20
   0  14  -7    5.00    4.90
   0  14   7   -1.00    4.90
  -1 -14  -7   10.90    7.50
   1 -14   7    0.90    6.00
  -1 -14  -7  -18.40    8.30
   1  14   7   -1.30    6.40
   1  14   7   11.40    4.80
   1  14   7    0.20    6.20
  -1  14  -7   -2.70    4.70
  -1  14  -7    8.80    2.50
  -2 -15   7   13.10    6.90
   1 -15  -7    5.70    7.90
  -1 -15   7    9.30    6.70
   1 -15  -7   10.50    6.50
  -1  15   7    5.00    2.90
   1  15  -7    7.70    4.20
  -1  15   7   10.10    5.30
   0 -15  -7    3.10    8.50
   0  15  -7   12.50    5.10
   0  15   7   16.70    3.70
   5   0  -8    9.80    7.20
  -5   0   8   -0.70    2.60
   5   0  -8    6.50    3.80
   4   0  -8   69.69    5.90
  -4   0   8   66.69    5.00
  -3   0   8   -0.20    2.70
   3   0  -8    2.90    4.20
   3   0  -8    0.30    5.50
   3   0  -8   -1.60    3.00
   2   0  -8    2.30    4.20
   2   0  -8   -0.90    3.80
  -2   0   8   -1.20    2.40
   2   0  -8   -3.80    2.70
   1   0  -8   60.59    6.80
  -1   0   8   50.09    5.00
   1   0  -8   52.39    5.10
   0   0   8   10.00    3.20
   0   0  -8   15.80    3.70
   0   0  -8   11.80    4.50
   1   0   8   16.70    3.60
  -1   0  -8   16.20    4.30
  -1   0  -8   18.60    4.80
   1   0   8    4.10    4.20
  -2   0  -8    4.70    4.90
  -2   0  -8    1.20    4.10
   2   0   8    5.90    3.70
   2   0   8    0.90    3.70
   3   0   8   11.00    5.70
  -3   0  -8    4.30    6.50
  -3   0  -8    5.70    5.80
   3   0   8    4.50    5.50
   4   0   8   -3.60    5.70
  -4   0  -8    8.60    6.20
  -5  -1   8    3.40    2.40
   5  -1  -8    0.40    4.00
   5   1  -8   -2.40    3.90
  -5   1   8    6.50    2.60
   5   1  -8   -8.90    7.50
  -4  -1   8    1.50    3.00
   4  -1  -8    1.80    3.40
   4  -1  -8   10.40    5.40
   4   1  -8   -0.20    5.70
   4   1  -8   -3.40    3.20
  -4   1   8    3.20    2.50
   3   1  -8  119.09    9.20
  -3   1   8  128.19    7.40
   3   1  -8  116.49    8.30
   2  -1  -8    5.70    4.40
  -2  -1   8   10.40    2.90
   2  -1  -8    5.80    3.60
   2   1  -8    4.60    3.80
  -2   1   8    4.10    2.30
   2   1  -8    4.30    4.30
   2   1  -8    5.30    3.70
  -1  -1   8   73.69    5.80
   1  -1  -8   88.59    7.40
   1  -1  -8   62.19    5.80
   1   1  -8   64.79    5.80
  -1   1   8   82.49    6.30
   1   1  -8   83.19    6.50
   0  -1  -8  272.57   15.00
   0  -1   8  255.57   13.40
   0  -1  -8  243.88   13.50
   0   1   8  257.87   13.40
   0   1  -8  265.17   14.50
   0   1  -8  228.88   13.40
  -1  -1  -8   72.39    6.60
   1  -1   8   79.79    6.30
  -1  -1  -8   78.49    7.80
  -1   1  -8   67.59    7.10
  -1   1  -8   75.99    6.70
   1   1   8   86.59    6.70
   1   1   8   74.19    6.40
   2  -1   8   -0.40    3.60
  -2  -1  -8    7.20    4.20
  -2  -1  -8    1.00    4.90
   2  -1   8    1.20    4.40
  -2   1  -8    2.60    4.60
   2   1   8    4.30    4.40
  -2   1  -8    4.60    4.00
   2   1   8   -0.60    3.50
  -3  -1  -8    5.40    7.20
   3  -1   8    1.10    4.80
  -3  -1  -8    3.10    4.90
   3  -1   8   -0.80    4.20
   3   1   8    3.60    5.40
   3   1   8    2.40    4.60
  -3   1  -8    7.00    6.00
   4  -1   8   -5.70    5.60
  -4  -1  -8    5.70    9.10
   4  -1   8    9.00    7.60
  -4   1  -8    7.20    7.40
   4   1   8   -1.00    7.40
   4   1   8    1.00    7.70
  -4   1  -8    5.80    6.20
   5  -2  -8   10.40    3.20
  -5  -2   8   -2.70    3.40
   5  -2  -8   10.30    6.60
  -5   2   8    3.70    2.50
   5   2  -8   -1.70    7.80
   5   2  -8   10.10    4.20
   4  -2  -8   -4.10    5.50
   4  -2  -8   13.30    5.50
  -4  -2   8    1.40    3.20
   4  -2  -8    1.70    2.70
   4   2  -8    0.00    4.20
   4   2  -8    1.60    6.40
  -4   2   8   -0.80    2.40
   3  -2  -8   10.20    3.40
   3   2  -8    4.70    4.10
  -3   2   8   10.50    2.20
   3   2  -8   19.50    5.70
   2  -2  -8    3.90    3.00
  -2  -2   8    7.90    2.70
   2  -2  -8    9.10    3.90
   2   2  -8    4.20    3.20
   2   2  -8    5.30    4.30
  -2   2   8    8.00    2.80
   2   2  -8   10.30    3.80
   1  -2  -8  110.99    8.70
   1  -2  -8  105.09    7.00
  -1  -2   8   98.19    6.70
   1   2  -8   97.89    7.20
  -1   2   8   97.59    6.50
   1   2  -8  105.69    7.40
   1   2  -8   80.89    6.80
   0  -2  -8  313.37   17.40
   0  -2  -8  374.96   19.40
   0  -2   8  352.56   17.30
   0   2   8  354.86   17.50
   0   2  -8  310.37   17.30
   0   2  -8  353.06   18.50
  -1  -2  -8   12.30    4.20
  -1  -2  -8    9.30    4.80
   1  -2   8    5.90    3.30
   1   2   8    8.30    3.50
   1   2   8   10.70    3.80
  -1   2  -8    6.50    3.70
  -1   2  -8    6.20    3.70
  -2  -2  -8   11.40    4.50
   2  -2   8    4.10    3.10
  -2  -2  -8    8.20    5.40
   2  -2   8    7.90    3.80
  -2   2  -8    4.20    4.20
  -2   2  -8   10.30    4.00
   2   2   8   -0.20    4.80
   2   2   8    9.10    4.60
   3  -2   8    5.30    4.40
   3  -2   8    3.40    5.20
  -3  -2  -8   -0.30    7.10
  -3  -2  -8    6.40    6.40
   3   2   8    0.60    4.90
  -3   2  -8    0.70    5.50
  -3   2  -8   -5.10    4.70
   3   2   8   -5.00    5.60
  -4  -2  -8   -4.30    7.00
   4  -2   8    6.00    6.90
   4  -2   8    4.70    6.80
  -4  -2  -8    0.30    9.50
   4   2   8   -1.60    8.40
  -4   2  -8   -0.90    5.90
  -4   2  -8    3.80    7.50
   4   2   8   -1.10    7.40
  -5  -3   8    6.10    3.30
   5  -3  -8    3.80    3.70
   5   3  -8   11.70    4.50
  -5   3   8   10.00    2.40
   5   3  -8    7.80    8.40
   4  -3  -8    9.20    3.00
   4  -3  -8   10.70    5.20
  -4  -3   8   10.10    3.10
  -4   3   8    6.70    2.30
   4   3  -8    5.40    3.70
   4   3  -8    8.30    7.30
  -3  -3   8    7.10    3.70
   3  -3  -8    2.50    2.70
   3  -3  -8    4.80    4.40
   3   3  -8    2.00    3.50
  -3   3   8    4.50    1.90
   3   3  -8    3.40    5.70
  -2  -3   8    3.70    2.90
   2  -3  -8    7.20    4.10
   2  -3  -8    4.70    3.10
   2   3  -8    4.30    3.30
   2   3  -8    8.10    3.50
   2   3  -8    2.20    4.60
   1  -3  -8   93.99    7.00
   1  -3  -8  111.69    9.10
  -1  -3   8   99.29    6.80
  -1   3   8   96.69    6.50
   1   3  -8   99.19    7.30
   1   3  -8  110.49    7.40
   1   3  -8   78.09    6.70
   0  -3   8   89.59    6.40
   0  -3  -8   96.79    8.50
   0  -3  -8   86.09    6.70
   0   3   8   98.99    7.60
   0   3  -8   81.79    5.80
   0   3  -8   78.29    6.40
   0   3   8   85.99    6.80
   0   3  -8   81.79    6.10
  -1  -3  -8    6.80    5.00
  -1  -3  -8    9.30    4.40
   1  -3   8    4.30    4.10
  -1   3  -8    8.00    4.40
   1   3   8    4.30    4.00
   1   3   8    2.70    3.30
  -2  -3  -8    6.10    5.30
  -2  -3  -8    4.60    4.90
   2  -3   8    4.30    2.80
   2  -3   8    6.10    3.70
   2   3   8   11.10    4.90
  -2   3  -8    7.50    3.50
   2   3   8    0.70    4.90
   3  -3   8   14.20    4.80
  -3  -3  -8   36.00    7.20
   3  -3   8   19.50    4.20
  -3   3  -8   25.50    5.10
  -3   3  -8   23.70    5.50
   3   3   8   14.30    5.50
   4  -3   8   -7.30    6.50
  -4  -3  -8    0.60    6.00
  -4  -3  -8  -12.70    9.90
   4  -3   8    1.20    7.00
  -4   3  -8   -5.60    5.40
  -4   3  -8   -9.20    7.00
   4   3   8   10.40    8.90
   4   3   8    0.40    6.60
  -5  -4   8   10.70    4.60
   5  -4  -8   13.20    3.80
   5  -4  -8   22.70    6.30
   5   4  -8   14.90    5.00
   5   4  -8   31.60    9.40
   4  -4  -8   -0.50    4.90
   4  -4  -8   -2.40    2.40
  -4  -4   8   -2.20    3.20
   4   4  -8   -2.20    3.70
   4   4  -8   -4.80    6.70
  -4   4   8   -1.10    2.00
   3  -4  -8    2.30    4.40
  -3  -4   8    1.40    3.70
   3  -4  -8    0.30    2.80
   3   4  -8   -5.20    5.70
  -3   4   8    1.20    2.10
   3   4  -8    0.50    4.00
  -2  -4   8   34.50    4.50
   2  -4  -8   27.80    3.80
   2  -4  -8   34.40    5.60
   2   4  -8   30.30    4.10
   2   4  -8   35.60    5.50
   2   4  -8   40.60    5.70
  -2   4   8   23.70    3.00
  -1  -4   8  142.39    9.00
   1  -4  -8  149.19    9.60
   1  -4  -8  177.98   10.90
   1   4  -8  172.08    9.50
   1   4  -8  152.58    9.50
  -1   4   8  147.69    8.70
   1   4  -8  128.29    9.00
   0  -4  -8   16.50    4.90
   0  -4   8   18.00    3.60
   0  -4  -8   17.30    4.60
   0   4   8   15.20    3.80
   0   4  -8   20.30    4.40
   0   4   8   17.10    3.30
   1  -4   8    4.80    3.30
  -1  -4  -8    6.20    4.80
  -1  -4  -8    1.80    4.30
   1   4   8    2.90    3.20
   1   4   8   -1.40    3.70
  -1   4  -8   -1.90    4.30
  -2  -4  -8   26.00    5.60
  -2  -4  -8   27.80    6.20
   2  -4   8   19.00    5.00
  -2   4  -8   22.60    4.70
   2   4   8   25.90    5.50
   2   4   8   28.00    5.90
   3  -4   8    9.00    4.40
  -3  -4  -8   11.10    8.10
  -3  -4  -8   17.00    6.10
   3  -4   8   13.60    3.70
  -3   4  -8   11.60    4.90
   3   4   8   16.90    5.70
   3   4   8   17.40    6.00
  -4  -4  -8   -1.20   10.90
   4  -4   8   -0.60    6.00
  -4  -4  -8    3.10    7.80
   4  -4   8    4.40    5.70
   4   4   8    8.30    6.90
   4   4   8    6.10    9.50
  -4   4  -8    1.40    5.20
  -5  -5   8    7.40    4.10
   5  -5  -8    7.00    3.60
   5  -5  -8   12.30    6.50
  -5   5   8    0.30    2.20
   5   5  -8    8.10    9.70
   5   5  -8    3.20    6.50
   4  -5  -8    8.20    5.40
   4  -5  -8    4.10    2.60
  -4  -5   8   13.90    4.10
  -4   5   8    5.20    2.00
   4   5  -8    4.40    4.60
   4   5  -8   19.30    8.20
   3  -5  -8    4.20    2.70
   3  -5  -8    1.90    4.60
  -3  -5   8   -2.30    3.90
   3   5  -8   -5.30    6.20
  -3   5   8   -3.20    2.10
   3   5  -8    4.20    3.80
  -2  -5   8    8.10    3.20
  -2   5   8    5.60    2.30
   2   5  -8   11.80    4.90
   2   5  -8    9.50    3.60
   1  -5  -8  243.88   14.10
   1  -5  -8  222.88   12.50
  -1  -5   8  226.28   12.20
   1   5  -8  215.58   12.40
  -1   5   8  211.18   11.70
   1   5  -8  242.98   12.40
   1   5  -8  192.78   12.00
   0  -5  -8    4.80    3.90
   0  -5   8    4.40    3.70
   0  -5  -8   -3.20    4.40
   0   5  -8    4.30    3.40
   0   5   8    4.70    4.30
   0   5   8    6.00    3.70
  -1  -5  -8   19.60    6.20
   1  -5   8    9.80    3.60
  -1  -5  -8    5.00    4.40
  -1   5  -8    7.20    4.30
   1   5   8    9.40    4.80
   1   5   8    7.00    3.60
   2  -5   8    2.50    4.70
  -2  -5  -8   18.70    5.50
  -2   5  -8   10.90    3.70
   2   5   8   21.30    6.00
   2   5   8   16.20    4.50
  -3  -5  -8    9.70    8.50
  -3  -5  -8   11.50    6.30
   3   5   8    7.30    6.80
  -3   5  -8    7.00    4.60
   3   5   8   -0.10    7.00
   4  -5   8    1.80    6.00
   4  -5   8    6.20    5.50
  -4  -5  -8   -7.60   11.60
  -4  -5  -8    8.50    6.80
  -4   5  -8   11.20    5.90
   4   5   8    5.40    7.50
   4   5   8   12.40    8.70
   5  -6  -8   27.90    7.10
   5  -6  -8   34.10    7.20
  -5  -6   8   12.70    6.00
   5   6  -8   11.20    5.90
  -5   6   8   14.00    2.20
   5   6  -8    8.20   10.20
   4  -6  -8   24.30    5.60
   4  -6  -8   10.50    5.60
  -4  -6   8    4.80    4.90
   4  -6  -8    4.80    3.40
   4   6  -8   13.30    8.20
  -4   6   8   15.00    2.10
  -3  -6   8    2.80    3.70
   3  -6  -8    0.60    4.80
   3  -6  -8    6.60    3.40
   3   6  -8    3.40    3.90
  -3   6   8   -0.90    2.00
   3   6  -8    0.70    6.10
  -2  -6   8   27.60    4.10
   2  -6  -8   23.30    5.30
   2  -6  -8   20.20    3.60
   2   6  -8   35.50    5.10
  -2   6   8   28.00    3.60
   2   6  -8   21.70    4.90
  -1  -6   8   50.89    5.40
   1  -6  -8   47.30    6.10
   1   6  -8   44.60    5.40
  -1   6   8   47.10    4.60
   0  -6  -8   37.00    5.10
   0  -6   8   22.30    4.40
   0   6   8   26.30    4.20
   0   6  -8   26.60    4.00
  -1  -6  -8   11.00    5.80
   1  -6   8   11.40    3.60
   1   6   8   10.20    3.70
   1   6   8   17.30    5.10
  -2  -6  -8   65.89    8.60
   2  -6   8   44.00    5.90
  -2  -6  -8   61.19    7.00
   2   6   8   49.80    6.50
  -2   6  -8   49.10    6.20
   2   6   8   77.69    9.60
  -3  -6  -8   11.00    6.50
   3  -6   8    9.40    5.10
  -3  -6  -8    9.30    7.90
   3   6   8   11.40    6.60
   3   6   8    2.00    5.80
  -3   6  -8    9.70    4.50
   4  -6   8   10.00    6.60
  -4  -6  -8    6.30    9.00
  -4  -6  -8   21.40   12.40
   4   6   8   26.30   10.50
   4   6   8   21.70    8.40
  -4   6  -8   12.10    4.80
   5  -7  -8   -7.90    3.90
  -5  -7   8    2.20    5.40
   5  -7  -8    2.90    7.30
   5  -7  -8    2.00    7.00
   5   7  -8   -0.10   11.00
  -5   7   8   -2.10    2.10
   5   7  -8   -4.90    7.10
   5   7  -8    3.50    6.30
   4  -7  -8   22.00    5.80
  -4  -7   8   10.90    5.70
   4  -7  -8   21.00    5.90
   4  -7  -8   21.90    3.60
   4   7  -8    9.70    7.80
  -4   7   8   13.30    2.20
   3  -7  -8   -5.40    3.50
   3  -7  -8  -11.80    4.70
  -3  -7   8    0.80    3.70
   3   7  -8   -0.20    6.30
   3   7  -8    4.70    4.30
  -3   7   8    2.00    2.00
   2  -7  -8   50.19    5.80
   2  -7  -8   69.49    8.10
  -2  -7   8   65.29    6.30
  -2   7   8   58.39    4.80
   2   7  -8   71.69    7.20
   2   7  -8   58.79    6.30
   1  -7  -8   51.39    6.90
  -1  -7   8   50.69    5.40
   1   7  -8   40.30    5.50
  -1   7   8   42.60    4.40
   0  -7  -8    9.50    5.40
   0  -7  -8    7.00    5.20
   0  -7   8    6.50    3.40
   0   7  -8    4.30    4.20
   0   7   8   11.50    4.70
   0   7   8   12.60    3.10
   1  -7   8    0.50    4.20
  -1  -7  -8   -0.90    6.40
  -1  -7  -8    9.90    5.20
   1   7   8    8.00    4.70
  -1   7  -8    1.70    4.30
  -2  -7  -8   25.60    7.50
  -2  -7  -8   32.50    7.20
   2   7   8   21.20    5.90
  -2   7  -8   14.50    4.50
   2   7   8   20.80    5.60
  -3  -7  -8   -1.80    8.30
   3  -7   8    1.10    6.00
  -3  -7  -8    1.80    6.80
   3   7   8   11.10    7.20
   3   7   8   24.50    8.40
  -3   7  -8    2.40    4.20
  -4  -7  -8   20.60   11.50
   4  -7   8    9.40    8.10
   4   7   8   16.40   11.60
   4   7   8   24.40    9.90
  -5  -8   8    5.10    6.10
   5   8  -8   12.10   12.00
  -5   8   8    5.50    2.20
   5   8  -8   11.40    8.80
  -4  -8   8    2.00    5.50
   4  -8  -8    6.00    3.90
   4  -8  -8    2.70    6.10
  -4   8   8    3.40    1.80
   4   8  -8    0.60    5.20
   4   8  -8   -2.60    8.40
  -3  -8   8    8.80    4.40
   3  -8  -8    2.50    5.00
   3  -8  -8    6.00    3.70
  -3   8   8    6.40    2.30
   3   8  -8    3.40    4.50
   3   8  -8    4.10    7.30
   2  -8  -8    0.50    5.20
  -2  -8   8    0.50    4.40
   2  -8  -8   -5.90    3.60
   2   8  -8    2.50    5.00
   2   8  -8    6.70    5.10
  -2   8   8    9.10    2.50
   1  -8  -8   24.90    5.40
  -1  -8   8   17.10    3.90
   1  -8  -8   20.70    5.00
  -1   8   8   19.40    2.80
   1   8  -8   19.80    4.30
   0  -8  -8   10.10    5.40
   0  -8   8    6.20    3.50
   0   8   8    2.80    3.40
   0   8   8   -2.40    4.00
   0   8  -8    1.90    4.20
  -1  -8  -8    8.60    6.40
   1  -8   8   -1.70    4.30
  -1  -8  -8    5.30    6.70
   1   8   8    7.00    3.70
   1   8   8    1.10    5.20
  -1   8  -8   -1.90    4.00
  -2  -8  -8    9.20    7.00
   2  -8   8    3.10    4.30
  -2  -8  -8    0.00    6.10
   2   8   8    6.90    5.00
  -2   8  -8    3.50    4.90
   2   8   8   11.50    5.80
  -3  -8  -8   -8.70   10.10
   3  -8   8    2.10    6.50
  -3  -8  -8    1.00    7.30
  -3   8  -8   -2.40    4.10
   3   8   8   10.60    7.70
   3   8   8    7.50    6.50
   4  -9  -8    1.00    6.90
   4  -9  -8    7.70    4.00
  -4  -9   8   13.00    5.70
   4   9  -8    8.30    5.90
  -4   9   8    3.60    1.90
   4   9  -8    1.00    9.80
   3  -9  -8   -1.50    5.30
  -3  -9   8    5.50    4.60
   3  -9  -8    7.50    3.70
   3   9  -8    0.50    4.70
   3   9  -8    5.40    7.30
  -3   9   8    8.10    2.20
  -2  -9   8   39.30    5.30
   2  -9  -8   36.30    4.80
   2  -9  -8   43.70    6.20
   2   9  -8   34.40    5.30
  -2   9   8   43.00    3.90
   2   9  -8   39.20    5.70
  -1  -9   8    0.70    3.70
   1  -9  -8    2.00    4.90
   1  -9  -8   -3.20    5.30
   1   9  -8   -0.70    4.60
  -1   9   8   -4.10    2.50
   0  -9  -8    6.30    5.70
   0  -9   8    3.60    3.60
   0  -9  -8    9.50    4.80
   0   9   8    6.40    4.20
   0   9   8   -1.20    2.70
   1  -9   8    6.40    4.50
  -1  -9  -8   11.30    6.10
   1   9   8    8.90    4.80
   1   9   8    8.70    3.90
  -1   9  -8    9.20    4.40
  -2  -9  -8   -3.00    8.70
  -2  -9  -8    2.50    6.90
   2  -9   8    6.70    5.40
   2   9   8    2.60    5.00
   2   9   8   12.80    6.00
  -2   9  -8   10.10    4.90
  -3  -9  -8   -5.10    9.20
   3  -9   8    3.00    5.60
  -3  -9  -8   11.90    8.30
   3   9   8   15.10    9.60
  -3   9  -8    1.80    4.50
   3   9   8   -1.50    6.80
   4 -10  -8  -10.20    6.90
  -4 -10   8   -1.30    6.00
   4 -10  -8    8.20    4.20
   4  10  -8   -1.50    7.60
   4  10  -8   12.00   10.40
   4  10  -8    7.60    8.70
  -4  10   8   -2.90    2.00
   3 -10  -8   10.90    3.90
  -3 -10   8    6.60    5.30
   3 -10  -8   -3.30    6.20
  -3  10   8    1.10    2.10
   3  10  -8   -1.50    5.00
   3  10  -8    2.70    7.60
  -2 -10   8   40.80    6.40
   2 -10  -8   31.60    4.50
   2 -10  -8   45.30    6.40
   2  10  -8   37.90    5.80
   2  10  -8   39.30    5.90
  -2  10   8   38.80    3.80
   1 -10  -8   21.30    5.60
   1 -10  -8   26.30    5.90
  -1 -10   8   20.40    4.30
  -1  10   8   17.40    3.00
   1  10  -8   18.40    5.40
   0 -10  -8   19.80    5.50
   0 -10   8   13.40    3.90
   0  10  -8    7.10    3.60
   0  10   8    6.80    4.50
   0  10   8    7.00    2.90
  -1 -10  -8    1.90    6.20
   1 -10   8    5.20    3.90
  -1 -10  -8    7.70    7.60
  -1  10  -8   -0.60    4.40
   1  10   8    9.30    4.90
   1  10   8    0.40    4.90
   2 -10   8    7.90    4.70
  -2 -10  -8   16.10    9.20
  -2 -10  -8   22.50    7.50
  -2  10  -8   20.00    5.20
   2  10   8   20.70    6.30
   2  10   8   13.10    5.50
   3 -10   8    3.00    6.80
  -3 -10  -8    1.80   10.30
   3  10   8    6.50    9.00
   3  10   8    2.40    7.40
  -4 -11   8    8.00    7.00
   4  11  -8   18.00   11.80
   4  11  -8    9.90    9.00
   4  11  -8    8.50    7.40
  -3 -11   8    5.00    7.00
   3 -11  -8   19.90    4.50
   3 -11  -8   -0.20    7.00
   3  11  -8    3.30    6.00
  -3  11   8    8.40    1.90
   3  11  -8   17.90    6.00
   3  11  -8   18.80    8.30
   2 -11  -8   53.39    6.80
  -2 -11   8   71.69    8.10
   2 -11  -8   97.99    9.70
  -2  11   8   64.49    4.60
   2  11  -8   61.69    7.80
   2  11  -8   77.69    7.70
  -1 -11   8   39.30    6.40
   1 -11  -8   36.60    6.60
   1 -11  -8   46.50    6.80
   1  11  -8   36.00    5.40
  -1  11   8   39.40    4.00
   0 -11   8   -1.80    4.00
   0 -11  -8    1.70    6.70
   0 -11  -8    1.20    6.40
   0  11   8    4.60    3.40
   0  11  -8    9.20    4.60
   0  11   8    4.70    5.30
  -1 -11  -8   10.30    6.70
  -1 -11  -8   11.80    6.80
   1  11   8   11.80    5.20
  -1  11  -8    6.20    4.70
   1  11   8   15.80    5.50
  -2 -11  -8   29.20   10.20
   2 -11   8   15.30    6.30
  -2 -11  -8   37.20    8.80
   2  11   8   20.90    7.30
  -2  11  -8   23.80    5.30
   3 -12  -8    4.70    4.80
   3 -12  -8    1.40    6.90
  -3 -12   8    3.20    6.10
   3  12  -8    3.20    9.50
  -3  12   8    1.40    2.10
   3  12  -8    6.30    7.50
   3  12  -8    1.80    6.00
   2 -12  -8    8.40    6.60
  -2 -12   8    7.30    6.70
   2 -12  -8   11.20    5.10
   2  12  -8    9.90    5.20
   2  12  -8    0.30    5.00
   2  12  -8    1.80    4.60
  -2  12   8   10.90    2.70
   1 -12  -8   24.10    6.80
  -1 -12   8   27.40    5.70
   1 -12  -8   35.30    6.80
  -1  12   8   22.20    3.10
   1  12  -8   11.70    4.90
   0 -12   8   -4.30    4.30
   0 -12  -8   -1.20    6.40
   0 -12  -8   13.50    7.60
   0  12   8    2.10    3.50
   0  12   8    1.70    4.80
   0  12  -8    5.30    4.90
   1 -12   8    6.20    6.20
  -1 -12  -8    5.40    8.90
  -1 -12  -8    2.50    6.80
   1  12   8    5.40    5.30
  -1  12  -8    7.90    4.80
   1  12   8   14.40    5.60
  -2 -12  -8   14.70    9.00
  -2 -12  -8   28.00   11.00
   2 -12   8    5.60    6.60
   2  12   8    7.90    6.10
  -2  12  -8   13.20    2.80
   2  12   8   27.50    7.50
  -2  12  -8   20.10    5.20
   2 -13  -8   -5.00    6.90
  -2 -13   8    1.90    6.20
   2 -13  -8    4.30    4.80
   2  13  -8   -0.90    5.80
   2  13  -8   -3.30    5.60
  -2  13   8   -7.50    2.60
  -1 -13   8   82.09    9.40
   1 -13  -8   90.09    9.70
   1 -13  -8   90.29   11.10
  -1  13   8   85.49    5.80
   1  13  -8   73.19    7.50
   0 -13  -8    9.30    7.40
   0 -13  -8   12.00    6.80
   0 -13   8    0.30    5.20
   0  13   8    8.70    3.70
   0  13  -8    5.00    5.10
   0  13   8    5.00    5.60
  -1 -13  -8   14.20    7.50
   1 -13   8    1.40    6.70
  -1 -13  -8   -0.20    7.70
   1  13   8    5.30    6.00
  -1  13  -8    5.30    5.40
   1  13   8    7.40    5.70
  -1  13  -8    7.90    3.60
   1 -14  -8    5.60    7.90
  -1 -14   8   12.40    7.60
   1  14  -8    6.20    3.90
   0 -14   8   25.60    6.40
   0 -14  -8   34.50    7.90
   0  14   8   35.80    4.40
   5   0  -9    9.10    9.00
   5   0  -9    1.00    4.70
  -5   0   9   -1.20    3.40
   4   0  -9   12.80    6.80
  -4   0   9    4.50    2.70
   4   0  -9   17.10    7.60
   4   0  -9   -2.30    3.80
   3   0  -9   11.50    4.90
  -3   0   9   12.90    3.50
   2   0  -9    4.10    3.70
   2   0  -9   -0.70    4.90
  -2   0   9    1.20    3.00
   2   0  -9    0.60    4.90
   1   0  -9   13.30    5.00
   1   0  -9    9.90    3.90
  -1   0   9    7.10    3.30
   0   0  -9  251.77   15.00
   0   0   9  272.77   15.00
   0   0  -9  318.67   16.50
  -1   0  -9  182.28   11.80
   1   0   9  194.58   11.60
  -1   0  -9  215.48   12.60
  -2   0  -9    1.00    5.60
  -2   0  -9    6.70    5.20
   2   0   9   10.30    4.40
   2   0   9    4.20    4.70
   3   0   9    3.90    5.50
  -3   0  -9    1.40    5.80
   3   0   9    0.90    5.30
  -3   0  -9   14.70    7.70
   4   0   9   -3.00    8.40
   4   0   9   -4.80    8.10
   5  -1  -9    2.60    4.20
  -5  -1   9    4.20    4.00
   5   1  -9   -5.10    9.10
  -5   1   9    9.00    2.60
   5   1  -9   -1.90    5.60
   4  -1  -9    8.40    5.90
   4  -1  -9   -1.30    6.50
   4  -1  -9    5.30    3.80
  -4  -1   9    9.80    3.80
   4   1  -9    3.80    4.70
   4   1  -9   -5.20    7.50
  -4   1   9   -5.10    2.90
  -3  -1   9   10.20    3.70
   3  -1  -9   20.60    6.30
   3  -1  -9   13.70    5.90
   3  -1  -9   10.20    3.70
  -3   1   9    7.90    2.60
  -2  -1   9   28.10    3.80
   2  -1  -9   26.70    5.50
   2  -1  -9   20.80    4.80
   2   1  -9   31.50    5.50
   2   1  -9   25.90    5.00
   2   1  -9   21.50    4.10
   1  -1  -9   47.80    5.80
  -1  -1   9   58.69    6.20
   1  -1  -9   63.99    7.80
   1   1  -9   41.90    5.80
   1   1  -9   51.69    7.30
  -1   1   9   45.40    5.30
   0  -1  -9   54.89    8.10
   0  -1   9   55.59    5.70
   0  -1  -9   50.19    6.50
   0   1  -9   46.80    6.50
   0   1   9   49.20    5.70
   0   1  -9   52.09    6.50
  -1  -1  -9   90.49    8.50
   1  -1   9  115.69    8.10
  -1  -1  -9  120.69    9.70
  -1   1  -9  126.59    8.60
   1   1   9   97.99    7.90
   1   1   9  121.69    9.00
  -1   1  -9  101.99    8.40
   2  -1   9   -2.00    4.10
  -2  -1  -9    1.50    5.10
   2  -1   9    4.20    5.40
  -2  -1  -9   -1.00    6.50
  -2   1  -9   -4.90    5.30
   2   1   9    6.80    5.00
   2   1   9   -4.80    4.30
  -2   1  -9    6.30    4.90
   3  -1   9   12.30    5.90
  -3  -1  -9    8.00    7.60
   3  -1   9   13.50    5.40
  -3  -1  -9   12.90    7.60
   3   1   9    2.10    6.80
   3   1   9   -5.80    6.80
  -3   1  -9    4.20    7.30
  -4  -1  -9    9.40   10.70
   4  -1   9   11.20    8.50
   4  -1   9   16.10    8.50
  -4   1  -9    2.20    9.60
   4   1   9   17.00    9.00
   4   1   9   12.10    7.70
   5  -2  -9   -1.30    4.90
  -5  -2   9    6.20    3.40
   5  -2  -9    4.70    7.50
   5   2  -9    0.50    5.20
  -5   2   9    8.50    3.10
   5   2  -9    8.50   10.40
  -4  -2   9    3.80    3.30
   4  -2  -9    5.80    6.00
   4  -2  -9    3.60    6.80
   4  -2  -9   10.80    4.40
   4   2  -9   19.70    7.60
   4   2  -9    5.80    5.30
  -4   2   9    9.00    2.30
  -3  -2   9   27.80    4.40
   3  -2  -9   23.00    6.70
   3  -2  -9   25.30    4.70
   3  -2  -9   20.90    6.10
   3   2  -9   30.90    6.70
  -3   2   9   29.40    3.70
   3   2  -9   19.40    4.50
   3   2  -9   19.70    5.40
   2  -2  -9   25.30    4.30
   2  -2  -9   30.90    5.30
  -2  -2   9   26.10    3.80
   2   2  -9   40.20    5.50
   2   2  -9   35.90    5.70
   2   2  -9   23.60    4.30
  -2   2   9   27.70    3.70
  -1  -2   9    6.90    3.40
   1  -2  -9   11.70    5.10
   1  -2  -9    5.80    4.50
  -1   2   9    1.80    3.10
   1   2  -9    3.80    3.90
   1   2  -9    5.00    4.30
   1   2  -9    6.50    4.20
   0  -2  -9  292.97   17.30
   0  -2   9  342.27   17.30
   0  -2  -9  365.16   19.40
   0   2  -9  308.57   17.70
   0   2  -9  342.57   18.30
   0   2   9  342.07   17.20
  -1  -2  -9  102.99    9.50
   1  -2   9   95.59    7.80
  -1  -2  -9   95.59    9.30
  -1   2  -9  106.49    7.60
   1   2   9  109.49    8.50
  -1   2  -9   82.29    7.80
   1   2   9  104.79    7.90
   2  -2   9   12.00    4.60
  -2  -2  -9    9.20    5.60
  -2  -2  -9   12.80    6.40
   2  -2   9   11.50    3.90
   2   2   9   14.00    5.20
   2   2   9    9.30    4.70
  -2   2  -9   13.70    6.10
  -2   2  -9   12.70    4.80
   3  -2   9   27.40    5.60
   3  -2   9   14.70    6.90
  -3  -2  -9   21.20    6.80
   3   2   9   16.20    7.50
  -3   2  -9   23.30    6.70
  -3   2  -9   24.30    5.50
   4  -2   9   -5.60    7.00
  -4  -2  -9    8.60   11.50
   4  -2   9    7.20    8.10
   4   2   9   -0.30    9.40
   4   2   9   11.30    8.20
   5  -3  -9    2.10    4.90
  -5  -3   9    3.60    4.70
   5  -3  -9   23.20    7.80
   5   3  -9   21.80   11.10
  -5   3   9    9.20    3.00
   5   3  -9    4.90    5.70
   4  -3  -9    5.50    6.00
  -4  -3   9   10.20    3.80
   4  -3  -9    2.80    4.30
   4   3  -9   -5.20    5.30
  -4   3   9    5.70    2.50
   4   3  -9   -7.00    8.10
   3  -3  -9    5.50    3.60
  -3  -3   9    4.50    4.10
   3  -3  -9    3.10    5.40
   3  -3  -9   12.20    5.60
  -3   3   9    3.30    2.70
   3   3  -9   14.00    6.80
   3   3  -9    8.80    4.20
   3   3  -9    9.70    5.00
  -2  -3   9   28.60    4.30
   2   3  -9   37.90    6.00
  -2   3   9   29.70    3.80
   2   3  -9   18.50    4.30
   2   3  -9   29.40    5.20
   1  -3  -9   37.70    5.20
  -1  -3   9   43.00    5.40
   1  -3  -9   54.49    6.60
  -1   3   9   45.70    4.90
   1   3  -9   52.19    5.10
   1   3  -9   42.20    6.00
   1   3  -9   34.60    4.90
   0  -3  -9   59.39    6.90
   0  -3   9   47.20    5.90
   0  -3  -9   41.40    5.70
   0   3  -9   48.80    5.00
   0   3  -9   45.20    6.10
   0   3  -9   46.50    5.30
   0   3   9   48.60    5.50
  -1  -3  -9   27.20    5.60
  -1  -3  -9   28.10    6.50
   1  -3   9   28.40    5.40
  -1   3  -9    9.80    5.50
   1   3   9   37.50    5.40
   1   3   9   25.40    4.70
  -2  -3  -9   12.30    6.10
  -2  -3  -9   27.30    7.60
   2  -3   9   15.10    5.80
   2   3   9   12.40    4.90
   2   3   9   18.80    5.80
  -2   3  -9   11.80    6.00
   3  -3   9   21.90    5.80
   3  -3   9   32.70    4.90
  -3  -3  -9   33.10    9.40
  -3  -3  -9   40.30    7.50
   3   3   9   33.00    8.00
  -3   3  -9   26.50    6.40
   3   3   9   20.00    6.70
  -3   3  -9   23.60    5.70
  -5  -4   9   41.50    5.40
   5  -4  -9   22.80    8.10
   5  -4  -9   32.90    4.40
   5   4  -9   48.70   11.30
   5   4  -9   29.30    6.60
   4  -4  -9   10.60    3.60
  -4  -4   9   12.20    4.80
   4  -4  -9   13.90    6.20
  -4   4   9   14.20    2.60
   4   4  -9   19.20    9.00
   4   4  -9   17.70    5.20
  -3  -4   9   23.50    4.80
   3  -4  -9   16.90    3.90
   3  -4  -9   17.70    5.80
   3   4  -9    9.10    4.50
   3   4  -9   19.80    7.00
  -3   4   9   24.80    3.10
   2  -4  -9   27.40    5.70
  -2  -4   9   22.20    4.70
  -2   4   9   31.60    3.70
   2   4  -9   26.00    4.80
   2   4  -9   37.00    6.10
   2   4  -9   25.40    4.70
   1  -4  -9   47.40    6.70
  -1  -4   9   36.00    4.60
   1  -4  -9   41.20    6.00
   1   4  -9   53.09    5.90
  -1   4   9   47.40    4.80
   1   4  -9   30.90    4.80
   1   4  -9   47.40    5.70
   0  -4  -9   70.79    7.50
   0  -4  -9   52.99    6.50
   0  -4   9   57.49    6.00
   0   4  -9   39.40    6.10
   0   4   9   50.59    5.50
  -1  -4  -9   16.50    5.90
  -1  -4  -9    9.60    5.30
   1  -4   9   13.60    4.30
  -1   4  -9   21.20    5.60
   1   4   9   11.90    4.40
   2  -4   9   21.20    5.00
  -2  -4  -9   36.70    8.30
  -2  -4  -9   21.00    6.60
   2   4   9   18.80    5.40
   2   4   9   21.00    6.30
  -3  -4  -9    4.90    7.30
  -3  -4  -9    8.30    9.40
   3  -4   9   10.30    7.00
  -3   4  -9    5.40    6.00
   3   4   9   22.20    8.10
   3   4   9    1.30    6.30
   5  -5  -9   24.00    4.60
   5  -5  -9    9.60    8.00
  -5  -5   9   -2.30    5.90
   5   5  -9   12.90    8.30
   5   5  -9   18.30   11.80
  -4  -5   9   10.30    5.30
   4  -5  -9    2.80    3.50
   4  -5  -9   12.30    6.30
   4   5  -9   12.30    9.40
   4   5  -9    5.20    5.40
  -3  -5   9   14.80    5.00
   3  -5  -9   31.20    6.00
   3  -5  -9   15.60    3.90
   3   5  -9   12.00    5.60
   3   5  -9   15.30    7.40
  -3   5   9   14.60    2.70
  -2  -5   9   -1.50    3.20
   2  -5  -9    4.90    4.00
   2  -5  -9   -2.00    5.20
   2   5  -9    6.60    4.40
  -2   5   9    3.20    2.80
   2   5  -9    3.00    5.30
   2   5  -9    6.70    4.30
  -1  -5   9    9.40    3.90
   1  -5  -9    2.80    5.90
   1  -5  -9    3.30    4.40
  -1   5   9    3.10    3.60
   1   5  -9    8.30    3.40
   1   5  -9    1.50    3.60
   1   5  -9    4.70    4.80
   0  -5   9   10.00    3.70
   0  -5  -9    0.80    5.70
   0   5  -9    7.80    5.10
  -1  -5  -9   -6.80    6.80
   1  -5   9    3.60    4.10
  -1  -5  -9    0.90    5.30
   1   5   9   -2.50    4.00
   1   5   9    0.90    4.60
  -1   5  -9   -0.40    4.20
  -2  -5  -9   15.30    6.60
   2  -5   9    9.40    4.90
  -2  -5  -9   12.60    8.30
  -2   5  -9    9.40    5.30
   2   5   9   12.30    5.30
   2   5   9    9.40    6.40
  -3  -5  -9    0.50    8.90
   3  -5   9   -1.90    7.00
  -3  -5  -9   -1.90    9.30
   3   5   9   -1.40    8.50
  -3   5  -9    5.70    6.00
   3   5   9   16.30    6.80
   4  -6  -9   10.70    3.60
   4  -6  -9   19.80    7.00
  -4  -6   9   20.40    6.20
   4   6  -9   21.40    9.00
   4   6  -9   10.00    6.90
   3  -6  -9    3.00    5.40
  -3  -6   9   -2.30    4.40
   3  -6  -9   -0.50    4.20
   3   6  -9   -4.10    7.60
   3   6  -9    4.90    4.70
  -3   6   9    4.80    2.10
   2  -6  -9   -2.40    3.70
   2  -6  -9   -2.60    5.30
  -2  -6   9    1.00    3.70
   2   6  -9    4.50    4.50
   2   6  -9   -1.10    5.30
   2   6  -9    0.30    4.00
  -2   6   9    4.80    2.70
   1  -6  -9   10.00    6.40
   1  -6  -9   23.60    5.00
  -1  -6   9    7.30    3.60
   1   6  -9    6.60    5.10
  -1   6   9   19.80    3.80
   0  -6  -9    1.70    5.60
   0  -6  -9    5.60    4.90
   0  -6   9    8.60    4.60
   0   6  -9    0.00    3.90
   0   6   9    6.60    4.10
   0   6   9    8.40    4.50
   1  -6   9    0.50    4.20
  -1  -6  -9   -0.70    7.30
  -1  -6  -9    6.50    6.60
   1   6   9    5.10    5.00
   2  -6   9    7.60    5.90
  -2  -6  -9  -13.80    7.30
  -2  -6  -9   -3.20    6.50
  -2   6  -9    9.00    5.30
   2   6   9    2.40    6.90
  -3  -6  -9   -3.80   10.00
  -3  -6  -9    5.40   11.10
   3   6   9   -0.30    8.90
   3   6   9    8.70    8.00
  -3   6  -9    0.50    5.80
   4  -7  -9    2.90    4.20
  -4  -7   9    9.60    5.70
   4  -7  -9    7.40    6.90
   4  -7  -9  -13.90    6.60
   4   7  -9   -4.20    8.90
  -4   7   9    0.10    2.10
   4   7  -9   -3.70    6.00
   3  -7  -9    3.20    5.80
   3  -7  -9    1.20    3.50
   3   7  -9    7.50    7.00
   3   7  -9    6.10    6.20
  -3   7   9    1.90    2.60
  -2  -7   9   -1.60    5.20
   2  -7  -9    9.60    5.60
   2  -7  -9    5.40    4.00
  -2   7   9    7.40    3.00
   2   7  -9    7.40    4.20
   2   7  -9    5.20    5.00
   2   7  -9    2.00    4.70
   1  -7  -9    0.70    4.50
  -1  -7   9   -1.90    3.70
   1  -7  -9    1.50    5.50
  -1   7   9    4.60    2.60
   1   7  -9    0.70    4.20
   0  -7  -9   10.70    6.20
   0  -7   9    7.10    3.90
   0   7   9    5.40    3.60
   0   7   9   11.30    5.50
   0   7  -9    0.80    5.00
   1  -7   9    1.50    5.20
  -1  -7  -9    9.90    8.00
  -1  -7  -9    3.10    6.10
   1   7   9   10.40    6.00
   1   7   9   -1.90    4.10
  -2  -7  -9    7.30    7.20
   2  -7   9   14.40    6.20
  -2  -7  -9    1.30    9.60
  -2   7  -9    2.90    5.40
   2   7   9   -1.80    5.70
   2   7   9   11.00    7.40
  -3  -7  -9    9.30   10.70
   3  -7   9   11.50    7.90
  -3  -7  -9    4.90   11.80
  -3   7  -9   -1.00    6.50
   3   7   9   12.30    8.60
   3   7   9   -2.30    7.50
  -4  -8   9   24.20    6.50
   4  -8  -9   24.20    4.90
   4  -8  -9   14.00    6.90
   4   8  -9   21.50    6.90
   4   8  -9   31.30    9.90
   3  -8  -9    3.30    3.80
   3  -8  -9    1.10    6.00
   3   8  -9    1.70    5.50
   3   8  -9   11.00    7.80
   2  -8  -9    7.10    4.30
   2  -8  -9   -0.90    5.70
  -2  -8   9   -2.00    4.30
  -2   8   9    2.60    2.10
   2   8  -9   10.80    5.00
   2   8  -9   -1.80    5.90
   2   8  -9   -1.20    4.10
   1  -8  -9   21.10    6.10
   1  -8  -9   21.60    6.20
  -1  -8   9   13.30    4.30
  -1   8   9   11.90    3.40
   1   8  -9    7.70    5.50
   0  -8  -9   11.50    5.60
   0  -8   9    6.00    4.10
   0  -8  -9   11.30    7.50
   0   8   9    8.80    4.30
   0   8  -9    7.40    4.40
   0   8   9    6.00    4.90
  -1  -8  -9    3.70    7.20
   1  -8   9   -1.60    5.20
  -1   8  -9    3.80    5.20
   1   8   9    3.60    5.20
   1   8   9   -0.90    6.30
  -2  -8  -9   -7.90    7.30
  -2  -8  -9   15.40    9.00
   2  -8   9    0.10    6.00
   2   8   9    0.40    5.90
  -2   8  -9    0.90    5.30
   2   8   9   20.60    8.20
  -3  -8  -9   14.00    9.60
   3  -8   9    6.30    8.60
  -3  -8  -9   10.70   11.30
   3   8   9   -2.40   10.40
   3   8   9    5.00    8.20
  -3   8  -9   -9.80    5.30
   4  -9  -9    4.20    4.80
  -4  -9   9    3.00    6.40
   4   9  -9    1.90    9.50
  -4   9   9   -3.50    2.40
   4   9  -9   12.80   10.50
   3  -9  -9   12.20    4.70
   3  -9  -9    3.30    6.30
  -3   9   9    7.90    2.50
   3   9  -9    0.40    7.70
   3   9  -9    6.40    6.10
   2  -9  -9    2.10    5.80
  -2  -9   9   -5.70    4.70
   2  -9  -9   10.50    4.40
   2   9  -9    2.90    5.20
   2   9  -9    2.50    5.00
  -2   9   9    7.80    2.70
   2   9  -9    9.50    4.10
  -1  -9   9    5.70    5.50
   1  -9  -9   -0.20    5.90
   1  -9  -9   10.80    6.40
  -1   9   9    4.30    3.20
   1   9  -9    7.00    4.90
   0  -9  -9   12.40    7.10
   0  -9  -9   15.80    5.90
   0  -9   9   10.90    4.50
   0   9   9    5.10    3.60
   0   9   9    1.30    5.00
  -1  -9  -9    3.70    8.50
  -1  -9  -9   10.40    8.60
   1  -9   9   -4.90    5.50
   1   9   9    2.40    6.20
   1   9   9    0.70    4.40
  -1   9  -9    8.10    4.70
  -2  -9  -9    4.50   10.20
  -2  -9  -9    0.70    9.60
  -2   9  -9    2.70    5.60
   2   9   9   -2.50    7.10
   2   9   9    1.60    7.50
   3 -10  -9    0.80    5.00
   3 -10  -9   18.30    7.20
   3  10  -9   15.60    8.20
   3  10  -9    2.30    8.00
  -3  10   9    2.50    2.40
   2 -10  -9    3.60    6.20
  -2 -10   9   -2.90    6.50
   2 -10  -9    7.40    5.90
   2  10  -9   -1.20    5.50
  -2  10   9   -0.80    2.80
  -1 -10   9   19.00    5.40
   1 -10  -9   22.70    6.60
   1 -10  -9   13.40    5.70
  -1  10   9   19.00    2.90
   1  10  -9   11.60    5.40
   0 -10  -9   16.90    7.50
   0 -10   9    4.20    5.60
   0 -10  -9    2.10    7.80
   0  10   9   11.10    3.90
   0  10   9   17.10    5.60
  -1 -10  -9   11.70    8.10
   1 -10   9    8.70    6.10
  -1 -10  -9    2.40    7.40
  -1  10  -9    4.40    6.10
   1  10   9   25.60    6.80
   1  10   9    9.60    4.70
   2 -10   9   -5.20    5.70
  -2 -10  -9   -3.20   10.20
  -2 -10  -9   -6.80   10.80
  -2  10  -9    2.20    5.60
   2  10   9    3.50    6.50
   2  10   9    3.40    8.00
   3 -11  -9   23.50    5.80
   3  11  -9    5.80    8.20
   3  11  -9   -2.20    8.60
  -2 -11   9   10.80    6.10
   2 -11  -9   17.10    6.80
   2 -11  -9   14.80    6.30
  -2  11   9    6.40    2.90
   2  11  -9    3.20    6.90
   1 -11  -9    9.40    6.60
  -1 -11   9    1.50    6.40
   1 -11  -9    8.30    6.10
  -1  11   9    8.70    3.30
   1  11  -9    0.70    5.00
   0 -11  -9   13.60    7.20
   0 -11  -9    6.30    7.70
   0 -11   9   -1.30    5.80
   0  11  -9    6.20    4.40
   0  11   9   -5.60    4.40
   0  11   9   -3.00    5.60
   1 -11   9    8.80    6.40
  -1 -11  -9   -8.60   10.10
  -1 -11  -9   -6.80    8.50
  -1  11  -9    1.20    5.90
   1  11   9    9.20    5.10
   1  11   9    7.50    6.80
   2 -12  -9    4.40    7.90
   2 -12  -9   -2.20    6.60
  -2 -12   9   -4.90    7.70
   1 -12  -9   17.90    7.30
   1 -12  -9    5.90    6.70
  -1 -12   9    3.60    6.10
  -1  12   9   -0.20    3.60
   1  12  -9    4.90    6.80
   0 -12  -9    3.20    7.90
   0 -12  -9   -1.90    7.50
   0 -12   9    2.90    7.00
   0  12   9   14.70    6.20
   0  12   9   -7.90    4.70
  -1 -12  -9    5.80    9.50
   1  12   9    4.70    5.30
   4   0 -10    3.70    7.60
   4   0 -10    3.50    8.00
   4   0 -10    3.40    6.00
  -4   0  10    1.40    3.30
   3   0 -10    9.80    7.20
   3   0 -10    7.70    6.80
   3   0 -10    4.80    4.40
  -3   0  10   12.00    4.00
   2   0 -10   23.10    6.40
   2   0 -10   17.80    4.90
  -2   0  10   12.70    3.70
   2   0 -10   17.20    6.00
  -1   0  10    3.90    3.80
   1   0 -10   -6.30    4.60
   1   0 -10   -0.90    5.90
   0   0  10  129.89   10.20
   0   0 -10  124.09    9.90
   0   0 -10  155.38   10.90
  -1   0 -10  160.08   11.30
  -1   0 -10  122.89   10.40
   1   0  10  130.59    9.80
   2   0  10   16.80    5.70
  -2   0 -10   13.70    6.90
  -2   0 -10   24.80    7.90
   2   0  10   16.10    5.40
  -3   0 -10   23.40    9.50
   3   0  10    6.60    7.10
  -3   0 -10    4.10    7.10
   3   0  10   11.40    6.90
   4  -1 -10   -7.00    8.00
   4  -1 -10    4.10    5.80
  -4  -1  10  -11.20    4.30
   4  -1 -10   10.90    8.00
   4   1 -10   -4.20    8.10
   4   1 -10    0.50    5.30
  -4   1  10    6.60    3.60
   4   1 -10    5.70    8.00
   3  -1 -10    0.10    4.20
   3  -1 -10    3.30    6.30
   3  -1 -10    2.90    6.70
  -3  -1  10    4.90    3.50
   3   1 -10   10.00    7.30
   3   1 -10    1.60    6.40
   3   1 -10   -1.60    4.50
  -3   1  10    6.60    3.90
  -2  -1  10   21.50    4.10
   2   1 -10   15.90    4.90
   2   1 -10   27.30    5.80
   2   1 -10   24.20    6.20
  -2   1  10   15.40    3.80
  -1  -1  10    6.10    3.80
   1  -1 -10    2.40    5.60
   1  -1 -10    8.10    6.00
   1   1 -10    4.10    5.50
   1   1 -10    2.40    4.70
   1   1 -10    8.00    4.80
   0  -1 -10    9.70    7.20
   0  -1 -10    5.30    5.30
   0  -1  10    9.70    4.40
   0   1 -10    4.20    5.10
   0   1 -10   18.60    5.60
   0   1  10    6.50    5.20
  -1  -1 -10   41.80    6.70
   1  -1  10   23.80    5.60
  -1  -1 -10   32.30    6.50
  -1   1 -10   36.20    6.00
   1   1  10   34.30    5.70
  -1   1 -10   36.10    6.30
  -2  -1 -10   -2.60    6.20
   2  -1  10    7.50    6.90
  -2  -1 -10   -8.40    7.60
   2   1  10    3.70    6.00
   2   1  10   -3.50    5.60
  -2   1 -10    6.30    7.30
  -2   1 -10   -5.20    6.10
   3  -1  10    7.40    6.60
   3  -1  10    1.00    7.10
  -3  -1 -10   -2.10    9.50
   3   1  10    4.70    7.30
  -3   1 -10    5.00    8.30
   4  -2 -10   -5.80    6.90
   4  -2 -10    3.00    4.50
  -4  -2  10   -3.70    4.90
   4   2 -10  -13.30    7.70
  -4   2  10   -3.30    2.60
   4   2 -10    1.40    5.50
   4   2 -10   -6.80    9.10
  -3  -2  10   18.90    4.20
   3  -2 -10   17.90    5.80
   3  -2 -10   16.50    7.20
   3   2 -10    7.10    4.90
  -3   2  10    5.90    3.10
   2  -2 -10    3.00    4.40
   2  -2 -10   -4.30    6.20
  -2  -2  10   -2.00    3.80
   2   2 -10   -0.60    6.50
   2   2 -10   -3.90    4.40
  -2   2  10   -5.30    3.00
   1  -2 -10   11.10    4.80
  -1  -2  10    9.60    3.90
   1  -2 -10    6.20    6.30
   1   2 -10    5.50    4.70
   1   2 -10    4.60    4.80
   1   2 -10    4.10    5.50
  -1   2  10    7.60    3.70
   0  -2 -10   38.10    6.00
   0  -2  10   31.70    5.00
   0  -2 -10   43.20    7.00
   0   2 -10   30.80    5.50
   0   2 -10   19.80    5.50
   0   2  10   29.50    5.70
  -1  -2 -10  166.98   11.80
   1  -2  10  152.78   11.90
  -1  -2 -10  194.08   13.60
   1   2  10  166.28   10.90
  -1   2 -10  145.39   11.20
   2  -2  10    4.00    7.00
  -2  -2 -10   -2.90    7.60
  -2  -2 -10    4.70    6.80
   2   2  10    2.20    6.00
  -2   2 -10    0.30    5.90
   2   2  10   10.80    6.70
  -2   2 -10   -1.50    5.30
   3  -2  10   -6.50    8.40
  -3  -2 -10   -0.80    7.70
   3  -2  10    6.20    5.90
  -3  -2 -10    0.30    9.90
   3   2  10    5.80    7.20
   3   2  10    3.70    7.80
  -4  -3  10   -1.40    4.40
   4  -3 -10   -0.50    7.20
   4  -3 -10   -7.80    5.70
   4   3 -10    6.90    5.80
  -4   3  10   -4.00    3.10
   4   3 -10    1.60   10.10
   3  -3 -10   11.50    7.30
  -3  -3  10    9.60    4.30
   3  -3 -10   -2.90    4.40
  -3   3  10   -3.70    2.70
   3   3 -10   -4.90    5.10
   2  -3 -10   25.00    7.20
   2  -3 -10   21.40    6.00
  -2   3  10   24.50    4.30
   2   3 -10   25.10    5.20
   2   3 -10   31.50    6.60
   2   3 -10   12.10    5.10
   1  -3 -10    7.00    4.90
  -1  -3  10    2.70    4.90
   1   3 -10    3.40    4.80
  -1   3  10    8.50    3.60
   1   3 -10    5.10    4.70
   1   3 -10    8.30    4.90
   0  -3 -10   28.70    7.30
   0  -3 -10   15.70    7.30
   0  -3  10   23.60    6.00
   0   3 -10   22.30    5.60
   0   3 -10   18.20    4.50
   0   3 -10   22.20    4.40
  -1  -3 -10   36.40    6.80
  -1  -3 -10   43.20    8.00
   1  -3  10   29.00    5.60
   1   3  10   25.70    5.30
  -1   3 -10   27.10    7.10
  -2  -3 -10   17.50    7.40
   2  -3  10   20.60    6.10
  -2  -3 -10   18.60    8.60
   2   3  10   -2.40    5.90
   2   3  10    7.20    6.30
  -2   3 -10    7.60    7.00
   3  -3  10    6.60    7.10
  -3  -3 -10   -7.60   10.90
  -3  -3 -10   -2.10    8.80
   3   3  10   -7.10    7.10
   3   3  10    3.40    9.40
  -4  -4  10    2.10    4.80
   4  -4 -10    6.80    7.80
   4  -4 -10    1.10    4.70
   4   4 -10   -5.30    7.30
  -4   4  10    7.10    3.00
   4   4 -10   13.00   10.20
   3  -4 -10   21.90    7.60
   3  -4 -10   14.90    5.80
  -3  -4  10    9.70    4.80
   3   4 -10   11.40    8.00
  -3   4  10   13.20    3.40
   3   4 -10    6.00    6.10
   2  -4 -10    0.50    6.10
   2  -4 -10    4.30    4.60
  -2  -4  10   -3.20    3.90
   2   4 -10    2.50    5.00
   2   4 -10    2.90    4.60
  -2   4  10    1.30    3.70
   2   4 -10    8.90    6.30
   1  -4 -10   27.10    6.40
  -1  -4  10   15.30    4.80
   1   4 -10   16.10    5.20
   1   4 -10   17.40    4.50
  -1   4  10   21.90    4.10
   1   4 -10   22.10    5.10
   0  -4  10    6.30    4.50
   0  -4 -10   11.60    5.70
   0  -4 -10   15.70    6.50
   0   4  10   13.00    4.30
   0   4 -10    7.30    5.10
  -1  -4 -10    8.10    6.50
  -1  -4 -10   34.30    8.30
   1  -4  10   31.50    6.70
  -1   4 -10   32.10    7.10
   1   4  10   24.40    6.40
  -2  -4 -10   84.99   11.10
   2  -4  10   77.19    9.40
  -2  -4 -10   94.29   11.10
   2   4  10   81.09    9.20
   2   4  10  100.89   11.90
   3  -4  10   12.30    8.90
  -3  -4 -10   -0.40   11.60
   3   4  10   -1.90    8.00
   3   4  10    7.00    9.10
   4  -5 -10    5.50    8.20
  -4  -5  10   -2.30    6.60
   4  -5 -10    8.50    4.90
   4   5 -10   10.70   11.10
   4   5 -10    2.00    6.50
  -4   5  10    6.70    3.00
  -3  -5  10   -0.50    4.50
   3  -5 -10   11.40    6.00
   3  -5 -10   12.70    8.10
  -3   5  10    3.60    3.10
   3   5 -10    5.30    5.60
   3   5 -10    0.10    6.60
   3   5 -10   -3.30    8.10
   2  -5 -10    0.30    5.90
   2  -5 -10    4.50    6.50
  -2  -5  10   -4.40    4.90
   2   5 -10    3.80    6.10
   2   5 -10    6.50    6.50
  -2   5  10    5.20    2.90
   2   5 -10    5.70    5.20
  -1  -5  10    3.00    4.40
   1  -5 -10   11.80    5.20
   1  -5 -10   22.80    7.30
   1   5 -10    7.40    6.00
  -1   5  10    9.80    4.40
   0  -5 -10    1.80    6.80
   0  -5  10    4.60    5.50
   0  -5 -10    9.10    6.10
   0   5  10   16.20    4.30
   0   5 -10    6.50    6.20
   1  -5  10   32.50    5.90
  -1  -5 -10   37.70    8.10
  -1  -5 -10   24.80    8.30
   1   5  10   29.50    6.70
   1   5  10   29.20    7.10
  -1   5 -10   20.70    5.80
  -2  -5 -10   29.60   10.50
   2  -5  10   20.10    6.30
  -2  -5 -10   41.40    8.70
   2   5  10   20.80    7.90
   4  -6 -10   16.60    6.00
   4  -6 -10   13.80    8.70
  -4  -6  10   11.50    7.40
   4   6 -10   10.60    7.00
  -4   6  10    2.40    3.10
   4   6 -10    8.60   11.40
  -3  -6  10    9.10    5.40
   3  -6 -10   -0.30    4.80
   3  -6 -10   -2.60    7.90
   3   6 -10   11.00    8.50
   3   6 -10    7.80    5.80
  -3   6  10    2.50    3.00
   3   6 -10   12.60    6.60
   2  -6 -10   30.00    5.80
  -2  -6  10   32.10    5.60
   2  -6 -10   39.30    7.50
   2   6 -10   33.30    6.30
  -2   6  10   26.30    4.10
   2   6 -10   37.90    5.70
   2   6 -10   22.50    6.00
   1  -6 -10   42.80    7.50
   1  -6 -10   26.80    6.10
  -1  -6  10   26.90    6.20
  -1   6  10   39.70    5.10
   1   6 -10   30.60    5.90
   0  -6  10    5.40    4.70
   0  -6 -10    2.10    7.70
   0  -6 -10   -1.30    7.10
   0   6  10   14.70    5.10
   0   6 -10    5.70    5.20
   1  -6  10   22.50    6.80
  -1  -6 -10   17.40    8.60
  -1  -6 -10   20.50    9.40
   1   6  10   25.70    6.30
   1   6  10   17.00    5.40
  -1   6 -10   16.40    6.70
  -2  -6 -10    8.90    9.60
  -2  -6 -10   11.70    8.80
   2  -6  10   -1.80    6.30
   2   6  10    8.20    6.40
   2   6  10   12.70    7.30
  -2   6 -10   -3.30    5.00
   3  -7 -10   -2.30    8.30
  -3  -7  10    7.00    5.70
   3  -7 -10   -1.60    4.60
  -3   7  10    4.30    3.20
   3   7 -10   -4.80    6.20
   3   7 -10    7.20    8.60
   3   7 -10    4.60    6.30
   2  -7 -10    6.60    7.00
  -2  -7  10    3.60    5.40
   2  -7 -10    4.20    5.10
   2   7 -10    8.20    6.90
   2   7 -10    4.00    4.80
  -2   7  10    5.70    2.90
   2   7 -10   11.20    5.60
   1  -7 -10    9.40    6.80
  -1  -7  10   13.80    5.00
   1  -7 -10   18.90    7.00
   1   7 -10   13.50    6.80
  -1   7  10    7.20    4.40
   0  -7 -10    5.00    8.80
   0  -7  10   14.30    6.20
   0  -7 -10   21.90    6.90
   0   7  10    7.30    4.20
   0   7 -10   14.40    6.80
  -1  -7 -10   -7.10    9.70
   1  -7  10    2.30    6.30
  -1  -7 -10    7.80    7.90
   1   7  10    5.50    5.10
   1   7  10    8.90    6.40
  -2  -7 -10    0.00    8.90
   2  -7  10   11.40    8.10
  -2  -7 -10    8.10   11.80
  -2   7 -10   -6.10    6.20
   2   7  10    4.10    8.30
   2   7  10    2.00    7.60
   3  -8 -10   10.60    5.00
   3  -8 -10   -4.40    7.80
  -3  -8  10    1.50    6.30
   3   8 -10    9.70    8.60
  -3   8  10    6.60    3.10
   3   8 -10   13.20    7.00
  -2  -8  10   -0.90    5.50
   2  -8 -10   -5.70    7.90
   2  -8 -10    4.00    5.60
   2   8 -10   -3.70    6.00
  -2   8  10    3.20    3.20
  -1  -8  10   -4.80    6.00
   1  -8 -10    9.20    6.50
   1  -8 -10    2.40    7.10
   1   8 -10    2.80    5.50
  -1   8  10    6.90    3.70
   0  -8  10    6.30    5.30
   0  -8 -10   18.30    8.50
   0  -8 -10   21.00    8.60
   0   8 -10    4.80    5.00
   0   8  10   12.40    5.40
   1  -8  10    0.10    5.20
  -1  -8 -10    4.10   10.40
  -1  -8 -10    7.00    8.30
  -1   8 -10    2.00    5.90
   1   8  10    0.30    5.50
   1   8  10   11.30    6.90
  -2  -8 -10    5.70   11.40
  -2  -8 -10   -1.90    9.70
   2  -8  10    2.10    8.00
   2   8  10   -2.80    8.20
   2   8  10   -6.00    6.90
   3  -9 -10  -14.20    7.70
  -3  -9  10   -2.20    6.60
   3  -9 -10    6.30    5.40
   3   9 -10   -4.80    9.30
   3   9 -10   19.00    9.00
   2  -9 -10    5.70    7.80
   2  -9 -10   -1.50    6.90
  -2  -9  10   -1.30    6.90
  -2   9  10   13.20    3.40
   2   9 -10    5.00    7.70
   1  -9 -10   -8.00    8.10
  -1  -9  10    5.10    5.30
   1  -9 -10    1.80    7.30
  -1   9  10   11.80    4.30
   1   9 -10    2.30    6.60
   0  -9 -10    0.70    8.90
   0  -9  10    0.30    5.40
   0  -9 -10    4.80    7.50
   0   9  10    4.70    4.20
   0   9 -10    6.40    6.50
   0   9  10   -1.20    6.40
  -1  -9 -10  -13.50   11.30
   1  -9  10   -7.10    5.80
  -1  -9 -10  -11.00   10.70
   1   9  10    6.30    7.40
   1   9  10    7.20    7.00
  -1   9 -10    5.70    6.60
   2 -10 -10   19.00    8.10
   2 -10 -10   11.00    8.00
  -2 -10  10    9.80    7.10
   2  10 -10    0.70    8.50
  -2  10  10    8.10    3.50
   1 -10 -10   -1.90    8.20
  -1 -10  10   -0.10    7.40
   1 -10 -10   11.30    8.70
   1  10 -10    0.80    7.30
  -1  10  10    3.70    4.30
   0 -10 -10    0.00   10.10
   0 -10  10   -6.20    6.70
   0 -10 -10    5.80   11.10
   0  10  10    3.60    4.50
   0  10  10    1.90    6.90
   1 -11 -10   22.00    8.20
  -1 -11  10    5.90    6.40
  -4   0  11    9.40    5.40
   4   0 -11  -15.20   10.70
   4   0 -11   10.40   10.40
   4   0 -11    3.20    7.90
  -3   0  11    3.40    4.30
   3   0 -11   -7.40    8.00
   3   0 -11   11.40    8.20
   3   0 -11    5.30    6.10
  -2   0  11    1.80    4.30
   2   0 -11    0.50    6.10
   1   0 -11    2.00    7.20
   1   0 -11   -0.70    6.20
  -1   0  11    0.40    4.40
   0   0 -11   28.30    7.90
   0   0  11    7.20    5.80
   0   0 -11   16.50    6.70
  -1   0 -11   30.90    7.90
   1   0  11   32.80    8.10
  -1   0 -11   47.80    8.30
   2   0  11    4.60    7.40
  -2   0 -11    0.20    7.70
  -2   0 -11    2.00    8.70
   4  -1 -11   22.50    7.00
   4  -1 -11   30.30   11.80
  -4  -1  11   21.40    5.20
  -4   1  11   20.20    4.40
   4   1 -11   17.10    8.60
   4   1 -11   21.20   12.00
   3  -1 -11   -1.90    8.40
   3  -1 -11   -0.90    6.00
   3  -1 -11   -3.20    8.00
  -3  -1  11    7.90    4.50
   3   1 -11    3.30    8.70
   3   1 -11    4.40    8.20
  -3   1  11   -4.00    4.70
   3   1 -11    5.40    6.00
   2  -1 -11    4.30    7.20
  -2  -1  11    2.50    4.40
   2  -1 -11    2.40    7.50
   2  -1 -11   -3.30    7.90
   2   1 -11    1.20    7.80
  -2   1  11   -6.20    4.90
   2   1 -11   -1.60    8.20
  -1  -1  11    9.30    4.90
   1  -1 -11    9.90    7.90
   1  -1 -11    9.00    6.20
  -1   1  11    5.50    4.80
   1   1 -11   22.40    6.70
   1   1 -11   -1.50    6.10
   1   1 -11   13.30    6.60
   0  -1 -11   -0.10    6.40
   0  -1 -11    2.70    6.90
   0  -1  11    7.00    5.20
   0   1  11    6.60    5.50
   0   1 -11    4.20    6.60
   0   1 -11    8.70    6.70
   1  -1  11  -10.00    7.30
  -1  -1 -11   12.80    8.30
  -1  -1 -11    4.30    7.50
  -1   1 -11   -8.40    7.00
   1   1  11    2.50    7.10
  -1   1 -11    4.80    6.50
   2  -1  11   -1.20    7.10
  -2  -1 -11   -2.40    9.50
  -2  -1 -11   -5.70    9.40
  -2   1 -11    6.50    7.80
   2   1  11   10.60    7.40
   3  -2 -11   11.70    7.40
   3  -2 -11    0.00    8.20
   3  -2 -11   12.20    7.90
  -3  -2  11   -4.30    4.60
   3   2 -11   11.90    9.20
   3   2 -11   10.80    8.00
  -3   2  11    5.90    4.00
   3   2 -11    9.50    6.10
  -2  -2  11    8.90    4.80
   2  -2 -11   10.70    8.30
   2  -2 -11    7.00    7.50
   2   2 -11    5.60    6.00
   2   2 -11   20.70    7.70
   2   2 -11   12.90    7.50
  -2   2  11    6.60    4.80
   1  -2 -11    2.40    7.60
  -1   2  11    8.70    4.80
   1   2 -11   -4.30    5.90
   1   2 -11    0.10    5.90
   1   2 -11    3.50    6.30
   0  -2  11   -4.10    5.40
   0  -2 -11    3.30    6.70
   0   2 -11   -0.70    5.80
   0   2 -11   -2.30    7.80
   0   2  11   -0.20    5.20
   0   2 -11   -5.40    5.50
   1  -2  11   11.70    6.20
  -1  -2 -11   10.90    9.40
  -1   2 -11    1.50    5.30
  -1   2 -11   -1.20    6.50
  -2  -2 -11   16.30   10.50
   2  -2  11   11.70    7.40
   2   2  11    3.20    7.10
   2   2  11    6.70    7.30
  -3  -3  11   -4.30    5.30
   3  -3 -11    1.70    7.70
   3  -3 -11    5.30    5.90
   3   3 -11  -11.30    6.20
   3   3 -11    8.90    9.60
  -3   3  11    4.80    4.50
   3   3 -11   -5.00    7.50
  -2  -3  11   -1.40    4.90
   2  -3 -11    7.20    7.40
   2  -3 -11   -5.50    5.90
  -2   3  11   -4.80    3.80
   2   3 -11    2.90    6.10
   2   3 -11    1.50    7.50
   2   3 -11    3.80    6.90
  -1  -3  11    4.60    5.00
   1  -3 -11   -1.50    7.70
   1  -3 -11    5.40    7.00
   1   3 -11   11.30    6.20
  -1   3  11    7.80    4.40
   1   3 -11    4.10    6.10
   1   3 -11    5.60    6.00
   0  -3 -11    2.60    8.50
   0  -3 -11    5.60    8.60
   0  -3  11    8.00    5.50
   0   3  11    6.20    5.40
   0   3 -11    9.40    8.10
  -1  -3 -11   41.50   10.30
   1  -3  11   27.00    6.80
  -1  -3 -11   58.19   10.00
   1   3  11   32.90    7.20
  -2  -3 -11   11.20   12.00
   2  -3  11    9.90    9.40
  -2  -3 -11   -2.00    8.90
   2   3  11   24.50    8.30
  -3  -4  11    3.90    7.10
   3  -4 -11    7.90    8.40
   3  -4 -11    3.30    7.60
  -3   4  11    1.60    4.40
   3   4 -11    6.40    8.20
   2  -4 -11   29.10    9.30
   2  -4 -11   30.10    8.10
  -2  -4  11   28.90    5.90
  -2   4  11   12.60    4.00
   2   4 -11   24.20    7.60
   2   4 -11   17.90    7.90
   2   4 -11   29.30    6.80
   1  -4 -11   13.60    8.60
   1  -4 -11    8.10    6.30
  -1  -4  11   11.70    5.60
  -1   4  11   18.00    5.70
   1   4 -11    0.30    7.50
   1   4 -11    3.00    5.40
   1   4 -11   10.00    5.50
   0  -4 -11   -6.80    9.10
   0  -4  11    0.30    6.80
   0   4 -11   -4.80    6.50
   0   4  11   -4.00    5.10
  -1  -4 -11   -3.60   10.20
  -1  -4 -11    4.40    8.00
   1  -4  11   -4.70    7.70
   1   4  11    7.20    6.30
  -1   4 -11    2.20    6.60
   3  -5 -11    6.00    8.90
   3  -5 -11    5.00    6.50
  -3  -5  11    4.20    7.60
  -3   5  11   -1.90    4.10
   3   5 -11   10.10    7.10
   2  -5 -11    3.90    8.00
  -2  -5  11    3.40    6.50
   2  -5 -11   -0.50    6.20
   2   5 -11   -2.00    6.50
   2   5 -11    6.20    7.00
   2   5 -11   -0.10    6.40
   1  -5 -11   10.40    6.80
   1  -5 -11   10.90    9.20
  -1  -5  11    0.40    6.70
  -1   5  11    8.30    4.40
   1   5 -11   13.00    7.80
   0  -5 -11   -2.70    7.50
   0  -5 -11    7.10    9.90
   0  -5  11    8.80    5.70
   0   5  11    3.50    6.30
   0   5 -11   -1.20    6.10
  -1  -5 -11   22.50   11.30
   1  -5  11   11.80    6.80
   1   5  11   12.10    7.90
   1   5  11   15.20    7.30
  -1   5 -11   -5.60    7.80
  -3  -6  11   29.90    8.60
   3  -6 -11   32.60   11.40
   3  -6 -11   23.20    8.50
   3   6 -11   18.00    8.40
   3   6 -11   24.30   10.00
  -3   6  11   21.40    3.60
   3   6 -11   26.10    8.40
  -2  -6  11    3.30    7.10
   2  -6 -11   -5.00    7.90
   2  -6 -11    4.70    8.40
  -2   6  11    0.50    3.60
   2   6 -11    6.40    6.40
   2   6 -11    3.30    6.00
   2   6 -11   -0.60    6.60
   1  -6 -11   10.10    8.20
   1  -6 -11   13.30    8.80
  -1  -6  11    8.70    5.70
  -1   6  11   -2.30    4.20
   1   6 -11    6.70    6.50
   0  -6 -11    4.30    9.20
   0  -6  11   16.10    7.60
   0  -6 -11   -1.10    8.10
   0   6  11    9.10    5.10
   0   6 -11   -4.60    7.70
  -1  -6 -11   38.10   10.90
  -1  -6 -11   27.30    9.40
   1  -6  11    1.50    8.30
   1   6  11   30.80    9.30
   1   6  11   22.20    6.70
   2  -7 -11    8.80   10.60
  -2  -7  11   -1.20    6.60
   2  -7 -11   -8.40    6.70
  -2   7  11   -0.20    3.50
   2   7 -11    1.50    6.80
   1  -7 -11    6.20    7.50
  -1  -7  11   11.90    6.40
   1  -7 -11   16.90   10.20
   1   7 -11    1.10    7.90
  -1   7  11   10.00    4.30
   0  -7 -11    9.90   10.20
   0  -7  11   15.50    6.70
   0  -7 -11   14.90   10.10
   0   7  11   25.40    6.80
   0   7 -11    5.30    7.40
   1  -7  11    5.90    6.90
  -2  -8  11    0.10    7.10
   2  -8 -11   -9.20    8.90
  -2   8  11    2.00    4.50
  -1  -8  11   21.90    8.20
   1  -8 -11   19.80   10.00
   1  -8 -11   22.90    9.90
  -1   8  11   27.10    5.90
   1   8 -11    0.40    7.40
   0  -8 -11   -8.50   10.50
   0  -8 -11    5.60    8.90
   0  -8  11   -2.50    8.00
   0   8  11    7.30    5.70
  -2   0  12    3.30    5.80
   2   0 -12    2.00    7.90
   2   0 -12    4.90    9.10
   2   0 -12   -0.60    9.30
  -1   0  12    5.60    5.90
   0   0  12    6.60    6.80
   0   0 -12   -2.30    9.70
   0   0 -12   -2.80   10.90
   2  -1 -12    8.20   10.10
   2  -1 -12    3.50    8.00
   2  -1 -12   -1.90    9.70
  -2  -1  12  -16.30    7.00
   2   1 -12    3.50    8.00
  -2   1  12   -0.30    5.60
   2   1 -12    4.80    9.90
   1  -1 -12    4.90   10.30
  -1  -1  12   -1.00    7.50
   1  -1 -12   11.20   10.00
   1   1 -12   12.10    9.80
   1   1 -12   -1.10    8.70
  -1   1  12    3.80    5.90
   1   1 -12    7.50    7.90
   0  -1 -12   -3.10   10.70
   0  -1  12   -9.40    6.90
   0   1  12    3.10    6.50
   0   1 -12   20.20   10.40
   2  -2 -12   16.00    8.50
  -2  -2  12   18.20    7.70
   2  -2 -12   20.60   10.70
   2   2 -12   23.40    8.50
  -2   2  12    7.50    5.40
  -1  -2  12   -1.60    7.70
   1  -2 -12   -2.70    9.90
   1  -2 -12   -9.00    9.60
   1   2 -12    1.60    8.30
  -1   2  12   -1.40    5.70
   1   2 -12    0.30    8.00
   1   2 -12    3.00    7.60
   0  -2 -12   -1.20   11.00
   0  -2  12    5.90    7.20
   0   2 -12    0.30    7.90
   0   2  12   -2.30    8.00
   2  -3 -12   25.70   10.60
  -2  -3  12   10.60    8.20
   2  -3 -12   33.40   11.50
  -2   3  12   11.70    6.70
   2   3 -12   27.10   10.00
   2   3 -12   24.80   10.40
   2   3 -12   14.40    9.10
   1  -3 -12   -2.20    8.20
   1  -3 -12   -1.50   10.30
  -1  -3  12    6.00    6.80
  -1   3  12   -2.80    6.00
   1   3 -12    6.80    8.60
   0  -3 -12  -12.90   11.20
   0  -3 -12   -4.00   11.00
   0   3 -12    4.10    8.50
   0   3  12  -10.50    8.10
  -1  -4  12    8.20    6.80
   1  -4 -12   -2.10    8.60
   1  -4 -12    3.90   11.40
   1   4 -12   -4.10    7.80
  -1   4  12    1.00    6.90
;
_shelx_hkl_checksum              27773
loop_
_space_group_symop_operation_xyz
'x, y, z'
'-x, y+1/2, -z'
loop_
_atom_site_label
_atom_site_type_symbol
_atom_site_fract_x
_atom_site_fract_y
_atom_site_fract_z
_atom_site_U_iso_or_equiv
_atom_site_adp_type
_atom_site_occupancy
_atom_site_site_symmetry_order
_atom_site_calc_flag
_atom_site_refinement_flags_posn
_atom_site_refinement_flags_adp
C1 C 1.0103(7) 0.7542(2) -0.1624(4) 0.0275(9) Uani 1 1 d . .
C2 C 0.9270(7) 0.8165(3) -0.2776(4) 0.0272(9) Uani 1 1 d . .
C3 C 1.0584(8) 0.8268(3) -0.3911(5) 0.0360(11) Uani 1 1 d . .
H3 H 1.2011 0.7912 -0.3950 0.043 Uiso 1 1 calc R U
C4 C 0.9834(9) 0.8878(3) -0.4971(5) 0.0411(11) Uani 1 1 d . .
H4 H 1.0761 0.8943 -0.5727 0.049 Uiso 1 1 calc R U
C5 C 0.7771(8) 0.9392(3) -0.4949(5) 0.0368(11) Uani 1 1 d . .
H5 H 0.7257 0.9809 -0.5687 0.044 Uiso 1 1 calc R U
C6 C 0.6447(8) 0.9299(3) -0.3844(5) 0.0373(11) Uani 1 1 d . .
H6 H 0.5018 0.9656 -0.3818 0.045 Uiso 1 1 calc R U
C7 C 0.7182(8) 0.8691(3) -0.2777(5) 0.0346(10) Uani 1 1 d . .
H7 H 0.6239 0.8631 -0.2027 0.042 Uiso 1 1 calc R U
C8 C 1.4696(7) 0.5823(2) -0.0935(4) 0.0262(9) Uani 1 1 d . .
C9 C 1.5968(7) 0.5850(3) -0.2077(4) 0.0266(9) Uani 1 1 d . .
H9 H 1.5497 0.6267 -0.2821 0.032 Uiso 1 1 calc R U
C10 C 1.7924(8) 0.5269(3) -0.2135(5) 0.0314(10) Uani 1 1 d . .
H10 H 1.8811 0.5299 -0.2913 0.038 Uiso 1 1 calc R U
C11 C 1.8608(8) 0.4643(3) -0.1075(5) 0.0342(10) Uani 1 1 d . .
H11 H 1.9934 0.4237 -0.1130 0.041 Uiso 1 1 calc R U
C12 C 1.7330(8) 0.4619(3) 0.0067(5) 0.0366(11) Uani 1 1 d . .
H12 H 1.7798 0.4199 0.0807 0.044 Uiso 1 1 calc R U
C13 C 1.5385(8) 0.5199(3) 0.0138(5) 0.0316(10) Uani 1 1 d . .
H13 H 1.4512 0.5174 0.0922 0.038 Uiso 1 1 calc R U
C14 C 0.8219(7) 0.7058(3) 0.1734(4) 0.0256(8) Uani 1 1 d . .
C15 C 0.6226(7) 0.7634(3) 0.1779(4) 0.0299(9) Uani 1 1 d . .
H15 H 0.5745 0.8048 0.1033 0.036 Uiso 1 1 calc R U
C16 C 0.4954(8) 0.7598(3) 0.2916(5) 0.0375(10) Uani 1 1 d . .
H16 H 0.3577 0.7984 0.2941 0.045 Uiso 1 1 calc R U
C17 C 0.5653(8) 0.7012(3) 0.4014(5) 0.0390(10) Uani 1 1 d . .
H17 H 0.4769 0.6998 0.4794 0.047 Uiso 1 1 calc R U
C18 C 0.7654(8) 0.6441(3) 0.3981(5) 0.0361(10) Uani 1 1 d . .
H18 H 0.8132 0.6034 0.4737 0.043 Uiso 1 1 calc R U
C19 C 0.8947(8) 0.6465(3) 0.2852(4) 0.0302(9) Uani 1 1 d . .
H19 H 1.0327 0.6080 0.2834 0.036 Uiso 1 1 calc R U
N1 N 1.1987(6) 0.6986(2) -0.1786(3) 0.0300(8) Uani 1 1 d . .
N2 N 1.2781(6) 0.6408(2) -0.0762(3) 0.0293(8) Uani 1 1 d . .
N3 N 0.8894(6) 0.7571(2) -0.0458(4) 0.0353(9) Uani 1 1 d . .
N4 N 0.9543(6) 0.7039(2) 0.0589(3) 0.0257(7) Uani 1 1 d . .
H1 H 1.136(8) 0.650(3) 0.039(4) 0.031 Uiso 1 1 d . U
loop_
_atom_site_aniso_label
_atom_site_aniso_U_11
_atom_site_aniso_U_22
_atom_site_aniso_U_33
_atom_site_aniso_U_23
_atom_site_aniso_U_13
_atom_site_aniso_U_12
C1 0.0232(18) 0.0203(18) 0.040(2) -0.0137(18) 0.0077(17) -0.0076(17)
C2 0.0220(19) 0.0227(19) 0.037(2) -0.0122(17) 0.0060(17) -0.0059(16)
C3 0.030(2) 0.031(2) 0.049(3) 0.008(2) 0.010(2) 0.0061(19)
C4 0.037(2) 0.038(2) 0.050(3) 0.009(2) 0.013(2) 0.006(2)
C5 0.034(2) 0.025(2) 0.048(3) 0.0046(19) -0.004(2) -0.0015(19)
C6 0.030(2) 0.030(2) 0.051(3) -0.004(2) 0.001(2) 0.0062(19)
C7 0.029(2) 0.033(2) 0.043(3) -0.003(2) 0.0071(19) 0.0056(18)
C8 0.026(2) 0.0172(18) 0.034(2) -0.0044(16) -0.0031(17) -0.0048(16)
C9 0.032(2) 0.0211(19) 0.025(2) -0.0006(16) -0.0048(17) -0.0032(17)
C10 0.032(2) 0.0227(19) 0.039(2) -0.0057(19) 0.0036(19) 0.0000(18)
C11 0.028(2) 0.022(2) 0.049(3) -0.0026(19) -0.005(2) -0.0003(18)
C12 0.036(2) 0.022(2) 0.048(3) 0.0085(19) -0.006(2) -0.0003(19)
C13 0.035(2) 0.024(2) 0.035(2) 0.0050(19) 0.0000(19) -0.0074(18)
C14 0.0262(19) 0.0242(17) 0.026(2) -0.0039(18) 0.0032(15) -0.0057(18)
C15 0.028(2) 0.028(2) 0.032(2) -0.0040(18) -0.0002(17) -0.0011(17)
C16 0.036(2) 0.038(2) 0.041(3) -0.003(2) 0.013(2) 0.002(2)
C17 0.040(3) 0.043(2) 0.036(3) -0.002(2) 0.013(2) -0.002(2)
C18 0.042(3) 0.035(2) 0.031(2) 0.0041(19) 0.0030(19) -0.005(2)
C19 0.032(2) 0.0255(19) 0.033(2) 0.0003(18) 0.0030(18) -0.0029(19)
N1 0.0302(18) 0.0257(15) 0.034(2) -0.0013(16) 0.0025(15) -0.0060(16)
N2 0.0336(19) 0.0250(16) 0.0287(19) 0.0037(15) 0.0017(15) -0.0066(15)
N3 0.0315(19) 0.0289(17) 0.045(2) -0.0046(18) 0.0029(16) -0.0027(17)
N4 0.0274(17) 0.0180(14) 0.0304(18) 0.0008(15) -0.0004(13) 0.0000(15)
loop_
_atom_type_symbol
_atom_type_description
_atom_type_scat_dispersion_real
_atom_type_scat_dispersion_imag
_atom_type_scat_source
C C 0.0033 0.0016 'International Tables Vol C Tables 4.2.6.8 and 6.1.1.4'
H H 0.0000 0.0000 'International Tables Vol C Tables 4.2.6.8 and 6.1.1.4'
N N 0.0061 0.0033 'International Tables Vol C Tables 4.2.6.8 and 6.1.1.4'
loop_
_geom_angle_atom_site_label_1
_geom_angle_atom_site_label_2
_geom_angle_atom_site_label_3
_geom_angle
N1 C1 N3 125.4(4)
N1 C1 C2 117.3(3)
N3 C1 C2 117.4(3)
C7 C2 C3 117.3(4)
C7 C2 C1 121.5(4)
C3 C2 C1 121.1(3)
C4 C3 C2 120.9(4)
C4 C3 H3 119.6
C2 C3 H3 119.6
C5 C4 C3 120.8(5)
C5 C4 H4 119.6
C3 C4 H4 119.6
C4 C5 C6 119.2(4)
C4 C5 H5 120.4
C6 C5 H5 120.4
C5 C6 C7 120.5(4)
C5 C6 H6 119.8
C7 C6 H6 119.8
C6 C7 C2 121.3(4)
C6 C7 H7 119.4
C2 C7 H7 119.4
C9 C8 N2 123.7(3)
C9 C8 C13 119.4(4)
N2 C8 C13 116.8(4)
C10 C9 C8 119.9(4)
C10 C9 H9 120.0
C8 C9 H9 120.0
C9 C10 C11 120.9(4)
C9 C10 H10 119.6
C11 C10 H10 119.6
C10 C11 C12 119.0(4)
C10 C11 H11 120.5
C12 C11 H11 120.5
C13 C12 C11 120.6(4)
C13 C12 H12 119.7
C11 C12 H12 119.7
C12 C13 C8 120.2(4)
C12 C13 H13 119.9
C8 C13 H13 119.9
C15 C14 C19 119.9(3)
C15 C14 N4 122.3(3)
C19 C14 N4 117.8(3)
C16 C15 C14 119.5(4)
C16 C15 H15 120.3
C14 C15 H15 120.3
C17 C16 C15 120.9(4)
C17 C16 H16 119.6
C15 C16 H16 119.6
C16 C17 C18 119.9(4)
C16 C17 H17 120.1
C18 C17 H17 120.1
C19 C18 C17 120.1(4)
C19 C18 H18 119.9
C17 C18 H18 119.9
C18 C19 C14 119.7(4)
C18 C19 H19 120.1
C14 C19 H19 120.1
N2 N1 C1 118.8(3)
N1 N2 C8 119.0(3)
N1 N2 H1 110.5(18)
C8 N2 H1 130.5(18)
N4 N3 C1 120.3(3)
N3 N4 C14 119.0(3)
N3 N4 H1 112.7(18)
C14 N4 H1 128.2(18)
loop_
_geom_bond_atom_site_label_1
_geom_bond_atom_site_label_2
_geom_bond_distance
C1 N1 1.347(5)
C1 N3 1.383(5)
C1 C2 1.461(6)
C2 C7 1.387(6)
C2 C3 1.400(6)
C3 C4 1.377(6)
C3 H3 0.9500
C4 C5 1.368(6)
C4 H4 0.9500
C5 C6 1.377(7)
C5 H5 0.9500
C6 C7 1.378(6)
C6 H6 0.9500
C7 H7 0.9500
C8 C9 1.384(6)
C8 N2 1.389(5)
C8 C13 1.392(6)
C9 C10 1.382(6)
C9 H9 0.9500
C10 C11 1.385(6)
C10 H10 0.9500
C11 C12 1.385(7)
C11 H11 0.9500
C12 C13 1.379(6)
C12 H12 0.9500
C13 H13 0.9500
C14 C15 1.392(5)
C14 C19 1.398(6)
C14 N4 1.403(4)
C15 C16 1.380(6)
C15 H15 0.9500
C16 C17 1.376(6)
C16 H16 0.9500
C17 C18 1.390(7)
C17 H17 0.9500
C18 C19 1.380(6)
C18 H18 0.9500
C19 H19 0.9500
N1 N2 1.328(5)
N2 H1 1.45(4)
N3 N4 1.286(5)
N4 H1 1.31(4)
loop_
_geom_torsion_atom_site_label_1
_geom_torsion_atom_site_label_2
_geom_torsion_atom_site_label_3
_geom_torsion_atom_site_label_4
_geom_torsion
N1 C1 C2 C7 172.8(4)
N3 C1 C2 C7 -7.2(5)
N1 C1 C2 C3 -8.5(5)
N3 C1 C2 C3 171.5(3)
C7 C2 C3 C4 0.9(6)
C1 C2 C3 C4 -177.9(4)
C2 C3 C4 C5 -0.7(7)
C3 C4 C5 C6 0.5(7)
C4 C5 C6 C7 -0.4(7)
C5 C6 C7 C2 0.6(7)
C3 C2 C7 C6 -0.8(6)
C1 C2 C7 C6 177.9(4)
N2 C8 C9 C10 177.1(3)
C13 C8 C9 C10 -0.9(5)
C8 C9 C10 C11 1.3(6)
C9 C10 C11 C12 -1.3(6)
C10 C11 C12 C13 0.9(6)
C11 C12 C13 C8 -0.5(6)
C9 C8 C13 C12 0.5(6)
N2 C8 C13 C12 -177.6(3)
C19 C14 C15 C16 -1.4(6)
N4 C14 C15 C16 177.9(4)
C14 C15 C16 C17 1.0(6)
C15 C16 C17 C18 -0.5(7)
C16 C17 C18 C19 0.3(7)
C17 C18 C19 C14 -0.8(6)
C15 C14 C19 C18 1.3(6)
N4 C14 C19 C18 -178.1(3)
N3 C1 N1 N2 0.3(6)
C2 C1 N1 N2 -179.7(3)
C1 N1 N2 C8 178.9(3)
C9 C8 N2 N1 5.0(5)
C13 C8 N2 N1 -177.0(3)
N1 C1 N3 N4 0.0(6)
C2 C1 N3 N4 180.0(3)
C1 N3 N4 C14 -177.5(3)
C15 C14 N4 N3 -0.1(5)
C19 C14 N4 N3 179.3(4)
