#------------------------------------------------------------------------------
#$Date: 2016-02-13 21:28:24 +0200 (Sat, 13 Feb 2016) $
#$Revision: 176429 $
#$URL: svn://www.crystallography.net/cod/cif/7/03/70/7037021.cif $
#------------------------------------------------------------------------------
#
# This file is available in the Crystallography Open Database (COD),
# http://www.crystallography.net/
#
# All data on this site have been placed in the public domain by the
# contributors.
#
data_7037021
loop_
_publ_author_name
'Lin, Xinsong'
'Tabassum, Danisa'
'Mar, Arthur'
_publ_section_title
;
 Narrowing the gap: from semiconductor to semimetal in the homologous
 series of rare-earth zinc arsenides RE2-yZn4As4&#x00B7;n(REAs) and
 Mn-substituted derivatives RE2-yMnxZn4-xAs4&#x00B7;n(REAs) (RE = La-Nd,
 Sm, Gd).
;
_journal_issue                   46
_journal_name_full
'Dalton transactions (Cambridge, England : 2003)'
_journal_page_first              20254
_journal_page_last               20264
_journal_paper_doi               10.1039/c5dt03596a
_journal_volume                  44
_journal_year                    2015
_chemical_formula_structural     'Sm5.40 Zn4 As8'
_chemical_formula_sum            'As8 Sm5.4 Zn4'
_chemical_formula_weight         1672.73
_chemical_name_common            'samarium zinc arsenide (5.4/4/8)'
_chemical_name_systematic        'samarium zinc arsenide (5.4/4/8)'
_space_group_crystal_system      trigonal
_space_group_IT_number           166
_space_group_name_Hall           '-R 3 2"'
_space_group_name_H-M_alt        'R -3 m :H'
_symmetry_space_group_name_Hall  '-R 3 2"'
_symmetry_space_group_name_H-M   'R -3 m :H'
_atom_sites_solution_primary     direct
_atom_sites_solution_secondary   difmap
_audit_creation_method           SHELXL-2013
_cell_angle_alpha                90
_cell_angle_beta                 90
_cell_angle_gamma                120
_cell_formula_units_Z            3
_cell_length_a                   4.1689(4)
_cell_length_b                   4.1689(4)
_cell_length_c                   82.103(9)
_cell_measurement_reflns_used    2576
_cell_measurement_temperature    296(2)
_cell_measurement_theta_max      32.77
_cell_measurement_theta_min      5.22
_cell_volume                     1235.8(2)
_computing_cell_refinement       'Bruker SAINT 7.68A (Bruker, 2009)'
_computing_data_collection       'Bruker APEX 2 (Bruker, 2008)'
_computing_data_reduction        'Bruker SAINT 7.68A'
_computing_molecular_graphics    'ATOMS 5.1 (Dowty, 1999)'
_computing_publication_material  'Bruker SHELXTL'
_computing_structure_refinement  'Bruker SHELXTL'
_computing_structure_solution    'Bruker SHELXTL'
_diffrn_ambient_temperature      296(2)
_diffrn_measured_fraction_theta_full 0.997
_diffrn_measured_fraction_theta_max 0.999
_diffrn_measurement_device_type  'Bruker PLATFORM/SMART APEX II CCD'
_diffrn_measurement_method       '\w and \f scans'
_diffrn_radiation_type           MoK\a
_diffrn_radiation_wavelength     0.71073
_diffrn_reflns_av_R_equivalents  0.0385
_diffrn_reflns_av_unetI/netI     0.0188
_diffrn_reflns_Laue_measured_fraction_full 0.997
_diffrn_reflns_Laue_measured_fraction_max 0.999
_diffrn_reflns_limit_h_max       6
_diffrn_reflns_limit_h_min       -6
_diffrn_reflns_limit_k_max       6
_diffrn_reflns_limit_k_min       -6
_diffrn_reflns_limit_l_max       123
_diffrn_reflns_limit_l_min       -123
_diffrn_reflns_number            5971
_diffrn_reflns_point_group_measured_fraction_full 0.997
_diffrn_reflns_point_group_measured_fraction_max 0.999
_diffrn_reflns_theta_full        25.242
_diffrn_reflns_theta_max         33.018
_diffrn_reflns_theta_min         1.488
_diffrn_source                   'fine-focus sealed tube'
_exptl_absorpt_coefficient_mu    40.532
_exptl_absorpt_correction_T_max  0.4055
_exptl_absorpt_correction_T_min  0.1269
_exptl_absorpt_correction_type   numerical
_exptl_absorpt_process_details   'Bruker SHELXTL (Sheldrick, 2013)'
_exptl_crystal_colour            black
_exptl_crystal_density_diffrn    6.743
_exptl_crystal_density_method    'not measured'
_exptl_crystal_description       irregular
_exptl_crystal_F_000             2156
_exptl_crystal_size_max          0.065
_exptl_crystal_size_mid          0.057
_exptl_crystal_size_min          0.028
_refine_diff_density_max         2.460
_refine_diff_density_min         -3.530
_refine_diff_density_rms         0.344
_refine_ls_extinction_coef       0.000178(16)
_refine_ls_extinction_expression Fc^*^=kFc[1+0.001xFc^2^\l^3^/sin(2\q)]^-1/4^
_refine_ls_extinction_method     SHELXL
_refine_ls_goodness_of_fit_ref   1.121
_refine_ls_hydrogen_treatment    undef
_refine_ls_matrix_type           full
_refine_ls_number_parameters     33
_refine_ls_number_reflns         715
_refine_ls_number_restraints     0
_refine_ls_restrained_S_all      1.121
_refine_ls_R_factor_all          0.0341
_refine_ls_R_factor_gt           0.0255
_refine_ls_shift/su_max          0.001
_refine_ls_shift/su_mean         0.000
_refine_ls_structure_factor_coef Fsqd
_refine_ls_weighting_details
'w=1/[\s^2^(Fo^2^)+(0.0164P)^2^+27.8812P] where P=(Fo^2^+2Fc^2^)/3'
_refine_ls_weighting_scheme      calc
_refine_ls_wR_factor_gt          0.0495
_refine_ls_wR_factor_ref         0.0531
_reflns_Friedel_coverage         0.000
_reflns_number_gt                595
_reflns_number_total             715
_reflns_threshold_expression     'I > 2\s(I)'
_cod_data_source_file            c5dt03596a8.cif
_cod_data_source_block           Sm6-xZn4As8
_cod_depositor_comments
'Adding full bibliography for 7037017--7037025.cif.'
_cod_original_cell_volume        1235.8(3)
_cod_original_formula_sum        'As8 Sm5.40 Zn4'
_cod_database_code               7037021
#BEGIN Tags that were not found in dictionaries:
_shelx_space_group_comment
;
The symmetry employed for this shelxl refinement is uniquely defined
by the following loop, which should always be used as a source of
symmetry information in preference to the above space-group names.
They are only intended as comments.
;
_shelx_estimated_absorpt_t_min   0.178
_shelx_estimated_absorpt_t_max   0.397
_shelxl_version_number           2013-4
_shelx_res_file
;
TITL Sm5.4Zn4As8 R-3m lsf final refinement
CELL 0.71073   4.16890   4.16890  82.10320  90.0000  90.0000 120.0000
ZERR    3.00   0.00040   0.00040   0.00870   0.0000   0.0000   0.0000
LATT  3
SYMM -Y, X-Y, Z
SYMM -X+Y, -X, Z
SYMM Y, X, -Z
SYMM X-Y, -Y, -Z
SYMM -X, -X+Y, -Z
SFAC ZN AS SM
UNIT 12 24 16.2
TEMP 23
SIZE 0.028 0.057 0.065

L.S. 4
ACTA

EADP ZN2A ZN2B
WGHT    0.016400   27.881199
EXTI    0.000178
FVAR       0.02139   0.81925
SM1   3    0.000000    0.000000    0.291864    10.16667    0.00666    0.00666 =
         0.00834    0.00000    0.00000    0.00333
SM2   3    0.000000    0.000000    0.416437    10.16667    0.00741    0.00741 =
         0.00981    0.00000    0.00000    0.00370
SM3   3    0.000000    0.000000    0.500000     0.03331    0.01171    0.01171 =
         0.01058    0.00000    0.00000    0.00585
SM4   3    0.000000    0.000000    0.000000    10.08333    0.00665    0.00665 =
         0.00778    0.00000    0.00000    0.00333
ZN1   1    0.000000    0.000000    0.115489    10.16667    0.01755    0.01755 =
         0.01557    0.00000    0.00000    0.00877
ZN2A  1    0.000000    0.000000    0.194367    20.16667    0.01846    0.01846 =
         0.04886    0.00000    0.00000    0.00923
ZN2B  1    0.000000    0.000000    0.179877   -20.16667    0.01846    0.01846 =
         0.04886    0.00000    0.00000    0.00923
AS1   2    0.000000    0.000000    0.062725    10.16667    0.00616    0.00616 =
         0.00800    0.00000    0.00000    0.00308
AS2   2    0.000000    0.000000    0.146012    10.16667    0.01159    0.01159 =
         0.01339    0.00000    0.00000    0.00579
AS3   2    0.000000    0.000000    0.228649    10.16667    0.00799    0.00799 =
         0.01054    0.00000    0.00000    0.00400
AS4   2    0.000000    0.000000    0.354240    10.16667    0.00651    0.00651 =
         0.00810    0.00000    0.00000    0.00326
HKLF 4

REM  Sm5.4Zn4As8 R-3m lsf final refinement
REM R1 =  0.0255 for     595 Fo > 4sig(Fo)  and  0.0341 for all     715 data
REM     33 parameters refined using      0 restraints

END

WGHT      0.0164     27.8618

REM Highest difference peak  2.460,  deepest hole -3.530,  1-sigma level  0.344
Q1    1   0.0000  0.0000  0.3986  10.16667  0.05    2.46
Q2    1  -0.0603 -0.1206  0.1862  10.50000  0.05    2.00
Q3    1   0.0000  0.0000  0.2797  10.16667  0.05    1.60
Q4    1   0.0000  0.0000  0.3086  10.16667  0.05    1.55
Q5    1  -0.0666 -0.1331  0.1329  10.50000  0.05    1.50
Q6    1   0.0000  0.0000  0.1243  10.16667  0.05    1.38
Q7    1   0.0000  0.0000  0.3873  10.16667  0.05    1.35
Q8    1  -0.1578 -0.0789  0.1176  10.50000  0.05    1.35
Q9    1   0.0000  0.0000  0.0475  10.16667  0.05    1.28
Q10   1   0.1671  0.3342  0.4953  10.50000  0.05    1.28
Q11   1   0.0000  0.0000  0.3363  10.16667  0.05    1.26
Q12   1   0.0000  0.0000  0.3730  10.16667  0.05    1.25
Q13   1   0.0000  0.0000  0.0354  10.16667  0.05    1.24
Q14   1   0.0000  0.0000  0.2697  10.16667  0.05    1.18
Q15   1   0.0000  0.0000  0.0729  10.16667  0.05    1.18
Q16   1  -0.0662  0.0662  0.3461  10.50000  0.05    1.15
Q17   1   0.0000  0.0000  0.4093  10.16667  0.05    1.06
Q18   1   0.3121  0.1561  0.2311  10.50000  0.05    1.05
Q19   1   0.0822 -0.0822  0.1532  10.50000  0.05    1.04
Q20   1   0.0898  0.1797  0.0090  10.50000  0.05    1.01
;
_shelx_res_checksum              92341
_shelx_hkl_file
;
   0   0-123   14.89    1.91
  -1   1-122    3.70    0.76
   1  -1-121    7.09    1.55
  -1   0-121    4.59    1.33
   0   0-120    4.17    1.09
   0  -1-119    6.18    1.47
   1   0-119    6.31    1.51
  -1   1-119    5.51    0.91
   1  -1-118    1.04    0.92
  -1   0-118    0.99    0.62
   0   1-118    1.16    0.78
  -1  -1-117    0.36    0.89
   2  -1-117    0.68    1.05
   0   0-117    0.16    0.71
  -2   1-117    1.16    0.80
  -1   2-117   -0.15    0.70
   2  -2-116    5.76    1.55
   0  -1-116    3.87    1.20
   1   0-116    5.28    1.36
  -1   1-116    3.84    0.75
   0  -2-115    0.18    0.90
   1  -1-115    0.01    0.69
  -1   0-115    0.22    0.49
   0   1-115   -0.03    0.66
  -2   2-115    0.39    0.76
  -1  -1-114    0.15    0.80
   2  -1-114    0.63    1.00
   0   0-114    0.02    0.73
  -2   1-114   -0.09    0.63
   1   1-114    0.99    0.75
  -1   2-114    0.64    0.79
   2  -2-113   60.57    4.10
   0  -1-113   78.02    2.99
  -2   0-113   63.81    4.07
   1   0-113   80.46    4.33
  -1   1-113   69.10    3.96
   0   2-113   67.15    3.87
   0  -2-112   -0.86    0.77
   1  -1-112    0.28    0.74
  -1   0-112    0.00    0.45
   2   0-112    0.75    0.91
   0   1-112    0.09    0.66
  -2   2-112    0.10    0.71
  -1  -1-111   -0.40    0.72
   2  -1-111   -0.12    0.88
   0   0-111    0.10    0.42
  -2   1-111    0.56    0.70
   1   1-111   -0.61    0.62
  -1   2-111   -0.04    0.67
   2  -2-110   55.45    3.93
   0  -1-110   72.52    2.77
  -2   0-110   58.33    3.83
   1   0-110   72.66    4.01
  -1   1-110   58.82    3.62
   0   2-110   60.17    3.72
   0  -2-109    1.14    0.97
   1  -1-109    0.18    0.71
  -1   0-109    0.59    0.46
   2   0-109    0.76    0.92
   0   1-109    0.89    0.70
  -2   2-109    0.49    0.79
  -1   3-109    0.42    0.90
  -1  -1-108    1.77    1.02
   2  -1-108    1.08    1.01
   0   0-108    1.27    0.52
  -2   1-108    1.10    0.81
   1   1-108    1.32    0.84
  -1   2-108    1.44    0.81
  -1  -2-107    4.35    1.57
   2  -2-107    6.06    1.55
   0  -1-107    6.42    0.92
   3  -1-107    3.32    1.22
  -2   0-107    5.43    1.34
   1   0-107    8.23    1.50
  -1   1-107    9.21    1.48
   2   1-107    4.00    1.39
  -3   2-107    3.62    1.26
   0   2-107    4.45    1.18
  -2   3-107    3.52    1.30
   0  -2-106   11.16    1.94
   3  -2-106    6.48    1.09
  -2  -1-106    7.50    1.76
   1  -1-106   11.56    1.78
  -1   0-106    9.61    1.07
   2   0-106    8.18    1.69
  -3   1-106    5.71    1.44
   0   1-106   10.70    1.69
  -2   2-106    7.53    1.56
   1   2-106    7.69    1.55
  -1   3-106    2.87    1.25
   3  -3-105   -0.29    1.17
  -1  -1-105    0.43    0.75
   2  -1-105    0.23    0.78
   0   0-105    1.30    0.53
  -2   1-105    2.51    0.91
   1   1-105    0.69    0.74
  -1   2-105    0.95    0.78
   1  -3-104    0.47    1.00
  -1  -2-104   -0.04    0.98
   2  -2-104    0.55    0.98
   0  -1-104   -0.23    0.42
   3  -1-104    0.05    0.65
  -2   0-104    0.17    0.76
   1   0-104   -0.28    0.57
  -1   1-104    0.38    0.59
   2   1-104    0.49    0.84
  -3   2-104   -0.32    0.67
   0   2-104   -0.06    0.57
  -2   3-104    0.05    0.72
   0  -2-103   12.20    2.12
   3  -2-103    9.15    1.30
  -2  -1-103   12.49    2.19
   1  -1-103   17.06    2.11
  -1   0-103   15.65    1.34
   2   0-103   14.56    2.09
  -3   1-103   10.90    1.85
   0   1-103   16.69    1.37
  -2   2-103    9.59    1.72
   1   2-103    8.38    1.53
  -1   3-103    8.64    1.75
   0  -3-102    0.09    1.02
   3  -3-102    0.18    1.10
   1  -2-102    1.14    0.95
  -1  -1-102    1.22    0.85
   2  -1-102   -0.25    0.79
  -3   0-102    0.07    0.98
   0   0-102    1.40    0.50
   3   0-102    0.31    0.67
  -2   1-102   -0.40    0.61
   1   1-102   -0.88    0.58
  -1   2-102   -0.11    0.62
  -3   3-102    0.01    0.79
   0   3-102    0.13    0.73
   1  -3-101    0.91    0.98
  -1  -2-101    0.10    0.99
   2  -2-101    0.72    0.86
   0  -1-101    1.03    0.50
   3  -1-101   -0.08    0.60
  -2   0-101    0.25    0.75
   1   0-101    0.84    0.69
  -1   1-101    0.36    0.50
   2   1-101   -0.07    0.79
  -3   2-101    0.74    0.82
   0   2-101    1.19    0.78
  -2   3-101    0.23    0.77
   0  -2-100    0.38    0.83
   3  -2-100    0.90    0.64
  -2  -1-100    0.68    0.93
   1  -1-100    2.65    0.96
  -1   0-100    1.11    0.67
   2   0-100    0.56    0.70
  -3   1-100    1.29    0.84
   0   1-100    2.72    0.61
  -2   2-100    0.41    0.63
   1   2-100    1.35    0.87
  -1   3-100    0.13    0.82
   0  -3 -99    2.61    1.30
   3  -3 -99    1.15    1.19
   1  -2 -99    3.51    0.78
  -1  -1 -99    5.07    1.33
   2  -1 -99    5.01    1.33
  -3   0 -99    3.83    1.35
   0   0 -99    8.13    0.90
   3   0 -99    2.40    0.87
  -2   1 -99    6.24    1.22
   1   1 -99    4.07    1.13
  -1   2 -99    6.13    1.28
  -3   3 -99    3.37    1.21
   0   3 -99    4.04    1.14
   1  -3 -98   -0.76    0.80
  -1  -2 -98    0.92    0.99
   2  -2 -98    0.63    0.86
   0  -1 -98    0.12    0.44
   3  -1 -98    0.93    0.65
  -2   0 -98    0.29    0.66
   1   0 -98    0.51    0.61
  -1   1 -98    0.54    0.58
   2   1 -98    0.39    0.71
  -3   2 -98    0.59    0.64
  -2   3 -98   -0.59    0.68
   0  -2 -97   -0.42    0.81
   3  -2 -97   -0.46    0.52
  -2  -1 -97   -0.25    0.84
   1  -1 -97   -1.08    0.55
  -1   0 -97    0.72    0.61
   2   0 -97    0.03    0.62
  -3   1 -97   -0.46    0.56
   0   1 -97    0.35    0.39
  -2   2 -97    0.74    0.72
   1   2 -97   -0.41    0.57
  -1   3 -97   -0.28    0.61
   0  -3 -96  114.17    6.53
   3  -3 -96  122.57    6.57
   1  -2 -96  183.16    5.53
   4  -2 -96  113.26    5.64
  -1  -1 -96  194.70    8.26
   2  -1 -96  195.44    8.24
  -3   0 -96  151.36    7.10
   0   0 -96  227.79    6.02
   3   0 -96  116.01    4.46
  -2   1 -96  172.64    7.61
   1   1 -96  199.82    7.88
  -1   2 -96  179.13    7.70
   2   2 -96  111.46    4.42
  -3   3 -96  127.80    6.31
   0   3 -96  133.04    6.22
  -2   4 -96  106.44    5.83
   1  -3 -95    0.18    0.85
  -1  -2 -95   -0.22    1.01
   2  -2 -95    0.56    0.86
   0  -1 -95    0.34    0.42
   3  -1 -95   -0.23    0.53
  -2   0 -95    0.97    0.76
   1   0 -95   -0.14    0.48
  -4   1 -95    0.00    0.96
  -1   1 -95   -0.09    0.50
   2   1 -95    0.00    0.73
  -3   2 -95    0.06    0.67
  -2   3 -95    0.48    0.76
   1   3 -95   -0.63    0.62
  -1   4 -95    0.68    0.84
   1  -4 -94    0.51    1.15
   0  -2 -94    0.22    0.82
   3  -2 -94    0.65    0.62
  -2  -1 -94   -0.60    0.78
   1  -1 -94    0.20    0.64
  -1   0 -94    0.70    0.59
   2   0 -94    0.10    0.62
  -3   1 -94    0.32    0.67
   0   1 -94   -0.11    0.48
   3   1 -94    0.55    1.00
  -2   2 -94    0.90    0.72
   1   2 -94    1.02    0.73
  -4   3 -94    0.21    0.94
  -1   3 -94    0.07    0.63
   0  -3 -93    7.04    1.81
   3  -3 -93    7.44    1.73
  -2  -2 -93    7.60    1.95
   1  -2 -93   13.48    1.34
   4  -2 -93    8.78    1.31
  -1  -1 -93   11.27    1.87
   2  -1 -93   10.76    1.85
  -3   0 -93    9.86    2.01
   0   0 -93   19.52    1.28
   3   0 -93    6.00    1.13
  -2   1 -93   12.16    1.72
   1   1 -93   11.50    1.74
  -4   2 -93    7.69    1.10
  -1   2 -93   10.26    1.60
   2   2 -93    7.82    1.28
  -3   3 -93    9.15    1.78
  -2   4 -93    8.35    1.80
   1  -3 -92    1.28    0.92
   4  -3 -92    0.75    1.09
  -1  -2 -92    1.92    1.25
   2  -2 -92    1.32    0.95
  -3  -1 -92   -0.15    1.25
   0  -1 -92    2.48    0.60
   3  -1 -92    1.62    0.74
  -2   0 -92    1.99    0.90
   1   0 -92    2.68    0.85
  -4   1 -92    2.13    0.79
  -1   1 -92    3.15    0.92
   2   1 -92    1.88    0.97
  -3   2 -92    2.75    1.05
   0   2 -92    3.46    1.05
  -2   3 -92    1.21    0.86
   1   3 -92    1.09    1.01
  -1   4 -92    0.23    0.85
   1  -4 -91    0.05    1.18
  -1  -3 -91   -0.54    0.91
   2  -3 -91    0.48    0.91
   0  -2 -91    0.74    0.84
   3  -2 -91    0.06    0.52
  -2  -1 -91    0.77    0.90
   1  -1 -91   -0.05    0.61
   4  -1 -91    0.11    0.59
  -1   0 -91    0.88    0.62
   2   0 -91    0.26    0.71
  -3   1 -91    0.00    0.57
   0   1 -91    0.03    0.45
   3   1 -91    0.33    0.62
  -2   2 -91    1.09    0.65
   1   2 -91    0.02    0.53
  -4   3 -91   -0.26    0.52
  -1   3 -91    0.48    0.70
  -3   4 -91    1.19    0.91
   0  -3 -90    4.68    1.51
   3  -3 -90    3.69    1.23
  -2  -2 -90    3.53    1.57
   1  -2 -90    3.63    0.80
   4  -2 -90    4.18    0.91
  -1  -1 -90    4.54    1.25
   2  -1 -90    6.27    1.43
  -3   0 -90    6.15    1.60
   0   0 -90   10.34    1.02
   3   0 -90    3.47    0.92
  -2   1 -90    6.99    1.24
   1   1 -90    6.55    1.31
  -4   2 -90    4.32    0.95
  -1   2 -90    5.41    1.25
   2   2 -90    3.20    0.85
  -3   3 -90    5.19    1.41
  -2   4 -90    3.90    1.22
   1  -3 -89   11.74    1.94
   4  -3 -89   12.33    2.14
  -1  -2 -89   13.09    2.33
   2  -2 -89   13.03    1.99
  -3  -1 -89    8.21    2.07
   0  -1 -89   20.64    1.39
   3  -1 -89   12.22    1.41
  -2   0 -89   17.49    2.16
   1   0 -89   21.38    2.24
  -4   1 -89   11.41    1.41
  -1   1 -89   21.11    2.15
   2   1 -89   13.90    2.14
  -3   2 -89   13.02    1.30
   0   2 -89   12.94    1.76
  -2   3 -89   14.24    2.03
   1   3 -89   12.81    1.96
  -1   4 -89   11.51    1.81
   1  -4 -88    0.67    1.10
  -1  -3 -88    3.17    1.43
   2  -3 -88   -0.44    0.76
   0  -2 -88    0.02    0.75
   3  -2 -88    1.06    0.60
  -2  -1 -88   -0.44    0.69
   1  -1 -88    1.67    0.56
   4  -1 -88    0.01    0.57
  -1   0 -88    1.83    0.75
   2   0 -88   -0.12    0.65
  -3   1 -88    0.53    0.50
   0   1 -88    0.83    0.54
   3   1 -88    0.27    0.58
  -2   2 -88    0.46    0.53
   1   2 -88    0.52    0.65
  -4   3 -88    0.84    0.65
  -1   3 -88    0.95    0.73
  -3   4 -88    1.25    0.84
   0  -3 -87    0.33    0.89
   3  -3 -87   -0.21    0.74
  -2  -2 -87   -0.35    1.03
   1  -2 -87   -0.23    0.44
   4  -2 -87    0.33    0.55
  -1  -1 -87    0.72    0.66
   2  -1 -87   -0.29    0.61
  -3   0 -87    0.27    0.58
   0   0 -87   -0.31    0.30
   3   0 -87    0.14    0.53
  -2   1 -87    1.24    0.68
   1   1 -87    0.52    0.56
  -4   2 -87   -0.37    0.51
  -1   2 -87    0.31    0.52
   2   2 -87   -0.27    0.52
  -3   3 -87   -0.02    0.51
  -2   4 -87   -1.00    0.63
   1  -3 -86    4.26    1.23
   4  -3 -86    4.92    1.57
  -1  -2 -86    1.59    1.03
   2  -2 -86    4.62    1.31
  -3  -1 -86    4.43    1.09
   0  -1 -86    4.69    0.73
   3  -1 -86    3.18    0.75
  -2   0 -86    3.55    1.08
   1   0 -86    4.14    1.02
   4   0 -86    1.51    1.21
  -4   1 -86    2.84    0.86
  -1   1 -86    2.77    0.81
   2   1 -86    3.05    1.14
  -3   2 -86    2.59    0.69
   0   2 -86    4.04    1.03
  -2   3 -86    4.84    1.27
   1   3 -86    3.89    1.19
  -4   4 -86    2.75    1.37
  -1   4 -86    3.86    1.17
   1  -4 -85    1.27    1.05
   4  -4 -85    2.18    1.11
  -1  -3 -85    1.50    1.16
   2  -3 -85    2.73    1.06
   0  -2 -85    3.55    1.22
   3  -2 -85    3.06    0.75
  -2  -1 -85    2.67    1.18
   1  -1 -85    7.45    0.93
   4  -1 -85    4.19    0.94
  -4   0 -85    1.50    0.88
  -1   0 -85    7.54    1.26
   2   0 -85    5.23    1.26
  -3   1 -85    4.38    0.81
   0   1 -85    7.70    1.22
   3   1 -85    0.57    0.63
  -2   2 -85    5.89    1.30
   1   2 -85    5.32    1.25
  -4   3 -85    2.33    0.78
  -1   3 -85    5.51    1.29
  -3   4 -85    3.73    0.97
   0  -3 -84    0.83    0.90
   3  -3 -84    1.30    0.91
  -2  -2 -84   -1.19    0.87
   1  -2 -84    1.97    0.61
   4  -2 -84    1.69    0.68
  -1  -1 -84    5.02    1.33
   2  -1 -84    1.73    0.95
  -3   0 -84    3.48    0.87
   0   0 -84    4.23    0.67
   3   0 -84    1.27    0.63
  -2   1 -84    2.67    0.93
   1   1 -84    4.01    1.03
  -4   2 -84    0.70    0.59
  -1   2 -84    2.48    0.86
   2   2 -84    0.89    0.64
  -3   3 -84    2.64    0.73
  -2   4 -84    2.80    1.10
   0  -4 -83    0.35    0.90
   1  -3 -83   -0.35    0.61
   4  -3 -83    0.33    0.89
  -1  -2 -83    0.47    0.86
   2  -2 -83    0.27    0.69
  -3  -1 -83    0.43    0.73
   0  -1 -83    0.25    0.37
   3  -1 -83   -0.41    0.39
  -2   0 -83   -0.10    0.36
   1   0 -83   -0.29    0.48
   4   0 -83    0.38    0.96
  -4   1 -83    0.72    0.66
  -1   1 -83   -0.13    0.38
   2   1 -83   -0.45    0.61
  -3   2 -83    0.43    0.50
   0   2 -83    0.50    0.45
  -2   3 -83    0.44    0.62
   1   3 -83   -0.13    0.68
  -4   4 -83    0.44    1.00
  -1   4 -83    0.53    0.73
   1  -4 -82   66.71    4.32
   4  -4 -82   60.45    3.96
  -1  -3 -82   60.05    4.40
   2  -3 -82   93.25    4.56
   0  -2 -82   90.98    5.19
   3  -2 -82   94.71    3.30
  -2  -1 -82   92.90    3.46
   1  -1 -82  131.40    4.08
   4  -1 -82   67.81    2.90
  -4   0 -82   60.41    3.08
  -1   0 -82  128.45    5.78
   2   0 -82  101.62    5.20
  -3   1 -82   88.45    3.28
   0   1 -82  126.92    5.50
   3   1 -82   65.37    2.93
  -2   2 -82  103.96    3.43
   1   2 -82   91.58    4.61
  -4   3 -82   64.59    2.87
  -1   3 -82   91.32    4.58
  -3   4 -82   67.41    3.03
   2  -4 -81    2.43    1.18
   0  -3 -81    3.68    1.25
   3  -3 -81    3.20    1.07
  -2  -2 -81    2.80    1.44
   1  -2 -81    3.98    0.73
   4  -2 -81    1.70    0.66
  -1  -1 -81    5.16    1.37
   2  -1 -81    4.29    1.19
  -3   0 -81    3.39    0.82
   0   0 -81    7.97    0.88
   3   0 -81    2.27    0.67
  -2   1 -81    4.05    0.72
   1   1 -81    6.64    1.25
  -4   2 -81    1.31    0.64
  -1   2 -81    4.10    1.02
   2   2 -81    2.72    0.83
  -3   3 -81    3.18    0.81
  -2   4 -81    1.33    0.92
   0  -4 -80    2.59    1.30
   1  -3 -80    0.94    0.79
   4  -3 -80    1.23    1.02
  -1  -2 -80    1.75    1.01
   2  -2 -80    3.91    1.09
  -3  -1 -80    1.46    0.77
   0  -1 -80    3.84    0.68
   3  -1 -80    1.30    0.56
  -2   0 -80    1.89    0.59
   1   0 -80    5.23    1.15
   4   0 -80    0.76    0.58
  -4   1 -80    1.17    0.63
  -1   1 -80    2.08    0.71
   2   1 -80    0.42    0.73
  -3   2 -80    1.93    0.62
   0   2 -80    2.50    0.80
  -2   3 -80    1.66    0.61
   1   3 -80    3.30    0.78
  -4   4 -80    0.74    0.69
  -1   4 -80   -0.08    0.65
   1  -4 -79   66.44    4.24
   4  -4 -79   63.81    3.95
  -1  -3 -79   68.36    4.53
   2  -3 -79   90.51    4.51
   0  -2 -79   95.38    5.24
   3  -2 -79   94.32    3.27
  -2  -1 -79   98.29    3.55
   1  -1 -79  135.79    4.15
   4  -1 -79   69.41    2.86
  -4   0 -79   58.54    3.02
  -1   0 -79  135.72    5.90
   2   0 -79   97.53    5.18
  -3   1 -79   93.69    3.35
   0   1 -79  137.58    5.65
   3   1 -79   71.53    2.97
  -2   2 -79  103.24    3.45
   1   2 -79   91.79    4.64
  -4   3 -79   68.22    2.91
  -1   3 -79   94.34    4.60
  -3   4 -79   65.10    2.96
   2  -4 -78    0.76    0.82
   0  -3 -78   -0.29    0.64
   3  -3 -78   -0.03    0.62
  -2  -2 -78    0.64    0.67
   1  -2 -78    1.01    0.48
   4  -2 -78    0.11    0.41
  -1  -1 -78    1.04    0.75
   2  -1 -78    0.54    0.69
  -3   0 -78   -0.01    0.52
   0   0 -78    1.42    0.44
   3   0 -78    0.43    0.48
  -2   1 -78    1.30    0.47
   1   1 -78    0.80    0.57
  -4   2 -78    0.27    0.55
  -1   2 -78    0.94    0.59
   2   2 -78    0.80    0.56
  -3   3 -78    0.11    0.45
   0   3 -78    0.59    0.58
  -2   4 -78    0.18    0.50
   2  -5 -77    2.30    1.10
   0  -4 -77    0.05    0.95
  -2  -3 -77    1.53    1.39
   1  -3 -77    1.36    0.83
   4  -3 -77    0.72    0.86
  -1  -2 -77    0.05    0.76
   2  -2 -77    2.84    0.99
  -3  -1 -77    2.11    0.80
   0  -1 -77    3.79    0.69
   3  -1 -77    2.19    0.63
  -2   0 -77    1.63    0.57
   1   0 -77    3.65    0.59
   4   0 -77    0.28    0.53
  -4   1 -77    1.58    0.66
  -1   1 -77    3.81    0.89
   2   1 -77    1.10    0.96
  -3   2 -77    2.24    0.62
   0   2 -77    2.71    0.82
  -5   3 -77    1.59    1.09
  -2   3 -77    2.41    0.65
   1   3 -77    0.80    0.54
  -4   4 -77   -0.24    0.55
  -1   4 -77    0.97    0.72
  -3   5 -77    0.77    1.11
   1  -4 -76    6.01    1.43
   4  -4 -76    6.86    1.60
  -1  -3 -76    5.84    1.66
   2  -3 -76   12.50    1.65
  -3  -2 -76    4.39    1.63
   3  -2 -76   11.31    1.15
  -2  -1 -76   11.04    1.25
   1  -1 -76   17.44    1.34
   4  -1 -76    7.59    1.06
  -4   0 -76    6.15    1.25
  -1   0 -76   23.03    1.90
   2   0 -76   12.49    1.88
  -3   1 -76   15.06    1.42
   0   1 -76   19.65    1.61
   3   1 -76    7.78    1.10
  -5   2 -76    4.84    1.44
  -2   2 -76   15.52    1.32
   1   2 -76    8.59    1.55
  -4   3 -76    6.45    1.07
  -1   3 -76   12.57    1.70
   2   3 -76    5.16    1.31
  -3   4 -76    8.63    1.20
   2  -4 -75    8.07    1.59
   0  -3 -75   11.64    1.92
   3  -3 -75    8.85    1.49
  -2  -2 -75    6.45    1.12
   1  -2 -75   11.98    1.11
   4  -2 -75    8.06    1.05
  -1  -1 -75    9.82    1.72
   2  -1 -75    9.80    1.60
  -3   0 -75    9.66    1.23
   0   0 -75   13.99    1.56
   3   0 -75    7.43    1.01
  -2   1 -75   12.03    1.13
   1   1 -75   12.82    1.79
  -4   2 -75    7.52    1.07
  -1   2 -75   11.75    1.55
   2   2 -75    7.20    1.08
  -3   3 -75    6.57    0.95
   0   3 -75    8.77    1.37
  -2   4 -75    9.13    1.18
   2  -5 -74   -0.58    0.79
   0  -4 -74   -0.18    0.89
   3  -4 -74    0.46    0.75
  -2  -3 -74    0.46    1.20
   1  -3 -74   -0.43    0.51
   4  -3 -74   -0.73    0.64
  -1  -2 -74    0.70    0.48
   2  -2 -74   -0.33    0.48
   5  -2 -74    0.03    0.65
  -3  -1 -74    0.04    0.61
   0  -1 -74   -0.05    0.35
   3  -1 -74    0.48    0.41
  -2   0 -74    0.74    0.46
   1   0 -74    0.32    0.32
   4   0 -74    0.42    0.49
  -4   1 -74    0.37    0.59
  -1   1 -74    0.79    0.53
   2   1 -74   -0.05    0.72
  -3   2 -74    1.02    0.52
   0   2 -74   -0.15    0.34
   3   2 -74    0.44    0.50
  -5   3 -74   -1.14    0.88
  -2   3 -74   -0.08    0.36
   1   3 -74    0.02    0.44
  -4   4 -74    0.52    0.55
  -1   4 -74    0.80    0.68
  -3   5 -74    0.17    1.03
   1  -4 -73   16.12    2.19
   4  -4 -73   14.17    2.09
  -1  -3 -73   14.26    2.18
   2  -3 -73   27.43    1.47
  -3  -2 -73   10.59    1.46
   0  -2 -73   28.88    2.43
   3  -2 -73   25.56    1.53
  -2  -1 -73   27.12    1.85
   1  -1 -73   39.50    1.81
   4  -1 -73   17.50    1.54
  -4   0 -73   15.13    1.73
  -1   0 -73   42.18    1.69
   2   0 -73   28.52    2.44
  -3   1 -73   28.05    1.63
   0   1 -73   39.83    2.40
   3   1 -73   18.77    1.61
  -5   2 -73   10.38    1.44
  -2   2 -73   29.61    1.56
   1   2 -73   29.14    2.26
  -4   3 -73   17.03    1.62
  -1   3 -73   32.60    2.25
   2   3 -73   15.21    2.07
  -3   4 -73   17.59    1.64
  -2   5 -73   12.05    1.44
   2  -4 -72    8.60    1.51
   0  -3 -72    6.49    1.48
   3  -3 -72    8.78    1.43
  -2  -2 -72    7.12    1.12
   1  -2 -72    8.44    0.92
   4  -2 -72    6.69    0.91
  -1  -1 -72    9.19    0.76
   2  -1 -72    7.02    1.30
  -3   0 -72    8.35    1.18
   0   0 -72   11.86    1.41
   3   0 -72    8.31    1.05
  -2   1 -72    9.79    0.96
   1   1 -72    8.18    1.33
  -4   2 -72    7.04    1.07
  -1   2 -72    9.89    0.95
   2   2 -72    6.15    0.99
  -3   3 -72    8.00    1.09
   0   3 -72    7.57    1.22
  -2   4 -72    7.01    1.05
   2  -5 -71    5.46    1.51
   0  -4 -71    6.76    1.50
   3  -4 -71   10.73    1.57
  -2  -3 -71    4.91    1.14
   1  -3 -71   11.61    1.67
   4  -3 -71   10.00    1.70
  -1  -2 -71    8.69    1.11
   2  -2 -71   16.29    1.84
   5  -2 -71    6.57    1.05
  -3  -1 -71    6.77    1.12
   0  -1 -71   17.12    1.31
   3  -1 -71   13.42    1.19
  -2   0 -71   14.72    1.25
   1   0 -71   18.05    1.12
   4   0 -71    5.44    0.93
  -4   1 -71    7.56    1.17
  -1   1 -71   17.29    1.06
   2   1 -71    7.40    0.97
  -3   2 -71   10.12    1.14
   0   2 -71   14.31    1.61
   3   2 -71    6.22    0.89
  -5   3 -71    6.25    1.15
  -2   3 -71   11.95    1.17
   1   3 -71    6.63    0.96
  -4   4 -71    5.17    0.98
  -1   4 -71    6.88    1.30
  -3   5 -71    4.92    1.02
   1  -4 -70    2.84    1.01
   4  -4 -70    4.51    1.27
  -1  -3 -70    4.43    0.97
   2  -3 -70    6.73    0.85
   5  -3 -70    3.76    1.27
  -3  -2 -70    3.52    1.07
   0  -2 -70    8.70    1.47
   3  -2 -70    7.62    0.90
  -2  -1 -70    8.04    1.11
   1  -1 -70   12.19    1.11
   4  -1 -70    6.48    0.93
  -4   0 -70    2.97    0.98
  -1   0 -70   12.45    0.98
   2   0 -70    8.60    1.51
  -3   1 -70    6.28    0.92
   0   1 -70   12.99    1.50
   3   1 -70    5.12    0.84
  -5   2 -70    2.38    0.94
  -2   2 -70    8.08    0.88
   1   2 -70    5.92    1.20
  -4   3 -70    4.26    0.91
  -1   3 -70    7.84    0.91
   2   3 -70    2.74    0.97
  -3   4 -70    2.86    0.79
  -2   5 -70    3.56    0.87
   2  -4 -69    5.99    1.30
   0  -3 -69    6.36    1.32
   3  -3 -69    5.72    1.19
  -2  -2 -69    3.64    0.86
   1  -2 -69    9.06    0.90
   4  -2 -69    4.40    0.76
  -4  -1 -69    1.01    1.19
  -1  -1 -69   10.00    0.79
   2  -1 -69    6.79    1.27
   5  -1 -69    3.45    1.25
  -3   0 -69    6.66    1.07
   0   0 -69   16.36    1.63
   3   0 -69    8.18    1.01
  -2   1 -69   10.51    1.03
   1   1 -69    9.74    1.47
  -4   2 -69    3.00    0.79
  -1   2 -69    9.89    0.94
   2   2 -69    2.97    0.71
  -3   3 -69    5.28    0.84
   0   3 -69    8.16    1.25
  -5   4 -69    3.37    1.23
  -2   4 -69    5.83    0.95
  -1   5 -69    2.45    1.00
   2  -5 -68   11.90    2.01
   0  -4 -68   11.94    2.04
   3  -4 -68   11.26    1.57
  -2  -3 -68    7.71    1.28
   1  -3 -68   25.42    2.00
   4  -3 -68   13.60    1.90
  -1  -2 -68   22.03    1.71
   2  -2 -68   31.49    2.17
   5  -2 -68   10.06    1.26
  -3  -1 -68   13.03    1.59
   0  -1 -68   39.85    1.76
   3  -1 -68   23.54    1.46
  -2   0 -68   31.00    1.64
   1   0 -68   39.65    1.62
   4   0 -68   13.00    1.33
  -4   1 -68   14.54    1.51
  -1   1 -68   39.11    1.59
   2   1 -68   20.88    1.43
  -3   2 -68   19.61    1.57
   0   2 -68   25.91    1.88
   3   2 -68   11.60    1.19
  -5   3 -68   12.87    1.53
  -2   3 -68   22.77    1.50
   1   3 -68   12.88    1.30
  -4   4 -68   13.75    1.58
  -1   4 -68   16.87    1.42
  -3   5 -68   10.20    1.36
   1  -4 -67    1.24    0.81
   4  -4 -67    1.20    0.79
  -1  -3 -67    0.35    0.56
   2  -3 -67    1.97    0.46
   5  -3 -67    0.60    0.82
  -3  -2 -67    0.55    0.75
   0  -2 -67    0.73    0.63
   3  -2 -67    1.44    0.45
  -2  -1 -67    2.15    0.69
   1  -1 -67    1.59    0.48
   4  -1 -67    0.79    0.41
  -4   0 -67    1.00    0.80
  -1   0 -67    3.14    0.53
   2   0 -67    1.41    0.76
  -3   1 -67    1.29    0.54
   0   1 -67    2.01    0.61
   3   1 -67    1.31    0.50
  -5   2 -67   -0.32    0.69
  -2   2 -67    1.71    0.52
   1   2 -67    1.77    0.73
  -4   3 -67    0.78    0.57
  -1   3 -67    1.22    0.46
   2   3 -67    0.41    0.70
  -3   4 -67    0.73    0.51
  -2   5 -67    0.42    0.60
   1  -5 -66    0.30    0.88
  -1  -4 -66    0.74    1.33
   2  -4 -66    1.07    0.72
   0  -3 -66    1.82    0.79
   3  -3 -66    1.80    0.77
  -2  -2 -66    1.44    0.67
   1  -2 -66    3.43    0.58
   4  -2 -66    1.02    0.46
  -4  -1 -66    1.48    0.93
  -1  -1 -66    3.17    0.49
   2  -1 -66    4.44    1.00
   5  -1 -66    0.84    0.78
  -3   0 -66    2.25    0.73
   0   0 -66    5.28    0.93
   3   0 -66    2.01    0.53
  -2   1 -66    2.09    0.53
   1   1 -66    3.79    0.56
   4   1 -66    0.67    0.70
  -4   2 -66    1.21    0.61
  -1   2 -66    2.93    0.49
   2   2 -66    2.21    0.62
  -3   3 -66    1.29    0.60
   0   3 -66    1.40    0.58
  -5   4 -66    0.63    1.08
  -2   4 -66    1.57    0.55
  -4   5 -66    1.91    1.26
  -1   5 -66    1.62    0.90
   2  -5 -65   43.80    3.21
   0  -4 -65   49.15    3.47
   3  -4 -65   55.15    3.19
  -2  -3 -65   47.39    2.60
   1  -3 -65   75.24    3.83
   4  -3 -65   60.73    3.49
  -1  -2 -65   73.79    2.87
   2  -2 -65   88.31    4.09
   5  -2 -65   49.10    2.23
  -3  -1 -65   54.80    2.72
   0  -1 -65  105.74    3.35
   3  -1 -65   76.28    2.65
  -2   0 -65   89.58    3.11
   1   0 -65  107.75    3.20
   4   0 -65   52.28    2.29
  -4   1 -65   56.83    2.69
  -1   1 -65  106.30    3.17
   2   1 -65   76.18    2.76
  -3   2 -65   74.37    2.82
   0   2 -65   90.29    3.97
   3   2 -65   45.81    2.12
  -5   3 -65   43.50    2.44
  -2   3 -65   71.27    2.72
   1   3 -65   62.88    3.25
  -4   4 -65   46.13    2.48
  -1   4 -65   58.17    2.38
  -3   5 -65   44.36    2.38
   1  -4 -64   10.32    1.64
   4  -4 -64    8.08    1.48
  -1  -3 -64    7.38    1.08
   2  -3 -64   15.75    1.16
   5  -3 -64    6.28    1.41
  -3  -2 -64    5.51    1.17
   0  -2 -64   20.99    1.30
   3  -2 -64   16.31    1.18
  -2  -1 -64   15.65    1.48
   1  -1 -64   26.05    1.35
   4  -1 -64   10.02    1.09
  -4   0 -64    5.77    1.05
  -1   0 -64   31.09    1.39
   2   0 -64   19.12    2.07
  -3   1 -64   15.97    1.41
   0   1 -64   26.76    1.79
   3   1 -64    9.59    1.07
  -5   2 -64    8.32    1.34
  -2   2 -64   20.30    1.45
   1   2 -64   15.16    1.99
  -4   3 -64    9.06    1.21
  -1   3 -64   16.77    1.29
   2   3 -64    4.90    1.16
  -3   4 -64    7.64    1.07
   0   4 -64    6.14    1.18
  -2   5 -64    5.67    0.99
   1  -5 -63    1.32    1.04
  -1  -4 -63   -0.70    0.66
   2  -4 -63    1.22    0.68
   5  -4 -63    0.18    0.83
   0  -3 -63    1.33    0.55
   3  -3 -63    2.07    0.75
  -2  -2 -63    0.37    0.53
   1  -2 -63    3.30    0.51
   4  -2 -63    1.27    0.48
  -4  -1 -63    0.46    0.76
  -1  -1 -63    2.92    0.63
   2  -1 -63    2.87    0.80
   5  -1 -63    0.56    0.38
  -3   0 -63    1.11    0.60
   0   0 -63    5.48    0.96
   3   0 -63    2.16    0.53
  -5   1 -63    1.24    1.38
  -2   1 -63    2.21    0.54
   1   1 -63    2.59    0.48
   4   1 -63    0.08    0.41
  -4   2 -63    2.03    0.73
  -1   2 -63    2.58    0.53
   2   2 -63    1.09    0.52
  -3   3 -63    1.55    0.58
   0   3 -63    1.18    0.55
  -5   4 -63    1.02    0.72
  -2   4 -63    0.91    0.52
  -4   5 -63    0.68    0.66
  -1   5 -63    0.38    0.54
   2  -5 -62   89.41    4.82
   0  -4 -62  106.52    3.96
   3  -4 -62  129.84    5.40
  -2  -3 -62   85.59    3.66
   1  -3 -62  184.96    7.40
   4  -3 -62  128.07    5.67
  -1  -2 -62  189.76    5.51
   2  -2 -62  242.44    6.00
   5  -2 -62   91.19    3.24
  -3  -1 -62  123.38    4.43
   0  -1 -62  283.63    5.92
   3  -1 -62  194.74    5.13
  -2   0 -62  237.38    6.47
   1   0 -62  298.74    7.30
   4   0 -62  110.56    3.56
  -4   1 -62  112.49    4.26
  -1   1 -62  297.36    7.31
   2   1 -62  185.25    5.21
  -3   2 -62  182.35    5.43
   0   2 -62  234.96    5.98
   3   2 -62   88.43    3.16
  -5   3 -62   92.20    3.68
  -2   3 -62  182.98    5.31
   1   3 -62  138.02    5.35
  -4   4 -62   95.69    3.88
  -1   4 -62  125.44    3.95
  -3   5 -62   88.05    3.50
   1  -4 -61    7.76    1.42
   4  -4 -61    5.47    1.29
  -1  -3 -61    9.04    1.22
   2  -3 -61   14.16    1.05
   5  -3 -61    5.02    0.83
  -3  -2 -61    4.50    1.02
   0  -2 -61   21.03    1.23
   3  -2 -61   15.35    1.12
  -2  -1 -61   15.01    1.46
   1  -1 -61   21.56    1.20
   4  -1 -61    8.97    1.01
  -4   0 -61    7.29    1.27
  -1   0 -61   27.13    1.29
   2   0 -61   17.61    1.94
  -3   1 -61   14.38    1.33
   0   1 -61   26.75    1.09
   3   1 -61    6.78    0.88
  -5   2 -61    5.00    1.05
  -2   2 -61   18.29    1.37
   1   2 -61   12.08    1.75
  -4   3 -61    7.10    1.07
  -1   3 -61   14.23    1.17
   2   3 -61    4.61    1.09
  -3   4 -61    7.54    1.07
   0   4 -61    6.28    1.19
  -2   5 -61    6.13    1.06
   1  -5 -60    2.98    1.10
  -1  -4 -60    3.57    0.95
   2  -4 -60    5.55    1.13
   5  -4 -60    1.14    1.00
   0  -3 -60    6.86    0.97
   3  -3 -60   11.18    1.45
  -2  -2 -60    6.25    1.01
   1  -2 -60   14.22    1.01
   4  -2 -60    6.49    0.83
  -4  -1 -60    3.18    1.04
  -1  -1 -60   12.54    1.12
   2  -1 -60   13.49    1.56
   5  -1 -60    4.61    0.67
  -3   0 -60    7.96    1.16
   0   0 -60   20.84    0.93
   3   0 -60   10.09    1.00
  -5   1 -60    1.89    1.57
  -2   1 -60   11.35    1.06
   1   1 -60   14.31    0.95
   4   1 -60    3.04    0.72
  -4   2 -60    6.68    1.03
  -1   2 -60   13.63    1.04
   2   2 -60    7.12    0.91
  -3   3 -60    7.06    0.97
   0   3 -60    9.39    0.91
  -5   4 -60    3.74    0.98
  -2   4 -60    7.93    1.00
  -4   5 -60    5.55    1.03
  -1   5 -60    4.12    0.87
   2  -5 -59    4.56    1.32
   0  -4 -59    7.70    1.16
   3  -4 -59   10.48    1.42
  -2  -3 -59    7.72    1.26
   1  -3 -59   14.20    1.66
   4  -3 -59    8.45    1.46
  -1  -2 -59   14.60    1.32
   2  -2 -59   20.93    1.03
   5  -2 -59    7.16    0.97
  -3  -1 -59    8.43    1.23
   0  -1 -59   24.33    0.97
   3  -1 -59   15.56    1.17
  -2   0 -59   22.56    1.43
   1   0 -59   25.82    1.23
   4   0 -59    6.89    0.90
  -4   1 -59    7.61    1.19
  -1   1 -59   24.72    1.21
   2   1 -59   15.94    1.24
  -3   2 -59   16.76    1.41
   0   2 -59   19.46    1.01
   3   2 -59    6.55    0.91
  -5   3 -59    4.80    1.02
  -2   3 -59   17.77    1.35
   1   3 -59    9.73    1.33
  -4   4 -59    8.00    1.23
  -1   4 -59    9.09    1.01
  -3   5 -59    5.17    0.99
   1  -4 -58    5.11    1.12
   4  -4 -58    6.94    1.33
  -1  -3 -58    3.38    0.78
   2  -3 -58    5.72    0.68
   5  -3 -58    3.50    0.73
  -3  -2 -58    4.28    1.03
   0  -2 -58    5.45    0.74
   3  -2 -58    5.98    0.70
  -2  -1 -58    5.33    0.90
   1  -1 -58    7.99    0.78
   4  -1 -58    5.93    0.79
  -4   0 -58    5.76    1.07
  -1   0 -58    7.89    0.77
   2   0 -58    7.46    1.18
  -3   1 -58    5.87    0.91
   0   1 -58    7.88    0.68
   3   1 -58    4.31    0.73
  -5   2 -58    2.03    1.33
  -2   2 -58    5.36    0.79
   1   2 -58    5.94    1.30
  -4   3 -58    3.48    0.76
  -1   3 -58    6.06    0.77
   2   3 -58    4.10    1.03
  -3   4 -58    5.97    0.90
   0   4 -58    5.57    1.35
  -2   5 -58    5.68    0.92
   1  -5 -57    1.17    0.88
   4  -5 -57    1.35    0.88
  -1  -4 -57    0.59    0.75
   2  -4 -57    2.22    0.76
   5  -4 -57    1.11    0.91
   0  -3 -57    2.05    0.59
   3  -3 -57    3.44    0.87
  -2  -2 -57    1.37    0.55
   1  -2 -57    5.21    0.61
   4  -2 -57    2.86    0.58
  -4  -1 -57    1.41    0.79
  -1  -1 -57    4.62    0.73
   2  -1 -57    6.54    1.05
   5  -1 -57    1.43    0.42
  -3   0 -57    3.01    0.81
   0   0 -57    8.13    0.58
   3   0 -57    3.73    0.62
  -5   1 -57    0.41    1.27
  -2   1 -57    5.73    0.77
   1   1 -57    6.34    0.70
   4   1 -57    0.92    0.51
  -4   2 -57    2.15    0.71
  -1   2 -57    6.01    0.67
   2   2 -57    2.07    0.54
  -3   3 -57    3.50    0.74
   0   3 -57    4.42    0.62
  -5   4 -57    0.78    0.74
  -2   4 -57    3.09    0.62
  -4   5 -57    0.95    0.71
  -1   5 -57    2.40    1.10
   2  -5 -56    0.76    0.75
   0  -4 -56    0.37    0.50
   3  -4 -56    1.42    0.67
  -2  -3 -56    1.55    0.70
   1  -3 -56    0.73    0.51
   4  -3 -56    0.93    0.39
  -1  -2 -56    0.95    0.38
   2  -2 -56    1.72    0.36
   5  -2 -56    0.15    0.39
  -3  -1 -56    0.29    0.52
   0  -1 -56    2.11    0.36
   3  -1 -56    2.13    0.45
  -2   0 -56    1.48    0.49
   1   0 -56    2.20    0.44
   4   0 -56    0.66    0.42
  -4   1 -56    0.83    0.63
  -1   1 -56    2.39    0.45
   2   1 -56    1.02    0.35
  -3   2 -56    1.27    0.52
   0   2 -56    2.24    0.42
   3   2 -56    0.74    0.41
  -5   3 -56    0.48    0.65
  -2   3 -56    1.52    0.47
   1   3 -56    2.07    0.68
  -4   4 -56    0.21    0.53
  -1   4 -56    0.08    0.35
  -3   5 -56   -0.17    0.49
   1  -4 -55    6.50    0.98
   4  -4 -55    9.29    1.47
  -1  -3 -55    8.71    1.15
   2  -3 -55   10.57    0.86
   5  -3 -55    7.06    0.93
  -3  -2 -55    7.44    1.22
   0  -2 -55   11.52    0.69
   3  -2 -55    9.84    0.84
  -2  -1 -55   11.14    1.23
   1  -1 -55   12.92    0.96
   4  -1 -55    8.97    0.96
  -4   0 -55    7.68    1.25
  -1   0 -55   14.04    1.05
   2   0 -55   13.59    1.58
  -3   1 -55   10.65    1.18
   0   1 -55   12.13    0.76
   3   1 -55    8.77    0.92
  -5   2 -55    5.26    1.61
  -2   2 -55   11.66    1.05
   1   2 -55   10.91    0.94
  -4   3 -55    9.59    1.22
  -1   3 -55   11.43    0.99
   2   3 -55    7.30    1.28
  -3   4 -55    6.87    0.98
   0   4 -55    8.22    1.42
  -2   5 -55    6.47    0.98
   1  -5 -54    0.12    0.71
   4  -5 -54    1.69    0.87
  -1  -4 -54    0.47    0.72
   2  -4 -54    1.66    0.67
   5  -4 -54    1.20    0.82
   0  -3 -54    0.86    0.45
   3  -3 -54    2.63    0.80
  -2  -2 -54    1.06    0.61
   1  -2 -54    3.94    0.51
   4  -2 -54    1.71    0.45
  -4  -1 -54    3.09    1.72
  -1  -1 -54    4.49    0.50
   2  -1 -54    3.17    0.73
   5  -1 -54    0.63    0.37
  -3   0 -54    1.75    0.65
   0   0 -54    7.79    0.55
   3   0 -54    1.45    0.42
  -5   1 -54    0.43    1.15
  -2   1 -54    4.05    0.65
   1   1 -54    3.72    0.53
   4   1 -54    0.22    0.38
  -4   2 -54    1.71    0.66
  -1   2 -54    3.43    0.53
   2   2 -54    0.99    0.40
  -3   3 -54    1.15    0.50
   0   3 -54    1.64    0.49
  -5   4 -54    0.66    0.77
  -2   4 -54    2.23    0.57
   1   4 -54    1.72    1.26
  -4   5 -54    0.96    0.65
  -1   5 -54   -0.24    0.76
   2  -5 -53    1.43    0.89
   0  -4 -53    2.94    0.77
   3  -4 -53    3.55    0.88
  -2  -3 -53    1.91    0.77
   1  -3 -53    3.57    0.62
   4  -3 -53    3.00    0.52
  -1  -2 -53    3.68    0.55
   2  -2 -53    6.00    0.56
   5  -2 -53    2.86    0.66
  -3  -1 -53    1.07    0.62
   0  -1 -53    7.93    0.60
   3  -1 -53    4.31    0.58
  -2   0 -53    6.20    0.86
   1   0 -53    8.34    0.74
   4   0 -53    2.91    0.63
  -4   1 -53    1.53    0.73
  -1   1 -53    8.62    0.80
   2   1 -53    4.18    0.61
  -3   2 -53    6.23    0.87
   0   2 -53    5.87    0.61
   3   2 -53    1.55    0.49
  -5   3 -53    1.16    0.74
  -2   3 -53    4.78    0.67
   1   3 -53    2.75    0.50
  -4   4 -53    1.34    0.64
  -1   4 -53    3.29    1.02
  -3   5 -53    1.12    0.59
   0   5 -53   -0.19    0.89
   0  -5 -52    1.24    1.61
   3  -5 -52    3.51    1.00
   1  -4 -52    3.46    0.77
   4  -4 -52    1.34    0.71
  -1  -3 -52    3.39    0.76
   2  -3 -52    5.85    0.64
   5  -3 -52    1.36    0.51
  -3  -2 -52    1.83    0.78
   0  -2 -52    7.94    0.57
   3  -2 -52    6.16    0.65
  -2  -1 -52    6.21    0.66
   1  -1 -52   10.02    0.81
   4  -1 -52    2.48    0.50
  -4   0 -52    3.17    0.84
  -1   0 -52   11.38    0.93
   2   0 -52    7.35    1.08
  -3   1 -52    5.44    0.89
   0   1 -52   11.52    0.71
   3   1 -52    4.46    0.64
  -5   2 -52    2.02    1.34
  -2   2 -52    7.38    0.79
   1   2 -52    6.57    0.71
  -4   3 -52    2.02    0.71
  -1   3 -52    6.11    0.61
   2   3 -52    2.16    0.75
  -3   4 -52    3.21    0.72
   0   4 -52    2.47    0.73
  -5   5 -52    1.43    1.12
  -2   5 -52    2.13    1.09
   1  -5 -51   12.53    1.50
   4  -5 -51   14.22    1.88
  -1  -4 -51   13.08    1.55
   2  -4 -51   30.30    2.06
   5  -4 -51   14.55    2.00
   0  -3 -51   30.45    1.64
   3  -3 -51   34.68    2.13
  -2  -2 -51   26.85    1.35
   1  -2 -51   51.74    1.46
   4  -2 -51   26.42    1.34
  -4  -1 -51   14.09    2.82
  -1  -1 -51   52.50    1.60
   2  -1 -51   53.82    2.68
   5  -1 -51   17.02    1.16
  -3   0 -51   31.29    2.05
   0   0 -51   82.89    2.32
   3   0 -51   32.36    1.44
  -5   1 -51   15.95    2.84
  -2   1 -51   55.54    2.11
   1   1 -51   52.00    1.84
   4   1 -51   12.03    1.19
  -4   2 -51   29.39    1.90
  -1   2 -51   53.08    1.51
   2   2 -51   27.17    1.37
  -3   3 -51   29.83    1.64
   0   3 -51   34.25    1.60
  -5   4 -51   15.68    1.71
  -2   4 -51   28.29    1.56
   1   4 -51   16.57    1.63
  -4   5 -51   14.80    1.52
  -1   5 -51   14.48    2.04
   2  -5 -50    0.16    0.65
   5  -5 -50    0.08    0.78
   0  -4 -50    0.08    0.49
   3  -4 -50   -0.37    0.42
  -2  -3 -50   -0.23    0.40
   1  -3 -50    0.38    0.34
   4  -3 -50   -0.34    0.25
  -1  -2 -50   -0.52    0.22
   2  -2 -50    0.13    0.14
   5  -2 -50    0.41    0.38
  -3  -1 -50   -0.07    0.44
   0  -1 -50    0.00    0.18
   3  -1 -50   -0.07    0.18
  -2   0 -50    0.34    0.18
   1   0 -50   -0.12    0.21
   4   0 -50    0.08    0.30
  -4   1 -50    0.33    0.59
  -1   1 -50    0.22    0.26
   2   1 -50   -0.29    0.18
  -3   2 -50    0.33    0.43
   0   2 -50    0.31    0.22
   3   2 -50    0.12    0.33
  -5   3 -50    0.25    0.66
  -2   3 -50    0.04    0.28
   1   3 -50   -0.20    0.25
  -4   4 -50    0.15    0.49
  -1   4 -50   -0.15    0.41
  -3   5 -50    0.17    0.46
   0   5 -50    1.15    1.00
   0  -5 -49    0.35    1.50
   3  -5 -49    3.66    1.02
   1  -4 -49    3.55    0.71
   4  -4 -49    5.39    1.13
  -1  -3 -49    4.84    0.69
   2  -3 -49    7.56    0.69
   5  -3 -49    3.78    0.67
  -3  -2 -49    2.55    0.79
   0  -2 -49   10.57    0.60
   3  -2 -49    8.24    0.73
  -2  -1 -49    8.20    0.73
   1  -1 -49   16.56    0.86
   4  -1 -49    5.41    0.71
  -4   0 -49    3.88    0.90
  -1   0 -49   14.73    0.59
   2   0 -49    9.86    0.84
  -3   1 -49    8.56    1.05
   0   1 -49   15.75    0.76
   3   1 -49    3.57    0.56
  -5   2 -49    3.27    1.46
  -2   2 -49   10.88    0.72
   1   2 -49    6.81    1.26
  -4   3 -49    5.32    0.88
  -1   3 -49    8.49    0.70
   2   3 -49    2.55    0.85
  -3   4 -49    4.52    0.80
   0   4 -49    2.10    0.67
  -5   5 -49    1.68    1.08
  -2   5 -49    3.00    1.27
   1  -5 -48  119.21    4.25
   4  -5 -48  115.20    5.22
  -1  -4 -48  114.95    4.28
   2  -4 -48  190.87    7.40
   5  -4 -48  124.69    5.49
   0  -3 -48  214.17    6.19
   3  -3 -48  234.11    8.54
  -2  -2 -48  188.16    4.60
   1  -2 -48  337.15    6.83
   4  -2 -48  188.78    5.06
  -4  -1 -48  109.77    6.81
  -1  -1 -48  348.70    8.68
   2  -1 -48  363.46   12.01
   5  -1 -48  115.04    2.99
  -3   0 -48  231.44    5.38
   0   0 -48  471.39   11.07
   3   0 -48  229.05    5.77
  -5   1 -48  109.28    6.61
  -2   1 -48  354.70    7.08
   1   1 -48  336.82    8.45
   4   1 -48  112.47    3.64
  -4   2 -48  189.22    5.76
  -1   2 -48  357.35    7.00
   2   2 -48  192.22    6.97
  -3   3 -48  226.90    6.28
   0   3 -48  234.83    6.33
  -5   4 -48  108.42    4.20
  -2   4 -48  191.60    4.54
   1   4 -48  117.53    4.24
  -4   5 -48  120.62    4.23
  -1   5 -48  112.97    5.69
   2  -5 -47    0.07    0.65
   5  -5 -47    0.62    0.84
   0  -4 -47    1.53    0.59
   3  -4 -47    3.56    0.82
  -2  -3 -47    2.56    0.63
   1  -3 -47    3.83    0.63
   4  -3 -47    2.16    0.45
  -1  -2 -47    4.58    0.57
   2  -2 -47    6.56    0.44
   5  -2 -47    2.47    0.59
  -3  -1 -47    3.32    0.60
   0  -1 -47    7.69    0.55
   3  -1 -47    4.79    0.58
  -2   0 -47    5.39    0.54
   1   0 -47    8.97    0.74
   4   0 -47    2.51    0.42
  -4   1 -47    1.78    0.68
  -1   1 -47    8.50    0.75
   2   1 -47    4.36    0.58
  -3   2 -47    4.13    0.55
   0   2 -47    5.48    0.56
   3   2 -47    2.57    0.55
  -5   3 -47    0.52    0.72
  -2   3 -47    5.21    0.58
   1   3 -47    3.52    0.53
  -4   4 -47    3.07    0.77
  -1   4 -47    2.30    0.61
  -3   5 -47    1.57    0.61
   0   5 -47    2.52    0.86
   0  -5 -46    0.63    0.79
   3  -5 -46    0.26    0.52
   1  -4 -46    0.63    0.40
   4  -4 -46    0.90    0.58
  -1  -3 -46    0.16    0.37
   2  -3 -46   -0.08    0.20
   5  -3 -46   -0.08    0.33
  -3  -2 -46   -0.23    0.41
   0  -2 -46    0.06    0.16
   3  -2 -46    0.07    0.21
  -2  -1 -46    0.07    0.28
   1  -1 -46    0.23    0.21
   4  -1 -46   -0.17    0.25
  -4   0 -46    0.56    0.59
  -1   0 -46    0.39    0.14
   2   0 -46    0.21    0.20
   5   0 -46    0.05    0.42
  -3   1 -46   -0.03    0.25
   0   1 -46    0.26    0.19
   3   1 -46    0.13    0.25
  -5   2 -46   -0.29    0.92
  -2   2 -46    0.11    0.20
   1   2 -46    0.29    0.48
  -4   3 -46    0.35    0.51
  -1   3 -46    0.11    0.32
   2   3 -46   -0.06    0.51
  -3   4 -46    0.49    0.41
   0   4 -46   -0.12    0.84
  -5   5 -46    0.39    0.76
  -2   5 -46   -0.57    0.74
   1  -5 -45   11.58    1.41
   4  -5 -45    9.65    1.48
  -1  -4 -45   10.03    1.33
   2  -4 -45   18.36    1.29
   5  -4 -45   10.92    1.65
   0  -3 -45   20.12    1.33
   3  -3 -45   20.40    1.56
  -2  -2 -45   17.58    1.20
   1  -2 -45   33.87    1.06
   4  -2 -45   18.77    1.08
  -4  -1 -45    9.80    2.52
  -1  -1 -45   33.18    1.19
   2  -1 -45   36.62    0.98
   5  -1 -45   12.16    0.92
  -3   0 -45   21.16    1.20
   0   0 -45   48.14    1.54
   3   0 -45   20.94    1.08
  -5   1 -45    8.55    2.22
  -2   1 -45   35.45    1.18
   1   1 -45   36.19    1.35
   4   1 -45    9.68    1.01
  -4   2 -45   19.23    1.68
  -1   2 -45   36.08    1.15
   2   2 -45   17.83    1.01
  -3   3 -45   21.31    1.12
   0   3 -45   22.69    1.31
  -5   4 -45   11.26    1.43
  -2   4 -45   20.60    1.64
   1   4 -45   10.64    1.63
  -4   5 -45   10.87    1.37
  -1   5 -45    8.66    1.26
   2  -5 -44    1.31    0.61
   5  -5 -44    2.48    1.03
   0  -4 -44    1.68    0.61
   3  -4 -44    3.01    0.52
  -2  -3 -44    2.15    0.59
   1  -3 -44    4.89    0.46
   4  -3 -44    4.44    0.57
  -1  -2 -44    4.54    0.55
   2  -2 -44    7.67    0.47
   5  -2 -44    2.19    0.37
  -3  -1 -44    2.91    0.58
   0  -1 -44    8.73    0.58
   3  -1 -44    5.28    0.60
  -5   0 -44    4.05    1.97
  -2   0 -44    5.80    0.56
   1   0 -44    9.34    0.74
   4   0 -44    3.35    0.49
  -4   1 -44    3.02    0.59
  -1   1 -44   10.44    0.48
   2   1 -44    5.58    0.63
  -3   2 -44    5.30    0.59
   0   2 -44    7.28    0.89
   3   2 -44    2.82    0.56
  -5   3 -44    1.80    0.84
  -2   3 -44    4.84    0.58
   1   3 -44    3.27    0.50
  -4   4 -44    2.80    0.70
  -1   4 -44    3.63    0.76
  -3   5 -44    1.38    0.59
   0   5 -44    1.10    0.76
   0  -5 -43    1.17    0.75
   3  -5 -43    1.33    0.70
   1  -4 -43    1.40    0.51
   4  -4 -43    1.26    0.66
  -1  -3 -43    2.69    0.53
   2  -3 -43    3.48    0.45
   5  -3 -43    2.36    0.54
  -3  -2 -43    1.35    0.52
   0  -2 -43    4.81    0.40
   3  -2 -43    3.38    0.46
  -2  -1 -43    2.68    0.44
   1  -1 -43    6.56    0.55
   4  -1 -43    2.77    0.50
  -4   0 -43    1.63    0.55
  -1   0 -43    6.45    0.39
   2   0 -43    5.49    0.58
   5   0 -43   -0.04    0.37
  -3   1 -43    3.48    0.50
   0   1 -43    6.66    0.52
   3   1 -43    2.17    0.36
  -5   2 -43    0.48    1.05
  -2   2 -43    5.36    0.51
   1   2 -43    3.11    0.91
  -4   3 -43    1.97    0.51
  -1   3 -43    3.38    0.60
   2   3 -43    1.19    0.64
  -3   4 -43    1.43    0.47
   0   4 -43    0.53    0.93
  -5   5 -43    0.30    0.78
  -2   5 -43    1.62    0.65
   3  -6 -42    0.43    0.76
   1  -5 -42   -0.43    0.56
   4  -5 -42    1.08    0.75
  -1  -4 -42   -0.15    0.51
   2  -4 -42    0.10    0.33
   5  -4 -42    0.97    0.73
  -3  -3 -42    0.70    1.16
   0  -3 -42    0.56    0.35
   3  -3 -42    0.26    0.22
   6  -3 -42   -0.07    0.68
  -2  -2 -42    0.77    0.36
   1  -2 -42   -0.09    0.14
   4  -2 -42    0.06    0.26
  -4  -1 -42   -0.13    0.67
  -1  -1 -42    0.13    0.16
   2  -1 -42    0.05    0.10
   5  -1 -42    0.43    0.30
  -3   0 -42   -0.06    0.28
   0   0 -42    0.25    0.20
   3   0 -42    0.09    0.22
  -5   1 -42    0.64    1.26
  -2   1 -42    0.01    0.19
   1   1 -42    0.18    0.20
   4   1 -42    0.47    0.35
  -4   2 -42    0.39    0.40
  -1   2 -42    0.16    0.12
   2   2 -42    0.35    0.26
  -3   3 -42    0.64    0.34
   0   3 -42   -0.12    0.23
  -5   4 -42   -0.37    0.62
  -2   4 -42    0.12    0.45
   1   4 -42    0.43    0.65
  -4   5 -42    0.10    0.50
  -1   5 -42    0.10    0.60
   2  -5 -41   16.81    1.60
   5  -5 -41   13.16    1.89
   0  -4 -41   20.16    1.61
   3  -4 -41   25.38    1.23
  -2  -3 -41   18.24    1.36
   1  -3 -41   38.23    1.21
   4  -3 -41   27.92    1.24
  -1  -2 -41   36.77    1.39
   2  -2 -41   51.55    1.29
   5  -2 -41   18.42    1.01
  -3  -1 -41   27.41    1.34
   0  -1 -41   66.96    1.70
   3  -1 -41   40.11    1.47
  -5   0 -41   11.62    2.76
  -2   0 -41   48.82    1.59
   1   0 -41   72.69    2.12
   4   0 -41   21.39    0.97
  -4   1 -41   23.05    1.37
  -1   1 -41   70.54    1.69
   2   1 -41   40.93    1.49
  -3   2 -41   39.42    1.43
   3   2 -41   18.68    1.35
  -5   3 -41   20.67    2.90
  -2   3 -41   42.24    1.45
   1   3 -41   25.64    1.17
  -4   4 -41   21.98    1.46
  -1   4 -41   29.21    1.75
  -3   5 -41   19.92    1.43
   0   5 -41   12.28    2.57
   0  -5 -40   -0.19    0.55
   3  -5 -40    0.61    0.61
   1  -4 -40    0.20    0.37
   4  -4 -40    0.15    0.56
  -1  -3 -40    0.44    0.34
   2  -3 -40    0.27    0.23
   5  -3 -40    0.98    0.43
  -3  -2 -40    0.03    0.38
   0  -2 -40    1.48    0.24
   3  -2 -40    1.33    0.32
  -2  -1 -40    1.17    0.34
   1  -1 -40    2.31    0.31
   4  -1 -40    0.74    0.33
  -4   0 -40    0.32    0.39
  -1   0 -40    2.00    0.25
   2   0 -40    1.23    0.29
   5   0 -40    0.12    0.35
  -3   1 -40    0.96    0.34
   0   1 -40    2.49    0.32
   3   1 -40    0.28    0.20
  -5   2 -40   -0.57    0.89
  -2   2 -40    1.73    0.33
   1   2 -40    1.37    0.66
  -4   3 -40    1.14    0.39
  -1   3 -40    1.10    0.40
   2   3 -40    1.09    0.61
  -3   4 -40    0.50    0.34
   0   4 -40    0.76    0.46
  -5   5 -40   -0.61    0.64
  -2   5 -40    0.32    0.58
   3  -6 -39    2.59    1.10
   1  -5 -39    5.03    0.99
   4  -5 -39    5.18    1.12
  -1  -4 -39    4.72    0.93
   2  -4 -39    9.33    1.02
   5  -4 -39    4.00    1.06
  -3  -3 -39    2.31    1.54
   0  -3 -39   12.62    1.07
   3  -3 -39   12.21    0.73
   6  -3 -39    0.71    0.72
  -2  -2 -39    9.80    0.88
   1  -2 -39   24.38    0.84
   4  -2 -39    9.30    0.84
  -4  -1 -39    5.32    1.10
  -1  -1 -39   27.25    1.00
   2  -1 -39   25.36    1.01
   5  -1 -39    5.04    0.59
  -3   0 -39   12.42    0.96
   0   0 -39   43.06    1.39
   3   0 -39   13.51    0.84
  -5   1 -39    1.56    1.35
  -2   1 -39   28.29    1.02
   1   1 -39   25.95    1.05
   4   1 -39    5.46    0.75
  -4   2 -39    9.16    0.90
  -1   2 -39   26.20    0.73
   2   2 -39   11.14    0.88
  -3   3 -39   13.05    0.95
   0   3 -39   12.47    0.72
   3   3 -39    2.95    0.99
  -5   4 -39    4.73    1.00
  -2   4 -39   11.54    1.22
   1   4 -39    4.05    1.03
  -4   5 -39    4.06    0.91
  -1   5 -39    4.10    0.92
   2  -5 -38    0.39    0.50
   5  -5 -38    1.52    0.87
   0  -4 -38    0.61    0.47
   3  -4 -38    0.17    0.28
  -2  -3 -38    0.40    0.40
   1  -3 -38    0.01    0.16
   4  -3 -38    0.13    0.23
  -1  -2 -38    0.26    0.26
   2  -2 -38    0.19    0.13
   5  -2 -38    0.28    0.26
  -3  -1 -38   -0.22    0.31
   0  -1 -38    0.37    0.17
   3  -1 -38   -0.10    0.15
  -5   0 -38    0.72    1.39
  -2   0 -38    0.33    0.22
   1   0 -38    0.80    0.25
   4   0 -38    0.55    0.26
  -4   1 -38   -0.11    0.33
  -1   1 -38    0.47    0.17
   2   1 -38   -0.07    0.16
  -3   2 -38    0.22    0.25
   3   2 -38    0.09    0.30
  -5   3 -38    0.26    0.62
  -2   3 -38    0.22    0.25
   1   3 -38   -0.19    0.32
  -4   4 -38    0.26    0.35
  -1   4 -38    0.44    0.47
  -3   5 -38    0.45    0.65
   0   5 -38    1.56    1.41
   2  -6 -37    3.41    2.18
   0  -5 -37    2.40    0.85
   3  -5 -37    3.80    0.94
  -2  -4 -37    1.40    0.90
   1  -4 -37    7.16    0.93
   4  -4 -37    6.34    1.17
  -1  -3 -37    8.23    0.81
   2  -3 -37   15.18    0.80
   5  -3 -37    4.40    0.71
  -3  -2 -37    5.32    0.75
   0  -2 -37   18.05    0.66
   3  -2 -37   13.05    0.76
   6  -2 -37    0.97    0.78
  -2  -1 -37   15.22    0.91
   1  -1 -37   27.44    0.99
   4  -1 -37    8.65    0.84
  -4   0 -37    7.82    0.87
  -1   0 -37   28.21    0.90
   2   0 -37   18.96    0.88
   5   0 -37    2.54    0.63
  -3   1 -37   14.07    0.91
   0   1 -37   27.79    0.98
   3   1 -37    7.74    0.62
  -5   2 -37    7.22    1.15
  -2   2 -37   18.66    0.88
   1   2 -37   14.58    0.88
   4   2 -37    2.37    0.91
  -4   3 -37    7.86    0.85
  -1   3 -37   14.43    0.75
   2   3 -37    6.83    0.88
  -3   4 -37    7.68    0.83
   0   4 -37    6.63    0.96
  -5   5 -37    4.22    1.03
  -2   5 -37    6.70    1.10
   3  -6 -36    3.35    1.15
   1  -5 -36    6.36    1.09
   4  -5 -36    7.57    1.31
  -1  -4 -36    8.10    1.13
   2  -4 -36   14.09    1.24
   5  -4 -36    8.12    1.37
  -3  -3 -36    3.66    1.66
   0  -3 -36   19.90    1.26
   3  -3 -36   19.77    0.88
   6  -3 -36    4.68    0.84
  -2  -2 -36   15.58    1.08
   1  -2 -36   35.60    1.03
   4  -2 -36   16.16    1.02
  -4  -1 -36    6.19    1.17
  -1  -1 -36   35.67    1.17
   2  -1 -36   35.76    1.24
   5  -1 -36   10.21    0.81
  -3   0 -36   18.37    1.10
   0   0 -36   57.58    1.70
   3   0 -36   19.32    0.97
  -5   1 -36    5.88    1.13
  -2   1 -36   36.82    1.24
   1   1 -36   35.62    2.11
   4   1 -36    6.30    0.83
  -4   2 -36   15.35    1.17
  -1   2 -36   36.33    0.91
   2   2 -36   15.30    0.88
  -3   3 -36   18.85    1.08
   0   3 -36   18.73    0.91
   3   3 -36    7.42    1.39
  -5   4 -36    9.85    1.06
  -2   4 -36   16.82    1.47
   1   4 -36    7.47    1.29
  -4   5 -36    7.59    0.95
  -1   5 -36    6.88    1.20
  -3   6 -36    2.64    1.47
   2  -5 -35    2.88    0.74
   5  -5 -35    2.12    0.92
   0  -4 -35    1.43    0.57
   3  -4 -35    4.72    0.59
  -2  -3 -35    2.22    0.58
   1  -3 -35   10.34    0.58
   4  -3 -35    5.33    0.61
  -4  -2 -35    3.34    1.45
  -1  -2 -35    8.51    0.71
   2  -2 -35   14.16    0.52
   5  -2 -35    3.15    0.47
  -3  -1 -35    4.75    0.63
   0  -1 -35   21.92    0.72
   3  -1 -35   11.56    0.82
  -5   0 -35    2.76    1.02
  -2   0 -35   13.56    0.79
   1   0 -35   21.38    0.89
   4   0 -35    4.28    0.51
  -4   1 -35    4.76    0.67
  -1   1 -35   21.92    0.74
   2   1 -35    9.88    0.74
  -3   2 -35    9.51    0.79
   3   2 -35    3.58    0.61
  -5   3 -35    2.68    0.83
  -2   3 -35   14.39    1.21
   1   3 -35    4.72    0.60
  -4   4 -35    4.95    0.73
  -1   4 -35    4.99    0.85
  -3   5 -35    2.78    0.91
   0   5 -35    0.93    1.44
  -2   6 -35    0.38    1.39
   2  -6 -34   56.34    5.65
   0  -5 -34   71.76    3.30
   3  -5 -34  105.82    4.84
  -2  -4 -34   66.23    3.05
   1  -4 -34  145.61    4.61
   4  -4 -34  122.93    5.22
  -1  -3 -34  157.17    3.92
   2  -3 -34  239.15    5.94
   5  -3 -34  103.51    3.30
  -3  -2 -34  107.29    3.11
   0  -2 -34  312.92    6.18
   3  -2 -34  242.82    5.87
   6  -2 -34   68.34    3.71
  -2  -1 -34  244.65    5.28
   1  -1 -34  450.91    9.89
   4  -1 -34  151.17    4.20
  -4   0 -34  128.28    4.49
  -1   0 -34  419.35   10.24
   2   0 -34  321.17    7.44
   5   0 -34   79.74    2.85
  -3   1 -34  242.53    5.44
   0   1 -34  444.64    9.93
   3   1 -34  153.58    4.22
  -5   2 -34  106.02    4.10
  -2   2 -34  324.84    6.54
   1   2 -34  242.80    5.97
   4   2 -34   62.66    3.51
  -4   3 -34  159.94    4.05
  -1   3 -34  253.14    5.19
   2   3 -34  109.83    3.51
  -3   4 -34  152.93    3.95
   0   4 -34  126.09    4.20
  -5   5 -34   76.96    3.48
  -2   5 -34  101.55    4.01
  -4   6 -34   65.64    5.23
   3  -6 -33    0.17    0.67
   1  -5 -33    0.75    0.63
   4  -5 -33    1.36    0.66
  -1  -4 -33    1.91    0.67
   2  -4 -33    2.38    0.39
   5  -4 -33    2.53    0.83
  -3  -3 -33    0.18    0.92
   0  -3 -33    3.00    0.54
   3  -3 -33    3.63    0.35
   6  -3 -33    1.13    0.57
  -2  -2 -33    2.61    0.45
   1  -2 -33    6.22    0.41
   4  -2 -33    3.09    0.48
  -4  -1 -33    1.51    0.80
  -1  -1 -33    5.77    0.49
   2  -1 -33    5.84    0.50
   5  -1 -33    1.25    0.38
  -3   0 -33    2.42    0.44
   0   0 -33    8.96    0.55
   3   0 -33    2.83    0.42
  -5   1 -33    0.41    0.67
  -2   1 -33    5.53    0.52
   1   1 -33    6.46    0.95
   4   1 -33    1.46    0.45
  -4   2 -33    3.02    0.58
  -1   2 -33    5.84    0.37
   2   2 -33    3.12    0.47
  -6   3 -33    1.10    1.54
  -3   3 -33    4.12    0.57
   0   3 -33    3.37    0.42
   3   3 -33    1.25    0.58
  -5   4 -33    2.41    0.69
  -2   4 -33    2.59    0.66
   1   4 -33    0.49    0.65
  -4   5 -33    1.02    0.55
  -1   5 -33    1.96    0.74
  -3   6 -33    1.44    1.47
   2  -5 -32    2.93    0.75
   5  -5 -32    1.46    0.78
   0  -4 -32    2.32    0.61
   3  -4 -32    2.90    0.48
  -2  -3 -32    1.44    0.53
   1  -3 -32    5.71    0.45
   4  -3 -32    3.79    0.52
  -4  -2 -32    0.58    1.18
  -1  -2 -32    5.55    0.56
   2  -2 -32    7.37    0.37
   5  -2 -32    2.41    0.41
  -3  -1 -32    3.58    0.54
   0  -1 -32   11.05    0.47
   3  -1 -32    6.44    0.61
  -5   0 -32    1.72    0.90
  -2   0 -32    7.60    0.61
   1   0 -32   12.00    0.59
   4   0 -32    2.81    0.41
  -4   1 -32    3.41    0.59
  -1   1 -32   10.97    0.53
   2   1 -32    5.76    0.56
  -3   2 -32    6.13    0.65
   3   2 -32    2.41    0.51
  -5   3 -32    0.82    0.72
  -2   3 -32    5.44    0.80
   1   3 -32    3.17    0.50
  -4   4 -32    2.74    0.59
  -1   4 -32    4.53    0.80
   2   4 -32    1.37    1.06
  -3   5 -32    2.18    0.78
   0   5 -32    2.86    1.70
  -2   6 -32    0.66    1.38
   2  -6 -31   38.13    4.74
   0  -5 -31   59.72    2.84
   3  -5 -31   75.24    3.79
  -2  -4 -31   49.57    2.55
   1  -4 -31  111.42    3.58
   4  -4 -31   86.54    4.06
  -1  -3 -31  107.46    2.98
   2  -3 -31  160.14    4.13
   5  -3 -31   76.45    2.60
  -3  -2 -31   78.23    2.47
   0  -2 -31  201.90    5.04
   3  -2 -31  164.18    4.10
   6  -2 -31   51.57    3.13
  -2  -1 -31  161.07    3.74
   1  -1 -31  289.48    6.57
   4  -1 -31  108.10    2.58
  -4   0 -31   89.30    3.57
  -1   0 -31  280.00    5.66
   2   0 -31  208.65    5.02
   5   0 -31   60.54    2.39
  -3   1 -31  160.82    3.22
   0   1 -31  286.42    6.61
   3   1 -31  107.87    3.18
  -5   2 -31   69.05    3.23
  -2   2 -31  212.68    4.52
   1   2 -31  160.61    4.15
  -4   3 -31  111.55    3.14
  -1   3 -31  164.06    3.67
   2   3 -31   72.50    2.69
  -3   4 -31  111.58    4.00
   0   4 -31   95.87    3.41
  -5   5 -31   59.90    2.47
  -2   5 -31   75.11    3.28
  -4   6 -31   34.65    4.28
   3  -6 -30    1.24    0.80
   1  -5 -30    1.12    0.63
   4  -5 -30    1.68    0.70
  -1  -4 -30    1.71    0.57
   2  -4 -30    3.29    0.45
   5  -4 -30    3.10    0.89
  -3  -3 -30    0.55    0.88
   0  -3 -30    5.79    0.70
   3  -3 -30    5.65    0.42
   6  -3 -30    0.79    0.52
  -2  -2 -30    4.15    0.56
   1  -2 -30   10.23    0.48
   4  -2 -30    3.64    0.51
  -4  -1 -30    2.13    0.83
  -1  -1 -30   12.02    0.63
   2  -1 -30   10.19    0.55
   5  -1 -30    2.04    0.41
  -3   0 -30    4.75    0.57
   0   0 -30   19.81    0.79
   3   0 -30    5.73    0.58
  -5   1 -30    0.64    0.64
  -2   1 -30   11.95    0.72
   1   1 -30   12.05    1.00
   4   1 -30    1.22    0.43
  -4   2 -30    3.46    0.59
  -1   2 -30   11.70    0.53
   2   2 -30    3.60    0.50
  -6   3 -30    0.73    0.91
  -3   3 -30    5.55    0.65
   0   3 -30    5.00    0.50
   3   3 -30    1.13    0.60
  -5   4 -30    1.77    0.79
  -2   4 -30    2.93    0.69
   1   4 -30    2.17    0.86
  -4   5 -30    1.66    0.60
  -1   5 -30    2.72    0.80
  -3   6 -30    2.71    1.03
   2  -5 -29    0.49    0.48
   5  -5 -29    0.09    0.59
   0  -4 -29    1.12    0.49
   3  -4 -29    0.74    0.33
  -2  -3 -29    0.56    0.46
   1  -3 -29    2.41    0.31
   4  -3 -29    0.47    0.27
  -4  -2 -29   -0.02    1.07
  -1  -2 -29    2.33    0.37
   2  -2 -29    4.28    0.30
   5  -2 -29    0.08    0.25
  -3  -1 -29    0.75    0.32
   0  -1 -29    7.97    0.39
   3  -1 -29    3.04    0.40
  -5   0 -29    0.67    0.79
  -2   0 -29    4.28    0.47
   1   0 -29    7.52    0.48
   4   0 -29    0.36    0.22
  -4   1 -29    0.78    0.38
  -1   1 -29    7.69    0.46
   2   1 -29    2.75    0.37
  -6   2 -29    0.47    0.97
  -3   2 -29    2.85    0.45
   3   2 -29    0.57    0.31
  -5   3 -29   -0.40    0.58
  -2   3 -29    1.88    0.55
   1   3 -29    0.71    0.30
  -4   4 -29    0.78    0.43
  -1   4 -29    1.39    0.38
   2   4 -29    1.17    0.88
  -3   5 -29    0.76    0.69
   0   5 -29   -0.57    1.18
  -2   6 -29    0.06    1.26
   2  -6 -28    4.47    2.17
   0  -5 -28    5.90    0.97
   3  -5 -28    8.39    1.21
  -2  -4 -28    5.17    0.99
   1  -4 -28    9.26    0.99
   4  -4 -28   13.51    1.50
  -1  -3 -28   10.74    0.90
   2  -3 -28   15.95    0.80
   5  -3 -28    8.59    0.89
  -3  -2 -28    5.92    0.73
   0  -2 -28   21.88    0.67
   3  -2 -28   17.01    0.81
   6  -2 -28    5.34    1.25
  -2  -1 -28   17.79    0.88
   1  -1 -28   31.40    0.97
   4  -1 -28   11.28    0.73
  -4   0 -28    9.54    1.22
  -1   0 -28   30.90    0.96
   2   0 -28   21.58    0.87
   5   0 -28    6.14    0.83
  -3   1 -28   17.53    0.72
   3   1 -28   10.14    0.85
  -5   2 -28    6.42    1.15
  -2   2 -28   20.76    0.90
   1   2 -28   16.89    0.83
  -4   3 -28   11.39    1.02
  -1   3 -28   17.05    0.80
   2   3 -28    7.71    0.88
  -6   4 -28    3.56    1.19
  -3   4 -28   11.77    1.36
   0   4 -28    9.64    1.12
  -5   5 -28    6.12    1.00
  -2   5 -28    6.39    1.13
  -4   6 -28    3.78    1.00
   3  -6 -27   11.16    1.76
   1  -5 -27   16.48    1.55
   4  -5 -27   13.50    1.64
  -1  -4 -27   14.86    1.25
   2  -4 -27   27.56    1.09
   5  -4 -27   18.55    2.04
  -3  -3 -27    8.48    1.38
   0  -3 -27   37.65    1.60
   3  -3 -27   35.38    1.01
   6  -3 -27   12.28    1.16
  -2  -2 -27   26.72    1.23
   1  -2 -27   66.09    1.56
   4  -2 -27   28.01    1.22
  -4  -1 -27   12.70    1.58
  -1  -1 -27   67.21    1.72
   2  -1 -27   65.25    1.85
   5  -1 -27   16.51    1.01
  -3   0 -27   35.25    1.09
   0   0 -27  106.83    2.75
   3   0 -27   37.91    1.35
  -5   1 -27   14.12    1.68
  -2   1 -27   69.00    1.86
   1   1 -27   66.98    2.82
   4   1 -27   15.67    1.27
  -4   2 -27   26.89    1.51
  -1   2 -27   70.32    1.66
   2   2 -27   26.73    1.18
  -6   3 -27    9.67    1.64
  -3   3 -27   33.25    1.37
   0   3 -27   36.88    1.31
   3   3 -27   12.26    1.28
  -5   4 -27   15.85    1.80
  -2   4 -27   29.08    1.79
   1   4 -27   14.03    1.81
  -4   5 -27   18.32    1.44
  -1   5 -27   13.06    1.55
  -3   6 -27    9.12    1.50
   2  -5 -26   12.10    1.29
   5  -5 -26    6.70    1.34
   0  -4 -26   17.58    1.42
   3  -4 -26   20.84    1.05
  -2  -3 -26   12.76    1.08
   1  -3 -26   37.03    1.12
   4  -3 -26   21.07    1.04
  -4  -2 -26    3.87    1.63
  -1  -2 -26   37.77    1.31
   2  -2 -26   52.82    1.24
   5  -2 -26   11.74    0.81
  -3  -1 -26   19.28    1.05
   0  -1 -26   84.39    1.82
   3  -1 -26   37.88    1.35
  -5   0 -26    7.15    1.32
  -2   0 -26   53.01    1.57
   1   0 -26   87.81    2.22
   4   0 -26   16.36    0.82
  -4   1 -26   19.60    1.17
  -1   1 -26   87.74    1.98
   2   1 -26   38.77    1.30
  -6   2 -26    4.91    1.23
  -3   2 -26   39.74    1.46
   3   2 -26   12.44    1.04
  -5   3 -26   13.47    1.66
  -2   3 -26   38.17    1.83
   1   3 -26   18.10    1.03
  -4   4 -26   16.05    1.25
  -1   4 -26   18.99    1.37
   2   4 -26    4.91    1.26
  -3   5 -26   12.85    1.58
   0   5 -26    7.47    1.24
  -2   6 -26    6.15    2.15
   2  -6 -25    2.79    0.91
   0  -5 -25    4.44    0.96
   3  -5 -25    6.99    1.25
  -2  -4 -25    4.54    0.96
   1  -4 -25   13.03    1.14
   4  -4 -25    8.59    1.28
  -1  -3 -25   12.37    0.96
   2  -3 -25   17.58    0.82
   5  -3 -25    8.17    0.87
  -3  -2 -25    6.66    0.79
   0  -2 -25   20.44    0.60
   3  -2 -25   17.84    0.82
   6  -2 -25    8.03    1.02
  -2  -1 -25   18.68    0.89
   1  -1 -25   32.22    0.95
   4  -1 -25   13.28    0.79
  -4   0 -25    9.77    0.85
  -1   0 -25   30.89    0.96
   2   0 -25   21.18    0.85
   5   0 -25    5.71    0.81
  -3   1 -25   18.69    0.75
   3   1 -25   12.74    0.95
  -5   2 -25    7.60    1.28
  -2   2 -25   24.04    0.94
   1   2 -25   17.93    0.66
  -4   3 -25   12.80    1.10
  -1   3 -25   17.85    0.83
   2   3 -25    8.08    0.89
  -6   4 -25    3.17    1.16
  -3   4 -25   12.74    1.46
   0   4 -25    8.22    1.02
  -5   5 -25    5.66    0.97
  -2   5 -25    8.64    1.28
  -4   6 -25    4.99    2.09
   3  -6 -24    3.26    1.00
   1  -5 -24    4.57    0.84
   4  -5 -24    4.48    1.01
  -1  -4 -24    4.60    0.73
   2  -4 -24    5.35    0.53
   5  -4 -24    4.47    1.06
  -3  -3 -24    2.80    0.98
   0  -3 -24    5.62    0.69
   3  -3 -24    6.28    0.44
   6  -3 -24    3.80    0.71
  -2  -2 -24    4.90    0.59
   1  -2 -24    7.09    0.27
   4  -2 -24    4.86    0.57
  -4  -1 -24    5.76    1.10
  -1  -1 -24    7.90    0.54
   2  -1 -24    6.64    0.50
   5  -1 -24    5.01    0.57
  -3   0 -24    5.87    0.48
   0   0 -24    7.99    0.52
   3   0 -24    5.71    0.46
  -5   1 -24    6.18    1.15
  -2   1 -24    6.93    0.35
   1   1 -24    8.49    0.88
   4   1 -24    4.82    0.69
  -4   2 -24    4.79    0.72
  -1   2 -24    7.06    0.43
   2   2 -24    4.52    0.53
  -6   3 -24    4.00    1.27
  -3   3 -24    5.47    0.63
   0   3 -24    6.09    0.42
   3   3 -24    3.78    0.76
  -5   4 -24    4.05    1.03
  -2   4 -24    4.27    0.82
   1   4 -24    3.62    0.98
  -4   5 -24    3.00    0.60
  -1   5 -24    5.21    1.03
  -3   6 -24    3.51    1.10
   2  -5 -23   23.05    1.60
   5  -5 -23   16.28    1.98
   0  -4 -23   30.30    1.65
   3  -4 -23   39.30    1.50
   6  -4 -23   16.15    2.13
  -2  -3 -23   21.78    1.32
   1  -3 -23   64.22    1.65
   4  -3 -23   39.13    1.48
  -4  -2 -23   14.29    1.79
  -1  -2 -23   68.43    1.88
   2  -2 -23   91.20    1.89
   5  -2 -23   24.40    1.02
  -3  -1 -23   37.62    1.41
   0  -1 -23  142.28    2.85
   3  -1 -23   68.42    2.00
  -5   0 -23   19.23    2.04
  -2   0 -23   90.97    1.87
   1   0 -23  146.07    3.40
   4   0 -23   31.10    1.40
  -4   1 -23   35.88    2.15
  -1   1 -23  140.82    3.00
   2   1 -23   65.76    1.59
  -6   2 -23   12.51    1.63
  -3   2 -23   66.26    2.03
   3   2 -23   23.39    1.24
  -5   3 -23   23.65    2.17
  -2   3 -23   66.30    2.02
   1   3 -23   37.44    1.53
  -4   4 -23   32.32    1.66
  -1   4 -23   38.32    1.89
   2   4 -23   13.79    2.01
  -3   5 -23   22.88    2.12
   0   5 -23   21.51    2.03
  -2   6 -23   14.84    1.98
   2  -6 -22    0.86    0.64
   0  -5 -22    0.22    0.56
   3  -5 -22    1.52    0.60
  -2  -4 -22    1.07    0.61
   1  -4 -22    1.23    0.44
   4  -4 -22    0.68    0.55
  -1  -3 -22    2.10    0.44
   2  -3 -22    2.83    0.38
   5  -3 -22    0.83    0.39
  -3  -2 -22    0.88    0.44
   0  -2 -22    3.33    0.37
   3  -2 -22    2.97    0.39
   6  -2 -22    0.24    0.42
  -2  -1 -22    2.74    0.39
   1  -1 -22    4.04    0.30
   4  -1 -22    2.05    0.32
  -4   0 -22    1.01    0.36
  -1   0 -22    3.02    0.31
   2   0 -22    3.17    0.35
   5   0 -22    0.51    0.39
  -3   1 -22    2.48    0.31
   3   1 -22    2.07    0.39
  -5   2 -22    0.83    0.69
  -2   2 -22    2.56    0.22
   1   2 -22    2.31    0.27
   4   2 -22    0.92    0.66
  -4   3 -22    1.63    0.49
  -1   3 -22    2.50    0.46
   2   3 -22    0.80    0.39
  -6   4 -22    0.64    0.96
  -3   4 -22    2.03    0.74
   0   4 -22    1.46    0.53
  -5   5 -22    0.20    0.78
  -2   5 -22    1.26    0.75
  -4   6 -22    0.36    0.90
   3  -6 -21    4.31    1.12
   1  -5 -21    5.78    0.94
   4  -5 -21    6.74    1.18
  -1  -4 -21    5.66    0.78
   2  -4 -21    9.23    0.68
   5  -4 -21    6.09    1.22
  -3  -3 -21    3.90    1.09
   0  -3 -21   12.07    0.98
   3  -3 -21   12.09    0.53
   6  -3 -21    3.33    0.67
  -2  -2 -21    9.20    0.76
   1  -2 -21   20.62    0.50
   4  -2 -21    9.07    0.60
  -4  -1 -21    3.23    0.95
  -1  -1 -21   20.75    0.76
   2  -1 -21   19.81    0.76
   5  -1 -21    5.92    0.62
  -3   0 -21   13.18    0.64
   0   0 -21   30.91    0.99
   3   0 -21   13.78    0.64
  -5   1 -21    6.10    1.14
  -2   1 -21   20.16    0.62
   1   1 -21   20.82    0.78
   4   1 -21    5.98    0.76
  -4   2 -21    9.75    0.95
  -1   2 -21   22.09    0.74
   2   2 -21    8.67    0.73
  -6   3 -21    2.98    1.18
  -3   3 -21   13.06    0.94
   0   3 -21   11.60    0.71
   3   3 -21    4.12    0.77
  -5   4 -21    4.76    1.13
  -2   4 -21   10.16    1.19
   1   4 -21    6.32    1.16
  -4   5 -21    5.98    0.85
  -1   5 -21    3.74    1.75
  -3   6 -21    1.61    0.97
   4  -6 -20    7.95    1.57
   2  -5 -20   11.39    1.22
   5  -5 -20    8.22    1.41
   0  -4 -20   14.60    1.26
   3  -4 -20   16.93    0.96
   6  -4 -20    9.13    1.61
  -2  -3 -20   13.13    1.08
   1  -3 -20   30.64    0.95
   4  -3 -20   17.78    0.96
  -4  -2 -20    6.82    1.35
  -1  -2 -20   30.20    1.10
   2  -2 -20   38.78    0.96
   5  -2 -20   13.12    0.87
  -3  -1 -20   17.82    1.00
   0  -1 -20   58.14    1.14
   3  -1 -20   29.77    1.13
  -5   0 -20    8.51    1.43
  -2   0 -20   38.69    1.00
   1   0 -20   62.38    2.31
   4   0 -20   13.45    1.04
  -4   1 -20   16.49    1.54
  -1   1 -20   59.20    1.47
   2   1 -20   29.58    0.89
  -6   2 -20    8.38    1.43
  -3   2 -20   30.81    1.27
   3   2 -20   11.62    0.99
  -5   3 -20   13.19    1.72
  -2   3 -20   32.70    1.28
   1   3 -20   18.65    1.02
  -4   4 -20   14.82    1.17
  -1   4 -20   17.64    1.30
   2   4 -20    6.32    1.37
  -3   5 -20   12.96    1.59
   0   5 -20    9.97    1.41
  -2   6 -20    4.14    1.18
   2  -6 -19   -0.74    0.49
   0  -5 -19    0.52    0.57
   3  -5 -19    0.29    0.44
  -2  -4 -19    0.54    0.58
   1  -4 -19    0.03    0.31
   4  -4 -19    0.22    0.43
  -1  -3 -19    0.11    0.26
   2  -3 -19    0.02    0.16
   5  -3 -19    0.07    0.29
  -3  -2 -19   -0.03    0.54
   0  -2 -19   -0.06    0.13
   3  -2 -19    0.25    0.15
   6  -2 -19    0.37    0.45
  -2  -1 -19    0.03    0.19
   1  -1 -19    0.16    0.10
   4  -1 -19   -0.08    0.16
  -4   0 -19    0.08    0.27
  -1   0 -19    0.02    0.14
   2   0 -19    0.12    0.12
   5   0 -19   -0.05    0.33
  -3   1 -19    0.05    0.15
   3   1 -19    0.51    0.26
  -5   2 -19   -0.26    0.57
  -2   2 -19    0.11    0.11
   1   2 -19    0.00    0.12
   4   2 -19    0.26    0.45
  -4   3 -19    0.21    0.36
  -1   3 -19   -0.06    0.19
   2   3 -19    0.24    0.31
  -6   4 -19    0.16    0.90
  -3   4 -19   -0.04    0.48
   0   4 -19    0.22    0.31
  -5   5 -19    0.82    0.85
  -2   5 -19    0.13    0.56
  -4   6 -19   -0.09    0.79
   3  -6 -18    0.39    0.61
   1  -5 -18    0.52    0.54
   4  -5 -18    0.37    0.62
  -1  -4 -18    1.38    0.51
   2  -4 -18    0.75    0.28
   5  -4 -18    0.72    0.64
  -3  -3 -18    0.48    0.79
   0  -3 -18    0.44    0.24
   3  -3 -18    0.85    0.19
   6  -3 -18   -0.14    0.41
  -2  -2 -18    0.89    0.30
   1  -2 -18    2.39    0.23
   4  -2 -18    0.57    0.21
  -4  -1 -18   -0.14    0.57
  -1  -1 -18    1.78    0.27
   2  -1 -18    2.20    0.27
   5  -1 -18    0.31    0.26
  -3   0 -18    1.33    0.26
   0   0 -18    3.39    0.31
   3   0 -18    0.88    0.19
  -5   1 -18    0.11    0.59
  -2   1 -18    2.42    0.23
   1   1 -18    2.35    0.27
   4   1 -18    0.73    0.36
  -4   2 -18    1.09    0.45
  -1   2 -18    2.24    0.27
   2   2 -18    1.22    0.30
  -6   3 -18    0.22    0.87
  -3   3 -18    0.68    0.29
   0   3 -18    1.32    0.30
   3   3 -18    0.42    0.43
  -5   4 -18    0.47    0.74
  -2   4 -18    0.53    0.48
   1   4 -18   -0.15    0.48
  -4   5 -18    0.93    0.82
  -1   5 -18   -0.89    0.95
  -3   6 -18    0.02    0.81
   4  -6 -17   57.91    3.60
   2  -5 -17   99.87    3.62
   5  -5 -17   77.81    4.03
   0  -4 -17  126.51    3.96
   3  -4 -17  150.82    4.09
   6  -4 -17   63.59    3.65
  -2  -3 -17  106.94    3.02
   1  -3 -17  247.59    4.93
   4  -3 -17  152.04    4.01
  -4  -2 -17   64.74    3.32
  -1  -2 -17  247.32    5.18
   2  -2 -17  321.93    5.95
   5  -2 -17  102.54    3.18
  -3  -1 -17  152.79    3.11
   0  -1 -17  478.42    7.76
   3  -1 -17  246.03    5.85
  -5   0 -17   78.67    3.67
  -2   0 -17  322.39    5.50
   1   0 -17  485.63   10.62
   4   0 -17  130.69    3.60
  -4   1 -17  154.62    3.74
  -1   1 -17  485.67    9.18
   2   1 -17  248.60    4.76
  -6   2 -17   59.72    3.23
  -3   2 -17  245.12    4.53
   0   2 -17  327.47    7.42
   3   2 -17  101.27    3.14
  -5   3 -17  101.47    4.26
  -2   3 -17  242.76    5.43
   1   3 -17  152.30    4.15
  -4   4 -17  121.90    3.50
  -1   4 -17  158.81    4.84
   2   4 -17   65.72    2.65
  -3   5 -17  102.64    4.20
   0   5 -17   76.41    3.56
  -2   6 -17   56.31    3.34
   2  -6 -16    0.35    0.61
   0  -5 -16   -0.45    0.47
   3  -5 -16    0.41    0.33
  -2  -4 -16    0.35    0.59
   1  -4 -16   -0.20    0.29
   4  -4 -16    0.26    0.45
  -1  -3 -16    0.08    0.26
   2  -3 -16    0.08    0.16
   5  -3 -16    0.43    0.33
  -3  -2 -16   -0.05    0.51
   0  -2 -16    0.12    0.16
   3  -2 -16   -0.03    0.12
   6  -2 -16   -0.21    0.41
  -2  -1 -16   -0.03    0.12
   1  -1 -16    0.09    0.07
   4  -1 -16    0.10    0.15
  -4   0 -16    0.28    0.28
  -1   0 -16    0.16    0.14
   2   0 -16    0.05    0.12
   5   0 -16    0.07    0.32
  -3   1 -16   -0.31    0.13
   3   1 -16    0.24    0.20
  -5   2 -16   -0.36    0.58
  -2   2 -16   -0.07    0.12
   1   2 -16    0.00    0.11
   4   2 -16   -0.01    0.41
  -4   3 -16    0.29    0.36
  -1   3 -16    0.02    0.12
   2   3 -16    0.08    0.31
  -6   4 -16    0.75    1.03
  -3   4 -16    0.13    0.52
   0   4 -16    0.02    0.37
  -5   5 -16    1.89    1.03
  -2   5 -16   -0.07    0.57
  -4   6 -16   -0.34    0.78
   3  -6 -15   -0.75    0.63
   1  -5 -15    0.68    0.47
   4  -5 -15    0.40    0.41
  -1  -4 -15    0.05    0.36
   2  -4 -15    0.76    0.25
   5  -4 -15    0.47    0.58
  -3  -3 -15    0.12    0.84
   0  -3 -15    0.46    0.25
   3  -3 -15    0.61    0.17
   6  -3 -15    0.46    0.46
  -2  -2 -15    1.09    0.34
   1  -2 -15    0.87    0.16
   4  -2 -15    0.63    0.20
  -4  -1 -15    0.71    0.59
  -1  -1 -15    0.46    0.17
   2  -1 -15    0.66    0.17
   5  -1 -15    0.38    0.33
  -3   0 -15    0.39    0.18
   0   0 -15    1.19    0.20
   3   0 -15    0.79    0.20
  -5   1 -15    0.75    0.67
  -2   1 -15    0.85    0.16
   1   1 -15    1.06    0.19
   4   1 -15   -0.09    0.30
  -4   2 -15    1.43    0.49
  -1   2 -15    0.88    0.12
   2   2 -15    0.58    0.24
  -6   3 -15    0.95    0.88
  -3   3 -15    1.42    0.59
   0   3 -15    0.48    0.21
   3   3 -15    0.75    0.50
  -5   4 -15    0.29    0.79
  -2   4 -15    0.24    0.34
   1   4 -15   -0.33    0.45
  -4   5 -15   -0.32    0.74
  -1   5 -15    0.51    0.61
  -3   6 -15    0.58    0.86
   4  -6 -14   55.10    3.45
   2  -5 -14   90.55    3.32
   5  -5 -14   66.20    3.64
   0  -4 -14  108.11    3.57
   3  -4 -14  134.37    3.70
   6  -4 -14   59.46    3.48
  -2  -3 -14   94.68    2.76
   1  -3 -14  204.49    4.19
   4  -3 -14  132.39    3.61
  -4  -2 -14   58.07    3.11
  -1  -2 -14  210.07    4.43
   2  -2 -14  266.44    4.97
   5  -2 -14   91.69    2.89
  -3  -1 -14  136.36    2.83
   0  -1 -14  395.86    6.41
   3  -1 -14  204.03    4.96
  -5   0 -14   69.76    3.34
  -2   0 -14  269.44    4.61
   1   0 -14  409.42    8.77
   4   0 -14  112.51    3.26
  -4   1 -14  135.89    3.40
  -1   1 -14  390.47    7.61
   2   1 -14  206.94    4.02
  -6   2 -14   55.05    3.11
  -3   2 -14  203.94    3.89
   0   2 -14  267.07    6.20
   3   2 -14   90.16    2.86
  -5   3 -14   81.80    3.85
  -2   3 -14  200.13    4.70
   1   3 -14  133.72    3.75
  -4   4 -14  109.65    3.23
  -1   4 -14  128.16    4.34
   2   4 -14   56.24    2.47
  -3   5 -14   93.25    3.93
   0   5 -14   70.12    3.34
  -2   6 -14   59.10    3.46
   2  -6 -13    0.02    0.62
   0  -5 -13    1.08    0.54
   3  -5 -13    0.30    0.34
  -2  -4 -13    0.77    0.83
   1  -4 -13    0.79    0.37
   4  -4 -13    0.58    0.50
  -1  -3 -13    0.35    0.29
   2  -3 -13    2.83    0.37
   5  -3 -13   -0.10    0.30
  -3  -2 -13   -0.32    0.45
   0  -2 -13    5.11    0.26
   3  -2 -13    3.19    0.31
   6  -2 -13    0.69    0.64
  -2  -1 -13    3.20    0.31
   1  -1 -13    9.51    0.30
   4  -1 -13    0.71    0.22
  -4   0 -13    0.69    0.29
  -1   0 -13    9.33    0.35
   2   0 -13    4.98    0.42
   5   0 -13    0.22    0.37
  -3   1 -13    2.68    0.33
   3   1 -13    0.95    0.30
  -5   2 -13    1.84    0.81
  -2   2 -13    4.94    0.45
   1   2 -13    2.94    0.27
   4   2 -13   -0.43    0.37
  -4   3 -13    1.30    0.44
  -1   3 -13    3.22    0.30
   2   3 -13    0.40    0.31
  -6   4 -13    0.70    1.01
  -3   4 -13    0.41    0.59
   0   4 -13    0.71    0.43
  -5   5 -13    0.31    0.84
  -2   5 -13    0.18    0.57
  -4   6 -13    0.44    0.87
   3  -6 -12    0.73    0.70
   1  -5 -12    0.69    0.50
   4  -5 -12    1.13    0.46
  -1  -4 -12    0.88    0.48
   2  -4 -12    1.00    0.29
   5  -4 -12    0.72    0.59
  -3  -3 -12    0.65    0.85
   0  -3 -12    1.66    0.35
   3  -3 -12    1.32    0.23
   6  -3 -12    0.35    0.43
  -2  -2 -12    1.28    0.36
   1  -2 -12    1.62    0.20
   4  -2 -12    1.83    0.28
  -4  -1 -12   -0.04    0.36
  -1  -1 -12    1.73    0.24
   2  -1 -12    1.90    0.25
   5  -1 -12    0.65    0.36
  -3   0 -12    1.51    0.26
   0   0 -12    1.39    0.29
   3   0 -12    1.19    0.22
  -5   1 -12    0.39    0.65
  -2   1 -12    1.28    0.19
   1   1 -12    1.74    0.21
   4   1 -12    1.05    0.40
  -4   2 -12    0.56    0.54
  -1   2 -12    1.32    0.23
   2   2 -12    1.40    0.31
  -6   3 -12    1.41    1.03
  -3   3 -12    0.17    0.46
   0   3 -12    1.19    0.27
   3   3 -12    0.78    0.49
  -5   4 -12    1.06    0.86
  -2   4 -12    1.29    0.44
   1   4 -12    0.69    0.57
  -4   5 -12    0.93    0.95
  -1   5 -12    0.25    0.57
  -3   6 -12   -0.04    0.82
   4  -6 -11    3.17    1.10
   2  -5 -11    6.34    0.91
   5  -5 -11    4.65    1.10
   0  -4 -11    7.41    0.91
   3  -4 -11    9.74    0.79
   6  -4 -11    4.46    1.16
  -2  -3 -11    6.56    0.76
   1  -3 -11   13.42    0.61
   4  -3 -11    7.99    0.70
  -4  -2 -11    1.69    0.91
  -1  -2 -11   15.43    0.75
   2  -2 -11   17.67    0.55
   5  -2 -11    6.60    0.74
  -3  -1 -11    8.53    0.60
   0  -1 -11   26.62    0.59
   3  -1 -11   12.65    0.54
  -5   0 -11    2.69    0.91
  -2   0 -11   17.78    0.59
   1   0 -11   27.02    0.79
   4   0 -11    5.66    0.67
  -4   1 -11    8.26    0.75
  -1   1 -11   27.52    0.80
   2   1 -11   12.73    0.52
  -6   2 -11    1.87    0.94
  -3   2 -11   12.70    0.59
   0   2 -11   16.55    0.68
   3   2 -11    5.20    0.69
  -5   3 -11    4.28    1.11
  -2   3 -11   12.94    0.95
   1   3 -11    6.86    0.72
  -4   4 -11    6.47    0.82
  -1   4 -11    5.11    0.79
   2   4 -11    2.44    0.69
  -3   5 -11    3.30    0.93
   0   5 -11    3.60    1.01
  -2   6 -11    1.79    1.01
   2  -6 -10    8.56    1.52
   0  -5 -10   10.61    1.27
   3  -5 -10   13.29    1.09
  -2  -4 -10    4.96    1.27
   1  -4 -10   19.61    1.25
   4  -4 -10   15.68    1.63
  -1  -3 -10   19.67    1.08
   2  -3 -10   31.67    1.17
   5  -3 -10   15.47    1.17
  -3  -2 -10   10.49    1.31
   0  -2 -10   46.23    1.02
   3  -2 -10   34.12    1.18
   6  -2 -10   11.11    1.65
  -2  -1 -10   30.58    0.91
   1  -1 -10   70.50    1.38
   4  -1 -10   18.31    0.78
  -4   0 -10   16.59    1.06
  -1   0 -10   70.46    1.34
   2   0 -10   46.79    1.11
   5   0 -10   13.03    1.17
  -3   1 -10   33.05    1.00
   3   1 -10   19.99    1.02
  -5   2 -10   15.07    1.72
  -2   2 -10   44.95    1.41
   1   2 -10   32.63    0.86
   4   2 -10    8.00    1.04
  -4   3 -10   18.31    1.23
  -1   3 -10   30.95    0.99
   2   3 -10   13.46    1.12
  -6   4 -10    6.33    1.56
  -3   4 -10   18.70    1.85
   0   4 -10   15.41    1.40
  -5   5 -10    8.14    1.64
  -2   5 -10   11.50    1.48
  -4   6 -10   10.87    1.77
   3  -6  -9    0.09    0.64
   1  -5  -9   -0.23    0.46
   4  -5  -9   -0.07    0.34
  -1  -4  -9   -0.22    0.37
   2  -4  -9   -0.21    0.22
   5  -4  -9    0.43    0.55
  -3  -3  -9    0.56    0.83
   0  -3  -9    0.25    0.23
   3  -3  -9    0.10    0.14
   6  -3  -9   -0.08    0.39
  -2  -2  -9   -0.22    0.21
   1  -2  -9   -0.02    0.09
   4  -2  -9    0.02    0.15
  -4  -1  -9    0.13    0.36
  -1  -1  -9    0.04    0.09
   2  -1  -9   -0.08    0.09
   5  -1  -9    0.15    0.28
  -3   0  -9    0.23    0.16
   0   0  -9    0.00    0.14
   3   0  -9   -0.03    0.12
  -5   1  -9   -0.02    0.54
  -2   1  -9   -0.06    0.10
   1   1  -9    0.23    0.09
   4   1  -9    0.23    0.32
  -4   2  -9    0.25    0.54
  -1   2  -9    0.09    0.14
   2   2  -9    0.10    0.19
  -6   3  -9    1.25    0.95
  -3   3  -9    0.23    0.27
   0   3  -9    0.51    0.22
   3   3  -9    0.40    0.44
  -5   4  -9    0.57    0.80
  -2   4  -9    0.63    0.33
   1   4  -9    0.10    0.52
  -4   5  -9    0.24    0.74
  -1   5  -9    0.64    0.58
  -3   6  -9    0.85    0.96
   4  -6  -8    0.43    0.74
   2  -5  -8    0.76    0.43
   5  -5  -8   -0.25    0.57
   0  -4  -8    0.71    0.39
   3  -4  -8    0.41    0.27
   6  -4  -8    0.46    0.74
  -2  -3  -8    0.39    0.37
   1  -3  -8    0.08    0.14
   4  -3  -8    0.34    0.26
  -4  -2  -8   -0.20    0.74
  -1  -2  -8    0.03    0.20
   2  -2  -8    0.31    0.10
   5  -2  -8    0.52    0.33
  -3  -1  -8    0.02    0.19
   0  -1  -8    0.24    0.07
   3  -1  -8    0.11    0.13
  -5   0  -8    0.40    0.43
  -2   0  -8    0.05    0.10
   1   0  -8    0.29    0.10
   4   0  -8    0.68    0.31
  -4   1  -8    0.12    0.26
  -1   1  -8    0.39    0.19
   2   1  -8    0.23    0.12
  -6   2  -8    0.53    0.75
  -3   2  -8    0.08    0.15
   0   2  -8    0.19    0.09
   3   2  -8   -0.07    0.23
  -5   3  -8   -0.08    0.60
  -2   3  -8    0.27    0.31
   1   3  -8   -0.22    0.22
  -4   4  -8    0.26    0.37
  -1   4  -8    0.47    0.38
   2   4  -8   -0.16    0.45
  -3   5  -8    0.10    0.68
   0   5  -8    0.00    0.57
  -2   6  -8    0.55    0.90
   2  -6  -7    8.35    1.48
   0  -5  -7    9.99    1.19
   3  -5  -7   14.17    1.12
  -2  -4  -7    7.62    1.36
   1  -4  -7   21.93    1.22
   4  -4  -7   17.00    1.18
  -1  -3  -7   20.48    1.11
   2  -3  -7   29.39    0.81
   5  -3  -7   14.58    1.14
  -3  -2  -7   16.39    1.60
   0  -2  -7   41.22    0.95
   3  -2  -7   29.58    0.85
   6  -2  -7    7.45    1.34
  -2  -1  -7   30.83    0.89
   1  -1  -7   58.44    1.18
   4  -1  -7   20.01    0.81
  -4   0  -7   17.41    1.16
  -1   0  -7   59.01    1.15
   2   0  -7   40.86    1.01
   5   0  -7   10.64    1.08
  -3   1  -7   29.94    0.93
   3   1  -7   19.89    1.00
  -5   2  -7   14.00    1.69
  -2   2  -7   39.27    1.34
   1   2  -7   29.56    0.72
   4   2  -7    7.88    1.06
  -4   3  -7   18.88    1.23
  -1   3  -7   28.54    0.94
   2   3  -7   14.97    1.20
  -6   4  -7    9.63    1.74
  -3   4  -7   19.24    1.90
   0   4  -7   14.65    1.37
  -5   5  -7    9.69    1.73
  -2   5  -7   17.76    1.79
  -4   6  -7    6.35    1.47
   3  -6  -6    1.73    0.84
   1  -5  -6    1.79    0.59
   4  -5  -6    0.45    0.43
  -1  -4  -6    0.30    0.42
   2  -4  -6    1.09    0.31
   5  -4  -6    0.80    0.61
  -3  -3  -6    1.32    0.79
   0  -3  -6    1.49    0.34
   3  -3  -6    1.02    0.22
   6  -3  -6    0.65    0.48
  -2  -2  -6    1.16    0.31
   1  -2  -6    1.77    0.21
   4  -2  -6    1.05    0.25
  -4  -1  -6    0.67    0.38
  -1  -1  -6    1.66    0.19
   2  -1  -6    1.11    0.20
   5  -1  -6    1.20    0.40
  -3   0  -6    1.03    0.23
   0   0  -6    1.24    0.20
   3   0  -6    0.46    0.18
  -5   1  -6    2.81    0.79
  -2   1  -6    1.24    0.19
   1   1  -6    1.37    0.15
   4   1  -6    1.18    0.42
  -4   2  -6    3.72    0.48
  -1   2  -6    1.98    0.33
   2   2  -6    1.60    0.34
  -6   3  -6    0.45    0.90
  -3   3  -6    0.98    0.96
   0   3  -6    2.66    0.52
   3   3  -6    1.06    0.52
  -5   4  -6    0.86    0.91
  -2   4  -6    3.45    0.55
   1   4  -6    1.65    0.51
  -4   5  -6    1.62    0.96
  -1   5  -6    1.84    0.70
  -3   6  -6    2.11    1.09
   4  -6  -5    2.32    0.94
   2  -5  -5    0.35    0.47
   5  -5  -5    1.22    0.81
   0  -4  -5    1.39    0.48
   3  -4  -5    2.18    0.43
   6  -4  -5    1.57    0.89
  -2  -3  -5    1.38    0.43
   1  -3  -5    3.00    0.32
   4  -3  -5    1.75    0.37
  -4  -2  -5    1.34    0.86
  -1  -2  -5    3.03    0.38
   2  -2  -5    3.89    0.28
   5  -2  -5    1.14    0.40
  -3  -1  -5    1.36    0.35
   0  -1  -5    6.40    0.22
   3  -1  -5    2.86    0.29
  -5   0  -5    0.98    0.47
  -2   0  -5    4.27    0.31
   1   0  -5    6.47    0.30
   4   0  -5    1.80    0.40
  -4   1  -5    1.89    0.43
  -1   1  -5    6.63    0.48
   2   1  -5    2.45    0.25
  -6   2  -5   -0.11    0.77
  -3   2  -5    2.99    0.33
   0   2  -5    4.44    0.25
   3   2  -5    0.25    0.23
  -5   3  -5    1.99    0.87
  -2   3  -5    2.50    0.47
   1   3  -5    2.37    0.43
  -4   4  -5    1.22    0.74
  -1   4  -5    1.95    0.48
   2   4  -5    0.75    0.49
  -3   5  -5    0.78    0.76
   0   5  -5    0.63    0.68
  -2   6  -5   -0.12    0.85
   2  -6  -4   -0.26    0.63
   0  -5  -4   -0.24    0.46
   3  -5  -4    0.32    0.31
  -2  -4  -4    0.51    0.81
   1  -4  -4    0.43    0.33
   4  -4  -4   -0.03    0.30
  -1  -3  -4    0.91    0.33
   2  -3  -4    0.50    0.15
   5  -3  -4    0.26    0.33
  -3  -2  -4    0.74    0.57
   0  -2  -4    0.98    0.15
   3  -2  -4    0.45    0.14
   6  -2  -4   -0.37    0.54
  -2  -1  -4    0.53    0.16
   1  -1  -4    2.15    0.15
   4  -1  -4    0.41    0.21
  -4   0  -4   -0.15    0.28
  -1   0  -4    2.13    0.17
   2   0  -4    0.78    0.14
   5   0  -4    0.01    0.34
  -3   1  -4    0.10    0.15
   0   1  -4    1.89    0.18
   3   1  -4   -0.05    0.20
  -5   2  -4    0.52    0.60
  -2   2  -4    0.12    0.21
   1   2  -4    0.49    0.14
   4   2  -4    0.02    0.40
  -4   3  -4   -0.05    0.33
  -1   3  -4    0.39    0.19
   2   3  -4    0.00    0.29
  -6   4  -4    0.80    1.03
  -3   4  -4   -0.14    0.53
   0   4  -4    0.00    0.36
  -5   5  -4    1.08    1.07
  -2   5  -4    0.01    0.57
  -4   6  -4   -0.52    0.91
   3  -6  -3    4.77    1.24
   1  -5  -3    3.34    0.71
   4  -5  -3    3.98    0.71
  -1  -4  -3    4.22    0.72
   2  -4  -3    4.74    0.51
   5  -4  -3    5.47    1.14
  -3  -3  -3    3.43    0.93
   0  -3  -3    4.50    0.55
   3  -3  -3    4.75    0.40
   6  -3  -3    2.77    0.70
  -2  -2  -3    6.58    0.53
   1  -2  -3    4.89    0.34
   4  -2  -3    4.46    0.42
  -4  -1  -3    7.67    0.84
  -1  -1  -3    5.30    0.32
   2  -1  -3    5.73    0.30
   5  -1  -3    4.26    0.62
  -3   0  -3   10.20    1.58
   3   0  -3    6.13    0.45
  -5   1  -3    6.62    1.09
   1   1  -3    6.18    0.42
   4   1  -3    5.15    0.73
  -4   2  -3   10.50    1.22
   2   2  -3    7.93    0.56
  -6   3  -3    5.87    1.25
  -3   3  -3    8.34    1.10
   3   3  -3    6.98    0.96
  -5   4  -3    4.14    1.26
  -2   4  -3    9.86    0.88
   1   4  -3    7.71    0.85
  -4   5  -3    7.37    1.34
  -1   5  -3    6.63    1.08
  -3   6  -3    7.76    1.42
   4  -6  -2   -0.10    0.71
   2  -5  -2    0.40    0.42
   5  -5  -2   -0.33    0.65
   0  -4  -2    0.84    0.40
   3  -4  -2    0.86    0.32
   6  -4  -2    1.17    0.83
  -2  -3  -2    0.72    0.35
   1  -3  -2    2.28    0.30
   4  -3  -2    0.83    0.29
  -4  -2  -2    0.23    0.69
  -1  -2  -2    2.81    0.37
   2  -2  -2    4.25    0.29
   5  -2  -2    0.43    0.33
  -3  -1  -2    1.26    0.36
   0  -1  -2    6.84    0.24
   3  -1  -2    2.54    0.28
  -5   0  -2   -0.25    0.35
  -2   0  -2    4.00    0.30
   1   0  -2    7.23    0.25
   4   0  -2    0.77    0.31
  -4   1  -2    1.17    0.35
  -1   1  -2    7.47    0.52
   2   1  -2    2.23    0.24
  -6   2  -2    0.56    0.79
  -3   2  -2    2.65    0.32
   0   2  -2    4.16    0.23
   3   2  -2    0.37    0.27
  -5   3  -2   -0.34    0.62
  -2   3  -2    2.76    0.51
   1   3  -2    1.10    0.34
  -4   4  -2    0.42    0.71
  -1   4  -2    1.35    0.49
   2   4  -2    0.40    0.46
  -3   5  -2    0.48    0.65
   0   5  -2   -0.22    0.60
  -2   6  -2    0.73    0.90
   2  -6  -1   -0.30    0.64
   0  -5  -1   -0.59    0.42
   3  -5  -1    0.09    0.36
  -2  -4  -1   -0.54    0.71
   1  -4  -1    0.19    0.31
   4  -4  -1    0.03    0.27
  -1  -3  -1   -0.02    0.26
   2  -3  -1    0.93    0.18
   5  -3  -1    0.01    0.29
  -3  -2  -1   -0.33    0.30
   0  -2  -1    1.68    0.20
   3  -2  -1    0.81    0.16
   6  -2  -1   -0.09    0.54
  -2  -1  -1    0.66    0.17
   1  -1  -1    3.49    0.19
   4  -1  -1    0.28    0.18
  -4   0  -1    0.22    0.28
  -1   0  -1    3.84    0.21
   2   0  -1    1.38    0.17
   5   0  -1    0.18    0.37
  -3   1  -1    0.65    0.19
   0   1  -1    3.65    0.16
   3   1  -1    0.13    0.21
  -5   2  -1    0.01    0.54
  -2   2  -1    1.55    0.35
   1   2  -1    1.18    0.18
   4   2  -1    0.53    0.45
  -4   3  -1    0.22    0.36
  -1   3  -1    0.65    0.18
   2   3  -1   -0.10    0.27
  -6   4  -1    0.46    0.97
  -3   4  -1   -0.16    0.39
   0   4  -1    0.14    0.36
  -5   5  -1    0.55    0.99
  -2   5  -1    0.44    0.46
  -4   6  -1    0.00    0.94
   3  -6   0  150.47    6.87
   1  -5   0  224.66    6.41
   4  -5   0  225.26    6.10
  -1  -4   0  231.50    5.49
   2  -4   0  427.47   10.13
   5  -4   0  237.99    8.72
  -3  -3   0  170.75    5.79
   0  -3   0  545.11   10.82
   3  -3   0  539.82   10.13
   6  -3   0  161.66    4.72
  -2  -2   0  434.22    7.48
   1  -2   0  925.32   14.37
   4  -2   0  431.92    8.09
  -4  -1   0  232.27    5.48
  -1  -1   0  935.36   14.75
   2  -1   0  898.74   16.37
   5  -1   0  230.34    5.95
  -3   0   0  556.67    9.21
   3   0   0  551.19   10.09
  -5   1   0  229.32    5.42
  -2   1   0  920.37   14.88
   1   1   0  919.80   16.32
   4   1   0  231.38    5.99
  -4   2   0  420.34    8.88
  -1   2   0  921.70   17.03
   2   2   0  435.34    8.20
  -6   3   0  163.34    6.01
  -3   3   0  534.35   13.36
   0   3   0  551.76   10.66
   3   3   0  159.80    4.93
  -5   4   0  203.41    7.53
  -2   4   0  417.14    9.05
   1   4   0  231.90    6.18
  -4   5   0  195.33    7.41
  -1   5   0  228.82    7.11
  -3   6   0  156.52    6.08
   4  -6   1   -0.40    0.64
   2  -5   1    0.03    0.38
   5  -5   1    0.01    0.63
   0  -4   1    0.39    0.35
   3  -4   1    0.58    0.30
   6  -4   1   -0.28    0.68
  -2  -3   1   -0.48    0.30
   1  -3   1    0.54    0.17
   4  -3   1    0.13    0.21
  -4  -2   1    0.66    0.72
  -1  -2   1    0.61    0.18
   2  -2   1    1.37    0.18
   5  -2   1    0.11    0.29
  -3  -1   1   -0.07    0.23
   0  -1   1    3.86    0.19
   3  -1   1    0.97    0.18
  -5   0   1    0.24    0.42
  -2   0   1    1.78    0.20
   1   0   1    3.34    0.18
   4   0   1    0.08    0.24
  -4   1   1    0.06    0.23
  -1   1   1    3.61    0.19
   2   1   1    0.76    0.14
  -6   2   1    0.15    0.81
  -3   2   1    0.61    0.21
   0   2   1    1.44    0.14
   3   2   1   -0.12    0.20
  -5   3   1    0.63    0.69
  -2   3   1    0.18    0.28
   1   3   1    0.29    0.24
  -4   4   1    0.28    0.74
  -1   4   1   -0.24    0.32
   2   4   1    0.05    0.42
  -3   5   1    0.46    0.69
   0   5   1   -0.23    0.56
  -2   6   1   -0.59    0.79
   2  -6   2    0.06    0.57
   0  -5   2    0.50    0.51
   3  -5   2    0.41    0.34
  -2  -4   2   -0.83    0.75
   1  -4   2    0.55    0.35
   4  -4   2    0.46    0.34
  -1  -3   2    1.05    0.33
   2  -3   2    2.77    0.28
   5  -3   2    1.07    0.39
  -3  -2   2    0.22    0.35
   0  -2   2    4.18    0.30
   3  -2   2    3.07    0.27
   6  -2   2   -0.20    0.55
  -2  -1   2    2.78    0.30
   1  -1   2    7.15    0.26
   4  -1   2    0.62    0.20
  -4   0   2    0.53    0.34
  -1   0   2    7.49    0.22
   2   0   2    3.53    0.27
   5   0   2    0.87    0.43
  -3   1   2    2.38    0.28
   0   1   2    7.03    0.22
   3   1   2    0.93    0.31
  -5   2   2    0.77    0.67
  -2   2   2    4.17    0.53
   1   2   2    2.41    0.24
   4   2   2    0.58    0.50
  -4   3   2    1.16    0.41
  -1   3   2    2.92    0.33
   2   3   2    0.34    0.32
  -6   4   2    0.44    0.94
  -3   4   2    0.85    0.50
   0   4   2    0.75    0.48
  -5   5   2    1.35    1.07
  -2   5   2   -0.14    0.43
  -4   6   2    0.18    0.96
   3  -6   3    7.51    1.36
   1  -5   3    9.05    1.04
   4  -5   3    9.59    0.93
  -1  -4   3    6.73    0.78
   5  -4   3   10.32    1.41
  -3  -3   3    4.39    1.09
   0  -3   3   10.67    1.68
   6  -3   3    6.08    0.80
  -2  -2   3    8.75    0.73
   4  -2   3   10.25    0.78
  -4  -1   3    5.79    0.76
  -1  -1   3    8.36    0.58
   5  -1   3    7.70    0.80
  -3   0   3    6.88    0.60
   3   0   3    6.70    0.57
  -5   1   3    5.24    0.68
  -2   1   3    6.16    0.29
   1   1   3    4.52    0.22
   4   1   3    7.42    1.12
  -4   2   3    6.15    0.66
  -1   2   3    4.95    0.32
   2   2   3    4.66    0.44
  -6   3   3    4.39    1.21
  -3   3   3    6.53    0.77
   0   3   3    4.34    0.47
   3   3   3    4.12    0.78
  -5   4   3    2.55    1.06
  -2   4   3    4.66    0.67
   1   4   3    4.76    0.72
  -4   5   3    3.99    1.22
  -1   5   3    4.89    0.99
  -3   6   3    4.10    1.25
   4  -6   4    0.46    0.63
   2  -5   4   -0.08    0.41
   5  -5   4   -0.38    0.59
   0  -4   4    0.07    0.33
   3  -4   4    0.11    0.26
   6  -4   4   -0.79    0.67
  -2  -3   4    0.19    0.33
   1  -3   4    0.61    0.19
   4  -3   4    0.12    0.21
  -4  -2   4    0.78    0.70
  -1  -2   4    0.44    0.16
   2  -2   4    0.74    0.14
   5  -2   4   -0.04    0.26
  -3  -1   4    0.31    0.25
   0  -1   4    2.07    0.11
   3  -1   4    0.21    0.13
  -5   0   4    0.26    0.40
  -2   0   4    1.30    0.16
   1   0   4    2.08    0.15
   4   0   4   -0.02    0.22
  -4   1   4    0.12    0.24
  -1   1   4    2.11    0.17
   2   1   4    0.46    0.12
  -6   2   4   -0.48    0.74
  -3   2   4    0.64    0.20
   0   2   4    0.79    0.11
   3   2   4    0.18    0.24
  -5   3   4    0.88    0.68
  -2   3   4    0.71    0.34
   1   3   4    0.45    0.27
  -4   4   4   -0.01    0.69
  -1   4   4    0.02    0.36
   2   4   4   -0.21    0.44
  -3   5   4    0.24    0.63
   0   5   4   -0.39    0.53
  -2   6   4   -0.38    0.76
   2  -6   5    1.36    0.86
   0  -5   5    1.12    0.55
   3  -5   5    0.58    0.37
  -2  -4   5    0.21    0.83
   1  -4   5    0.95    0.39
   4  -4   5    1.29    0.40
  -1  -3   5    1.35    0.40
   2  -3   5    3.00    0.31
   5  -3   5    0.86    0.42
  -3  -2   5    0.54    0.36
   0  -2   5    4.30    0.32
   3  -2   5    3.35    0.29
   6  -2   5    0.36    0.67
  -2  -1   5    3.33    0.31
   1  -1   5    6.65    0.26
   4  -1   5    2.13    0.32
  -4   0   5    1.37    0.40
  -1   0   5    6.33    0.20
   2   0   5    3.85    0.28
   5   0   5    1.25    0.47
  -3   1   5    2.89    0.29
   0   1   5    6.44    0.21
   3   1   5    1.62    0.38
  -5   2   5    1.24    0.66
  -2   2   5    3.92    0.25
   1   2   5    2.96    0.28
   4   2   5    0.69    0.50
  -4   3   5    1.88    0.45
  -1   3   5    3.63    0.36
   2   3   5    0.60    0.35
  -6   4   5    1.84    1.68
  -3   4   5    2.07    0.64
   0   4   5    0.80    0.47
  -5   5   5    1.13    1.10
  -2   5   5    1.80    0.56
  -4   6   5    0.07    0.99
   3  -6   6    1.81    0.93
   1  -5   6    2.78    0.67
   4  -5   6    1.93    0.50
  -1  -4   6    1.74    0.49
   2  -4   6    4.91    0.56
   5  -4   6    2.09    0.79
  -3  -3   6    0.73    0.76
   0  -3   6    4.32    0.49
   3  -3   6    4.32    0.73
   6  -3   6    1.74    0.55
  -2  -2   6    1.87    0.29
   1  -2   6    1.81    0.26
   4  -2   6    3.50    0.36
  -4  -1   6    1.45    0.45
  -1  -1   6    1.65    0.19
   2  -1   6    1.48    0.17
   5  -1   6    1.97    0.48
  -3   0   6    1.49    0.36
   0   0   6    0.62    0.08
   3   0   6    1.05    0.22
  -5   1   6    1.04    0.45
  -2   1   6    1.85    0.18
   1   1   6    1.36    0.20
   4   1   6    0.90    0.34
  -4   2   6    1.00    0.37
  -1   2   6    1.27    0.20
   2   2   6    0.44    0.22
  -6   3   6   -0.73    1.27
  -3   3   6    0.52    0.43
   0   3   6    1.27    0.27
   3   3   6    0.96    0.57
  -5   4   6    1.52    0.96
  -2   4   6    0.03    0.35
   1   4   6   -0.06    0.36
  -4   5   6    0.23    0.81
  -1   5   6    0.41    0.55
  -3   6   6   -0.19    0.85
   4  -6   7    7.53    1.03
   2  -5   7   15.62    1.76
   5  -5   7   12.96    1.74
   0  -4   7   13.72    1.17
   3  -4   7   19.04    1.05
   6  -4   7   10.52    1.65
  -2  -3   7   14.33    1.51
   1  -3   7   28.55    0.94
   4  -3   7   19.97    1.01
  -4  -2   7    9.07    1.04
  -1  -2   7   29.98    0.89
   2  -2   7   40.73    1.02
   5  -2   7   15.28    1.15
  -3  -1   7   18.35    1.02
   0  -1   7   58.44    0.82
   3  -1   7   28.77    0.86
  -5   0   7    9.39    0.99
  -2   0   7   40.70    0.83
   1   0   7   60.48    1.20
   4   0   7   16.85    0.98
  -4   1   7   20.16    1.03
  -1   1   7   58.63    1.23
   2   1   7   28.27    1.07
  -6   2   7    6.03    2.20
  -3   2   7   30.44    0.81
   0   2   7   42.10    0.95
   3   2   7   15.02    0.93
  -5   3   7   15.31    1.75
  -2   3   7   33.59    1.41
   1   3   7   19.59    1.06
  -4   4   7   13.30    1.81
  -1   4   7   20.76    1.44
   2   4   7    9.75    1.14
  -3   5   7   11.29    1.60
   0   5   7   10.83    1.44
  -2   6   7    8.33    1.52
   2  -6   8    0.66    0.75
   0  -5   8    0.56    0.52
   3  -5   8    0.19    0.35
  -2  -4   8   -0.28    0.73
   1  -4   8    0.14    0.31
   4  -4   8    0.37    0.34
  -1  -3   8    0.47    0.26
   2  -3   8    0.23    0.16
   5  -3   8    0.40    0.33
  -3  -2   8   -0.16    0.31
   0  -2   8    0.21    0.13
   3  -2   8    0.25    0.12
   6  -2   8    0.44    0.70
  -2  -1   8    0.03    0.12
   1  -1   8    0.06    0.08
   4  -1   8    0.24    0.18
  -4   0   8    0.40    0.27
  -1   0   8    0.17    0.08
   2   0   8    0.03    0.09
   5   0   8    0.18    0.35
  -3   1   8    0.07    0.19
   0   1   8    0.20    0.06
   3   1   8   -0.18    0.18
  -5   2   8    0.66    0.36
  -2   2   8    0.51    0.11
   1   2   8    0.20    0.12
   4   2   8    0.16    0.43
  -4   3   8    0.19    0.32
  -1   3   8    0.36    0.20
   2   3   8   -0.13    0.29
  -6   4   8    2.81    1.83
  -3   4   8    0.36    0.48
   0   4   8    0.21    0.44
  -5   5   8    1.24    1.05
  -2   5   8    0.65    0.46
  -4   6   8   -0.71    0.91
   3  -6   9    1.33    0.82
   1  -5   9    0.26    0.45
   4  -5   9    0.61    0.41
  -1  -4   9    0.73    0.39
   2  -4   9    1.29    0.34
   5  -4   9    0.49    0.60
  -3  -3   9   -0.20    0.70
   0  -3   9    0.68    0.24
   3  -3   9    0.58    0.19
   6  -3   9    0.47    0.48
  -2  -2   9    0.44    0.18
   1  -2   9    0.00    0.10
   4  -2   9   -0.01    0.16
  -4  -1   9   -0.20    0.33
  -1  -1   9    0.03    0.06
   2  -1   9    0.09    0.08
   5  -1   9   -0.18    0.28
  -3   0   9   -0.02    0.18
   0   0   9    0.04    0.08
   3   0   9   -0.08    0.12
  -5   1   9    0.65    0.37
  -2   1   9    0.05    0.08
   1   1   9   -0.11    0.07
   4   1   9   -0.28    0.24
  -4   2   9    0.32    0.28
  -1   2   9    0.04    0.12
   2   2   9    0.10    0.17
  -6   3   9    0.56    1.61
  -3   3   9    0.17    0.34
   0   3   9   -0.05    0.16
   3   3   9    0.38    0.48
  -5   4   9    0.20    0.83
  -2   4   9   -0.38    0.28
   1   4   9    0.13    0.33
  -4   5   9   -0.07    0.79
  -1   5   9    0.23    0.49
  -3   6   9   -0.56    0.81
   4  -6  10    9.34    1.09
   2  -5  10   12.57    1.57
   5  -5  10    9.86    1.59
   0  -4  10   17.50    1.31
   3  -4  10   21.19    1.08
   6  -4  10    9.28    1.59
  -2  -3  10   14.00    1.54
   1  -3  10   31.83    0.78
   4  -3  10   18.68    0.99
  -4  -2  10    7.88    0.97
  -1  -2  10   32.05    0.93
   2  -2  10   44.74    1.12
   5  -2  10   14.11    1.10
  -3  -1  10   20.63    1.06
   0  -1  10   69.40    0.96
   3  -1  10   30.79    0.91
  -5   0  10   10.44    1.04
  -2   0  10   45.32    0.90
   1   0  10   71.03    1.40
   4   0  10   15.03    0.98
  -4   1  10   20.68    1.04
  -1   1  10   70.07    1.42
   2   1  10   29.45    1.11
  -6   2  10    3.66    1.85
  -3   2  10   32.27    0.83
   0   2  10   47.13    1.05
   3   2  10   12.20    1.11
  -5   3  10   13.88    1.73
  -2   3  10   33.42    1.44
   1   3  10   20.88    1.08
  -4   4  10   15.29    1.91
  -1   4  10   18.16    1.49
   2   4  10    6.86    0.98
  -3   5  10   11.85    1.64
   0   5  10    9.45    1.34
  -2   6  10    8.35    1.48
   2  -6  11    1.93    0.93
   0  -5  11    3.85    0.79
   3  -5  11    4.79    0.72
  -2  -4  11    0.98    0.83
   1  -4  11    7.53    0.82
   4  -4  11    6.47    0.78
  -1  -3  11    8.67    0.75
   2  -3  11   14.54    0.60
   5  -3  11    6.07    0.75
  -3  -2  11    4.42    0.67
   0  -2  11   17.46    0.49
   3  -2  11   12.18    0.50
   6  -2  11    0.95    0.73
  -2  -1  11   12.18    0.51
   1  -1  11   27.28    0.56
   4  -1  11    7.69    0.56
  -4   0  11    7.34    0.76
  -1   0  11   28.21    0.64
   2   0  11   17.19    0.55
   5   0  11    4.45    0.73
  -3   1  11   14.15    0.63
   0   1  11   28.42    0.64
   3   1  11    7.33    0.70
  -5   2  11    5.91    0.72
  -2   2  11   18.06    0.65
   1   2  11   12.75    0.54
   4   2  11    1.97    0.61
  -4   3  11    8.79    0.89
  -1   3  11   13.57    0.70
   2   3  11    5.82    0.76
  -6   4  11    2.99    1.89
  -3   4  11    8.28    1.01
   0   4  11    6.81    0.96
  -5   5  11    3.10    1.26
  -2   5  11    6.40    0.87
  -4   6  11    3.63    1.25
   3  -6  12    0.41    0.79
   1  -5  12    1.38    0.57
   4  -5  12    0.99    0.48
  -1  -4  12    0.28    0.41
   2  -4  12    2.31    0.44
   5  -4  12    2.07    0.86
  -3  -3  12    1.34    0.80
   0  -3  12    1.15    0.29
   3  -3  12    1.16    0.23
   6  -3  12    0.98    0.49
  -2  -2  12    1.32    0.28
   1  -2  12    1.39    0.18
   4  -2  12    1.36    0.25
  -4  -1  12    1.00    0.44
  -1  -1  12    1.40    0.15
   2  -1  12    1.31    0.16
   5  -1  12    0.60    0.37
  -3   0  12    1.43    0.32
   0   0  12    2.39    0.20
   3   0  12    1.27    0.22
  -5   1  12    1.22    0.43
  -2   1  12    1.54    0.16
   1   1  12    1.39    0.17
   4   1  12    0.41    0.28
  -4   2  12    0.95    0.33
  -1   2  12    1.57    0.26
   2   2  12    1.14    0.26
  -6   3  12    3.52    2.06
  -3   3  12    0.42    0.42
   0   3  12    0.71    0.23
   3   3  12    0.10    0.45
  -5   4  12    0.35    0.77
  -2   4  12    1.83    0.45
   1   4  12    0.37    0.35
  -4   5  12    0.80    0.84
  -1   5  12    0.27    0.53
  -3   6  12    0.16    0.83
   4  -6  13    0.11    0.49
   2  -5  13    0.44    0.51
   5  -5  13    0.64    0.69
   0  -4  13    0.48    0.36
   3  -4  13    1.37    0.38
   6  -4  13    0.53    0.52
  -2  -3  13    0.80    0.56
   1  -3  13    3.23    0.25
   4  -3  13    1.50    0.36
  -4  -2  13    0.24    0.49
  -1  -2  13    2.37    0.28
   2  -2  13    5.57    0.37
   5  -2  13    0.19    0.30
  -3  -1  13    0.70    0.33
   0  -1  13    9.35    0.24
   3  -1  13    2.38    0.27
  -5   0  13   -0.33    0.37
  -2   0  13    5.40    0.36
   1   0  13    9.50    0.32
   4   0  13    0.77    0.29
  -4   1  13    0.78    0.32
  -1   1  13   10.60    0.42
   2   1  13    2.62    0.29
  -6   2  13   -0.37    1.42
  -3   2  13    2.90    0.27
   0   2  13    4.95    0.25
   3   2  13    0.57    0.37
  -5   3  13    0.20    0.64
  -2   3  13    3.25    0.56
   1   3  13    0.48    0.30
  -4   4  13    0.63    0.50
  -1   4  13    1.10    0.50
   2   4  13    0.55    0.52
  -3   5  13   -0.32    0.46
   0   5  13    0.49    0.61
  -2   6  13   -0.18    0.66
   2  -6  14   60.37    3.62
   0  -5  14   68.61    2.80
   3  -5  14   89.36    2.98
  -2  -4  14   52.78    3.14
   1  -4  14  132.29    3.92
   4  -4  14  106.15    3.37
  -1  -3  14  131.51    3.35
   2  -3  14  204.49    4.14
   5  -3  14   87.31    2.88
  -3  -2  14   88.56    2.76
   0  -2  14  266.52    3.69
   3  -2  14  205.93    4.01
   6  -2  14   60.71    3.40
  -2  -1  14  208.87    3.75
   1  -1  14  396.84    6.26
   4  -1  14  130.49    2.93
  -4   0  14  108.51    3.01
  -1   0  14  396.56    6.47
   2   0  14  262.32    4.97
   5   0  14   65.33    2.11
  -3   1  14  202.53    3.80
   0   1  14  404.80    7.21
   3   1  14  137.16    3.03
  -5   2  14   93.42    2.77
  -2   2  14  260.76    4.79
   1   2  14  207.36    4.05
   4   2  14   56.18    2.47
  -4   3  14  136.71    3.69
  -1   3  14  203.93    4.39
   2   3  14   92.23    3.06
  -6   4  14   45.75    5.69
  -3   4  14  134.64    3.98
   0   4  14  111.18    3.92
  -5   5  14   61.92    3.71
  -2   5  14   87.92    3.00
  -4   6  14   51.05    3.82
   3  -6  15    0.77    0.70
   1  -5  15    1.21    0.52
   4  -5  15    0.33    0.39
  -1  -4  15    0.23    0.40
   2  -4  15    0.50    0.27
   5  -4  15    0.45    0.42
  -3  -3  15    0.18    0.65
   0  -3  15    0.75    0.27
   3  -3  15    0.52    0.20
   6  -3  15    0.31    0.46
  -2  -2  15    0.83    0.24
   1  -2  15    0.88    0.11
   4  -2  15    0.92    0.23
  -4  -1  15    0.85    0.42
  -1  -1  15    0.73    0.12
   2  -1  15    0.86    0.15
   5  -1  15    0.38    0.34
  -3   0  15    0.73    0.26
   0   0  15    1.45    0.19
   3   0  15    0.48    0.16
  -5   1  15    0.76    0.39
  -2   1  15    0.83    0.17
   1   1  15    0.54    0.12
   4   1  15    0.72    0.31
  -4   2  15    0.42    0.29
  -1   2  15    0.74    0.21
   2   2  15    0.51    0.20
  -6   3  15   -0.03    1.73
  -3   3  15    0.89    0.45
   0   3  15    0.81    0.25
   3   3  15    0.37    0.48
  -5   4  15   -0.05    0.72
  -2   4  15    0.67    0.37
   1   4  15    0.58    0.37
  -4   5  15   -0.10    0.72
  -1   5  15   -0.09    0.53
  -3   6  15    0.44    0.83
   4  -6  16   -0.08    0.47
   2  -5  16    0.43    0.47
   5  -5  16   -0.02    0.68
   0  -4  16    0.25    0.34
   3  -4  16    0.18    0.28
   6  -4  16    0.40    0.50
  -2  -3  16    0.44    0.56
   1  -3  16    0.22    0.13
   4  -3  16    0.25    0.26
  -4  -2  16    0.19    0.43
  -1  -2  16   -0.03    0.13
   2  -2  16   -0.01    0.10
   5  -2  16    0.19    0.32
  -3  -1  16   -0.13    0.24
   0  -1  16    0.17    0.06
   3  -1  16    0.08    0.12
  -5   0  16    0.42    0.47
  -2   0  16    0.05    0.09
   1   0  16    0.02    0.06
   4   0  16    0.20    0.24
  -4   1  16    0.53    0.27
  -1   1  16    0.08    0.13
   2   1  16    0.04    0.12
  -6   2  16    0.54    1.49
  -3   2  16   -0.04    0.14
   0   2  16   -0.01    0.07
   3   2  16    0.31    0.30
  -5   3  16   -0.37    0.52
  -2   3  16   -0.21    0.26
   1   3  16    0.23    0.23
  -4   4  16   -0.64    0.36
  -1   4  16    0.08    0.36
   2   4  16    0.63    0.51
  -3   5  16    0.20    0.54
   0   5  16    0.45    0.61
  -2   6  16   -0.34    0.66
   2  -6  17   61.03    3.75
   0  -5  17   76.88    3.03
   3  -5  17  108.80    3.34
  -2  -4  17   63.90    3.38
   1  -4  17  149.92    3.53
   4  -4  17  115.83    5.16
  -1  -3  17  150.21    3.69
   2  -3  17  245.85    4.89
   5  -3  17  101.59    3.18
  -3  -2  17  104.78    3.07
   0  -2  17  322.56    4.05
   3  -2  17  246.05    4.73
   6  -2  17   67.72    3.63
  -2  -1  17  241.33    4.37
   1  -1  17  482.84    7.61
   4  -1  17  146.78    3.25
  -4   0  17  122.75    3.28
  -1   0  17  482.99    6.91
   2   0  17  320.19    5.95
   5   0  17   77.11    2.79
  -3   1  17  240.07    4.44
   0   1  17  488.66    8.75
   3   1  17  149.27    3.33
  -5   2  17  101.89    3.00
  -2   2  17  309.56    5.67
   1   2  17  251.72    4.79
   4   2  17   63.35    2.64
  -4   3  17  156.96    4.04
  -1   3  17  248.93    5.17
   2   3  17  106.28    3.37
  -6   4  17   44.92    5.54
  -3   4  17  148.46    4.30
   0   4  17  126.41    4.29
  -5   5  17   79.02    6.09
  -2   5  17  101.70    3.29
  -4   6  17   55.87    3.74
   3  -6  18   -0.60    0.58
   1  -5  18    0.23    0.44
   4  -5  18    0.68    0.44
  -1  -4  18    0.62    0.42
   2  -4  18    1.31    0.39
   5  -4  18    0.67    0.41
  -3  -3  18    0.15    0.67
   0  -3  18    0.97    0.29
   3  -3  18    1.27    0.25
   6  -3  18    0.41    0.47
  -2  -2  18    0.61    0.21
   1  -2  18    2.08    0.17
   4  -2  18    0.94    0.23
  -4  -1  18    1.29    0.44
  -1  -1  18    2.13    0.18
   2  -1  18    2.15    0.21
   5  -1  18    0.06    0.30
  -3   0  18    1.69    0.28
   0   0  18    2.84    0.26
   3   0  18    1.24    0.22
  -5   1  18   -0.25    0.42
  -2   1  18    2.38    0.24
   1   1  18    2.06    0.21
   4   1  18    0.20    0.28
  -4   2  18    1.13    0.34
  -1   2  18    2.12    0.32
   2   2  18    1.16    0.26
  -6   3  18   -0.19    1.61
  -3   3  18    1.72    0.50
   0   3  18    1.34    0.30
   3   3  18    0.35    0.46
  -5   4  18    2.04    1.46
  -2   4  18    0.72    0.37
   1   4  18    0.69    0.39
  -4   5  18    0.34    0.81
  -1   5  18   -0.09    0.57
  -3   6  18    0.36    0.86
   4  -6  19   -0.09    0.53
   2  -5  19    0.47    0.57
   5  -5  19   -0.50    0.70
   0  -4  19   -0.14    0.30
   3  -4  19    0.12    0.26
   6  -4  19    0.19    0.49
  -2  -3  19    0.07    0.53
   1  -3  19    0.19    0.14
   4  -3  19    0.31    0.27
  -4  -2  19    0.04    0.44
  -1  -2  19   -0.10    0.13
   2  -2  19    0.14    0.12
   5  -2  19   -0.13    0.30
  -3  -1  19    0.19    0.23
   0  -1  19    0.03    0.06
   3  -1  19    0.22    0.14
  -5   0  19    0.13    0.54
  -2   0  19    0.18    0.11
   1   0  19    0.14    0.07
   4   0  19    0.38    0.27
  -4   1  19   -0.06    0.20
  -1   1  19    0.18    0.08
   2   1  19    0.14    0.13
  -6   2  19    1.79    1.66
  -3   2  19    0.02    0.14
   0   2  19    0.08    0.09
   3   2  19   -0.31    0.27
  -5   3  19    0.40    0.46
  -2   3  19    0.01    0.16
   1   3  19    0.20    0.26
  -4   4  19    0.00    0.41
  -1   4  19    0.24    0.38
   2   4  19   -0.20    0.49
  -3   5  19    0.76    0.56
   0   5  19   -0.41    0.55
  -2   6  19   -0.09    0.65
   2  -6  20   10.61    1.70
   0  -5  20    7.91    1.08
   3  -5  20   14.54    1.22
  -2  -4  20    7.11    1.35
   1  -4  20   19.67    1.20
   4  -4  20   20.64    1.66
  -1  -3  20   18.14    1.00
   2  -3  20   31.24    1.02
   5  -3  20   14.11    1.11
  -3  -2  20   10.88    1.00
   0  -2  20   39.11    0.71
   3  -2  20   27.53    0.87
   6  -2  20    5.95    1.23
  -2  -1  20   28.51    0.75
   1  -1  20   59.63    1.33
   4  -1  20   18.07    0.78
  -4   0  20   14.43    1.08
  -1   0  20   59.90    1.04
   2   0  20   37.79    0.98
   5   0  20    8.56    0.97
  -3   1  20   28.68    0.90
   0   1  20   60.21    1.16
   3   1  20   19.25    0.82
  -5   2  20   11.94    1.35
  -2   2  20   39.02    1.09
   1   2  20   30.36    0.90
   4   2  20    6.88    0.98
  -4   3  20   19.75    1.36
  -1   3  20   29.56    1.09
   2   3  20   10.27    1.04
  -6   4  20    5.99    2.23
  -3   4  20   17.56    1.46
   0   4  20   14.17    1.36
  -5   5  20    2.68    1.52
  -2   5  20   12.30    1.20
  -4   6  20    5.27    1.50
   3  -6  21    3.23    1.03
   1  -5  21    5.29    0.85
   4  -5  21    5.69    0.81
  -1  -4  21    4.91    0.74
   2  -4  21   10.17    0.86
   5  -4  21    6.58    0.84
  -3  -3  21    4.14    1.11
   0  -3  21   12.50    0.77
   3  -3  21   12.28    0.64
   6  -3  21    3.58    0.74
  -2  -2  21    8.72    0.78
   1  -2  21   20.63    0.56
   4  -2  21   10.54    0.65
  -4  -1  21    5.02    0.72
  -1  -1  21   20.56    0.47
   2  -1  21   21.53    0.64
   5  -1  21    5.00    0.71
  -3   0  21   12.25    0.65
   0   0  21   31.60    0.81
   3   0  21   11.51    0.56
  -5   1  21    6.77    1.11
  -2   1  21   20.64    0.64
   1   1  21   20.48    0.64
   4   1  21    5.61    0.64
  -4   2  21   10.26    0.66
  -1   2  21   21.98    0.88
   2   2  21    8.91    0.61
  -6   3  21    6.05    2.31
  -3   3  21   11.43    1.04
   0   3  21   12.92    0.77
   3   3  21    4.85    0.89
  -5   4  21    4.87    1.98
  -2   4  21    9.44    0.95
   1   4  21    5.22    0.68
  -4   5  21    7.03    1.37
  -1   5  21    3.80    0.87
  -3   6  21    5.81    1.37
   4  -6  22    0.07    0.53
   2  -5  22    0.41    0.53
   5  -5  22    0.77    0.80
   0  -4  22    1.18    0.42
   3  -4  22    2.49    0.47
   6  -4  22    0.90    0.57
  -2  -3  22    0.79    0.39
   1  -3  22    1.89    0.25
   4  -3  22    1.84    0.42
  -4  -2  22    0.41    0.66
  -1  -2  22    2.25    0.28
   2  -2  22    2.85    0.29
   5  -2  22    1.19    0.45
  -3  -1  22    2.04    0.43
   0  -1  22    4.41    0.20
   3  -1  22    2.36    0.28
  -5   0  22    1.05    0.69
  -2   0  22    2.73    0.26
   1   0  22    4.02    0.21
   4   0  22    0.92    0.28
  -4   1  22    1.29    0.35
  -1   1  22    3.89    0.24
   2   1  22    2.35    0.28
  -6   2  22   -0.66    1.35
  -3   2  22    2.43    0.30
   0   2  22    3.10    0.25
   3   2  22    0.82    0.40
  -5   3  22    2.02    0.64
  -2   3  22    2.80    0.36
   1   3  22    1.61    0.41
  -4   4  22    0.95    0.53
  -1   4  22    1.77    0.59
   2   4  22    0.30    0.49
  -3   5  22    1.19    0.59
   0   5  22    0.36    0.55
  -2   6  22    1.34    0.79
   2  -6  23   13.01    1.96
   0  -5  23   15.26    1.39
   3  -5  23   23.07    1.37
  -2  -4  23   12.68    1.72
   1  -4  23   38.42    1.68
   4  -4  23   30.88    2.11
  -1  -3  23   35.89    1.38
   2  -3  23   66.15    1.74
   5  -3  23   24.09    1.31
  -3  -2  23   23.93    1.33
   0  -2  23   91.24    1.36
   3  -2  23   65.67    1.57
   6  -2  23   14.69    1.86
  -2  -1  23   65.54    1.32
   1  -1  23  141.18    2.85
   4  -1  23   35.89    1.16
  -4   0  23   29.19    1.36
  -1   0  23  142.36    2.21
   2   0  23   90.14    1.67
   5   0  23   13.19    1.20
  -3   1  23   67.28    1.56
   0   1  23  143.52    2.48
   3   1  23   38.25    1.23
  -5   2  23   25.24    1.74
  -2   2  23   86.60    2.22
   1   2  23   69.72    1.62
   4   2  23   11.53    1.30
  -4   3  23   37.21    1.62
  -1   3  23   66.62    1.87
   2   3  23   22.84    1.46
  -6   4  23   13.14    3.19
  -3   4  23   39.72    1.98
   0   4  23   31.99    1.40
  -5   5  23   11.49    2.70
  -2   5  23   23.99    1.68
  -4   6  23    8.94    1.69
   3  -6  24    2.84    1.07
   1  -5  24    4.59    0.79
   4  -5  24    3.46    0.70
  -1  -4  24    4.17    0.66
   2  -4  24    4.77    0.63
   5  -4  24    3.45    0.62
  -3  -3  24    4.41    1.09
   0  -3  24    4.97    0.38
   3  -3  24    5.84    0.59
   6  -3  24    3.69    0.76
  -2  -2  24    5.70    0.64
   1  -2  24    7.92    0.35
   4  -2  24    5.02    0.61
  -4  -1  24    5.50    0.78
  -1  -1  24    7.07    0.29
   2  -1  24    6.87    0.39
   5  -1  24    5.16    0.70
  -3   0  24    5.24    0.45
   0   0  24    8.20    0.47
   3   0  24    5.52    0.37
  -5   1  24    4.49    0.90
  -2   1  24    7.99    0.40
   1   1  24    6.98    0.39
   4   1  24    4.95    0.58
  -4   2  24    5.20    0.48
  -1   2  24    8.30    0.66
   2   2  24    4.61    0.45
  -6   3  24    5.85    2.25
  -3   3  24    3.11    0.61
   0   3  24    4.89    0.52
   3   3  24    2.80    0.70
  -5   4  24    3.77    1.59
  -2   4  24    5.15    0.69
   1   4  24    2.67    0.54
  -4   5  24    3.62    1.04
  -1   5  24    4.30    0.92
  -3   6  24    3.97    1.21
   4  -6  25    4.28    0.86
   2  -5  25   10.25    1.47
   5  -5  25    5.93    1.34
   0  -4  25    8.14    0.89
   3  -4  25   13.54    1.09
   6  -4  25    4.89    0.85
  -2  -3  25    9.19    0.91
   1  -3  25   18.24    0.64
   4  -3  25   11.89    0.93
  -4  -2  25    6.57    2.48
  -1  -2  25   17.02    0.57
   2  -2  25   22.16    0.73
   5  -2  25    9.29    0.91
  -3  -1  25   13.03    0.95
   0  -1  25   30.88    0.56
   3  -1  25   16.94    0.66
  -5   0  25    7.70    1.27
  -2   0  25   22.51    0.68
   1   0  25   31.87    0.68
   4   0  25    9.25    0.67
  -4   1  25   12.40    0.75
  -1   1  25   31.19    0.70
   2   1  25   16.94    0.67
  -6   2  25    5.58    2.35
  -3   2  25   17.70    0.74
   0   2  25   23.48    0.66
   3   2  25    8.22    0.91
  -5   3  25    8.35    1.15
  -2   3  25   18.63    0.87
   1   3  25   10.15    0.90
  -4   4  25    9.92    1.09
  -1   4  25   10.32    1.15
   2   4  25    5.37    0.99
  -3   5  25    7.66    1.11
   0   5  25    2.43    0.85
  -2   6  25    3.79    0.99
   0  -5  26    6.13    0.93
   3  -5  26   12.92    1.19
  -2  -4  26    7.42    1.40
   1  -4  26   19.09    1.21
   4  -4  26   15.74    1.74
  -1  -3  26   18.87    0.83
   2  -3  26   39.84    1.25
   5  -3  26   13.04    1.11
  -3  -2  26   10.97    1.02
   0  -2  26   53.62    0.92
   3  -2  26   37.86    1.06
  -2  -1  26   38.85    0.90
   1  -1  26   83.68    1.89
   4  -1  26   20.34    0.83
  -4   0  26   17.03    1.16
  -1   0  26   85.98    1.43
   2   0  26   53.67    1.11
   5   0  26    7.16    0.90
  -3   1  26   38.41    1.06
   0   1  26   86.81    1.64
   3   1  26   20.35    0.85
  -5   2  26   13.41    1.50
  -2   2  26   57.04    1.42
   1   2  26   39.34    1.10
   4   2  26    4.38    1.18
  -4   3  26   22.10    1.43
  -1   3  26   39.27    1.33
   2   3  26   12.56    1.18
  -3   4  26   19.52    1.50
   0   4  26   12.70    0.99
  -5   5  26    6.62    2.13
  -2   5  26   12.69    1.24
   3  -6  27    9.69    1.73
   1  -5  27   14.34    1.32
   4  -5  27   17.26    1.44
  -1  -4  27   13.52    1.14
   2  -4  27   26.61    1.30
   5  -4  27   17.51    1.33
  -3  -3  27   12.22    1.62
   0  -3  27   34.19    1.00
   3  -3  27   35.78    1.39
   6  -3  27    9.43    1.08
  -2  -2  27   26.45    1.21
   1  -2  27   67.22    1.38
   4  -2  27   28.33    1.24
  -4  -1  27   16.65    1.75
  -1  -1  27   67.29    1.11
   2  -1  27   68.46    1.28
   5  -1  27   13.75    1.13
  -3   0  27   34.70    1.06
   0   0  27  107.19    2.06
   3   0  27   33.85    1.06
  -5   1  27   17.12    1.70
  -2   1  27   66.48    1.45
   1   1  27   67.24    1.31
   4   1  27   14.73    0.97
  -4   2  27   29.42    1.01
  -1   2  27   67.35    1.45
   2   2  27   26.59    0.98
  -6   3  27    8.15    2.64
  -3   3  27   39.65    1.66
   0   3  27   36.99    1.29
   3   3  27   10.70    1.22
  -5   4  27   14.48    2.76
  -2   4  27   25.80    1.48
   1   4  27   13.51    1.08
  -4   5  27   11.78    1.31
  -1   5  27   12.95    1.53
  -3   6  27   10.48    1.43
   4  -6  28    3.67    0.85
   2  -5  28    6.07    1.21
   5  -5  28    5.18    1.31
   0  -4  28    8.70    0.93
   3  -4  28   11.96    1.01
   6  -4  28    4.62    0.87
  -2  -3  28    7.56    0.85
   1  -3  28   17.75    0.65
   4  -3  28    8.63    0.82
  -1  -2  28   17.04    0.57
   2  -2  28   23.18    0.76
   5  -2  28    6.85    0.80
  -3  -1  28   11.32    0.88
   0  -1  28   31.47    0.57
   3  -1  28   16.84    0.66
  -5   0  28    6.09    1.10
  -2   0  28   20.51    0.66
   1   0  28   30.27    0.69
   4   0  28    8.14    0.65
  -4   1  28   12.42    0.74
  -1   1  28   32.48    0.72
   2   1  28   16.09    0.67
  -6   2  28    4.46    1.40
  -3   2  28   17.25    0.73
   0   2  28   22.67    0.68
   3   2  28    6.96    0.85
  -5   3  28    7.59    1.09
  -2   3  28   17.08    0.86
   1   3  28   11.38    0.98
  -4   4  28    9.89    1.10
  -1   4  28   10.39    1.16
   2   4  28    4.30    0.96
  -3   5  28    7.18    1.09
   0   5  28    5.40    1.09
  -2   6  28    6.23    1.33
   0  -5  29   -0.25    0.45
   3  -5  29    0.97    0.49
  -2  -4  29    0.05    0.83
   1  -4  29    1.66    0.39
   4  -4  29    1.33    0.44
  -1  -3  29    1.05    0.29
   2  -3  29    1.85    0.34
   5  -3  29    0.46    0.37
  -3  -2  29   -0.16    0.35
   0  -2  29    4.39    0.25
   3  -2  29    2.74    0.30
  -2  -1  29    2.76    0.31
   1  -1  29    7.54    0.47
   4  -1  29    1.16    0.28
  -4   0  29    0.75    0.45
  -1   0  29    7.50    0.28
   2   0  29    4.22    0.28
   5   0  29   -0.05    0.36
  -3   1  29    2.89    0.32
   0   1  29    8.22    0.43
   3   1  29    1.03    0.27
  -5   2  29    0.25    0.46
  -2   2  29    4.30    0.41
   1   2  29    1.89    0.27
   4   2  29   -0.32    0.63
  -4   3  29    1.06    0.44
  -1   3  29    3.37    0.45
   2   3  29    0.96    0.43
  -3   4  29   -0.03    0.42
   0   4  29    0.99    0.38
  -5   5  29   -0.08    1.08
  -2   5  29    0.31    0.48
   3  -6  30    1.92    0.96
   1  -5  30    1.04    0.50
   4  -5  30    0.34    0.44
  -1  -4  30    0.87    0.46
   2  -4  30    4.32    0.59
   5  -4  30    1.43    0.51
  -3  -3  30    0.77    0.56
   0  -3  30    5.59    0.43
   3  -3  30    4.71    0.55
   6  -3  30    1.11    0.56
  -2  -2  30    3.53    0.53
   1  -2  30   10.90    0.45
   4  -2  30    3.61    0.51
  -4  -1  30    1.70    0.73
  -1  -1  30   10.97    0.34
   2  -1  30   11.45    0.36
   5  -1  30    1.31    0.46
  -3   0  30    5.53    0.46
   0   0  30   18.76    0.65
   3   0  30    5.08    0.43
  -5   1  30    2.33    0.71
  -2   1  30   11.46    0.47
   1   1  30   11.45    0.40
   4   1  30    1.17    0.37
  -4   2  30    4.79    0.56
  -1   2  30   11.42    0.48
   2   2  30    4.10    0.43
  -6   3  30    2.17    1.54
  -3   3  30    4.64    0.66
   0   3  30    5.08    0.53
   3   3  30    1.52    0.60
  -5   4  30    1.40    0.74
  -2   4  30    3.60    0.65
   1   4  30    1.85    0.50
  -4   5  30    0.88    0.71
  -1   5  30    2.26    0.68
  -3   6  30    1.75    0.85
   4  -6  31   49.77    2.50
   2  -5  31   74.66    3.93
   5  -5  31   58.56    3.60
   0  -4  31   91.14    3.00
   3  -4  31  111.88    3.38
   6  -4  31   49.42    3.13
  -2  -3  31   75.28    2.51
   1  -3  31  162.00    2.66
   4  -3  31  108.77    3.21
  -1  -2  31  161.48    2.74
   2  -2  31  205.98    4.15
   5  -2  31   78.21    2.62
  -3  -1  31  107.42    2.92
   0  -1  31  281.88    3.60
   3  -1  31  162.50    2.87
  -5   0  31   59.26    3.02
  -2   0  31  211.22    3.75
   1   0  31  286.42    4.63
   4   0  31   90.33    2.30
  -4   1  31  107.23    2.90
  -1   1  31  282.50    4.31
   2   1  31  162.51    3.39
  -6   2  31   48.89    3.39
  -3   2  31  161.92    3.20
   0   2  31  211.65    3.71
   3   2  31   81.77    2.80
  -5   3  31   81.85    3.33
  -2   3  31  165.83    3.39
   1   3  31  110.05    3.37
  -4   4  31   86.84    3.85
  -1   4  31  108.93    3.84
   2   4  31   51.50    2.69
  -3   5  31   72.50    2.89
   0   5  31   54.18    2.88
  -2   6  31   47.96    3.10
   0  -5  32    1.50    0.62
   3  -5  32    1.83    0.55
  -2  -4  32    0.97    1.07
   1  -4  32    3.01    0.48
   4  -4  32    3.33    0.58
  -1  -3  32    3.20    0.41
   2  -3  32    5.96    0.54
   5  -3  32    3.02    0.59
  -3  -2  32    1.99    0.51
   0  -2  32    7.42    0.34
   3  -2  32    5.60    0.43
  -2  -1  32    6.22    0.47
   1  -1  32   10.93    0.56
   4  -1  32    3.65    0.42
  -4   0  32    2.03    0.64
  -1   0  32   10.86    0.43
   2   0  32    7.64    0.36
   5   0  32    1.55    0.53
  -3   1  32    6.92    0.47
   0   1  32   11.16    0.46
   3   1  32    3.45    0.42
  -5   2  32    2.08    0.72
  -2   2  32    9.10    0.60
   1   2  32    6.34    0.47
   4   2  32    1.09    0.80
  -4   3  32    3.18    0.74
  -1   3  32    6.53    0.63
   2   3  32    2.41    0.59
  -3   4  32    2.94    0.67
   0   4  32    2.12    0.46
  -5   5  32    3.67    1.68
  -2   5  32    2.56    0.67
   3  -6  33    0.37    0.76
   1  -5  33    0.29    0.48
   4  -5  33    1.87    0.88
  -1  -4  33    0.84    0.68
   2  -4  33    2.84    0.54
   5  -4  33    1.50    0.53
  -3  -3  33    1.29    0.82
   0  -3  33    3.17    0.33
   3  -3  33    3.50    0.51
   6  -3  33    1.71    0.60
  -2  -2  33    2.94    0.47
   1  -2  33    6.21    0.38
   4  -2  33    1.95    0.43
  -4  -1  33    1.68    0.70
  -1  -1  33    6.50    0.29
   2  -1  33    5.99    0.28
   5  -1  33    1.99    0.52
  -3   0  33    3.54    0.37
   0   0  33    9.12    0.52
   3   0  33    3.42    0.36
  -5   1  33    1.91    0.67
  -2   1  33    5.47    0.33
   1   1  33    5.65    0.33
   4   1  33    1.70    0.41
  -4   2  33    2.65    0.42
  -1   2  33    6.14    0.36
   2   2  33    3.15    0.54
  -6   3  33   -1.01    1.31
  -3   3  33    3.32    0.54
   0   3  33    2.93    0.42
   3   3  33    0.49    0.54
  -5   4  33    1.44    0.77
  -2   4  33    2.11    0.70
   1   4  33    1.44    0.48
  -4   5  33    0.94    0.75
  -1   5  33    0.87    0.63
  -3   6  33    2.41    0.81
   4  -6  34   67.84    4.05
   2  -5  34  112.73    5.10
   5  -5  34   80.27    4.35
   0  -4  34  126.98    3.82
   3  -4  34  160.69    4.50
   6  -4  34   63.95    3.75
  -2  -3  34  109.26    3.17
   1  -3  34  242.38    4.98
   4  -3  34  153.99    4.27
  -1  -2  34  245.91    3.27
   2  -2  34  317.38    6.13
   5  -2  34  103.06    3.29
  -3  -1  34  161.76    3.29
   0  -1  34  430.81    6.38
   3  -1  34  247.60    4.82
  -5   0  34   75.71    3.52
  -2   0  34  322.68    5.50
   1   0  34  435.06    6.95
   4   0  34  126.60    3.66
  -4   1  34  158.86    3.84
  -1   1  34  428.97    6.40
   2   1  34  236.96    4.84
  -6   2  34   69.60    4.16
  -3   2  34  242.70    4.51
   0   2  34  321.07    5.46
   3   2  34  111.37    3.53
  -5   3  34  106.10    4.08
  -2   3  34  242.45    4.71
   1   3  34  160.67    4.49
  -4   4  34  119.74    4.73
  -1   4  34  154.52    4.96
   2   4  34   67.59    3.98
  -3   5  34  109.25    3.62
   0   5  34   81.73    3.60
  -2   6  34   62.62    3.43
   0  -5  35    1.13    0.62
   3  -5  35    2.81    0.66
  -2  -4  35    1.74    1.00
   1  -4  35    5.65    0.77
   4  -4  35    4.78    0.72
  -1  -3  35    5.32    0.51
   2  -3  35    8.61    0.66
   5  -3  35    3.09    0.62
  -3  -2  35    2.97    0.64
   0  -2  35   14.72    0.43
   3  -2  35    9.39    0.55
  -2  -1  35   10.10    0.59
   1  -1  35   22.53    0.80
   4  -1  35    4.34    0.46
  -4   0  35    3.24    0.80
  -1   0  35   22.61    0.67
   2   0  35   14.57    0.48
   5   0  35    1.29    0.53
  -3   1  35   10.68    0.56
   0   1  35   21.82    0.67
   3   1  35    4.85    0.49
  -5   2  35    2.64    0.79
  -2   2  35   15.00    0.70
   1   2  35   11.01    0.60
   4   2  35    1.55    1.00
  -4   3  35    4.05    0.86
  -1   3  35    9.71    0.76
   2   3  35    1.90    0.56
  -3   4  35    5.86    0.84
   0   4  35    4.41    0.64
  -5   5  35    0.52    1.21
  -2   5  35    3.76    0.78
   1  -5  36    7.13    1.28
   4  -5  36    8.81    1.61
  -1  -4  36    8.00    1.23
   2  -4  36   17.05    1.22
   5  -4  36    8.59    0.98
  -3  -3  36    3.86    1.88
   0  -3  36   19.26    0.59
   3  -3  36   21.18    1.07
   6  -3  36    4.83    0.84
  -2  -2  36   15.10    0.85
   1  -2  36   37.20    0.95
   4  -2  36   16.00    1.02
  -4  -1  36    6.24    0.98
  -1  -1  36   37.48    0.74
   2  -1  36   37.89    0.83
   5  -1  36    6.71    0.85
  -3   0  36   20.22    0.78
   0   0  36   57.44    1.33
   3   0  36   20.09    0.78
  -5   1  36    9.16    1.30
  -2   1  36   36.73    0.93
   1   1  36   36.63    0.88
   4   1  36    6.19    0.67
  -4   2  36   15.05    0.93
  -1   2  36   37.36    1.00
   2   2  36   16.59    1.08
  -3   3  36   21.48    1.25
   0   3  36   20.34    1.00
   3   3  36    4.87    1.00
  -5   4  36    9.29    1.45
  -2   4  36   18.20    1.68
   1   4  36    7.42    0.87
  -4   5  36    9.29    1.40
  -1   5  36    6.65    1.15
  -3   6  36    3.24    1.64
   4  -6  37    1.73    1.08
   2  -5  37    5.73    0.90
   5  -5  37    3.38    1.11
   0  -4  37    9.09    0.94
   3  -4  37    8.41    0.93
   6  -4  37    3.50    1.21
  -2  -3  37    5.29    0.74
   1  -3  37   14.13    0.85
   4  -3  37    8.22    0.79
  -1  -2  37   15.35    0.48
   2  -2  37   20.72    0.77
   5  -2  37    6.12    0.77
  -3  -1  37    9.91    0.71
   0  -1  37   29.17    0.72
   3  -1  37   14.74    0.65
  -5   0  37    3.87    0.99
  -2   0  37   19.82    0.63
   1   0  37   27.19    0.71
   4   0  37    6.92    0.78
  -4   1  37    8.70    0.79
  -1   1  37   29.96    0.86
   2   1  37   15.00    0.68
  -6   2  37    2.39    1.08
  -3   2  37   13.61    0.83
   0   2  37   19.90    0.70
   3   2  37    5.27    0.77
  -5   3  37    5.70    1.05
  -2   3  37   14.43    0.90
   1   3  37    7.88    0.86
  -4   4  37    7.56    1.24
  -1   4  37    9.67    1.14
   2   4  37    3.61    1.23
  -3   5  37    6.32    1.00
   0   5  37    2.12    0.84
  -2   6  37    1.09    1.43
   0  -5  38    0.73    0.55
   3  -5  38    0.05    0.42
   1  -4  38    0.08    0.36
   4  -4  38    0.29    0.40
  -1  -3  38   -0.05    0.20
   2  -3  38   -0.08    0.20
   5  -3  38    0.38    0.39
  -3  -2  38    0.24    0.64
   0  -2  38    0.17    0.10
   3  -2  38   -0.20    0.13
  -2  -1  38   -0.04    0.13
   1  -1  38    0.43    0.11
   4  -1  38   -0.01    0.21
  -4   0  38    0.31    0.27
  -1   0  38    0.58    0.15
   2   0  38    0.13    0.12
   5   0  38    0.55    0.41
  -3   1  38   -0.04    0.17
   0   1  38    0.37    0.15
   3   1  38   -0.06    0.20
  -5   2  38    0.70    0.33
  -2   2  38    0.22    0.19
   1   2  38    0.02    0.16
  -4   3  38    0.32    0.54
  -1   3  38   -0.13    0.23
   2   3  38    0.67    0.43
  -3   4  38    0.44    0.43
   0   4  38    0.78    0.37
  -5   5  38    1.27    1.34
  -2   5  38    0.33    0.56
   1  -5  39    5.34    1.23
   4  -5  39    5.16    1.30
  -1  -4  39    4.84    1.01
   2  -4  39   10.96    1.01
   5  -4  39    4.35    0.77
  -3  -3  39    3.58    2.04
   0  -3  39   13.64    0.51
   3  -3  39   12.31    0.97
   6  -3  39    2.28    1.02
  -2  -2  39   10.68    0.71
   1  -2  39   26.28    0.79
   4  -2  39   10.24    0.87
  -4  -1  39    4.90    0.97
  -1  -1  39   26.73    0.61
   2  -1  39   26.28    0.85
   5  -1  39    3.25    0.63
  -3   0  39   12.93    0.91
   0   0  39   42.84    1.11
   3   0  39   11.70    0.63
  -5   1  39    6.55    1.14
  -2   1  39   27.89    0.85
   1   1  39   25.87    0.72
   4   1  39    3.03    0.51
  -4   2  39    9.55    0.82
  -1   2  39   26.95    0.83
   2   2  39    9.77    0.89
  -6   3  39    2.37    1.18
  -3   3  39   11.36    1.29
   0   3  39   12.21    0.86
   3   3  39    1.88    1.06
  -5   4  39    3.98    1.04
  -2   4  39   11.63    1.32
   1   4  39    4.97    0.71
  -4   5  39    2.61    0.93
  -1   5  39    2.90    0.83
  -3   6  39    1.04    1.55
   2  -5  40    0.73    0.49
   5  -5  40    1.54    0.98
   0  -4  40    1.05    0.44
   3  -4  40    0.96    0.41
  -2  -3  40    0.47    0.44
   1  -3  40    0.54    0.27
   4  -3  40    0.83    0.38
  -1  -2  40    0.89    0.17
   2  -2  40    1.28    0.25
   5  -2  40    0.89    0.44
  -3  -1  40    0.53    0.32
   0  -1  40    2.06    0.23
   3  -1  40    0.55    0.21
  -5   0  40    0.91    0.72
  -2   0  40    1.27    0.18
   1   0  40    2.33    0.23
   4   0  40    0.27    0.33
  -4   1  40    0.77    0.33
  -1   1  40    2.13    0.27
   2   1  40    0.80    0.23
  -3   2  40    0.55    0.29
   0   2  40    1.31    0.22
   3   2  40    0.28    0.40
  -5   3  40    1.09    0.65
  -2   3  40    1.14    0.33
   1   3  40    0.44    0.30
  -4   4  40    0.43    0.60
  -1   4  40    0.56    0.46
  -3   5  40    0.07    0.69
   0   5  40   -0.30    0.63
   0  -5  41   17.54    1.54
   3  -5  41   17.31    1.45
   1  -4  41   26.56    1.90
   4  -4  41   22.05    1.38
  -1  -3  41   26.27    1.02
   2  -3  41   38.21    1.37
   5  -3  41   19.27    1.41
  -3  -2  41   21.65    2.00
   0  -2  41   52.41    0.96
   3  -2  41   38.76    1.19
  -2  -1  41   40.62    1.13
   1  -1  41   71.92    1.48
   4  -1  41   24.59    1.03
  -4   0  41   21.98    1.40
  -1   0  41   70.78    1.52
   2   0  41   51.82    1.17
   5   0  41   11.69    1.19
  -3   1  41   40.81    1.41
   0   1  41   70.22    1.54
   3   1  41   25.72    1.02
  -5   2  41   21.40    1.28
  -2   2  41   55.86    1.40
   1   2  41   38.52    1.20
  -4   3  41   27.69    2.16
  -1   3  41   39.11    1.47
   2   3  41   18.33    1.47
  -3   4  41   29.66    2.29
   0   4  41   20.93    1.34
  -5   5  41   14.45    2.79
  -2   5  41   16.60    1.45
   1  -5  42    0.03    0.55
   4  -5  42    0.59    0.74
  -1  -4  42    0.31    0.59
   2  -4  42    0.49    0.35
   5  -4  42    0.42    0.50
   0  -3  42    0.25    0.15
   3  -3  42    0.42    0.33
   6  -3  42    0.15    0.81
  -2  -2  42    0.11    0.22
   1  -2  42    0.24    0.13
   4  -2  42    0.25    0.31
  -4  -1  42    0.85    0.63
  -1  -1  42    0.10    0.10
   2  -1  42   -0.06    0.13
   5  -1  42    0.30    0.39
  -3   0  42   -0.20    0.21
   0   0  42    0.17    0.15
   3   0  42   -0.04    0.16
  -5   1  42   -0.21    0.47
  -2   1  42    0.27    0.15
   1   1  42   -0.05    0.12
   4   1  42    0.13    0.37
  -4   2  42    0.39    0.28
  -1   2  42    0.12    0.15
   2   2  42    0.25    0.26
  -6   3  42   -0.18    0.77
  -3   3  42    0.10    0.25
   0   3  42    0.35    0.28
  -5   4  42    0.11    0.63
  -2   4  42   -0.11    0.46
   1   4  42   -0.01    0.40
  -4   5  42   -0.88    0.55
  -1   5  42    0.99    0.64
  -3   6  42   -0.72    1.25
   2  -5  43    1.00    0.55
   5  -5  43   -0.65    0.76
   0  -4  43    1.34    0.48
   3  -4  43    2.06    0.75
  -2  -3  43    0.80    0.48
   1  -3  43    2.77    0.45
   4  -3  43    2.37    0.53
  -1  -2  43    3.88    0.29
   2  -2  43    4.74    0.45
   5  -2  43    0.47    0.43
  -3  -1  43    1.35    0.41
   0  -1  43    6.94    0.39
   3  -1  43    3.40    0.38
  -5   0  43    0.20    0.57
  -2   0  43    5.44    0.34
   1   0  43    6.08    0.39
   4   0  43    1.04    0.42
  -4   1  43    2.06    0.45
  -1   1  43    6.56    0.45
   2   1  43    3.86    0.41
  -3   2  43    4.63    0.55
   0   2  43    5.47    0.43
   3   2  43    0.49    0.43
  -5   3  43    0.62    0.60
  -2   3  43    2.81    0.44
   1   3  43    2.43    0.47
  -4   4  43    1.79    0.76
  -1   4  43    1.18    0.54
  -3   5  43    0.94    0.74
   0   5  43    0.50    0.68
   0  -5  44    2.42    0.76
   3  -5  44    3.02    0.72
   1  -4  44    2.54    0.63
   4  -4  44    3.60    0.73
  -1  -3  44    3.94    0.47
   2  -3  44    5.14    0.70
   5  -3  44    2.51    0.63
  -3  -2  44    3.96    0.94
   0  -2  44    7.20    0.36
   3  -2  44    5.95    0.51
  -2  -1  44    6.19    0.48
   1  -1  44    8.82    0.44
   4  -1  44    3.09    0.54
  -4   0  44    2.93    0.55
  -1   0  44    9.37    0.50
   2   0  44    7.69    0.44
   5   0  44    1.79    0.57
  -3   1  44    5.90    0.61
   0   1  44    9.46    0.50
   3   1  44    2.93    0.41
  -5   2  44    3.07    0.58
  -2   2  44    7.92    0.55
   1   2  44    6.10    0.52
  -4   3  44    2.44    0.74
  -1   3  44    5.30    0.62
   2   3  44    1.76    0.54
  -3   4  44    3.84    0.91
   0   4  44    3.91    0.63
  -5   5  44    2.30    1.56
  -2   5  44    1.77    0.67
   1  -5  45    7.97    1.41
   4  -5  45   13.71    1.96
  -1  -4  45   13.34    1.47
   2  -4  45   19.94    1.41
   5  -4  45   12.27    1.21
   0  -3  45   22.77    0.68
   3  -3  45   22.85    1.21
  -2  -2  45   18.84    0.88
   1  -2  45   35.27    0.92
   4  -2  45   17.84    1.14
  -4  -1  45   11.36    1.51
  -1  -1  45   34.39    0.83
   2  -1  45   33.77    1.07
   5  -1  45   10.20    1.05
  -3   0  45   22.59    1.10
   0   0  45   47.38    1.21
   3   0  45   21.72    0.87
  -5   1  45   10.83    1.44
  -2   1  45   35.00    1.02
   1   1  45   34.86    0.92
   4   1  45   11.00    1.10
  -4   2  45   17.66    1.07
  -1   2  45   35.55    1.03
   2   2  45   15.31    1.20
  -3   3  45   23.80    1.19
   0   3  45   23.44    1.09
  -5   4  45   11.92    1.58
  -2   4  45   19.87    1.77
   1   4  45   10.30    0.99
  -4   5  45   11.00    1.51
  -1   5  45    9.61    1.40
   2  -5  46   -0.39    0.47
   5  -5  46    0.36    0.93
   0  -4  46    0.37    0.37
   3  -4  46   -0.17    0.43
  -2  -3  46   -0.11    0.50
   1  -3  46    0.22    0.24
   4  -3  46    0.40    0.33
  -1  -2  46   -0.04    0.12
   2  -2  46    0.32    0.21
   5  -2  46   -0.12    0.37
  -3  -1  46    0.13    0.31
   0  -1  46    0.24    0.15
   3  -1  46    0.28    0.19
  -5   0  46   -0.10    0.60
  -2   0  46    0.18    0.14
   1   0  46    0.32    0.15
   4   0  46    0.02    0.28
  -4   1  46   -0.03    0.26
  -1   1  46    0.15    0.15
   2   1  46    0.35    0.21
  -3   2  46   -0.01    0.22
   0   2  46    0.12    0.17
   3   2  46   -0.22    0.36
  -5   3  46   -0.26    0.48
  -2   3  46   -0.02    0.24
   1   3  46    0.18    0.29
  -4   4  46   -0.13    0.54
  -1   4  46    0.12    0.38
  -3   5  46    0.03    0.67
   0   5  46    0.40    0.75
   0  -5  47    1.94    0.71
   3  -5  47    1.68    0.62
   1  -4  47    2.91    0.69
   4  -4  47    1.71    0.57
  -1  -3  47    2.58    0.35
   2  -3  47    4.28    0.71
   5  -3  47    2.42    0.63
  -3  -2  47    2.21    0.78
   0  -2  47    6.51    0.35
   3  -2  47    4.30    0.45
  -2  -1  47    4.87    0.52
   1  -1  47    7.58    0.43
   4  -1  47    2.56    0.53
  -4   0  47    1.53    0.46
  -1   0  47    7.69    0.49
   2   0  47    5.56    0.39
   5   0  47    0.95    0.53
  -3   1  47    4.66    0.56
   0   1  47    8.04    0.49
   3   1  47    2.62    0.41
  -5   2  47    2.15    0.52
  -2   2  47    6.32    0.48
   1   2  47    4.36    0.47
  -4   3  47    3.96    0.88
  -1   3  47    4.70    0.62
   2   3  47    2.05    0.58
  -3   4  47    3.35    0.82
   0   4  47    1.92    0.51
  -5   5  47    1.63    0.99
  -2   5  47    1.26    0.80
   1  -5  48  116.01    5.41
   4  -5  48  117.67    5.61
  -1  -4  48  120.23    4.28
   2  -4  48  193.59    5.40
   5  -4  48  111.35    3.76
   0  -3  48  236.30    3.53
   3  -3  48  229.07    5.91
  -2  -2  48  190.10    4.50
   1  -2  48  356.43    5.94
   4  -2  48  190.54    5.08
  -4  -1  48  121.22    4.50
  -1  -1  48  355.57    5.33
   2  -1  48  347.52    6.79
   5  -1  48  114.83    3.69
  -3   0  48  227.94    5.08
   0   0  48  478.44    7.90
   3   0  48  233.73    5.96
  -5   1  48  123.20    4.50
  -2   1  48  346.33    6.07
   1   1  48  357.88    5.88
   4   1  48  110.26    3.63
  -4   2  48  191.48    4.57
  -1   2  48  355.32    6.12
   2   2  48  185.98    5.25
  -3   3  48  241.21    5.35
   0   3  48  227.48    5.07
  -5   4  48  113.78    4.65
  -2   4  48  189.79    4.76
   1   4  48  110.60    3.35
  -4   5  48  113.84    4.55
  -1   5  48  105.40    4.36
   2  -5  49    2.25    0.66
   0  -4  49    3.43    0.63
   3  -4  49    5.40    0.89
  -2  -3  49    2.69    0.86
   1  -3  49    8.09    0.74
   4  -3  49    2.88    0.59
  -1  -2  49    8.80    0.44
   2  -2  49    9.52    0.67
   5  -2  49    4.16    0.99
  -3  -1  49    6.49    0.75
   0  -1  49   16.18    0.58
   3  -1  49    7.53    0.59
  -5   0  49    3.74    1.80
  -2   0  49   11.72    0.66
   1   0  49   14.41    0.63
   4   0  49    3.57    0.63
  -4   1  49    5.90    0.72
  -1   1  49   15.81    0.65
   2   1  49    8.88    0.64
  -3   2  49    8.51    0.77
   0   2  49   10.57    0.62
   3   2  49    2.93    0.64
  -5   3  49    3.34    0.93
  -2   3  49    8.04    0.83
   1   3  49    4.30    0.59
  -4   4  49    3.90    0.93
  -1   4  49    3.41    0.70
  -3   5  49    1.37    0.82
   0   5  49    1.93    1.44
   0  -5  50   -0.05    0.60
   3  -5  50   -0.77    0.69
   1  -4  50    0.18    0.43
   4  -4  50   -0.12    0.44
  -1  -3  50    0.19    0.26
   2  -3  50    0.24    0.34
   5  -3  50    0.13    0.42
  -3  -2  50   -0.32    0.45
   0  -2  50    0.20    0.14
   3  -2  50    0.12    0.21
  -2  -1  50    0.11    0.21
   1  -1  50    0.08    0.15
   4  -1  50    0.28    0.30
  -4   0  50    0.02    0.30
  -1   0  50    0.21    0.14
   2   0  50   -0.14    0.13
   5   0  50   -0.38    0.39
  -3   1  50    0.10    0.27
   0   1  50   -0.02    0.14
   3   1  50    0.25    0.24
  -5   2  50    0.15    0.35
  -2   2  50   -0.09    0.15
   1   2  50    0.05    0.24
  -4   3  50    0.29    0.55
  -1   3  50    0.14    0.29
   2   3  50   -0.24    0.42
  -3   4  50    0.76    0.56
   0   4  50    0.13    0.37
  -5   5  50    0.10    0.81
  -2   5  50    0.11    0.62
   1  -5  51   12.51    1.80
   4  -5  51   17.37    2.22
  -1  -4  51   15.60    1.57
   2  -4  51   25.43    1.59
   5  -4  51   16.04    1.45
   0  -3  51   34.52    0.88
   3  -3  51   32.31    1.53
  -2  -2  51   25.27    1.21
   1  -2  51   52.73    1.60
   4  -2  51   26.99    1.37
  -4  -1  51   18.93    1.88
  -1  -1  51   53.96    1.15
   2  -1  51   51.17    1.50
   5  -1  51   17.77    1.39
  -3   0  51   32.42    1.32
   0   0  51   78.48    1.77
   3   0  51   32.53    1.47
  -5   1  51   16.61    1.30
  -2   1  51   55.34    1.40
   1   1  51   53.84    1.28
   4   1  51   14.90    1.30
  -4   2  51   25.94    1.36
  -1   2  51   54.08    1.39
   2   2  51   25.92    1.42
  -3   3  51   32.95    1.39
   0   3  51   31.42    1.32
  -5   4  51   11.69    1.61
  -2   4  51   24.01    1.95
   1   4  51   14.12    1.20
  -4   5  51   14.82    1.76
  -1   5  51   13.05    1.62
   2  -5  52    0.87    0.61
   0  -4  52    2.78    0.64
   3  -4  52    3.54    0.77
  -2  -3  52    0.46    0.69
   1  -3  52    4.89    0.61
   4  -3  52    3.33    0.61
  -1  -2  52    6.24    0.37
   2  -2  52    6.96    0.59
   5  -2  52    1.03    0.78
  -3  -1  52    3.47    0.58
   0  -1  52   12.58    0.51
   3  -1  52    5.88    0.53
  -2   0  52    7.98    0.55
   1   0  52    9.97    0.56
   4   0  52    1.32    0.45
  -4   1  52    3.16    0.54
  -1   1  52   12.21    0.60
   2   1  52    5.83    0.53
  -3   2  52    6.72    0.70
   0   2  52    6.98    0.51
   3   2  52    1.61    0.58
  -5   3  52    2.74    0.78
  -2   3  52    5.47    0.70
   1   3  52    2.57    0.51
  -4   4  52    2.33    0.76
  -1   4  52    2.52    0.70
  -3   5  52    2.26    0.91
   0   5  52    0.98    1.31
   3  -5  53    2.03    1.10
   1  -4  53    2.27    0.68
   4  -4  53    1.08    0.52
  -1  -3  53    2.19    0.39
   2  -3  53    5.74    1.04
   5  -3  53    1.22    0.54
  -3  -2  53    2.78    0.84
   0  -2  53    5.06    0.39
   3  -2  53    3.69    0.47
  -2  -1  53    3.94    0.43
   1  -1  53    7.82    0.49
   4  -1  53    2.95    0.56
  -4   0  53    2.12    0.52
  -1   0  53    6.90    0.48
   2   0  53    5.68    0.42
   5   0  53    1.00    0.82
  -3   1  53    4.14    0.58
   0   1  53    8.07    0.48
   3   1  53    2.53    0.41
  -5   2  53    1.04    0.45
  -2   2  53    5.38    0.47
   1   2  53    4.68    0.53
  -4   3  53    2.83    0.80
  -1   3  53    3.52    0.57
   2   3  53    1.23    0.53
  -3   4  53    2.15    0.73
   0   4  53    2.21    0.54
  -5   5  53    0.28    1.24
  -2   5  53    2.19    0.81
   1  -5  54    2.44    0.94
   4  -5  54    0.35    0.93
  -1  -4  54    0.62    1.13
   2  -4  54    1.53    0.58
   5  -4  54    0.98    0.61
   0  -3  54    1.66    0.24
   3  -3  54    1.53    0.50
  -2  -2  54    1.09    0.41
   1  -2  54    2.78    0.41
   4  -2  54    0.84    0.40
  -4  -1  54    2.14    0.88
  -1  -1  54    3.11    0.27
   2  -1  54    3.72    0.43
   5  -1  54    0.52    0.68
  -3   0  54    2.12    0.44
   0   0  54    6.04    0.47
   3   0  54    1.74    0.45
  -5   1  54    1.85    0.55
  -2   1  54    3.93    0.41
   1   1  54    3.37    0.35
   4   1  54    0.60    0.47
  -4   2  54    1.38    0.42
  -1   2  54    3.43    0.36
   2   2  54    1.67    0.48
  -3   3  54    1.91    0.42
   0   3  54    1.26    0.39
  -5   4  54    0.67    0.72
  -2   4  54    0.77    0.53
   1   4  54    0.13    0.47
  -4   5  54    0.76    0.73
  -1   5  54    1.01    0.78
   2  -5  55    7.62    1.16
   0  -4  55    7.07    0.91
   3  -4  55    7.21    0.95
  -2  -3  55    5.86    1.13
   1  -3  55   10.11    1.11
   4  -3  55    7.51    0.89
  -1  -2  55   10.76    0.55
   2  -2  55   11.06    0.77
   5  -2  55    7.37    1.42
  -3  -1  55    8.00    0.87
   0  -1  55   13.14    0.55
   3  -1  55   10.22    0.74
  -2   0  55   11.21    0.68
   1   0  55   12.65    0.67
   4   0  55    5.68    0.81
  -4   1  55    8.00    0.83
  -1   1  55   13.42    0.66
   2   1  55    8.73    0.66
  -3   2  55   11.39    0.92
   0   2  55   11.07    0.67
   3   2  55    6.86    0.92
  -5   3  55    4.21    1.04
  -2   3  55   10.31    0.93
   1   3  55    8.14    0.82
  -4   4  55    4.71    1.00
  -1   4  55    7.54    1.11
  -3   5  55    6.26    1.25
   3  -5  56    0.60    0.94
   1  -4  56    1.18    0.52
   4  -4  56    0.40    0.56
  -1  -3  56    0.44    0.31
   2  -3  56    1.62    0.50
   5  -3  56    0.46    0.50
  -3  -2  56    0.78    0.61
   0  -2  56    2.01    0.27
   3  -2  56    2.03    0.38
  -2  -1  56    0.90    0.25
   1  -1  56    2.52    0.30
   4  -1  56    0.32    0.36
  -4   0  56    1.26    0.43
  -1   0  56    2.35    0.31
   2   0  56    1.40    0.26
  -3   1  56    0.88    0.35
   0   1  56    2.81    0.32
   3   1  56    0.67    0.40
  -5   2  56    1.47    0.49
  -2   2  56    1.18    0.26
   1   2  56    1.59    0.38
  -4   3  56    1.27    0.62
  -1   3  56    2.28    0.49
   2   3  56    0.43    0.46
  -3   4  56    0.80    0.61
   0   4  56    0.61    0.47
  -2   5  56   -0.10    0.66
   1  -5  57    1.19    0.85
   4  -5  57    1.26    1.03
   2  -4  57    1.80    0.93
   5  -4  57    1.21    0.66
   0  -3  57    3.43    0.36
   3  -3  57    3.07    0.63
  -2  -2  57    2.87    0.52
   1  -2  57    5.50    0.60
   4  -2  57    1.20    0.42
  -4  -1  57    0.77    0.69
  -1  -1  57    6.42    0.50
   2  -1  57    5.92    0.56
   5  -1  57    1.76    0.74
  -3   0  57    4.27    0.59
   0   0  57    8.17    0.55
   3   0  57    2.93    0.57
  -5   1  57    2.05    0.59
  -2   1  57    6.06    0.49
   1   1  57    5.90    0.39
   4   1  57    2.08    0.65
  -4   2  57    2.76    0.54
  -1   2  57    6.50    0.53
   2   2  57    3.23    0.62
  -3   3  57    2.63    0.50
   0   3  57    3.79    0.57
  -5   4  57    0.55    0.77
  -2   4  57    3.13    0.75
   1   4  57    1.40    0.56
  -4   5  57    1.46    0.73
  -1   5  57    1.27    0.83
   2  -5  58    3.90    0.92
   0  -4  58    4.89    1.10
   3  -4  58    4.23    0.81
  -2  -3  58    5.63    1.15
   1  -3  58    6.03    0.94
   4  -3  58    5.32    0.78
  -1  -2  58    6.68    0.51
   2  -2  58    8.07    0.67
   5  -2  58    3.56    1.15
  -3  -1  58    6.94    0.79
   0  -1  58    7.81    0.58
   3  -1  58    5.69    0.56
  -2   0  58    6.52    0.53
   1   0  58    6.82    0.53
   4   0  58    5.22    0.77
  -4   1  58    6.02    0.74
  -1   1  58    7.97    0.53
   2   1  58    5.72    0.55
  -3   2  58    7.50    0.75
   0   2  58    6.52    0.50
   3   2  58    4.01    0.71
  -5   3  58    5.00    1.15
  -2   3  58    7.03    0.77
   1   3  58    5.98    0.75
  -4   4  58    3.41    0.91
  -1   4  58    6.20    1.07
  -3   5  58    4.72    1.06
   3  -5  59    6.76    1.63
   1  -4  59   10.23    1.22
   4  -4  59    7.99    1.11
  -1  -3  59    9.24    0.73
   2  -3  59   15.28    1.31
   5  -3  59    5.74    0.96
  -3  -2  59    6.30    1.21
   0  -2  59   19.78    0.86
   3  -2  59   15.80    1.20
  -2  -1  59   16.45    0.90
   1  -1  59   23.62    0.88
   4  -1  59    9.05    1.00
  -4   0  59    7.57    0.90
  -1   0  59   25.38    0.86
   2   0  59   18.70    0.75
  -3   1  59   16.02    1.11
   0   1  59   27.41    0.88
   3   1  59    9.82    0.97
  -5   2  59    6.95    0.86
  -2   2  59   20.77    0.88
   1   2  59   14.78    0.95
  -4   3  59    9.21    1.26
  -1   3  59   16.80    1.18
   2   3  59    6.27    0.97
  -3   4  59    9.38    1.25
   0   4  59    7.84    0.94
  -2   5  59    5.19    1.11
   1  -5  60    2.94    1.11
   4  -5  60    1.17    1.03
   2  -4  60    3.92    1.21
   5  -4  60    2.32    0.75
   0  -3  60    9.46    0.67
   3  -3  60    8.74    1.00
  -2  -2  60    7.39    0.82
   1  -2  60   12.17    0.88
   4  -2  60    7.70    0.91
  -4  -1  60    3.96    1.03
  -1  -1  60   12.39    0.69
   2  -1  60   13.31    0.87
   5  -1  60    1.66    0.88
  -3   0  60    8.07    0.81
   0   0  60   19.37    0.77
   3   0  60    8.88    0.90
  -5   1  60    3.92    0.73
  -2   1  60   13.86    0.70
   1   1  60   13.60    0.68
   4   1  60    3.56    0.77
  -4   2  60    7.17    0.82
  -1   2  60   15.71    0.75
   2   2  60    4.75    0.71
  -3   3  60    7.79    0.80
   0   3  60    7.63    0.80
  -5   4  60    3.51    1.01
  -2   4  60    6.82    1.13
   1   4  60    2.20    0.72
  -4   5  60    3.12    0.94
  -1   5  60    2.44    0.90
   2  -5  61    2.84    1.54
   0  -4  61    4.74    1.13
   3  -4  61    8.66    1.10
  -2  -3  61    6.22    1.14
   1  -3  61   14.64    1.39
   4  -3  61    7.54    0.96
  -1  -2  61   15.06    0.84
   2  -2  61   20.26    1.00
   5  -2  61    3.38    1.03
  -3  -1  61    8.19    0.87
   0  -1  61   25.18    0.95
   3  -1  61   12.18    0.84
  -2   0  61   19.53    0.83
   1   0  61   24.62    0.93
   4   0  61    5.14    0.79
  -4   1  61    9.00    0.92
  -1   1  61   25.40    0.85
   2   1  61   13.55    0.87
  -3   2  61   14.72    1.06
   0   2  61   19.13    0.84
   3   2  61    4.23    0.80
  -5   3  61    4.94    1.08
  -2   3  61   13.49    1.04
   1   3  61    6.85    0.93
  -4   4  61    6.84    1.21
  -1   4  61    7.62    1.15
  -3   5  61    2.45    0.89
   3  -5  62   91.97    5.14
   1  -4  62  121.83    4.22
   4  -4  62  103.98    3.80
  -1  -3  62  127.62    3.20
   2  -3  62  186.78    5.36
   5  -3  62   90.65    3.29
  -3  -2  62   89.64    2.92
   0  -2  62  235.30    4.43
   3  -2  62  183.90    5.15
  -2  -1  62  191.19    3.75
   1  -1  62  286.39    6.05
   4  -1  62  122.94    3.87
  -4   0  62  105.99    3.17
  -1   0  62  291.37    5.21
   2   0  62  234.32    5.01
  -3   1  62  185.75    4.46
   0   1  62  288.23    6.03
   3   1  62  123.02    3.82
  -5   2  62   89.77    2.90
  -2   2  62  234.92    4.42
   1   2  62  191.89    5.30
  -4   3  62  122.33    4.40
  -1   3  62  186.11    4.55
   2   3  62   88.38    3.37
  -3   4  62  122.49    4.41
   0   4  62  110.09    3.30
  -2   5  62   80.06    3.77
   1  -5  63    1.46    0.94
   4  -5  63   -0.23    0.95
   2  -4  63    0.76    0.90
   5  -4  63    0.53    0.64
   0  -3  63    2.35    0.46
   3  -3  63    1.71    0.59
  -2  -2  63    1.55    0.46
   1  -2  63    2.87    0.49
   4  -2  63    0.71    0.43
  -4  -1  63    1.02    0.52
  -1  -1  63    3.04    0.45
   2  -1  63    3.46    0.50
   5  -1  63    0.86    0.79
  -3   0  63    1.53    0.44
   0   0  63    4.37    0.43
   3   0  63    1.16    0.42
  -5   1  63    0.82    0.50
  -2   1  63    3.49    0.42
   1   1  63    2.22    0.33
   4   1  63    0.58    0.71
  -4   2  63    1.62    0.48
  -1   2  63    3.19    0.41
   2   2  63    1.44    0.50
  -3   3  63    1.50    0.43
   0   3  63    2.15    0.51
  -5   4  63    0.57    0.70
  -2   4  63    2.76    0.81
   1   4  63    0.95    0.66
  -4   5  63    0.95    0.79
  -1   5  63   -0.26    0.69
   2  -5  64    5.17    1.84
   0  -4  64    5.58    1.21
   3  -4  64    7.98    1.12
  -2  -3  64    5.17    1.57
   1  -3  64   13.98    1.39
   4  -3  64    9.80    1.10
  -1  -2  64   16.06    1.04
   2  -2  64   20.20    1.09
   5  -2  64    4.17    1.20
  -3  -1  64    9.04    0.94
   0  -1  64   26.82    1.01
   3  -1  64   14.64    0.96
  -2   0  64   21.55    0.89
   1   0  64   28.42    1.01
   4   0  64    7.18    0.94
  -4   1  64   10.95    1.02
  -1   1  64   30.61    1.19
   2   1  64   14.56    0.92
  -3   2  64   16.44    1.12
   0   2  64   20.85    1.08
   3   2  64    4.22    1.12
  -5   3  64    6.67    1.27
  -2   3  64   14.15    1.07
   1   3  64    8.74    1.08
  -4   4  64    9.05    1.33
  -1   4  64    8.70    1.24
  -3   5  64    5.36    1.12
   3  -5  65   45.81    3.62
   1  -4  65   51.61    3.94
   4  -4  65   59.71    3.57
  -1  -3  65   55.69    1.92
   2  -3  65   78.47    2.86
   5  -3  65   41.82    2.18
  -3  -2  65   44.11    2.00
   0  -2  65   87.82    2.12
   3  -2  65   72.26    2.66
  -2  -1  65   75.18    1.93
   1  -1  65  104.62    2.75
   4  -1  65   57.52    2.34
  -4   0  65   50.19    2.04
  -1   0  65  101.88    2.78
   2   0  65   88.13    2.41
  -3   1  65   75.78    2.33
   0   1  65  105.02    2.71
   3   1  65   57.66    2.33
  -5   2  65   44.52    2.02
  -2   2  65   91.38    2.10
   1   2  65   78.31    2.78
  -4   3  65   56.87    2.69
  -1   3  65   74.44    2.38
   2   3  65   40.97    2.24
  -3   4  65   53.26    2.64
   0   4  65   49.65    2.57
  -2   5  65   41.98    2.77
   2  -4  66    2.47    1.12
   5  -4  66    1.21    0.71
   0  -3  66    1.17    0.42
   3  -3  66    2.13    0.66
  -2  -2  66    1.48    0.52
   1  -2  66    2.82    0.50
   4  -2  66    1.85    0.59
  -4  -1  66    0.25    1.03
  -1  -1  66    2.31    0.42
   2  -1  66    2.24    0.44
   5  -1  66    0.82    0.83
  -3   0  66    0.94    0.37
   0   0  66    5.04    0.46
   3   0  66    1.05    0.45
  -5   1  66    1.90    0.70
  -2   1  66    3.17    0.40
   1   1  66    3.15    0.49
   4   1  66    0.72    0.85
  -4   2  66    0.69    0.42
  -1   2  66    2.56    0.45
   2   2  66    1.11    0.47
  -3   3  66    2.37    0.50
   0   3  66    2.90    0.68
  -5   4  66    1.40    0.80
  -2   4  66    0.35    0.60
   1   4  66    1.00    0.68
  -4   5  66    0.55    0.73
   2  -5  67    0.80    1.40
   3  -4  67    0.45    0.54
  -2  -3  67    0.95    1.08
   1  -3  67    2.87    0.75
   4  -3  67    1.61    0.58
  -1  -2  67    1.35    0.39
   2  -2  67    1.21    0.38
   5  -2  67    1.23    0.86
  -3  -1  67    1.01    0.45
   0  -1  67    2.82    0.40
   3  -1  67    1.67    0.41
  -2   0  67    1.94    0.34
   1   0  67    2.62    0.38
   4   0  67    0.56    0.48
  -4   1  67    1.61    0.51
  -1   1  67    2.61    0.43
   2   1  67    1.74    0.40
  -3   2  67    1.49    0.44
   0   2  67    1.70    0.41
   3   2  67    0.43    0.61
  -5   3  67    0.14    0.61
  -2   3  67    1.76    0.46
   1   3  67    0.97    0.55
  -4   4  67    0.82    0.63
  -1   4  67   -0.10    0.58
  -3   5  67   -0.59    0.66
   3  -5  68    9.77    2.03
   1  -4  68   15.26    2.39
   4  -4  68   10.92    1.32
  -1  -3  68   17.12    1.15
   2  -3  68   21.21    1.60
   5  -3  68   10.96    1.29
  -3  -2  68    7.80    1.18
   0  -2  68   33.31    1.37
   3  -2  68   21.46    1.55
  -2  -1  68   26.18    1.35
   1  -1  68   38.56    1.46
   4  -1  68   15.45    1.36
  -4   0  68   13.47    1.23
  -1   0  68   34.34    1.43
   2   0  68   29.30    1.28
  -3   1  68   23.91    1.22
   0   1  68   39.71    1.43
   3   1  68   15.64    1.36
  -5   2  68   11.13    1.11
  -2   2  68   31.80    1.08
   1   2  68   21.86    1.59
  -4   3  68   14.98    1.53
  -1   3  68   22.11    1.76
   2   3  68    9.97    1.28
  -3   4  68   14.73    1.54
   0   4  68   10.37    1.33
  -2   5  68    9.54    2.15
   2  -4  69    4.35    1.51
   5  -4  69    0.27    1.00
   0  -3  69    6.89    0.74
   3  -3  69    5.45    0.91
  -2  -2  69    5.41    0.93
   1  -2  69    8.51    0.78
   4  -2  69    5.22    0.85
  -1  -1  69    8.05    0.78
   2  -1  69    8.86    0.80
  -3   0  69    5.89    0.73
   0   0  69   13.67    0.72
   3   0  69    6.25    0.84
  -5   1  69    2.17    0.76
  -2   1  69    8.43    0.77
   1   1  69   10.65    0.86
  -4   2  69    6.83    0.82
  -1   2  69    9.96    0.80
   2   2  69    5.64    0.85
  -3   3  69    6.54    0.78
   0   3  69    6.33    1.00
  -5   4  69    3.51    1.39
  -2   4  69    4.31    0.96
   1   4  69    2.88    1.24
  -4   5  69    1.22    1.07
   2  -5  70    2.49    1.56
   3  -4  70    3.86    0.85
  -2  -3  70    2.77    1.34
   1  -3  70    7.23    1.03
   4  -3  70    3.27    0.74
  -1  -2  70    6.81    0.75
   2  -2  70    9.02    0.81
   5  -2  70    2.49    1.11
  -3  -1  70    5.28    0.97
   0  -1  70   10.82    0.73
   3  -1  70    7.15    0.73
  -2   0  70    8.32    0.80
   1   0  70   12.53    0.75
   4   0  70    2.56    0.69
  -4   1  70    4.57    0.73
  -1   1  70   11.23    0.83
   2   1  70    8.08    0.74
  -3   2  70    8.07    0.83
   0   2  70   10.51    1.18
   3   2  70    2.37    0.99
  -5   3  70    2.72    0.92
  -2   3  70    6.45    0.74
   1   3  70    4.47    0.86
  -4   4  70    4.08    0.91
  -1   4  70    4.48    0.98
  -3   5  70    3.08    0.97
   3  -5  71    2.33    1.44
   1  -4  71    5.25    1.65
   4  -4  71    6.20    1.10
  -1  -3  71    8.71    1.04
   2  -3  71   10.07    1.12
   5  -3  71    5.63    0.97
  -3  -2  71    4.67    1.02
   0  -2  71   15.52    1.09
   3  -2  71   10.20    1.08
  -2  -1  71   10.52    0.95
   1  -1  71   18.36    1.13
   4  -1  71   10.67    1.17
  -4   0  71    7.04    1.14
  -1   0  71   17.10    1.10
   2   0  71   13.14    0.99
  -3   1  71   11.22    0.97
   0   1  71   14.77    0.97
   3   1  71    6.22    0.93
  -5   2  71    4.16    0.78
  -2   2  71   14.54    0.98
   1   2  71   11.19    1.17
  -4   3  71    6.02    1.01
  -1   3  71   11.54    1.26
   2   3  71    3.70    0.88
  -3   4  71    5.08    0.94
   0   4  71    5.76    1.10
  -2   5  71    4.44    1.63
   2  -4  72    6.31    0.98
   0  -3  72    6.75    0.77
   3  -3  72    7.32    1.06
  -2  -2  72    6.13    0.99
   1  -2  72    5.71    0.68
   4  -2  72    5.30    0.86
  -1  -1  72    6.79    0.75
   2  -1  72    8.43    0.80
  -3   0  72    6.64    1.01
   0   0  72   10.81    0.67
   3   0  72    8.62    1.05
  -2   1  72    8.58    0.81
   1   1  72    7.35    0.75
  -4   2  72    8.34    0.92
  -1   2  72    8.62    0.76
   2   2  72    5.09    0.87
  -3   3  72    8.21    0.87
   0   3  72    7.08    1.01
  -2   4  72    4.66    1.51
   2  -5  73    7.67    2.25
   3  -4  73   17.91    1.58
  -2  -3  73   12.02    1.44
   1  -3  73   26.83    1.79
   4  -3  73   15.39    1.49
  -1  -2  73   29.04    1.48
   2  -2  73   33.11    1.42
  -3  -1  73   20.50    1.85
   0  -1  73   41.38    1.30
   3  -1  73   28.19    1.30
  -2   0  73   30.80    1.37
   1   0  73   41.29    1.27
   4   0  73   13.23    1.34
  -4   1  73   18.88    1.75
  -1   1  73   42.01    1.48
   2   1  73   26.08    1.65
  -3   2  73   29.26    2.09
   0   2  73   30.79    1.93
  -5   3  73   10.77    1.55
  -2   3  73   25.73    1.71
   1   3  73   19.86    1.75
  -4   4  73   13.16    1.50
  -1   4  73   14.46    1.63
   3  -5  74    0.50    1.25
   1  -4  74    0.10    1.10
   4  -4  74    0.61    0.73
  -1  -3  74    0.34    0.49
   2  -3  74    0.15    0.40
   5  -3  74   -0.35    0.62
  -3  -2  74   -0.09    0.53
   0  -2  74   -0.11    0.32
   3  -2  74    0.68    0.49
  -2  -1  74    0.08    0.32
   1  -1  74   -0.28    0.22
   4  -1  74    0.23    0.51
  -4   0  74    0.26    0.51
  -1   0  74    0.15    0.27
   2   0  74    0.39    0.36
  -3   1  74    0.55    0.47
   0   1  74    0.18    0.25
   3   1  74    0.80    0.52
  -5   2  74   -0.22    0.62
  -2   2  74    0.02    0.26
   1   2  74    0.43    0.48
  -4   3  74   -0.10    0.49
  -1   3  74    0.52    0.47
   2   3  74    1.03    1.04
  -3   4  74    0.63    0.85
   0   4  74    0.30    0.69
   2  -4  75    8.13    1.15
   0  -3  75    9.47    1.21
   3  -3  75    7.82    1.11
  -2  -2  75    7.84    1.11
   1  -2  75   11.06    0.95
   4  -2  75    7.43    1.03
  -1  -1  75   11.30    0.96
   2  -1  75   10.35    0.91
  -3   0  75    7.21    1.07
   0   0  75   14.48    0.75
   3   0  75    7.61    1.02
  -2   1  75   13.24    1.01
   1   1  75   11.45    0.94
  -4   2  75    7.31    1.15
  -1   2  75   11.89    0.89
   2   2  75    6.53    0.98
  -3   3  75    8.26    1.12
   0   3  75    8.80    1.22
  -2   4  75    7.84    1.72
   2  -5  76    0.95    1.62
   3  -4  76    7.53    1.05
  -2  -3  76    6.54    1.20
   1  -3  76   11.25    1.25
   4  -3  76    6.43    1.07
  -1  -2  76   12.46    1.06
   2  -2  76   15.12    1.07
  -3  -1  76    7.80    1.18
   0  -1  76   20.66    0.94
   3  -1  76   12.75    1.04
  -2   0  76   16.36    1.17
   1   0  76   18.46    1.15
   4   0  76    5.41    0.93
  -4   1  76    8.88    1.26
  -1   1  76   19.52    1.06
   2   1  76   12.52    1.25
  -3   2  76   13.63    1.42
   0   2  76   15.06    1.47
  -2   3  76   12.38    1.27
   1   3  76    5.89    1.07
  -4   4  76    8.40    1.89
  -1   4  76    6.05    1.09
   1  -4  77    2.64    1.34
   4  -4  77    0.07    0.73
  -1  -3  77    1.69    0.65
   2  -3  77    1.73    0.63
   5  -3  77   -0.21    0.95
   0  -2  77    3.44    0.55
   3  -2  77    1.03    0.56
  -2  -1  77    1.91    0.50
   1  -1  77    4.01    0.56
   4  -1  77    1.35    0.65
  -4   0  77   -0.24    0.58
  -1   0  77    3.14    0.53
   2   0  77    2.05    0.50
  -3   1  77    2.37    0.72
   0   1  77    4.17    0.54
   3   1  77    0.26    0.52
  -5   2  77    1.64    0.85
  -2   2  77    3.62    0.53
   1   2  77    0.61    0.55
  -4   3  77    0.49    0.91
  -1   3  77    2.26    0.67
   2   3  77    1.78    1.05
  -3   4  77    0.25    0.81
   0   4  77   -0.24    0.76
   2  -4  78    0.77    0.62
   0  -3  78    0.17    0.57
   3  -3  78    0.10    0.60
  -2  -2  78    0.34    0.54
   1  -2  78    0.38    0.34
   4  -2  78    0.02    0.57
  -1  -1  78    0.68    0.36
   2  -1  78    0.56    0.37
  -3   0  78    0.75    0.52
   0   0  78    1.19    0.28
   3   0  78   -0.11    0.42
  -2   1  78    0.37    0.33
   1   1  78    0.43    0.37
  -4   2  78   -0.40    0.49
  -1   2  78    0.66    0.30
   2   2  78    0.31    0.69
  -3   3  78    0.10    0.45
   0   3  78    0.67    0.63
  -2   4  78   -0.02    0.79
   3  -4  79   65.42    2.89
   1  -3  79   90.37    3.44
   4  -3  79   67.70    3.01
  -1  -2  79   91.45    2.82
   2  -2  79  107.62    2.92
  -3  -1  79   62.10    3.01
   0  -1  79  136.20    3.39
   3  -1  79   92.72    2.78
  -2   0  79  106.45    3.01
   1   0  79  129.76    3.35
   4   0  79   57.92    2.68
  -4   1  79   67.76    3.10
  -1   1  79  141.50    3.36
   2   1  79   96.55    3.48
  -3   2  79   93.21    3.56
   0   2  79  108.27    3.81
  -2   3  79   89.89    3.37
   1   3  79   73.78    3.16
  -4   4  79   60.52    4.26
  -1   4  79   63.65    3.02
   1  -4  80    0.95    1.14
   4  -4  80    0.72    0.76
  -1  -3  80    1.96    0.69
   2  -3  80    1.92    0.64
   0  -2  80    1.27    0.45
   3  -2  80    1.80    0.66
  -2  -1  80    1.80    0.49
   1  -1  80    3.22    0.51
   4  -1  80    2.03    0.72
  -4   0  80    0.92    0.70
  -1   0  80    4.03    0.59
   2   0  80    1.64    0.65
  -3   1  80    2.76    0.71
   0   1  80    2.68    0.45
   3   1  80    1.97    0.66
  -2   2  80    2.96    0.52
   1   2  80    2.33    0.69
  -4   3  80    1.38    0.95
  -1   3  80    1.89    0.67
  -3   4  80    0.58    0.84
   0   4  80    0.12    0.76
   2  -4  81    1.96    0.83
   0  -3  81    3.59    0.81
   3  -3  81    2.82    0.80
  -2  -2  81    2.47    0.82
   1  -2  81    5.24    0.66
   4  -2  81    1.24    0.69
  -1  -1  81    3.73    0.61
   2  -1  81    3.41    0.60
  -3   0  81    3.50    0.81
   0   0  81    6.92    0.56
   3   0  81    2.62    0.69
  -2   1  81    5.32    0.70
   1   1  81    5.08    0.69
  -4   2  81    2.92    0.81
  -1   2  81    4.78    0.60
   2   2  81    3.21    1.21
  -3   3  81    2.59    0.66
   0   3  81    2.53    0.86
  -2   4  81    3.45    1.35
   3  -4  82   66.39    2.93
   1  -3  82   87.72    3.39
   4  -3  82   65.49    3.09
  -1  -2  82   88.27    3.42
   2  -2  82  103.83    2.88
  -3  -1  82   66.60    3.14
   0  -1  82  139.43    3.37
   3  -1  82   86.26    2.77
  -2   0  82   99.75    2.97
   1   0  82  123.99    3.26
   4   0  82   57.78    2.75
  -4   1  82   62.17    3.01
  -1   1  82  136.43    3.30
   2   1  82   90.97    3.52
  -3   2  82   93.13    3.55
   0   2  82  104.27    3.76
  -2   3  82   89.63    3.34
   1   3  82   67.47    3.13
  -4   4  82   61.39    4.34
  -1   4  82   63.17    2.98
   1  -4  83    1.38    1.21
   4  -4  83   -0.78    1.07
  -1  -3  83   -0.04    0.52
   2  -3  83    0.78    0.56
   0  -2  83    0.39    0.37
   3  -2  83    0.61    0.61
  -2  -1  83   -0.03    0.35
   1  -1  83    0.10    0.28
   4  -1  83   -0.01    0.58
  -4   0  83    0.39    1.12
  -1   0  83    0.40    0.32
   2   0  83   -0.04    0.45
  -3   1  83    0.12    0.46
   0   1  83   -0.03    0.24
   3   1  83    0.22    0.51
  -2   2  83    0.16    0.33
   1   2  83   -0.39    0.44
  -4   3  83    0.68    0.90
  -1   3  83    0.20    0.52
  -3   4  83   -0.16    0.83
   0   4  83    0.32    0.77
   2  -4  84    2.28    0.76
   0  -3  84    1.27    0.69
   3  -3  84    1.28    0.69
  -2  -2  84    0.80    0.66
   1  -2  84    3.39    0.58
   4  -2  84    2.44    0.84
  -1  -1  84    3.65    0.63
   2  -1  84    1.55    0.47
  -3   0  84    1.83    0.73
   0   0  84    4.05    0.45
   3   0  84    1.65    0.65
  -2   1  84    2.30    0.48
   1   1  84    2.81    0.55
  -4   2  84    2.84    0.85
  -1   2  84    3.30    0.52
   2   2  84    1.73    1.07
  -3   3  84    2.15    0.68
   0   3  84    1.96    0.83
  -2   4  84    1.35    1.03
   3  -4  85    3.02    0.88
   1  -3  85    3.55    0.84
   4  -3  85    3.48    1.02
  -1  -2  85    3.81    0.84
   2  -2  85    4.59    0.64
  -3  -1  85    3.24    0.95
   0  -1  85    7.56    0.75
   3  -1  85    3.64    0.68
  -2   0  85    6.31    0.80
   1   0  85    6.24    0.67
   4   0  85    1.94    0.82
  -4   1  85    2.89    0.88
  -1   1  85    7.07    0.69
   2   1  85    3.98    0.88
  -3   2  85    5.92    1.02
   0   2  85    5.76    0.98
  -2   3  85    3.02    0.73
   1   3  85    3.15    0.98
  -1   4  85    1.91    0.85
   1  -4  86    3.90    1.44
   4  -4  86    1.29    1.22
  -1  -3  86    3.34    0.91
   2  -3  86    4.61    0.89
   0  -2  86    4.29    0.66
   3  -2  86    2.31    0.84
  -2  -1  86    5.04    0.79
   1  -1  86    4.18    0.59
   4  -1  86    2.29    1.12
  -1   0  86    4.66    0.63
   2   0  86    4.58    0.95
  -3   1  86    4.69    0.91
   0   1  86    4.29    0.53
   3   1  86    4.59    1.34
  -2   2  86    5.08    0.69
   1   2  86    2.87    0.80
  -4   3  86    2.98    1.36
  -1   3  86    3.52    0.77
  -3   4  86    2.29    1.14
   0   4  86    2.57    1.38
   2  -4  87   -0.23    0.65
   0  -3  87    0.19    0.59
   3  -3  87   -0.06    0.60
  -2  -2  87    0.63    0.60
   1  -2  87    0.07    0.31
   4  -2  87    0.04    0.66
  -1  -1  87    0.27    0.35
   2  -1  87   -0.31    0.35
  -3   0  87   -0.11    0.46
   0   0  87    0.09    0.22
   3   0  87   -0.07    0.54
  -2   1  87    0.05    0.30
   1   1  87   -0.43    0.41
  -4   2  87   -0.10    0.55
  -1   2  87    0.03    0.35
   2   2  87    0.32    0.81
  -3   3  87    0.50    0.51
   0   3  87   -0.43    0.55
  -2   4  87   -0.27    0.86
   3  -4  88    0.83    0.67
   1  -3  88    0.06    0.45
   4  -3  88    0.58    0.76
  -1  -2  88    0.10    0.51
   2  -2  88    0.05    0.35
  -3  -1  88   -0.74    0.51
   0  -1  88    1.36    0.39
   3  -1  88    0.34    0.56
  -2   0  88    0.77    0.41
   1   0  88    1.12    0.35
  -4   1  88   -0.41    0.59
  -1   1  88    0.80    0.33
   2   1  88    0.49    0.58
  -3   2  88   -0.01    0.46
   0   2  88    0.42    0.53
  -2   3  88    0.63    0.50
   1   3  88   -0.04    0.74
  -1   4  88    0.35    0.67
   1  -4  89   10.09    2.05
  -1  -3  89   12.71    2.19
   2  -3  89   14.41    1.47
   0  -2  89   14.84    1.15
   3  -2  89   14.81    1.65
  -2  -1  89   16.22    1.32
   1  -1  89   18.06    1.14
   4  -1  89    9.59    1.86
  -1   0  89   20.37    1.27
   2   0  89   14.70    1.58
  -3   1  89   13.17    1.52
   0   1  89   19.95    1.08
   3   1  89    8.05    1.84
  -2   2  89   18.25    1.22
   1   2  89   14.82    1.64
  -4   3  89   11.37    2.02
  -1   3  89   15.15    1.52
  -3   4  89   10.95    1.95
   2  -4  90    1.76    0.82
   0  -3  90    2.94    0.82
   3  -3  90    5.26    1.05
  -2  -2  90    4.41    1.39
   1  -2  90    6.06    0.75
   4  -2  90    2.26    1.24
  -1  -1  90    6.55    0.81
   2  -1  90    6.26    0.80
  -3   0  90    5.91    1.08
   0   0  90    7.32    0.87
   3   0  90    3.08    0.88
  -2   1  90    6.91    0.81
   1   1  90    4.78    0.83
  -4   2  90    4.03    0.92
  -1   2  90    6.15    0.90
   2   2  90    3.43    1.31
  -3   3  90    4.02    0.90
   0   3  90    3.37    0.95
  -2   4  90    2.46    1.28
   3  -4  91    0.41    0.71
   1  -3  91   -0.11    0.47
   4  -3  91    0.05    0.81
  -1  -2  91    0.25    0.57
   2  -2  91    0.13    0.50
  -3  -1  91   -0.07    0.62
   0  -1  91    0.19    0.32
   3  -1  91    0.72    0.69
  -2   0  91    0.51    0.43
   1   0  91   -0.09    0.29
  -4   1  91   -0.12    0.64
  -1   1  91    0.95    0.34
   2   1  91    0.42    0.59
  -3   2  91    0.29    0.51
   0   2  91   -0.08    0.43
  -2   3  91   -0.18    0.39
   1   3  91    0.87    0.79
  -1   4  91   -0.02    0.67
   1  -4  92    0.23    1.15
  -1  -3  92    0.71    1.14
   2  -3  92    2.96    0.78
   0  -2  92    2.68    0.57
   3  -2  92    2.09    0.86
  -2  -1  92    2.37    0.66
   1  -1  92    3.18    0.50
   4  -1  92    0.55    1.07
  -1   0  92    3.74    0.57
   2   0  92    1.89    0.76
  -3   1  92    1.38    0.65
   0   1  92    1.58    0.39
   3   1  92    1.67    1.22
  -2   2  92    2.59    0.54
   1   2  92    0.47    0.87
  -1   3  92    1.53    0.62
   2  -4  93    4.34    1.01
   0  -3  93    9.26    1.21
   3  -3  93    7.50    1.28
  -2  -2  93    5.45    1.59
   1  -2  93   12.53    1.00
   4  -2  93    6.94    2.09
  -1  -1  93   15.87    1.57
   2  -1  93   11.67    1.03
  -3   0  93   10.36    1.41
   0   0  93   16.50    1.28
   3   0  93    8.41    1.40
  -2   1  93   13.44    1.10
   1   1  93   12.64    1.30
  -4   2  93    8.79    1.36
  -1   2  93   11.73    1.21
   2   2  93    6.16    1.71
  -3   3  93    9.48    1.26
   0   3  93    7.19    1.25
  -2   4  93    8.92    1.92
   3  -4  94   -0.50    0.68
   1  -3  94    0.68    0.57
   4  -3  94   -0.03    1.33
  -1  -2  94    0.88    0.59
   2  -2  94   -0.26    0.46
  -3  -1  94    0.53    1.05
   0  -1  94    0.25    0.34
   3  -1  94    0.35    0.65
  -2   0  94    0.43    0.40
   1   0  94    0.77    0.35
  -1   1  94    0.27    0.30
   2   1  94    0.74    0.71
  -3   2  94    0.48    0.57
   0   2  94   -0.21    0.44
  -2   3  94   -0.28    0.42
   1   3  94    0.37    1.11
  -1   4  94    0.22    0.82
  -1  -3  95   -0.87    0.97
   2  -3  95   -0.53    0.52
   0  -2  95    0.12    0.39
   3  -2  95   -0.35    0.72
  -2  -1  95    0.27    0.49
   1  -1  95    0.22    0.31
  -1   0  95    0.11    0.28
   2   0  95   -0.48    0.56
  -3   1  95   -0.24    0.49
   0   1  95    0.12    0.29
  -2   2  95    0.45    0.37
   1   2  95   -0.37    0.77
  -1   3  95    0.13    0.52
   2  -4  96  108.77    5.26
   0  -3  96  135.95    4.57
   3  -3  96  125.11    4.58
  -2  -2  96  102.81    5.94
   1  -2  96  188.74    4.47
  -1  -1  96  177.88    5.65
   2  -1  96  181.57    4.53
  -3   0  96  128.39    4.64
   0   0  96  212.02    5.94
   3   0  96  131.99    4.99
  -2   1  96  185.74    4.54
   1   1  96  186.20    5.53
  -4   2  96   97.77    5.97
  -1   2  96  185.78    5.47
  -3   3  96  132.92    4.59
   0   3  96  128.85    4.73
   1  -3  97   -0.25    0.53
  -1  -2  97    0.20    0.58
   2  -2  97   -0.60    0.45
   0  -1  97    0.18    0.32
   3  -1  97   -0.64    0.59
  -2   0  97    0.25    0.40
   1   0  97   -0.02    0.28
  -1   1  97   -0.09    0.30
   2   1  97   -0.10    0.64
  -3   2  97    0.40    0.58
   0   2  97    0.12    0.44
  -2   3  97   -0.53    0.43
   2  -3  98    0.57    0.64
   0  -2  98   -0.32    0.39
   3  -2  98    0.57    0.80
  -2  -1  98    0.24    0.49
   1  -1  98    0.07    0.33
  -1   0  98   -0.30    0.29
   2   0  98    0.07    0.54
  -3   1  98    0.10    0.51
   0   1  98    0.95    0.43
  -2   2  98    0.23    0.44
   1   2  98   -0.46    0.88
  -1   3  98    0.69    0.57
   0  -3  99    4.36    0.93
   3  -3  99    2.08    0.96
   1  -2  99    3.44    0.59
  -1  -1  99    3.53    0.81
   2  -1  99    3.44    0.62
  -3   0  99    4.57    1.04
   0   0  99    7.61    0.89
   3   0  99    4.81    1.17
  -2   1  99    4.72    0.71
   1   1  99    4.04    0.76
  -1   2  99    3.12    0.69
  -3   3  99    5.04    0.93
   0   3  99    2.37    0.89
   1  -3 100    0.63    0.58
  -1  -2 100    0.41    0.59
   2  -2 100    2.66    0.81
   0  -1 100    1.36    0.44
   3  -1 100    0.81    0.71
  -2   0 100    1.71    0.54
   1   0 100    1.29    0.40
  -1   1 100    1.70    0.44
   2   1 100   -0.19    0.66
  -3   2 100    0.82    0.65
   0   2 100    1.70    0.68
  -2   3 100    1.32    0.62
   2  -3 101    0.86    0.68
   0  -2 101    1.55    0.54
   3  -2 101   -0.03    0.80
  -2  -1 101   -0.42    0.56
   1  -1 101    0.53    0.37
  -1   0 101    0.31    0.41
   2   0 101    0.75    0.66
  -3   1 101    1.36    0.65
   0   1 101    0.36    0.40
  -2   2 101    0.04    0.46
   1   2 101    1.32    1.10
  -1   3 101    1.17    0.61
   0  -3 102    0.73    0.62
   3  -3 102   -0.37    0.68
   1  -2 102    0.09    0.36
  -1  -1 102    0.13    0.49
   2  -1 102    0.46    0.40
  -3   0 102   -0.28    0.59
   0   0 102    1.15    0.44
   3   0 102    0.62    0.86
  -2   1 102   -0.01    0.36
   1   1 102   -0.09    0.45
  -1   2 102    0.02    0.41
  -3   3 102   -0.31    0.52
   0   3 102    0.73    0.76
   1  -3 103   11.47    1.35
  -1  -2 103    9.63    1.40
   2  -2 103   11.97    1.40
   0  -1 103   14.09    1.09
   3  -1 103   10.07    1.39
  -2   0 103   11.93    1.14
   1   0 103   14.65    1.06
  -1   1 103   16.48    1.12
   2   1 103   10.78    2.37
  -3   2 103   11.67    1.42
   0   2 103   13.25    1.43
  -2   3 103    9.33    1.20
   2  -3 104   -0.55    0.54
   0  -2 104   -0.31    0.42
   3  -2 104    0.50    0.85
  -2  -1 104   -0.35    0.63
   1  -1 104   -0.36    0.28
  -1   0 104    0.00    0.41
   2   0 104    0.11    0.55
  -3   1 104    0.14    0.51
   0   1 104    0.27    0.40
  -2   2 104    0.39    0.48
   1   2 104   -0.30    0.80
  -1   3 104    0.16    0.59
   1  -2 105    0.78    0.43
  -1  -1 105    1.36    0.62
   2  -1 105    0.25    0.42
  -3   0 105    2.01    1.11
   0   0 105    0.76    0.44
   3   0 105    0.20    1.27
  -2   1 105    0.83    0.45
   1   1 105    0.90    0.51
  -1   2 105    0.59    0.46
  -3   3 105    0.62    0.81
   0   3 105    1.41    1.21
   1  -3 106    7.57    1.17
  -1  -2 106    6.28    1.16
   2  -2 106    7.37    1.10
   0  -1 106    8.44    1.08
   3  -1 106    4.45    0.97
  -2   0 106    7.82    0.93
   1   0 106    8.68    0.84
  -1   1 106    8.23    0.83
   2   1 106    7.10    2.04
  -3   2 106    6.13    1.02
   0   2 106    6.58    1.46
  -2   3 106    8.45    1.09
   2  -3 107    4.59    1.16
   0  -2 107    4.67    0.76
   3  -2 107    4.59    1.18
  -2  -1 107    3.58    1.06
   1  -1 107    7.04    0.77
  -1   0 107    6.38    0.99
   2   0 107    5.86    1.06
  -3   1 107    4.42    0.95
   0   1 107    6.71    0.91
  -2   2 107    7.28    1.06
   1   2 107    7.02    1.96
  -1   3 107    3.93    0.91
   1  -2 108    1.14    0.49
  -1  -1 108    0.78    0.62
   2  -1 108    0.58    0.45
   0   0 108    0.20    0.43
  -2   1 108    1.80    0.53
   1   1 108    1.00    0.61
  -1   2 108    1.57    0.57
   1  -3 109    1.64    1.02
  -1  -2 109   -0.48    0.94
   2  -2 109   -0.43    0.56
   0  -1 109    0.20    0.44
   3  -1 109    0.44    0.93
  -2   0 109    0.12    0.42
   1   0 109    0.06    0.37
  -1   1 109    0.53    0.47
  -3   2 109    0.36    0.65
   0   2 109    0.73    0.89
  -2   3 109   -0.04    0.53
   0  -2 110   61.31    2.72
   3  -2 110   45.74    4.42
   1  -1 110   66.94    2.21
  -1   0 110   64.83    2.73
   2   0 110   53.87    2.65
   0   1 110   66.47    2.63
  -2   2 110   61.14    2.72
  -1   3 110   49.11    3.62
   1  -2 111    0.13    0.48
  -1  -1 111   -0.03    0.49
   2  -1 111    0.07    0.45
   0   0 111    0.18    0.39
  -2   1 111    0.17    0.40
   1   1 111    0.36    0.50
  -1   2 111    0.21    0.47
   2  -2 112   -0.18    0.56
   0  -1 112    0.55    0.47
  -2   0 112    0.53    0.62
   1   0 112    0.26    0.47
  -1   1 112    0.19    0.44
   0   2 112    0.16    0.73
   0  -2 113   65.14    2.81
   1  -1 113   74.27    2.36
  -1   0 113   77.66    3.01
   2   0 113   54.62    2.71
   0   1 113   68.39    2.75
  -2   2 113   60.43    2.71
   1  -2 114    0.09    0.56
  -1  -1 114    0.71    0.65
   2  -1 114    0.37    0.45
   0   0 114    0.28    0.43
  -2   1 114    0.28    0.38
   1   1 114    0.20    0.52
  -1   2 114    0.47    0.52
   2  -2 115   -0.41    1.08
   0  -1 115    0.24    0.43
   1   0 115    0.45    0.47
  -1   1 115   -0.14    0.45
   0  -2 116    3.96    1.29
   1  -1 116    4.78    0.67
  -1   0 116    5.49    0.88
   2   0 116    4.06    1.36
   0   1 116    5.29    0.85
  -2   2 116    2.68    1.00
  -1  -1 117    1.39    1.08
   2  -1 117    0.09    0.52
   0   0 117   -0.01    0.44
  -2   1 117   -0.29    0.49
   0  -1 118    1.92    0.66
   1   0 118    1.48    0.59
  -1   1 118    1.36    0.58
   1  -1 119    4.61    0.69
  -1   0 119    4.06    0.83
   0   1 119    5.54    0.86
   0   0 120    5.02    0.85
   0  -1 121    5.29    0.93
   1   0 121    4.90    0.89
  -1   1 121    6.45    1.30
   1  -1 122    2.38    0.71
   0   1 122    3.15    1.03
   0   0 123   13.86    1.35
   0   0   0    0.00    0.00
;
_shelx_hkl_checksum              99242
#END Tags that were not found in dictionaries
loop_
_space_group_symop_operation_xyz
'x, y, z'
'-y, x-y, z'
'-x+y, -x, z'
'y, x, -z'
'x-y, -y, -z'
'-x, -x+y, -z'
'x+2/3, y+1/3, z+1/3'
'-y+2/3, x-y+1/3, z+1/3'
'-x+y+2/3, -x+1/3, z+1/3'
'y+2/3, x+1/3, -z+1/3'
'x-y+2/3, -y+1/3, -z+1/3'
'-x+2/3, -x+y+1/3, -z+1/3'
'x+1/3, y+2/3, z+2/3'
'-y+1/3, x-y+2/3, z+2/3'
'-x+y+1/3, -x+2/3, z+2/3'
'y+1/3, x+2/3, -z+2/3'
'x-y+1/3, -y+2/3, -z+2/3'
'-x+1/3, -x+y+2/3, -z+2/3'
'-x, -y, -z'
'y, -x+y, -z'
'x-y, x, -z'
'-y, -x, z'
'-x+y, y, z'
'x, x-y, z'
'-x+2/3, -y+1/3, -z+1/3'
'y+2/3, -x+y+1/3, -z+1/3'
'x-y+2/3, x+1/3, -z+1/3'
'-y+2/3, -x+1/3, z+1/3'
'-x+y+2/3, y+1/3, z+1/3'
'x+2/3, x-y+1/3, z+1/3'
'-x+1/3, -y+2/3, -z+2/3'
'y+1/3, -x+y+2/3, -z+2/3'
'x-y+1/3, x+2/3, -z+2/3'
'-y+1/3, -x+2/3, z+2/3'
'-x+y+1/3, y+2/3, z+2/3'
'x+1/3, x-y+2/3, z+2/3'
loop_
_atom_site_label
_atom_site_type_symbol
_atom_site_fract_x
_atom_site_fract_y
_atom_site_fract_z
_atom_site_U_iso_or_equiv
_atom_site_adp_type
_atom_site_occupancy
_atom_site_site_symmetry_order
_atom_site_calc_flag
_atom_site_refinement_flags_posn
_atom_site_refinement_flags_adp
_atom_site_refinement_flags_occupancy
Sm1 Sm 0.0000 0.0000 0.29186(2) 0.00722(11) Uani 1 6 d S T P
Sm2 Sm 0.0000 0.0000 0.41644(2) 0.00821(12) Uani 1 6 d S T P
Sm3 Sm 0.0000 0.0000 0.5000 0.0113(5) Uani 0.400(4) 12 d S T .
Sm4 Sm 0.0000 0.0000 0.0000 0.00703(14) Uani 1 12 d S T P
Zn1 Zn 0.0000 0.0000 0.11549(2) 0.0169(3) Uani 1 6 d S T P
Zn2A Zn 0.0000 0.0000 0.19437(3) 0.0286(5) Uani 0.819(4) 6 d S T P
Zn2B Zn 0.0000 0.0000 0.17988(12) 0.0286(5) Uani 0.181(4) 6 d S T P
As1 As 0.0000 0.0000 0.06272(2) 0.00677(18) Uani 1 6 d S T P
As2 As 0.0000 0.0000 0.14601(2) 0.0122(2) Uani 1 6 d S T P
As3 As 0.0000 0.0000 0.22865(2) 0.00884(19) Uani 1 6 d S T P
As4 As 0.0000 0.0000 0.35424(2) 0.00704(17) Uani 1 6 d S T P
loop_
_atom_site_aniso_label
_atom_site_aniso_U_11
_atom_site_aniso_U_22
_atom_site_aniso_U_33
_atom_site_aniso_U_23
_atom_site_aniso_U_13
_atom_site_aniso_U_12
Sm1 0.00666(14) 0.00666(14) 0.0083(2) 0.000 0.000 0.00333(7)
Sm2 0.00741(15) 0.00741(15) 0.0098(2) 0.000 0.000 0.00370(7)
Sm3 0.0117(6) 0.0117(6) 0.0106(9) 0.000 0.000 0.0059(3)
Sm4 0.00665(18) 0.00665(18) 0.0078(3) 0.000 0.000 0.00333(9)
Zn1 0.0175(4) 0.0175(4) 0.0156(6) 0.000 0.000 0.00877(19)
Zn2A 0.0185(5) 0.0185(5) 0.0489(12) 0.000 0.000 0.0092(3)
Zn2B 0.0185(5) 0.0185(5) 0.0489(12) 0.000 0.000 0.0092(3)
As1 0.0062(3) 0.0062(3) 0.0080(4) 0.000 0.000 0.00308(13)
As2 0.0116(3) 0.0116(3) 0.0134(4) 0.000 0.000 0.00579(15)
As3 0.0080(3) 0.0080(3) 0.0105(4) 0.000 0.000 0.00400(13)
As4 0.0065(2) 0.0065(2) 0.0081(4) 0.000 0.000 0.00326(12)
loop_
_atom_type_symbol
_atom_type_description
_atom_type_scat_dispersion_real
_atom_type_scat_dispersion_imag
_atom_type_scat_source
Zn Zn 0.2839 1.4301 'International Tables Vol C Tables 4.2.6.8 and 6.1.1.4'
As As 0.0499 2.0058 'International Tables Vol C Tables 4.2.6.8 and 6.1.1.4'
Sm Sm -0.1638 3.4418 'International Tables Vol C Tables 4.2.6.8 and 6.1.1.4'
loop_
_geom_angle_atom_site_label_1
_geom_angle_atom_site_label_2
_geom_angle_atom_site_label_3
_geom_angle
_geom_angle_site_symmetry_1
_geom_angle_site_symmetry_3
As4 Sm1 As4 90.31(2) 31 31_445
As4 Sm1 As4 90.31(2) 31 31_545
As4 Sm1 As4 90.31(2) 31_445 31_545
As4 Sm1 As1 179.11(3) 31 25_445
As4 Sm1 As1 90.316(16) 31_445 25_445
As4 Sm1 As1 90.317(16) 31_545 25_445
As4 Sm1 As1 90.316(16) 31 25
As4 Sm1 As1 179.11(3) 31_445 25
As4 Sm1 As1 90.317(16) 31_545 25
As1 Sm1 As1 89.05(2) 25_445 25
As4 Sm1 As1 90.317(16) 31 25_455
As4 Sm1 As1 90.317(16) 31_445 25_455
As4 Sm1 As1 179.11(3) 31_545 25_455
As1 Sm1 As1 89.05(2) 25_445 25_455
As1 Sm1 As1 89.05(2) 25 25_455
As1 Sm2 As1 90.65(2) 7_445 7
As1 Sm2 As1 90.65(2) 7_445 7_455
As1 Sm2 As1 90.65(2) 7 7_455
As1 Sm2 As3 178.45(3) 7_445 31
As1 Sm2 As3 90.447(16) 7 31
As1 Sm2 As3 90.447(16) 7_455 31
As1 Sm2 As3 90.447(16) 7_445 31_445
As1 Sm2 As3 178.45(3) 7 31_445
As1 Sm2 As3 90.447(16) 7_455 31_445
As3 Sm2 As3 88.44(2) 31 31_445
As1 Sm2 As3 90.447(16) 7_445 31_545
As1 Sm2 As3 90.447(16) 7 31_545
As1 Sm2 As3 178.45(3) 7_455 31_545
As3 Sm2 As3 88.44(2) 31 31_545
As3 Sm2 As3 88.44(2) 31_445 31_545
As1 Sm2 Zn1 134.323(10) 7_445 7
As1 Sm2 Zn1 82.65(2) 7 7
As1 Sm2 Zn1 134.322(10) 7_455 7
As3 Sm2 Zn1 44.785(10) 31 7
As3 Sm2 Zn1 95.79(2) 31_445 7
As3 Sm2 Zn1 44.786(10) 31_545 7
As1 Sm2 Zn1 82.65(2) 7_445 7_445
As1 Sm2 Zn1 134.323(10) 7 7_445
As1 Sm2 Zn1 134.322(10) 7_455 7_445
As3 Sm2 Zn1 95.79(2) 31 7_445
As3 Sm2 Zn1 44.785(10) 31_445 7_445
As3 Sm2 Zn1 44.786(10) 31_545 7_445
Zn1 Sm2 Zn1 71.07(2) 7 7_445
As1 Sm2 Zn1 134.322(10) 7_445 7_455
As1 Sm2 Zn1 134.322(10) 7 7_455
As1 Sm2 Zn1 82.65(2) 7_455 7_455
As3 Sm2 Zn1 44.786(10) 31 7_455
As3 Sm2 Zn1 44.786(10) 31_445 7_455
As3 Sm2 Zn1 95.79(2) 31_545 7_455
Zn1 Sm2 Zn1 71.07(2) 7 7_455
Zn1 Sm2 Zn1 71.07(2) 7_445 7_455
Zn2B Sm3 Zn2B 180.0(4) 31_445 7
Zn2B Sm3 Zn2B 104.3(2) 31_445 31
Zn2B Sm3 Zn2B 75.7(2) 7 31
Zn2B Sm3 Zn2B 75.7(2) 31_445 7_445
Zn2B Sm3 Zn2B 104.3(2) 7 7_445
Zn2B Sm3 Zn2B 180.0(4) 31 7_445
Zn2B Sm3 Zn2B 104.3(2) 31_445 31_545
Zn2B Sm3 Zn2B 75.7(2) 7 31_545
Zn2B Sm3 Zn2B 104.3(2) 31 31_545
Zn2B Sm3 Zn2B 75.7(2) 7_445 31_545
Zn2B Sm3 Zn2B 75.7(2) 31_445 7_455
Zn2B Sm3 Zn2B 104.3(2) 7 7_455
Zn2B Sm3 Zn2B 75.7(2) 31 7_455
Zn2B Sm3 Zn2B 104.3(2) 7_445 7_455
Zn2B Sm3 Zn2B 180.0(4) 31_545 7_455
Zn2B Sm3 As2 127.54(9) 31_445 31
Zn2B Sm3 As2 52.46(9) 7 31
Zn2B Sm3 As2 59.4(2) 31 31
Zn2B Sm3 As2 120.6(2) 7_445 31
Zn2B Sm3 As2 127.54(9) 31_545 31
Zn2B Sm3 As2 52.46(9) 7_455 31
Zn2B Sm3 As2 52.46(9) 31_445 7_445
Zn2B Sm3 As2 127.54(9) 7 7_445
Zn2B Sm3 As2 120.6(2) 31 7_445
Zn2B Sm3 As2 59.4(2) 7_445 7_445
Zn2B Sm3 As2 52.46(9) 31_545 7_445
Zn2B Sm3 As2 127.54(9) 7_455 7_445
As2 Sm3 As2 180.0 31 7_445
Zn2B Sm3 As2 59.4(2) 31_445 31_445
Zn2B Sm3 As2 120.6(2) 7 31_445
Zn2B Sm3 As2 127.54(9) 31 31_445
Zn2B Sm3 As2 52.46(9) 7_445 31_445
Zn2B Sm3 As2 127.54(9) 31_545 31_445
Zn2B Sm3 As2 52.46(9) 7_455 31_445
As2 Sm3 As2 90.14(2) 31 31_445
As2 Sm3 As2 89.86(2) 7_445 31_445
Zn2B Sm3 As2 120.6(2) 31_445 7
Zn2B Sm3 As2 59.4(2) 7 7
Zn2B Sm3 As2 52.46(9) 31 7
Zn2B Sm3 As2 127.54(9) 7_445 7
Zn2B Sm3 As2 52.46(9) 31_545 7
Zn2B Sm3 As2 127.54(9) 7_455 7
As2 Sm3 As2 89.86(2) 31 7
As2 Sm3 As2 90.14(2) 7_445 7
As2 Sm3 As2 180.00(3) 31_445 7
Zn2B Sm3 As2 127.54(9) 31_445 31_545
Zn2B Sm3 As2 52.46(9) 7 31_545
Zn2B Sm3 As2 127.54(9) 31 31_545
Zn2B Sm3 As2 52.46(9) 7_445 31_545
Zn2B Sm3 As2 59.4(2) 31_545 31_545
Zn2B Sm3 As2 120.6(2) 7_455 31_545
As2 Sm3 As2 90.14(2) 31 31_545
As2 Sm3 As2 89.86(2) 7_445 31_545
As2 Sm3 As2 90.14(2) 31_445 31_545
As2 Sm3 As2 89.86(2) 7 31_545
Zn2B Sm3 As2 52.46(9) 31_445 7_455
Zn2B Sm3 As2 127.54(9) 7 7_455
Zn2B Sm3 As2 52.46(9) 31 7_455
Zn2B Sm3 As2 127.54(9) 7_445 7_455
Zn2B Sm3 As2 120.6(2) 31_545 7_455
Zn2B Sm3 As2 59.4(2) 7_455 7_455
As2 Sm3 As2 89.86(2) 31 7_455
As2 Sm3 As2 90.14(2) 7_445 7_455
As2 Sm3 As2 89.86(2) 31_445 7_455
As2 Sm3 As2 90.14(2) 7 7_455
As2 Sm3 As2 180.00(3) 31_545 7_455
As4 Sm4 As4 180.00(3) 25_445 13_554
As4 Sm4 As4 89.68(2) 25_445 25
As4 Sm4 As4 90.32(2) 13_554 25
As4 Sm4 As4 90.32(2) 25_445 13_444
As4 Sm4 As4 89.68(2) 13_554 13_444
As4 Sm4 As4 180.00(3) 25 13_444
As4 Sm4 As4 90.32(2) 25_445 13_544
As4 Sm4 As4 89.68(2) 13_554 13_544
As4 Sm4 As4 90.32(2) 25 13_544
As4 Sm4 As4 89.68(2) 13_444 13_544
As4 Sm4 As4 89.68(2) 25_445 25_455
As4 Sm4 As4 90.32(2) 13_554 25_455
As4 Sm4 As4 89.68(2) 25 25_455
As4 Sm4 As4 90.32(2) 13_444 25_455
As4 Sm4 As4 180.00(3) 13_544 25_455
As2 Zn1 As3 110.22(3) . 25_445
As2 Zn1 As3 110.22(3) . 25
As3 Zn1 As3 108.71(3) 25_445 25
As2 Zn1 As3 110.22(3) . 25_455
As3 Zn1 As3 108.71(3) 25_445 25_455
As3 Zn1 As3 108.71(3) 25 25_455
As2 Zn1 Zn2A 51.31(4) . 25
As3 Zn1 Zn2A 125.61(2) 25_445 25
As3 Zn1 Zn2A 58.91(4) 25 25
As3 Zn1 Zn2A 125.61(2) 25_455 25
As2 Zn1 Zn2A 51.31(4) . 25_445
As3 Zn1 Zn2A 58.91(4) 25_445 25_445
As3 Zn1 Zn2A 125.61(2) 25 25_445
As3 Zn1 Zn2A 125.61(2) 25_455 25_445
Zn2A Zn1 Zn2A 85.05(5) 25 25_445
As2 Zn1 Zn2A 51.31(4) . 25_455
As3 Zn1 Zn2A 125.61(2) 25_445 25_455
As3 Zn1 Zn2A 125.61(2) 25 25_455
As3 Zn1 Zn2A 58.91(4) 25_455 25_455
Zn2A Zn1 Zn2A 85.05(5) 25 25_455
Zn2A Zn1 Zn2A 85.05(5) 25_445 25_455
As2 Zn1 Sm2 137.852(15) . 13_444
As3 Zn1 Sm2 55.17(2) 25_445 13_444
As3 Zn1 Sm2 111.93(5) 25 13_444
As3 Zn1 Sm2 55.17(2) 25_455 13_444
Zn2A Zn1 Sm2 170.84(5) 25 13_444
Zn2A Zn1 Sm2 101.63(3) 25_445 13_444
Zn2A Zn1 Sm2 101.63(3) 25_455 13_444
As2 Zn1 Sm2 137.852(15) . 13_554
As3 Zn1 Sm2 111.93(5) 25_445 13_554
As3 Zn1 Sm2 55.17(2) 25 13_554
As3 Zn1 Sm2 55.17(2) 25_455 13_554
Zn2A Zn1 Sm2 101.63(3) 25 13_554
Zn2A Zn1 Sm2 170.84(5) 25_445 13_554
Zn2A Zn1 Sm2 101.63(3) 25_455 13_554
Sm2 Zn1 Sm2 71.06(2) 13_444 13_554
As2 Zn1 Sm2 137.852(15) . 13_544
As3 Zn1 Sm2 55.17(2) 25_445 13_544
As3 Zn1 Sm2 55.17(2) 25 13_544
As3 Zn1 Sm2 111.93(5) 25_455 13_544
Zn2A Zn1 Sm2 101.63(3) 25 13_544
Zn2A Zn1 Sm2 101.63(3) 25_445 13_544
Zn2A Zn1 Sm2 170.84(5) 25_455 13_544
Sm2 Zn1 Sm2 71.06(2) 13_444 13_544
Sm2 Zn1 Sm2 71.06(2) 13_554 13_544
Zn2B Zn2A As2 76.49(5) . 25_445
Zn2B Zn2A As2 76.49(5) . 25
As2 Zn2A As2 114.72(4) 25_445 25
Zn2B Zn2A As2 76.49(5) . 25_455
As2 Zn2A As2 114.72(4) 25_445 25_455
As2 Zn2A As2 114.72(4) 25 25_455
Zn2B Zn2A As3 180.0 . .
As2 Zn2A As3 103.51(5) 25_445 .
As2 Zn2A As3 103.51(5) 25 .
As2 Zn2A As3 103.51(5) 25_455 .
Zn2B Zn2A Zn1 128.70(4) . 25
As2 Zn2A Zn1 121.70(4) 25_445 25
As2 Zn2A Zn1 52.21(3) 25 25
As2 Zn2A Zn1 121.70(4) 25_455 25
As3 Zn2A Zn1 51.30(4) . 25
Zn2B Zn2A Zn1 128.70(4) . 25_445
As2 Zn2A Zn1 52.21(3) 25_445 25_445
As2 Zn2A Zn1 121.70(4) 25 25_445
As2 Zn2A Zn1 121.70(4) 25_455 25_445
As3 Zn2A Zn1 51.30(4) . 25_445
Zn1 Zn2A Zn1 85.05(5) 25 25_445
Zn2B Zn2A Zn1 128.70(4) . 25_455
As2 Zn2A Zn1 121.70(4) 25_445 25_455
As2 Zn2A Zn1 121.70(4) 25 25_455
As2 Zn2A Zn1 52.20(3) 25_455 25_455
As3 Zn2A Zn1 51.30(4) . 25_455
Zn1 Zn2A Zn1 85.05(5) 25 25_455
Zn1 Zn2A Zn1 85.05(5) 25_445 25_455
Zn2B Zn2A Sm3 46.62(3) . 13_444
As2 Zn2A Sm3 59.08(3) 25_445 13_444
As2 Zn2A Sm3 123.11(8) 25 13_444
As2 Zn2A Sm3 59.08(3) 25_455 13_444
As3 Zn2A Sm3 133.38(3) . 13_444
Zn1 Zn2A Sm3 175.32(6) 25 13_444
Zn1 Zn2A Sm3 98.382(16) 25_445 13_444
Zn1 Zn2A Sm3 98.382(16) 25_455 13_444
Zn2B Zn2A Sm3 46.62(3) . 13_554
As2 Zn2A Sm3 123.11(8) 25_445 13_554
As2 Zn2A Sm3 59.08(3) 25 13_554
As2 Zn2A Sm3 59.08(3) 25_455 13_554
As3 Zn2A Sm3 133.38(3) . 13_554
Zn1 Zn2A Sm3 98.382(16) 25 13_554
Zn1 Zn2A Sm3 175.32(6) 25_445 13_554
Zn1 Zn2A Sm3 98.382(16) 25_455 13_554
Sm3 Zn2A Sm3 78.02(4) 13_444 13_554
Zn2B Zn2A Sm3 46.62(3) . 13_544
As2 Zn2A Sm3 59.08(3) 25_445 13_544
As2 Zn2A Sm3 59.08(3) 25 13_544
As2 Zn2A Sm3 123.11(8) 25_455 13_544
As3 Zn2A Sm3 133.38(3) . 13_544
Zn1 Zn2A Sm3 98.382(16) 25 13_544
Zn1 Zn2A Sm3 98.382(16) 25_445 13_544
Zn1 Zn2A Sm3 175.32(6) 25_455 13_544
Sm3 Zn2A Sm3 78.02(4) 13_444 13_544
Sm3 Zn2A Sm3 78.02(4) 13_554 13_544
Zn2A Zn2B As2 75.7(2) . 25
Zn2A Zn2B As2 75.7(2) . 25_445
As2 Zn2B As2 114.15(18) 25 25_445
Zn2A Zn2B As2 75.7(2) . 25_455
As2 Zn2B As2 114.15(18) 25 25_455
As2 Zn2B As2 114.15(18) 25_445 25_455
Zn2A Zn2B Sm3 114.3(2) . 13_444
As2 Zn2B Sm3 170.0(4) 25 13_444
As2 Zn2B Sm3 70.08(4) 25_445 13_444
As2 Zn2B Sm3 70.08(4) 25_455 13_444
Zn2A Zn2B Sm3 114.3(2) . 13_554
As2 Zn2B Sm3 70.08(4) 25 13_554
As2 Zn2B Sm3 170.0(4) 25_445 13_554
As2 Zn2B Sm3 70.08(4) 25_455 13_554
Sm3 Zn2B Sm3 104.3(2) 13_444 13_554
Zn2A Zn2B Sm3 114.3(2) . 13_544
As2 Zn2B Sm3 70.08(4) 25 13_544
As2 Zn2B Sm3 70.08(4) 25_445 13_544
As2 Zn2B Sm3 170.0(4) 25_455 13_544
Sm3 Zn2B Sm3 104.3(2) 13_444 13_544
Sm3 Zn2B Sm3 104.3(2) 13_554 13_544
Zn2A Zn2B As2 180.0 . .
As2 Zn2B As2 104.3(2) 25 .
As2 Zn2B As2 104.3(2) 25_445 .
As2 Zn2B As2 104.3(2) 25_455 .
Sm3 Zn2B As2 65.7(2) 13_444 .
Sm3 Zn2B As2 65.7(2) 13_554 .
Sm3 Zn2B As2 65.7(2) 13_544 .
Sm2 As1 Sm2 90.66(2) 13_554 13_444
Sm2 As1 Sm2 90.66(2) 13_554 13_544
Sm2 As1 Sm2 90.66(2) 13_444 13_544
Sm2 As1 Sm1 178.86(3) 13_554 25_445
Sm2 As1 Sm1 90.145(9) 13_444 25_445
Sm2 As1 Sm1 90.145(9) 13_544 25_445
Sm2 As1 Sm1 90.145(9) 13_554 25
Sm2 As1 Sm1 178.86(3) 13_444 25
Sm2 As1 Sm1 90.145(9) 13_544 25
Sm1 As1 Sm1 89.04(2) 25_445 25
Sm2 As1 Sm1 90.145(9) 13_554 25_455
Sm2 As1 Sm1 90.145(9) 13_444 25_455
Sm2 As1 Sm1 178.86(3) 13_544 25_455
Sm1 As1 Sm1 89.04(2) 25_445 25_455
Sm1 As1 Sm1 89.04(2) 25 25_455
Zn2A As2 Zn2A 114.72(4) 25_445 25
Zn2A As2 Zn2A 114.72(4) 25_445 25_455
Zn2A As2 Zn2A 114.72(4) 25 25_455
Zn2A As2 Zn2B 121.92(3) 25_445 25
Zn2A As2 Zn2B 27.8(2) 25 25
Zn2A As2 Zn2B 121.92(3) 25_455 25
Zn2A As2 Zn2B 27.8(2) 25_445 25_445
Zn2A As2 Zn2B 121.92(3) 25 25_445
Zn2A As2 Zn2B 121.92(3) 25_455 25_445
Zn2B As2 Zn2B 114.15(17) 25 25_445
Zn2A As2 Zn2B 121.92(3) 25_445 25_455
Zn2A As2 Zn2B 121.92(3) 25 25_455
Zn2A As2 Zn2B 27.8(2) 25_455 25_455
Zn2B As2 Zn2B 114.15(17) 25 25_455
Zn2B As2 Zn2B 114.15(17) 25_445 25_455
Zn2A As2 Zn1 76.49(5) 25_445 .
Zn2A As2 Zn1 76.49(5) 25 .
Zn2A As2 Zn1 76.49(5) 25_455 .
Zn2B As2 Zn1 104.3(2) 25 .
Zn2B As2 Zn1 104.3(2) 25_445 .
Zn2B As2 Zn1 104.3(2) 25_455 .
Zn2A As2 Zn2B 103.51(5) 25_445 .
Zn2A As2 Zn2B 103.51(5) 25 .
Zn2A As2 Zn2B 103.51(5) 25_455 .
Zn2B As2 Zn2B 75.7(2) 25 .
Zn2B As2 Zn2B 75.7(2) 25_445 .
Zn2B As2 Zn2B 75.7(2) 25_455 .
Zn1 As2 Zn2B 180.0 . .
Zn2A As2 Sm3 158.35(6) 25_445 13_554
Zn2A As2 Sm3 74.76(3) 25 13_554
Zn2A As2 Sm3 74.76(3) 25_455 13_554
Zn2B As2 Sm3 57.46(12) 25 13_554
Zn2B As2 Sm3 130.6(2) 25_445 13_554
Zn2B As2 Sm3 57.46(12) 25_455 13_554
Zn1 As2 Sm3 125.164(17) . 13_554
Zn2B As2 Sm3 54.836(17) . 13_554
Zn2A As2 Sm3 74.76(3) 25_445 13_444
Zn2A As2 Sm3 158.35(6) 25 13_444
Zn2A As2 Sm3 74.76(3) 25_455 13_444
Zn2B As2 Sm3 130.6(2) 25 13_444
Zn2B As2 Sm3 57.46(12) 25_445 13_444
Zn2B As2 Sm3 57.46(12) 25_455 13_444
Zn1 As2 Sm3 125.164(17) . 13_444
Zn2B As2 Sm3 54.836(17) . 13_444
Sm3 As2 Sm3 90.14(2) 13_554 13_444
Zn2A As2 Sm3 74.76(3) 25_445 13_544
Zn2A As2 Sm3 74.76(3) 25 13_544
Zn2A As2 Sm3 158.35(6) 25_455 13_544
Zn2B As2 Sm3 57.46(12) 25 13_544
Zn2B As2 Sm3 57.46(12) 25_445 13_544
Zn2B As2 Sm3 130.6(2) 25_455 13_544
Zn1 As2 Sm3 125.163(17) . 13_544
Zn2B As2 Sm3 54.837(17) . 13_544
Sm3 As2 Sm3 90.14(2) 13_554 13_544
Sm3 As2 Sm3 90.14(2) 13_444 13_544
Zn1 As3 Zn1 108.71(3) 25_445 25
Zn1 As3 Zn1 108.71(4) 25_445 25_455
Zn1 As3 Zn1 108.71(3) 25 25_455
Zn1 As3 Zn2A 69.78(3) 25_445 .
Zn1 As3 Zn2A 69.78(3) 25 .
Zn1 As3 Zn2A 69.78(3) 25_455 .
Zn1 As3 Sm2 163.86(5) 25_445 31
Zn1 As3 Sm2 80.04(2) 25 31
Zn1 As3 Sm2 80.04(2) 25_455 31
Zn2A As3 Sm2 126.359(17) . 31
Zn1 As3 Sm2 80.04(2) 25_445 31_445
Zn1 As3 Sm2 163.86(5) 25 31_445
Zn1 As3 Sm2 80.04(2) 25_455 31_445
Zn2A As3 Sm2 126.358(17) . 31_445
Sm2 As3 Sm2 88.44(2) 31 31_445
Zn1 As3 Sm2 80.04(2) 25_445 31_545
Zn1 As3 Sm2 80.04(2) 25 31_545
Zn1 As3 Sm2 163.86(5) 25_455 31_545
Zn2A As3 Sm2 126.358(17) . 31_545
Sm2 As3 Sm2 88.44(2) 31 31_545
Sm2 As3 Sm2 88.44(2) 31_445 31_545
Sm1 As4 Sm1 90.31(2) 31 31_445
Sm1 As4 Sm1 90.31(2) 31 31_545
Sm1 As4 Sm1 90.31(2) 31_445 31_545
Sm1 As4 Sm4 179.55(3) 31 7_445
Sm1 As4 Sm4 90.005(8) 31_445 7_445
Sm1 As4 Sm4 90.006(8) 31_545 7_445
Sm1 As4 Sm4 90.005(8) 31 7
Sm1 As4 Sm4 179.55(3) 31_445 7
Sm1 As4 Sm4 90.006(8) 31_545 7
Sm4 As4 Sm4 89.68(2) 7_445 7
Sm1 As4 Sm4 90.006(8) 31 7_455
Sm1 As4 Sm4 90.006(8) 31_445 7_455
Sm1 As4 Sm4 179.55(3) 31_545 7_455
Sm4 As4 Sm4 89.68(2) 7_445 7_455
Sm4 As4 Sm4 89.68(2) 7 7_455
loop_
_geom_bond_atom_site_label_1
_geom_bond_atom_site_label_2
_geom_bond_distance
_geom_bond_site_symmetry_2
Sm1 As4 2.9398(6) 31
Sm1 As4 2.9398(6) 31_445
Sm1 As4 2.9399(6) 31_545
Sm1 As1 2.9727(6) 25_445
Sm1 As1 2.9727(6) 25
Sm1 As1 2.9727(6) 25_455
Sm2 As1 2.9314(6) 7_445
Sm2 As1 2.9314(6) 7
Sm2 As1 2.9314(6) 7_455
Sm2 As3 2.9888(7) 31
Sm2 As3 2.9888(7) 31_445
Sm2 As3 2.9889(7) 31_545
Sm2 Zn1 3.5865(10) 7
Sm2 Zn1 3.5865(10) 7_445
Sm2 Zn1 3.5865(10) 7_455
Sm3 Zn2B 2.640(4) 31_445
Sm3 Zn2B 2.640(4) 7
Sm3 Zn2B 2.640(4) 31
Sm3 Zn2B 2.640(4) 7_445
Sm3 Zn2B 2.640(4) 31_545
Sm3 Zn2B 2.640(4) 7_455
Sm3 As2 2.9442(6) 31
Sm3 As2 2.9442(6) 7_445
Sm3 As2 2.9442(6) 31_445
Sm3 As2 2.9442(6) 7
Sm3 As2 2.9442(6) 31_545
Sm3 As2 2.9442(6) 7_455
Sm4 As4 2.9562(6) 25_445
Sm4 As4 2.9562(6) 13_554
Sm4 As4 2.9562(6) 25
Sm4 As4 2.9562(6) 13_444
Sm4 As4 2.9562(6) 13_544
Sm4 As4 2.9562(6) 25_455
Zn1 As2 2.5061(17) .
Zn1 As3 2.5650(6) 25_445
Zn1 As3 2.5650(6) 25
Zn1 As3 2.5650(6) 25_455
Zn1 Zn2A 3.0838(16) 25
Zn1 Zn2A 3.0838(16) 25_445
Zn1 Zn2A 3.0838(16) 25_455
Zn1 Sm2 3.5868(10) 13_444
Zn1 Sm2 3.5868(10) 13_554
Zn1 Sm2 3.5868(10) 13_544
Zn2A Zn2B 1.190(10) .
Zn2A As2 2.4754(6) 25_445
Zn2A As2 2.4754(6) 25
Zn2A As2 2.4754(6) 25_455
Zn2A As3 2.815(2) .
Zn2A Zn1 3.0839(16) 25
Zn2A Zn1 3.0839(16) 25_445
Zn2A Zn1 3.0839(16) 25_455
Zn2A Sm3 3.3116(15) 13_444
Zn2A Sm3 3.3116(15) 13_554
Zn2A Sm3 3.3116(15) 13_544
Zn2B As2 2.483(2) 25
Zn2B As2 2.483(2) 25_445
Zn2B As2 2.483(2) 25_455
Zn2B Sm3 2.640(4) 13_444
Zn2B Sm3 2.640(4) 13_554
Zn2B Sm3 2.640(4) 13_544
Zn2B As2 2.780(10) .
As1 Sm2 2.9311(6) 13_554
As1 Sm2 2.9311(6) 13_444
As1 Sm2 2.9311(6) 13_544
As1 Sm1 2.9728(6) 25_445
As1 Sm1 2.9728(6) 25
As1 Sm1 2.9728(6) 25_455
As2 Zn2A 2.4754(6) 25_445
As2 Zn2A 2.4754(6) 25
As2 Zn2A 2.4754(6) 25_455
As2 Zn2B 2.483(2) 25
As2 Zn2B 2.483(2) 25_445
As2 Zn2B 2.483(2) 25_455
As2 Sm3 2.9442(6) 13_554
As2 Sm3 2.9442(6) 13_444
As2 Sm3 2.9442(6) 13_544
As3 Zn1 2.5650(6) 25_445
As3 Zn1 2.5650(6) 25
As3 Zn1 2.5650(6) 25_455
As3 Sm2 2.9887(7) 31
As3 Sm2 2.9887(7) 31_445
As3 Sm2 2.9888(7) 31_545
As4 Sm1 2.9399(6) 31
As4 Sm1 2.9399(6) 31_445
As4 Sm1 2.9399(6) 31_545
As4 Sm4 2.9562(6) 7_445
As4 Sm4 2.9562(6) 7
As4 Sm4 2.9562(6) 7_455
