#------------------------------------------------------------------------------
#$Date: 2016-02-13 21:28:24 +0200 (Sat, 13 Feb 2016) $
#$Revision: 176429 $
#$URL: svn://www.crystallography.net/cod/cif/7/03/70/7037024.cif $
#------------------------------------------------------------------------------
#
# This file is available in the Crystallography Open Database (COD),
# http://www.crystallography.net/
#
# All data on this site have been placed in the public domain by the
# contributors.
#
data_7037024
loop_
_publ_author_name
'Lin, Xinsong'
'Tabassum, Danisa'
'Mar, Arthur'
_publ_section_title
;
 Narrowing the gap: from semiconductor to semimetal in the homologous
 series of rare-earth zinc arsenides RE2-yZn4As4&#x00B7;n(REAs) and
 Mn-substituted derivatives RE2-yMnxZn4-xAs4&#x00B7;n(REAs) (RE = La-Nd,
 Sm, Gd).
;
_journal_issue                   46
_journal_name_full
'Dalton transactions (Cambridge, England : 2003)'
_journal_page_first              20254
_journal_page_last               20264
_journal_paper_doi               10.1039/c5dt03596a
_journal_volume                  44
_journal_year                    2015
_chemical_formula_structural     'Nd4.40 Zn4 As7'
_chemical_formula_sum            'As7 Nd4.4 Zn4'
_chemical_formula_weight         1420.58
_chemical_name_common            'neodymium zinc arsenide (4.4/4/7)'
_chemical_name_systematic        'neodymium zinc arsenide (4.4/4/7)'
_space_group_crystal_system      trigonal
_space_group_IT_number           164
_space_group_name_Hall           '-P 3 2"'
_space_group_name_H-M_alt        'P -3 m 1'
_symmetry_space_group_name_Hall  '-P 3 2"'
_symmetry_space_group_name_H-M   'P -3 m 1'
_atom_sites_solution_primary     direct
_atom_sites_solution_secondary   difmap
_audit_creation_method           SHELXL-2013
_cell_angle_alpha                90
_cell_angle_beta                 90
_cell_angle_gamma                120
_cell_formula_units_Z            1
_cell_length_a                   4.197(3)
_cell_length_b                   4.197(3)
_cell_length_c                   24.204(15)
_cell_measurement_reflns_used    1324
_cell_measurement_temperature    296(2)
_cell_measurement_theta_max      32.54
_cell_measurement_theta_min      5.05
_cell_volume                     369.2(4)
_computing_cell_refinement       'Bruker SAINT 7.68A (Bruker, 2009)'
_computing_data_collection       'Bruker APEX 2 (Bruker, 2008)'
_computing_data_reduction        'Bruker SAINT 7.68A'
_computing_molecular_graphics    'ATOMS 5.1 (Dowty, 1999)'
_computing_publication_material  'Bruker SHELXTL'
_computing_structure_refinement  'Bruker SHELXTL'
_computing_structure_solution    'Bruker SHELXTL'
_diffrn_ambient_temperature      296(2)
_diffrn_measured_fraction_theta_full 0.997
_diffrn_measured_fraction_theta_max 0.992
_diffrn_measurement_device_type  'Bruker PLATFORM/SMART APEX II CCD'
_diffrn_measurement_method       '\w and \f scans'
_diffrn_radiation_type           MoK\a
_diffrn_radiation_wavelength     0.71073
_diffrn_reflns_av_R_equivalents  0.0550
_diffrn_reflns_av_unetI/netI     0.0302
_diffrn_reflns_Laue_measured_fraction_full 0.997
_diffrn_reflns_Laue_measured_fraction_max 0.992
_diffrn_reflns_limit_h_max       6
_diffrn_reflns_limit_h_min       -6
_diffrn_reflns_limit_k_max       5
_diffrn_reflns_limit_k_min       -6
_diffrn_reflns_limit_l_max       36
_diffrn_reflns_limit_l_min       -36
_diffrn_reflns_number            4144
_diffrn_reflns_point_group_measured_fraction_full 0.997
_diffrn_reflns_point_group_measured_fraction_max 0.992
_diffrn_reflns_theta_full        25.242
_diffrn_reflns_theta_max         33.132
_diffrn_reflns_theta_min         1.683
_diffrn_source                   'fine-focus sealed tube'
_exptl_absorpt_coefficient_mu    37.073
_exptl_absorpt_correction_T_max  0.4516
_exptl_absorpt_correction_T_min  0.1530
_exptl_absorpt_correction_type   numerical
_exptl_absorpt_process_details   'Bruker SHELXTL (Sheldrick, 2013)'
_exptl_crystal_colour            black
_exptl_crystal_density_diffrn    6.390
_exptl_crystal_density_method    'not measured'
_exptl_crystal_description       irregular
_exptl_crystal_F_000             615
_exptl_crystal_size_max          0.075
_exptl_crystal_size_mid          0.046
_exptl_crystal_size_min          0.028
_refine_diff_density_max         2.751
_refine_diff_density_min         -3.546
_refine_diff_density_rms         0.364
_refine_ls_extinction_coef       0.00098(17)
_refine_ls_extinction_expression Fc^*^=kFc[1+0.001xFc^2^\l^3^/sin(2\q)]^-1/4^
_refine_ls_extinction_method     SHELXL
_refine_ls_goodness_of_fit_ref   1.061
_refine_ls_hydrogen_treatment    undef
_refine_ls_matrix_type           full
_refine_ls_number_parameters     30
_refine_ls_number_reflns         647
_refine_ls_number_restraints     0
_refine_ls_restrained_S_all      1.061
_refine_ls_R_factor_all          0.0454
_refine_ls_R_factor_gt           0.0292
_refine_ls_shift/su_max          0.000
_refine_ls_shift/su_mean         0.000
_refine_ls_structure_factor_coef Fsqd
_refine_ls_weighting_details
'w=1/[\s^2^(Fo^2^)+(0.0116P)^2^+2.8482P] where P=(Fo^2^+2Fc^2^)/3'
_refine_ls_weighting_scheme      calc
_refine_ls_wR_factor_gt          0.0477
_refine_ls_wR_factor_ref         0.0513
_reflns_Friedel_coverage         0.000
_reflns_number_gt                480
_reflns_number_total             647
_reflns_threshold_expression     'I > 2\s(I)'
_cod_data_source_file            c5dt03596a4.cif
_cod_data_source_block           Nd5-xZn4As7
_cod_depositor_comments
'Adding full bibliography for 7037017--7037025.cif.'
_cod_original_cell_volume        369.2(5)
_cod_original_formula_sum        'As7 Nd4.40 Zn4'
_cod_database_code               7037024
#BEGIN Tags that were not found in dictionaries:
_shelx_space_group_comment
;
The symmetry employed for this shelxl refinement is uniquely defined
by the following loop, which should always be used as a source of
symmetry information in preference to the above space-group names.
They are only intended as comments.
;
_shelx_estimated_absorpt_t_min   0.167
_shelx_estimated_absorpt_t_max   0.423
_shelxl_version_number           2013-4
_shelx_res_file
;
TITL Nd4.4Zn4As7 P-3m1 lsf final refinement
CELL 0.71073   4.19660   4.19660  24.20420  90.0000  90.0000 120.0000
ZERR    1.00   0.00260   0.00260   0.01540   0.0000   0.0000   0.0000
LATT  1
SYMM -Y, X-Y, Z
SYMM -X+Y, -X, Z
SYMM Y, X, -Z
SYMM X-Y, -Y, -Z
SYMM -X, -X+Y, -Z
SFAC ZN AS ND
UNIT 4 7 4.4
TEMP 23
SIZE 0.028 0.046 0.075

L.S. 4
ACTA

EADP ZN1A ZN1B
WGHT    0.011600    2.848200
EXTI    0.000982
FVAR       0.07111   0.83041
ND1   3    0.333333    0.666667    0.071451    10.16667    0.00672    0.00672 =
         0.00831    0.00000    0.00000    0.00336
ND2   3    0.000000    0.000000    0.214985    10.16667    0.00733    0.00733 =
         0.00998    0.00000    0.00000    0.00366
ND3   3    0.000000    0.000000    0.500000     0.03413    0.01039    0.01039 =
         0.01283    0.00000    0.00000    0.00520
ZN1A  1    0.333333    0.666667    0.405379    20.16667    0.01702    0.01702 =
         0.04955    0.00000    0.00000    0.00851
ZN1B  1    0.333333    0.666667    0.454974   -20.16667    0.01702    0.01702 =
         0.04955    0.00000    0.00000    0.00851
ZN2   1    0.333333    0.666667    0.674568    10.16667    0.01716    0.01716 =
         0.01627    0.00000    0.00000    0.00858
AS1   2    0.333333    0.666667    0.289328    10.16667    0.00754    0.00754 =
         0.01090    0.00000    0.00000    0.00377
AS2   2    0.333333    0.666667    0.570877    10.16667    0.01103    0.01103 =
         0.01278    0.00000    0.00000    0.00551
AS3   2    0.333333    0.666667    0.855425    10.16667    0.00706    0.00706 =
         0.00588    0.00000    0.00000    0.00353
AS4   2    0.000000    0.000000    0.000000    10.08333    0.00737    0.00737 =
         0.00550    0.00000    0.00000    0.00369
HKLF 4

REM  Nd4.4Zn4As7 P-3m1 lsf final refinement
REM R1 =  0.0292 for     480 Fo > 4sig(Fo)  and  0.0454 for all     647 data
REM     30 parameters refined using      0 restraints

END

WGHT      0.0116      2.8482

REM Highest difference peak  2.751,  deepest hole -3.546,  1-sigma level  0.364
Q1    1   0.3333  0.6667  0.0021  10.16667  0.05    2.75
Q2    1   0.0000  0.0000  0.1895  10.16667  0.05    2.48
Q3    1   0.0000  0.0000  0.1170  10.16667  0.05    2.22
Q4    1   0.3333  0.6667  0.8222  10.16667  0.05    1.93
Q5    1   0.3333  0.6667  0.2003  10.16667  0.05    1.90
Q6    1   0.0000  0.0000  0.0384  10.16667  0.05    1.77
Q7    1   0.0000  0.0000  0.2832  10.16667  0.05    1.74
Q8    1   0.3333  0.6667  0.3484  10.16667  0.05    1.72
Q9    1   0.3333  0.6667  0.6416  10.16667  0.05    1.64
Q10   1   0.3333  0.6667  0.2427  10.16667  0.05    1.59
Q11   1   0.3333  0.6667  0.1116  10.16667  0.05    1.58
Q12   1   0.3333  0.6667  0.3143  10.16667  0.05    1.58
Q13   1   0.3333  0.6667  0.0428  10.16667  0.05    1.56
Q14   1   0.2817  0.5634  0.6088  10.50000  0.05    1.45
Q15   1   0.0778  0.9222  0.5920  10.50000  0.05    1.45
Q16   1   0.3333  0.6667 -0.0336  10.16667  0.05    1.40
Q17   1   0.3333  0.6667  0.8932  10.16667  0.05    1.38
Q18   1   0.3333  0.6667  0.4321  10.16667  0.05    1.36
Q19   1   0.0000  0.0000  0.1520  10.16667  0.05    1.29
Q20   1   0.2722  0.7278  0.4699  10.50000  0.05    1.25
;
_shelx_res_checksum              66650
_shelx_hkl_file
;
   0  -1 -36    4.29    1.63
   1  -1 -36   14.68    2.33
  -1   0 -36   19.93    2.97
   0   0 -36    9.52    1.41
   1   0 -36    3.55    1.47
  -1   1 -36    0.65    1.35
   0  -1 -35    5.45    1.26
   1  -1 -35    3.97    1.11
   2  -1 -35    3.18    1.08
  -1   0 -35    5.59    1.27
   0   0 -35    4.32    1.15
   1   0 -35    6.53    1.16
  -1   1 -35    6.55    1.23
   0   1 -35    5.25    1.58
   1  -2 -34   -0.77    1.10
  -1  -1 -34    0.37    0.92
   0  -1 -34    2.45    0.96
   1  -1 -34    0.05    0.77
   2  -1 -34   -0.23    0.80
  -2   0 -34    1.37    1.66
  -1   0 -34    0.60    0.84
   0   0 -34    0.38    0.75
   1   0 -34    0.67    0.78
  -2   1 -34    1.02    1.03
  -1   1 -34    1.76    0.91
   0   1 -34   -0.39    0.72
   1   1 -34   -0.35    1.21
  -2   2 -34    1.39    1.60
  -1   2 -34    0.11    1.28
   0  -2 -33   -0.90    1.13
   1  -2 -33    0.50    1.18
   2  -2 -33   35.22    3.69
  -1  -1 -33   -0.26    0.83
   0  -1 -33   41.20    2.30
   1  -1 -33   -0.07    0.72
   2  -1 -33   -0.22    0.76
  -2   0 -33   32.73    2.72
  -1   0 -33   -0.29    0.79
   0   0 -33   -0.42    0.68
   1   0 -33   41.87    2.30
   2   0 -33   -0.01    1.17
  -2   1 -33    0.10    0.99
  -1   1 -33   40.89    2.57
   0   1 -33    1.37    0.82
   1   1 -33   -0.89    1.05
  -2   2 -33    0.59    0.97
  -1   2 -33    0.07    1.23
   0   2 -33   33.30    3.43
  -1  -2 -32   64.75    4.12
   0  -2 -32   -0.58    1.03
   1  -2 -32    3.05    1.49
   2  -2 -32   70.43    4.52
   3  -2 -32   -0.72    0.96
  -1  -1 -32    1.78    0.93
   0  -1 -32   89.04    3.28
   1  -1 -32    0.57    0.76
   2  -1 -32    0.16    0.76
   3  -1 -32   60.81    3.16
  -2   0 -32   81.87    3.75
  -1   0 -32    0.65    0.78
   0   0 -32    0.87    0.73
   1   0 -32   87.09    3.21
   2   0 -32    0.60    1.18
  -2   1 -32   -0.48    1.01
  -1   1 -32   91.59    3.47
   0   1 -32    0.09    0.69
   1   1 -32    0.90    1.22
  -3   2 -32   45.19    5.71
  -2   2 -32    0.90    1.02
  -1   2 -32    1.99    1.27
   0   2 -32   79.33    4.58
  -2   3 -32   64.53    4.77
  -1   3 -32   -0.26    1.29
   0  -3 -31   -0.62    1.13
   1  -3 -31   -0.57    0.71
   2  -3 -31    5.09    1.75
  -1  -2 -31    1.12    0.93
   0  -2 -31    4.09    1.50
   1  -2 -31    0.58    0.98
   2  -2 -31    0.78    0.84
   3  -2 -31    4.01    1.25
  -2  -1 -31    2.80    1.21
  -1  -1 -31    1.54    0.93
   0  -1 -31    2.49    0.85
   1  -1 -31    6.51    1.13
   2  -1 -31    0.03    0.72
   3  -1 -31   -0.51    0.90
  -3   0 -31    0.63    1.72
  -2   0 -31    1.04    1.00
  -1   0 -31    4.04    0.98
   0   0 -31    0.49    0.66
   1   0 -31    0.45    0.69
   2   0 -31    4.63    1.51
  -3   1 -31    4.17    1.63
  -2   1 -31   -0.39    0.92
  -1   1 -31    1.03    0.75
   0   1 -31    5.91    1.10
   1   1 -31    0.48    0.98
   2   1 -31   -0.72    1.07
  -3   2 -31   -1.20    1.15
  -2   2 -31    3.39    1.17
  -1   2 -31    0.73    1.22
   0   2 -31    0.27    1.03
   1   2 -31    4.84    1.65
  -2   3 -31    0.71    1.26
  -1   3 -31    5.48    1.75
   0   3 -31   -0.12    1.15
   0  -3 -30   -0.78    0.78
   1  -3 -30    0.43    0.79
   2  -3 -30   12.27    2.45
   3  -3 -30   -0.27    1.37
  -1  -2 -30    0.12    0.88
   0  -2 -30   12.73    1.48
   1  -2 -30    1.97    1.21
   2  -2 -30    1.21    0.86
   3  -2 -30   12.87    1.72
  -2  -1 -30   12.56    1.77
  -1  -1 -30   -0.04    0.70
   0  -1 -30   -0.02    0.67
   1  -1 -30   17.20    1.63
   2  -1 -30    0.00    0.67
   3  -1 -30    0.13    0.93
  -3   0 -30    1.42    1.14
  -2   0 -30    1.07    1.06
  -1   0 -30   18.07    1.74
   0   0 -30   -0.19    0.53
   1   0 -30    1.11    0.69
   2   0 -30   12.48    1.48
   3   0 -30    1.40    1.51
  -3   1 -30    9.47    1.92
  -2   1 -30    1.06    1.07
  -1   1 -30    0.28    0.73
   0   1 -30   15.71    1.55
   1   1 -30   -0.01    0.96
   2   1 -30   -0.09    1.14
  -3   2 -30    0.55    1.23
  -2   2 -30   11.45    1.59
  -1   2 -30    0.12    0.97
   0   2 -30   -0.50    0.85
   1   2 -30   10.68    2.12
  -3   3 -30    0.03    1.37
  -2   3 -30    0.87    1.34
  -1   3 -30   12.48    2.32
   0   3 -30   -0.85    1.11
   2  -4 -29    1.10    1.28
   0  -3 -29    0.30    0.77
   1  -3 -29   -0.58    0.67
   2  -3 -29   -0.34    1.04
   3  -3 -29    1.78    1.55
  -2  -2 -29    0.90    1.53
  -1  -2 -29   -0.30    0.76
   0  -2 -29    0.71    0.72
   1  -2 -29    0.48    1.02
   2  -2 -29   -0.51    0.67
   3  -2 -29    0.83    0.94
   4  -2 -29   -0.44    1.62
  -2  -1 -29    0.16    0.79
  -1  -1 -29    0.27    0.57
   0  -1 -29    0.23    0.62
   1  -1 -29    0.45    0.65
   2  -1 -29   -0.15    0.66
   3  -1 -29   -1.23    0.78
  -3   0 -29    0.25    0.99
  -2   0 -29   -1.35    0.89
  -1   0 -29    0.83    0.73
   0   0 -29    0.43    0.58
   1   0 -29   -0.23    0.57
   2   0 -29    0.81    0.75
   3   0 -29   -0.54    1.17
  -3   1 -29   -0.14    1.10
  -2   1 -29    0.82    0.86
  -1   1 -29   -0.81    0.63
   0   1 -29    0.76    0.63
   1   1 -29    1.20    1.00
   2   1 -29   -1.15    0.99
  -3   2 -29   -0.15    1.09
  -2   2 -29    0.59    0.91
  -1   2 -29   -0.03    0.97
   0   2 -29    0.21    0.97
   1   2 -29   -0.24    1.03
  -3   3 -29    2.10    1.58
  -2   3 -29   -0.91    1.01
  -1   3 -29    2.15    1.26
   0   3 -29    2.05    1.41
  -2   4 -29   -0.44    1.36
   1  -4 -28    1.76    1.53
   2  -4 -28   94.25    3.74
   3  -4 -28    0.99    1.13
  -1  -3 -28    1.16    1.29
   0  -3 -28  107.60    3.66
   1  -3 -28   -0.84    0.71
   2  -3 -28    0.94    0.72
   3  -3 -28  105.88    5.91
  -2  -2 -28   85.95    3.63
  -1  -2 -28   -0.04    0.77
   0  -2 -28    0.40    0.67
   1  -2 -28  151.88    6.27
   2  -2 -28   -0.60    0.65
   3  -2 -28    0.46    0.83
   4  -2 -28   98.08    3.89
  -2  -1 -28    0.14    0.75
  -1  -1 -28  154.80    3.50
   0  -1 -28    0.01    0.56
   1  -1 -28   -0.33    0.54
   2  -1 -28  157.98    4.43
   3  -1 -28   -0.04    0.78
  -3   0 -28  110.27    3.91
  -2   0 -28    0.36    0.79
  -1   0 -28    0.81    0.70
   0   0 -28  185.96    4.62
   1   0 -28    0.42    0.59
   2   0 -28    0.30    0.65
   3   0 -28   99.88    5.46
  -4   1 -28    1.28    2.96
  -3   1 -28    1.74    1.18
  -2   1 -28  151.73    5.13
  -1   1 -28    0.31    0.62
   0   1 -28    0.72    0.58
   1   1 -28  142.57    5.99
   2   1 -28    0.28    1.12
  -4   2 -28   93.51    7.54
  -3   2 -28    0.72    1.11
  -2   2 -28    0.41    0.89
  -1   2 -28  155.25    6.33
   0   2 -28    1.77    1.08
   1   2 -28    0.83    1.13
   2   2 -28   86.97    5.17
  -4   3 -28   -0.40    1.98
  -3   3 -28  104.18    4.53
  -2   3 -28   -0.92    0.87
  -1   3 -28    0.64    0.99
   0   3 -28  107.23    5.32
   1   3 -28    0.84    1.35
  -3   4 -28   -1.29    1.27
  -2   4 -28   92.17    5.15
   1  -4 -27    0.45    0.81
   2  -4 -27   17.79    1.90
   3  -4 -27   -0.34    0.88
  -1  -3 -27    0.14    0.86
   0  -3 -27   20.45    1.86
   1  -3 -27    0.82    0.79
   2  -3 -27    0.14    0.70
   3  -3 -27   21.45    3.00
   4  -3 -27    1.07    1.40
  -2  -2 -27   16.45    1.88
  -1  -2 -27    1.89    0.86
   0  -2 -27    0.20    0.62
   1  -2 -27   32.40    1.51
   2  -2 -27    0.65    0.76
   3  -2 -27    0.70    0.83
   4  -2 -27   20.76    2.11
  -3  -1 -27    0.33    1.27
  -2  -1 -27    0.81    0.78
  -1  -1 -27   33.53    1.70
   0  -1 -27    0.45    0.60
   1  -1 -27    0.68    0.64
   2  -1 -27   29.74    2.17
   3  -1 -27    0.74    0.80
   4  -1 -27    1.14    1.37
  -3   0 -27   20.78    1.99
  -2   0 -27    0.25    0.77
  -1   0 -27    0.28    0.68
   0   0 -27   40.65    2.02
   1   0 -27    1.42    0.65
   2   0 -27    0.70    0.68
   3   0 -27   21.18    2.87
  -4   1 -27    0.95    1.90
  -3   1 -27   -0.65    0.95
  -2   1 -27   27.04    2.45
  -1   1 -27    0.78    0.68
   0   1 -27   -0.14    0.51
   1   1 -27   34.02    2.87
   2   1 -27    1.96    1.26
   3   1 -27    0.28    1.25
  -4   2 -27   16.15    2.14
  -3   2 -27    3.22    1.20
  -2   2 -27    0.68    0.95
  -1   2 -27   33.92    2.06
   0   2 -27    1.27    0.97
   1   2 -27    0.46    1.08
   2   2 -27   12.83    2.35
  -4   3 -27   -0.30    1.06
  -3   3 -27   19.70    2.37
  -2   3 -27    0.95    1.21
  -1   3 -27    1.33    1.13
   0   3 -27   22.74    2.75
   1   3 -27    0.55    1.30
  -3   4 -27    0.27    1.30
  -2   4 -27   22.80    2.91
   1  -4 -26   -0.46    0.82
   2  -4 -26    0.55    0.89
   3  -4 -26    6.09    1.33
  -1  -3 -26    0.02    0.83
   0  -3 -26    1.33    0.80
   1  -3 -26   12.07    1.52
   2  -3 -26    1.17    0.81
   3  -3 -26    1.06    1.24
   4  -3 -26    8.09    2.06
  -2  -2 -26    1.72    1.08
  -1  -2 -26   10.49    1.39
   0  -2 -26    0.54    0.67
   1  -2 -26    1.21    0.53
   2  -2 -26   13.11    1.48
   3  -2 -26    0.03    0.69
   4  -2 -26    1.02    0.94
  -3  -1 -26    4.00    1.49
  -2  -1 -26    0.41    0.72
  -1  -1 -26    1.59    0.67
   0  -1 -26   13.84    1.06
   1  -1 -26    1.70    0.75
   2  -1 -26    0.15    0.68
   3  -1 -26    8.78    1.28
   4  -1 -26    0.40    1.27
  -3   0 -26    0.01    0.95
  -2   0 -26   10.82    1.36
  -1   0 -26    1.46    0.72
   0   0 -26    2.42    0.75
   1   0 -26   13.11    1.34
   2   0 -26    0.16    0.65
   3   0 -26    1.31    1.27
  -4   1 -26    5.75    2.03
  -3   1 -26    1.11    0.94
  -2   1 -26    1.72    0.94
  -1   1 -26   12.13    1.39
   0   1 -26    1.87    0.66
   1   1 -26    1.17    0.95
   2   1 -26    5.44    1.58
   3   1 -26   -0.44    1.13
  -4   2 -26   -0.12    1.04
  -3   2 -26   10.57    1.68
  -2   2 -26    1.96    0.99
  -1   2 -26    3.61    0.92
   0   2 -26    8.61    1.68
   1   2 -26    1.14    1.11
   2   2 -26    1.09    1.32
  -4   3 -26    2.71    1.28
  -3   3 -26    1.60    1.20
  -2   3 -26   12.47    2.25
  -1   3 -26    0.54    1.01
   0   3 -26    0.37    1.06
   1   3 -26    9.19    2.03
  -3   4 -26   -0.58    1.31
  -2   4 -26   -0.23    1.10
   1  -4 -25    3.57    1.07
   2  -4 -25    0.69    0.89
   3  -4 -25    1.48    0.99
  -1  -3 -25    4.56    1.15
   0  -3 -25    1.73    0.92
   1  -3 -25    3.53    0.91
   2  -3 -25    5.27    1.08
   3  -3 -25    2.97    1.38
   4  -3 -25    3.92    1.57
  -2  -2 -25    0.91    0.99
  -1  -2 -25    3.40    0.98
   0  -2 -25    6.80    1.05
   1  -2 -25    1.80    0.56
   2  -2 -25    2.22    0.84
   3  -2 -25    4.53    0.97
   4  -2 -25    0.45    0.80
  -3  -1 -25   -0.63    1.27
  -2  -1 -25    6.56    1.09
  -1  -1 -25    2.62    0.71
   0  -1 -25    3.74    0.65
   1  -1 -25    8.85    1.13
   2  -1 -25    2.97    0.88
   3  -1 -25    2.94    0.86
   4  -1 -25    5.31    1.17
  -4   0 -25    0.85    1.93
  -3   0 -25    1.29    1.49
  -2   0 -25    3.16    0.93
  -1   0 -25    9.56    0.99
   0   0 -25    2.10    0.69
   1   0 -25    5.56    0.90
   2   0 -25    6.04    1.03
   3   0 -25    2.27    1.22
  -4   1 -25    2.46    1.57
  -3   1 -25    5.14    1.14
  -2   1 -25    0.66    0.84
  -1   1 -25    4.49    0.97
   0   1 -25   10.73    1.16
   1   1 -25    2.99    1.18
   2   1 -25    2.89    1.25
   3   1 -25    3.08    1.45
  -4   2 -25    0.66    1.29
  -3   2 -25    2.97    1.10
  -2   2 -25    5.59    1.32
  -1   2 -25    2.28    0.78
   0   2 -25    4.88    1.44
   1   2 -25    6.13    1.59
   2   2 -25    1.98    1.32
  -4   3 -25    3.91    1.29
  -3   3 -25    1.87    1.07
  -2   3 -25    3.54    1.29
  -1   3 -25    5.85    1.50
   0   3 -25   -0.05    1.04
   1   3 -25    3.03    1.38
  -4   4 -25    3.96    1.91
  -3   4 -25    4.73    1.84
  -2   4 -25    0.71    1.24
   0  -4 -24    0.93    1.24
   1  -4 -24   41.79    2.52
   2  -4 -24    2.82    1.00
   3  -4 -24   -0.44    0.74
   4  -4 -24   38.10    2.50
  -1  -3 -24   38.89    2.47
   0  -3 -24    3.26    0.94
   1  -3 -24    0.28    0.62
   2  -3 -24   61.81    2.69
   3  -3 -24    3.87    0.99
   4  -3 -24    1.51    1.26
  -2  -2 -24    3.78    1.15
  -1  -2 -24    0.84    0.74
   0  -2 -24   69.52    2.62
   1  -2 -24    6.62    0.79
   2  -2 -24    0.44    0.45
   3  -2 -24   65.55    2.75
   4  -2 -24    2.36    0.92
  -3  -1 -24   -0.96    1.28
  -2  -1 -24   58.35    2.40
  -1  -1 -24    5.64    0.85
   0  -1 -24    0.63    0.43
   1  -1 -24   88.75    2.92
   2  -1 -24    6.50    1.01
   3  -1 -24    0.52    0.59
   4  -1 -24   45.77    2.43
  -4   0 -24   31.07    3.60
  -3   0 -24    1.50    1.52
  -2   0 -24    0.42    0.68
  -1   0 -24   88.61    2.51
   0   0 -24    6.82    0.98
   1   0 -24    0.70    0.54
   2   0 -24   71.82    2.63
   3   0 -24    4.60    1.52
   4   0 -24    0.00    1.16
  -4   1 -24    0.13    1.25
  -3   1 -24   61.49    3.45
  -2   1 -24    4.74    1.00
  -1   1 -24    0.50    0.67
   0   1 -24   86.10    2.82
   1   1 -24    5.56    0.93
   2   1 -24    0.14    0.91
   3   1 -24   45.43    3.50
  -4   2 -24    3.73    1.19
  -3   2 -24    0.29    0.83
  -2   2 -24   68.88    3.31
  -1   2 -24    5.22    0.98
   0   2 -24    2.10    1.08
   1   2 -24   62.36    3.78
   2   2 -24    2.28    1.22
  -4   3 -24   45.41    2.97
  -3   3 -24    4.93    1.30
  -2   3 -24   -1.24    0.85
  -1   3 -24   60.63    3.72
   0   3 -24    1.01    1.11
   1   3 -24   -0.77    0.94
  -4   4 -24   -0.48    1.27
  -3   4 -24   44.29    3.71
  -2   4 -24    2.74    1.40
   3  -5 -23   40.59    4.05
   0  -4 -23    2.39    1.42
   1  -4 -23   50.92    2.65
   2  -4 -23    0.65    0.74
   3  -4 -23    1.45    0.88
   4  -4 -23   44.68    2.57
  -1  -3 -23   57.09    2.69
   0  -3 -23    0.67    0.79
   1  -3 -23    3.68    0.94
   2  -3 -23   76.96    2.95
   3  -3 -23    1.17    0.71
   4  -3 -23    3.68    1.48
   5  -3 -23   44.51    4.43
  -2  -2 -23   -1.17    0.78
  -1  -2 -23    2.52    0.87
   0  -2 -23   96.71    3.07
   1  -2 -23    0.62    0.46
   2  -2 -23    4.96    0.75
   3  -2 -23   70.63    2.79
   4  -2 -23    1.38    0.78
   5  -2 -23   -0.05    1.14
  -3  -1 -23    4.15    1.59
  -2  -1 -23   79.22    2.73
  -1  -1 -23    1.92    0.63
   0  -1 -23    6.49    0.75
   1  -1 -23  118.21    2.60
   2  -1 -23    1.51    0.65
   3  -1 -23    3.84    0.86
   4  -1 -23   53.50    2.58
  -4   0 -23   38.90    3.77
  -3   0 -23    1.41    1.36
  -2   0 -23    4.57    1.03
  -1   0 -23  116.48    2.91
   0   0 -23    1.40    0.59
   1   0 -23    5.73    0.90
   2   0 -23   93.59    2.96
   3   0 -23    0.00    0.82
   4   0 -23    1.45    1.30
  -4   1 -23    0.42    1.17
  -3   1 -23   81.45    3.72
  -2   1 -23    1.05    0.67
  -1   1 -23    5.81    1.03
   0   1 -23  111.56    3.21
   1   1 -23    1.07    0.58
   2   1 -23    3.17    1.12
   3   1 -23   56.96    3.84
  -4   2 -23    0.71    0.95
  -3   2 -23    3.06    0.97
  -2   2 -23   93.51    3.66
  -1   2 -23    1.09    0.67
   0   2 -23    3.67    1.20
   1   2 -23   77.57    4.12
   2   2 -23    0.40    0.97
   3   2 -23    1.62    1.40
  -4   3 -23   56.40    4.18
  -3   3 -23    0.37    0.75
  -2   3 -23    3.34    1.26
  -1   3 -23   77.04    4.08
   0   3 -23    1.43    1.08
   1   3 -23    0.77    1.16
  -4   4 -23    3.04    1.51
  -3   4 -23   64.76    4.28
  -2   4 -23   -0.16    1.14
   3  -5 -22   19.72    2.26
   0  -4 -22    0.61    1.15
   1  -4 -22   24.50    2.07
   2  -4 -22    6.48    1.22
   3  -4 -22   -0.35    0.66
   4  -4 -22   21.00    2.03
  -1  -3 -22   21.81    1.84
   0  -3 -22    5.75    1.10
   1  -3 -22    0.13    0.58
   2  -3 -22   35.52    2.02
   3  -3 -22    6.13    1.05
   4  -3 -22   -0.21    0.98
   5  -3 -22   15.30    2.50
  -2  -2 -22    4.85    1.18
  -1  -2 -22    0.02    0.66
   0  -2 -22   48.90    1.75
   1  -2 -22    9.05    0.89
   2  -2 -22    0.55    0.43
   3  -2 -22   36.69    1.99
   4  -2 -22    5.11    1.05
   5  -2 -22    1.25    0.85
  -3  -1 -22   -0.35    1.26
  -2  -1 -22   39.63    2.12
  -1  -1 -22    6.45    0.88
   0  -1 -22   -0.32    0.34
   1  -1 -22   63.30    1.75
   2  -1 -22    9.40    1.14
   3  -1 -22    0.16    0.52
   4  -1 -22   22.64    1.87
  -4   0 -22   17.21    2.58
  -3   0 -22    2.64    1.40
  -2   0 -22   -0.41    0.56
  -1   0 -22   58.32    2.06
   0   0 -22   10.22    1.11
   1   0 -22   -0.35    0.45
   2   0 -22   47.26    2.01
   3   0 -22    5.46    1.50
   4   0 -22    1.05    1.13
  -4   1 -22    0.68    1.11
  -3   1 -22   37.83    2.81
  -2   1 -22    7.19    1.02
  -1   1 -22    0.14    0.54
   0   1 -22   61.36    2.26
   1   1 -22    7.94    0.99
   2   1 -22    0.33    0.76
   3   1 -22   22.63    2.85
  -5   2 -22   18.87    3.41
  -4   2 -22    4.58    1.19
  -3   2 -22    0.31    0.70
  -2   2 -22   42.48    2.54
  -1   2 -22    7.23    1.10
   0   2 -22   -0.35    0.70
   1   2 -22   36.34    2.79
   2   2 -22    4.74    1.35
   3   2 -22   -1.35    1.06
  -5   3 -22   -0.31    1.04
  -4   3 -22   19.04    2.83
  -3   3 -22    4.71    1.11
  -2   3 -22   -0.58    0.73
  -1   3 -22   43.38    3.01
   0   3 -22    5.36    1.44
   1   3 -22   -0.37    0.91
  -4   4 -22   -0.22    1.09
  -3   4 -22   22.97    3.03
   2  -5 -21    2.23    1.77
   3  -5 -21    8.73    1.48
   0  -4 -21    2.70    1.40
   1  -4 -21   13.82    1.60
   2  -4 -21    3.06    0.94
   3  -4 -21    5.56    1.15
   4  -4 -21   14.93    1.73
  -2  -3 -21    4.29    1.80
  -1  -3 -21   13.22    1.56
   0  -3 -21    2.62    0.84
   1  -3 -21    8.30    1.22
   2  -3 -21   21.45    1.82
   3  -3 -21    3.75    0.88
   4  -3 -21    6.78    0.96
   5  -3 -21   11.60    1.52
  -3  -2 -21    8.54    2.43
  -2  -2 -21    1.77    1.00
  -1  -2 -21    6.02    1.09
   0  -2 -21   30.54    1.36
   1  -2 -21    4.18    0.63
   2  -2 -21    8.88    0.87
   3  -2 -21   24.54    1.80
   4  -2 -21    4.50    0.98
   5  -2 -21    3.07    1.04
  -4  -1 -21    4.52    2.88
  -3  -1 -21    2.89    1.57
  -2  -1 -21   20.53    2.27
  -1  -1 -21    3.39    0.70
   0  -1 -21   12.02    0.94
   1  -1 -21   40.51    1.40
   2  -1 -21    3.37    0.72
   3  -1 -21    8.13    1.06
   4  -1 -21   14.64    1.53
  -4   0 -21    8.65    2.11
  -3   0 -21    2.42    1.21
  -2   0 -21   10.65    1.75
  -1   0 -21   41.49    1.75
   0   0 -21    5.66    0.62
   1   0 -21   11.51    1.16
   2   0 -21   31.79    1.61
   3   0 -21    3.55    1.18
   4   0 -21    3.03    1.33
  -4   1 -21    2.38    1.17
  -3   1 -21   23.08    2.10
  -2   1 -21    4.10    0.78
  -1   1 -21    8.76    1.17
   0   1 -21   40.53    1.82
   1   1 -21    4.21    0.74
   2   1 -21    6.05    1.43
   3   1 -21   16.13    2.34
  -5   2 -21    8.23    1.61
  -4   2 -21    3.52    1.00
  -3   2 -21    7.93    1.17
  -2   2 -21   31.60    2.10
  -1   2 -21    5.06    0.89
   0   2 -21    8.05    1.51
   1   2 -21   21.39    2.37
   2   2 -21    3.54    1.26
   3   2 -21    3.23    1.37
  -5   3 -21    2.65    1.14
  -4   3 -21   25.31    3.00
  -3   3 -21    2.80    0.91
  -2   3 -21    7.42    1.72
  -1   3 -21   27.51    2.73
   0   3 -21    2.00    1.05
   1   3 -21    4.71    1.33
  -5   4 -21    1.78    1.51
  -4   4 -21    3.34    1.51
  -3   4 -21   18.98    2.83
   2  -5 -20    7.91    2.39
   3  -5 -20    0.02    0.89
   4  -5 -20    3.14    1.10
   0  -4 -20    6.61    1.68
   1  -4 -20   -0.35    0.68
   2  -4 -20    4.24    0.98
   3  -4 -20   12.39    1.29
   4  -4 -20    0.56    0.74
   5  -4 -20    5.07    1.65
  -2  -3 -20    6.69    2.03
  -1  -3 -20    0.13    1.00
   0  -3 -20    5.31    1.05
   1  -3 -20   18.25    1.66
   2  -3 -20    0.20    0.53
   3  -3 -20    5.53    0.97
   4  -3 -20   12.80    1.12
   5  -3 -20    0.35    0.77
  -3  -2 -20   -0.37    1.69
  -2  -2 -20    5.66    1.30
  -1  -2 -20   17.98    1.62
   0  -2 -20   -0.10    0.38
   1  -2 -20   12.09    1.00
   2  -2 -20   22.45    1.18
   3  -2 -20    0.15    0.40
   4  -2 -20    3.32    0.80
   5  -2 -20    6.57    1.16
  -4  -1 -20    2.49    2.61
  -3  -1 -20   10.45    2.06
  -2  -1 -20    0.95    0.94
  -1  -1 -20   11.13    1.05
   0  -1 -20   31.97    1.29
   1  -1 -20   -0.09    0.31
   2  -1 -20   11.69    1.17
   3  -1 -20   19.15    1.53
   4  -1 -20   -0.27    0.57
  -4   0 -20    1.04    1.17
  -3   0 -20    4.53    1.21
  -2   0 -20   24.69    2.39
  -1   0 -20    0.30    0.49
   0   0 -20   16.01    0.92
   1   0 -20   35.49    1.70
   2   0 -20   -0.07    0.42
   3   0 -20    8.19    1.02
   4   0 -20    7.53    1.66
  -5   1 -20    3.59    1.97
  -4   1 -20    9.60    1.54
  -3   1 -20    0.42    0.65
  -2   1 -20   10.59    1.08
  -1   1 -20   31.35    1.59
   0   1 -20    0.44    0.45
   1   1 -20   11.99    1.11
   2   1 -20   20.36    2.26
   3   1 -20   -0.06    0.83
   4   1 -20    4.45    1.55
  -5   2 -20    0.03    0.87
  -4   2 -20    6.26    1.13
  -3   2 -20   21.31    1.77
  -2   2 -20    0.20    0.55
  -1   2 -20   11.79    1.30
   0   2 -20   21.48    2.29
   1   2 -20   -0.78    0.60
   2   2 -20    6.41    1.42
   3   2 -20    8.18    1.78
  -5   3 -20    7.85    1.38
  -4   3 -20    0.27    0.67
  -3   3 -20    7.37    1.10
  -2   3 -20   21.38    2.56
  -1   3 -20   -0.24    0.71
   0   3 -20    5.53    1.34
   1   3 -20   14.44    1.98
  -5   4 -20    4.48    1.80
  -4   4 -20    9.37    1.42
  -3   4 -20   -0.09    1.14
   1  -5 -19    0.00    1.43
   2  -5 -19   21.00    2.31
   3  -5 -19    5.45    1.03
   4  -5 -19    0.63    0.71
  -1  -4 -19    0.12    1.28
   0  -4 -19   15.82    2.42
   1  -4 -19    9.24    1.13
   2  -4 -19   -0.24    0.59
   3  -4 -19   30.47    1.77
   4  -4 -19    5.33    1.14
   5  -4 -19    0.18    0.74
  -2  -3 -19   15.77    2.64
  -1  -3 -19    5.93    1.67
   0  -3 -19   -0.65    0.57
   1  -3 -19   36.93    1.59
   2  -3 -19   12.90    1.09
   3  -3 -19    0.54    0.52
   4  -3 -19   27.49    1.55
   5  -3 -19    5.59    1.13
  -3  -2 -19    5.55    2.14
  -2  -2 -19   -0.04    0.82
  -1  -2 -19   36.92    2.06
   0  -2 -19   19.98    1.14
   1  -2 -19    0.25    0.38
   2  -2 -19   43.86    1.50
   3  -2 -19   14.69    1.07
   4  -2 -19    0.69    0.59
   5  -2 -19   24.48    2.05
  -4  -1 -19    0.14    1.75
  -3  -1 -19   30.58    3.10
  -2  -1 -19   11.63    1.86
  -1  -1 -19    0.66    0.45
   0  -1 -19   53.10    1.60
   1  -1 -19   28.07    1.15
   2  -1 -19    0.32    0.32
   3  -1 -19   38.13    1.81
   4  -1 -19    6.69    1.05
   5  -1 -19    0.03    1.13
  -4   0 -19    3.89    1.43
  -3   0 -19   -0.37    0.76
  -2   0 -19   44.91    2.81
  -1   0 -19   26.16    1.50
   0   0 -19    0.94    0.35
   1   0 -19   47.38    1.93
   2   0 -19   15.44    1.22
   3   0 -19    0.30    0.48
   4   0 -19   18.87    2.48
  -5   1 -19    0.40    1.12
  -4   1 -19   29.92    2.40
  -3   1 -19   13.99    1.54
  -2   1 -19    0.65    0.61
  -1   1 -19   46.61    1.82
   0   1 -19   25.69    1.42
   1   1 -19    0.21    0.41
   2   1 -19   35.13    2.53
   3   1 -19    8.26    1.70
   4   1 -19   -0.07    0.94
  -5   2 -19    5.63    1.25
  -4   2 -19    0.51    0.63
  -3   2 -19   33.72    1.81
  -2   2 -19   19.68    1.66
  -1   2 -19    0.52    0.53
   0   2 -19   43.65    2.77
   1   2 -19   14.95    1.91
   2   2 -19    0.90    0.81
   3   2 -19   23.98    2.79
  -5   3 -19   23.89    2.15
  -4   3 -19    9.03    1.26
  -3   3 -19    0.17    0.57
  -2   3 -19   35.67    2.13
  -1   3 -19   11.11    1.72
   0   3 -19   -0.47    0.64
   1   3 -19   29.61    2.40
  -5   4 -19   -0.89    1.08
  -4   4 -19   22.53    2.03
  -3   4 -19    6.11    1.75
   1  -5 -18    2.16    1.26
   2  -5 -18   96.14    4.00
   3  -5 -18    7.47    1.09
   4  -5 -18    3.84    0.97
  -1  -4 -18   -0.73    1.14
   0  -4 -18  114.29    4.14
   1  -4 -18    9.85    1.15
   2  -4 -18    5.94    0.91
   3  -4 -18  138.71    3.36
   4  -4 -18    7.12    1.16
   5  -4 -18    3.76    1.02
  -2  -3 -18   89.38    5.23
  -1  -3 -18    9.82    1.51
   0  -3 -18    6.55    0.90
   1  -3 -18  201.79    3.92
   2  -3 -18   15.91    1.20
   3  -3 -18    6.92    0.89
   4  -3 -18  141.40    3.12
   5  -3 -18    7.78    1.23
  -3  -2 -18    5.64    2.31
  -2  -2 -18    4.06    1.14
  -1  -2 -18  199.83    4.93
   0  -2 -18   24.65    1.06
   1  -2 -18   10.77    0.74
   2  -2 -18  261.19    3.65
   3  -2 -18   17.33    1.13
   4  -2 -18    6.50    1.02
   5  -2 -18   95.85    3.34
  -4  -1 -18    1.97    2.58
  -3  -1 -18  127.64    5.22
  -2  -1 -18   13.23    1.91
  -1  -1 -18    8.88    0.93
   0  -1 -18  334.24    4.90
   1  -1 -18   31.50    1.19
   2  -1 -18   11.26    0.79
   3  -1 -18  208.89    4.46
   4  -1 -18    9.94    1.18
   5  -1 -18    1.84    1.28
  -4   0 -18    5.05    1.38
  -3   0 -18    5.37    1.16
  -2   0 -18  269.60    6.37
  -1   0 -18   32.26    1.63
   0   0 -18   14.38    0.90
   1   0 -18  330.95    6.02
   2   0 -18   25.20    1.33
   3   0 -18    6.71    0.87
   4   0 -18  122.84    5.26
  -5   1 -18    2.71    1.23
  -4   1 -18  141.11    4.33
  -3   1 -18   17.14    1.63
  -2   1 -18   11.09    1.23
  -1   1 -18  316.60    5.20
   0   1 -18   32.05    1.53
   1   1 -18   10.50    0.96
   2   1 -18  202.46    6.42
   3   1 -18    7.68    1.57
   4   1 -18    2.64    1.28
  -5   2 -18    6.92    1.40
  -4   2 -18    5.40    1.04
  -3   2 -18  206.42    4.53
  -2   2 -18   26.05    1.19
  -1   2 -18   10.06    1.20
   0   2 -18  262.22    7.68
   1   2 -18   14.55    1.81
   2   2 -18    4.57    1.22
   3   2 -18   95.84    4.57
  -5   3 -18   94.01    3.44
  -4   3 -18   10.10    1.25
  -3   3 -18    6.44    1.02
  -2   3 -18  203.01    4.88
  -1   3 -18   15.75    1.97
   0   3 -18    6.31    1.30
   1   3 -18  139.37    5.13
  -5   4 -18    3.88    1.06
  -4   4 -18  112.57    3.73
  -3   4 -18   12.94    2.24
   1  -5 -17    0.71    1.13
   2  -5 -17    1.30    1.01
   3  -5 -17    1.30    0.77
   4  -5 -17    2.03    0.73
  -1  -4 -17    1.29    1.13
   0  -4 -17    0.73    0.95
   1  -4 -17    2.81    0.77
   2  -4 -17    5.16    0.84
   3  -4 -17    1.28    0.58
   4  -4 -17    2.64    0.85
   5  -4 -17    1.76    0.87
  -2  -3 -17    1.89    1.49
  -1  -3 -17    3.35    0.99
   0  -3 -17    5.26    0.83
   1  -3 -17    2.84    0.64
   2  -3 -17    2.03    0.57
   3  -3 -17    6.20    0.84
   4  -3 -17    0.68    0.50
   5  -3 -17    4.05    0.98
  -3  -2 -17    2.29    1.85
  -2  -2 -17    2.47    0.91
  -1  -2 -17    2.69    0.71
   0  -2 -17    2.79    0.45
   1  -2 -17    9.67    0.71
   2  -2 -17    3.09    0.45
   3  -2 -17    2.88    0.50
   4  -2 -17    4.30    0.84
   5  -2 -17    0.83    0.67
  -4  -1 -17    4.89    2.87
  -3  -1 -17    2.73    1.39
  -2  -1 -17    2.19    1.09
  -1  -1 -17    9.05    0.79
   0  -1 -17    5.02    0.59
   1  -1 -17    3.51    0.51
   2  -1 -17    9.50    0.72
   3  -1 -17    1.78    0.57
   4  -1 -17    1.91    0.65
   5  -1 -17    2.13    1.20
  -4   0 -17    2.25    1.05
  -3   0 -17    4.74    1.13
  -2   0 -17    1.40    0.76
  -1   0 -17    1.28    0.54
   0   0 -17   13.98    0.83
   1   0 -17    3.57    0.64
   2   0 -17    2.60    0.54
   3   0 -17    6.14    0.84
   4   0 -17    1.96    1.05
  -5   1 -17    1.81    1.02
  -4   1 -17    1.86    0.81
  -3   1 -17    3.83    0.87
  -2   1 -17    8.66    1.02
  -1   1 -17    4.36    0.66
   0   1 -17    2.74    0.60
   1   1 -17    9.70    0.90
   2   1 -17    2.60    0.88
   3   1 -17    2.22    1.10
   4   1 -17    2.96    1.24
  -5   2 -17    1.20    0.89
  -4   2 -17    4.33    0.90
  -3   2 -17    1.36    0.58
  -2   2 -17    1.81    0.46
  -1   2 -17   10.35    1.16
   0   2 -17    2.74    0.95
   1   2 -17    2.83    0.92
   2   2 -17    3.88    1.14
   3   2 -17    1.96    1.05
  -5   3 -17    1.25    0.83
  -4   3 -17    1.39    0.64
  -3   3 -17    4.92    0.78
  -2   3 -17    1.12    0.58
  -1   3 -17    3.12    0.99
   0   3 -17    3.43    1.04
   1   3 -17    2.21    0.90
  -5   4 -17    3.21    0.98
  -4   4 -17    0.82    0.92
  -3   4 -17    1.71    1.19
   0  -5 -16    3.59    2.22
   1  -5 -16    0.51    1.00
   2  -5 -16    3.10    1.16
   3  -5 -16    4.27    0.90
   4  -5 -16    0.26    0.65
  -1  -4 -16   -0.60    0.97
   0  -4 -16    3.67    1.09
   1  -4 -16    5.40    0.85
   2  -4 -16    0.34    0.52
   3  -4 -16    4.08    0.76
   4  -4 -16    4.17    0.93
   5  -4 -16    1.23    0.74
  -2  -3 -16    3.03    1.30
  -1  -3 -16    5.01    1.17
   0  -3 -16    0.20    0.51
   1  -3 -16    4.96    0.76
   2  -3 -16    5.27    0.71
   3  -3 -16    1.16    0.39
   4  -3 -16    3.54    0.64
   5  -3 -16    3.47    0.74
  -3  -2 -16    3.32    1.53
  -2  -2 -16    0.98    0.74
  -1  -2 -16    6.86    0.89
   0  -2 -16    5.78    0.59
   1  -2 -16    0.82    0.32
   2  -2 -16    7.44    0.59
   3  -2 -16    4.28    0.57
   4  -2 -16    0.35    0.38
   5  -2 -16    2.59    0.78
  -4  -1 -16   -0.23    2.66
  -3  -1 -16    2.05    1.00
  -2  -1 -16    5.48    1.05
  -1  -1 -16    0.70    0.53
   0  -1 -16   10.37    0.62
   1  -1 -16    6.57    0.63
   2  -1 -16    1.40    0.34
   3  -1 -16    6.42    0.85
   4  -1 -16    5.82    0.89
   5  -1 -16    2.78    1.08
  -5   0 -16    2.33    1.64
  -4   0 -16    3.57    1.13
  -3   0 -16   -0.23    0.62
  -2   0 -16    6.36    0.85
  -1   0 -16    4.49    0.72
   0   0 -16    3.02    0.43
   1   0 -16    7.23    0.79
   2   0 -16    5.74    0.72
   3   0 -16    0.38    0.42
   4   0 -16    1.62    0.98
  -5   1 -16    0.30    0.92
  -4   1 -16    4.16    1.00
  -3   1 -16    4.65    0.87
  -2   1 -16    0.84    0.47
  -1   1 -16    9.20    0.81
   0   1 -16    6.25    0.81
   1   1 -16    1.19    0.41
   2   1 -16    6.02    1.17
   3   1 -16    4.35    1.13
   4   1 -16    0.20    0.93
  -5   2 -16    2.76    0.94
  -4   2 -16   -0.34    0.49
  -3   2 -16    5.25    0.76
  -2   2 -16    5.58    0.72
  -1   2 -16    0.71    0.50
   0   2 -16    4.53    1.08
   1   2 -16    4.61    1.04
   2   2 -16   -0.27    0.65
   3   2 -16    4.26    1.28
  -5   3 -16    3.43    0.98
  -4   3 -16    6.11    0.98
  -3   3 -16    0.49    0.43
  -2   3 -16    5.96    0.89
  -1   3 -16    4.98    1.16
   0   3 -16    0.85    0.69
   1   3 -16    3.22    1.01
  -5   4 -16    0.58    0.75
  -4   4 -16    2.41    1.03
  -3   4 -16    3.99    1.33
   0  -5 -15    2.78    1.32
   1  -5 -15    6.87    1.40
   2  -5 -15    1.23    0.93
   3  -5 -15    2.67    0.78
   4  -5 -15   12.13    1.33
   5  -5 -15   -0.39    1.13
  -1  -4 -15    9.50    1.67
   0  -4 -15    1.64    1.00
   1  -4 -15    4.64    0.82
   2  -4 -15   14.58    1.21
   3  -4 -15    0.38    0.51
   4  -4 -15    3.63    0.90
   5  -4 -15   10.92    1.41
  -2  -3 -15    0.29    1.03
  -1  -3 -15    6.97    1.30
   0  -3 -15   21.34    1.44
   1  -3 -15    0.90    0.48
   2  -3 -15   11.23    0.97
   3  -3 -15   22.02    1.02
   4  -3 -15    0.56    0.42
   5  -3 -15    3.93    0.76
  -3  -2 -15    3.60    1.51
  -2  -2 -15   12.99    1.43
  -1  -2 -15    0.58    0.53
   0  -2 -15   15.04    0.86
   1  -2 -15   34.88    1.05
   2  -2 -15    0.93    0.30
   3  -2 -15   10.12    0.82
   4  -2 -15   18.42    1.18
   5  -2 -15    0.73    0.59
  -4  -1 -15    8.27    3.50
  -3  -1 -15    1.07    0.90
  -2  -1 -15    6.89    1.12
  -1  -1 -15   35.42    1.59
   0  -1 -15    1.86    0.33
   1  -1 -15   18.57    0.69
   2  -1 -15   35.07    1.09
   3  -1 -15    1.21    0.36
   4  -1 -15    5.36    0.85
   5  -1 -15    9.80    1.81
  -5   0 -15   -1.25    1.22
  -4   0 -15    2.92    1.06
  -3   0 -15   20.66    1.56
  -2   0 -15    1.66    0.53
  -1   0 -15   16.26    1.54
   0   0 -15   53.07    1.41
   1   0 -15    1.11    0.38
   2   0 -15   13.23    1.00
   3   0 -15   20.35    1.25
   4   0 -15   -0.03    0.65
  -5   1 -15    9.95    1.59
  -4   1 -15    0.56    0.60
  -3   1 -15    8.93    0.89
  -2   1 -15   34.28    1.18
  -1   1 -15    1.37    0.39
   0   1 -15   18.16    1.17
   1   1 -15   36.85    1.35
   2   1 -15    0.32    0.57
   3   1 -15    5.33    1.26
   4   1 -15    8.63    1.68
  -5   2 -15    6.52    1.16
  -4   2 -15   18.44    1.53
  -3   2 -15    1.80    0.54
  -2   2 -15   13.49    0.79
  -1   2 -15   33.86    1.69
   0   2 -15    1.78    0.80
   1   2 -15    9.25    1.29
   2   2 -15   15.50    1.79
   3   2 -15    0.97    0.90
  -5   3 -15   -0.03    0.65
  -4   3 -15    6.89    0.95
  -3   3 -15   19.63    1.26
  -2   3 -15    0.71    0.46
  -1   3 -15    9.36    1.48
   0   3 -15   16.32    1.73
   1   3 -15    0.60    0.74
  -5   4 -15   10.82    1.42
  -4   4 -15    0.35    0.55
  -3   4 -15    7.39    1.59
   0  -5 -14    0.47    1.13
   1  -5 -14   88.62    3.82
   2  -5 -14    2.71    1.10
   3  -5 -14    1.08    0.66
   4  -5 -14   93.37    2.83
   5  -5 -14    0.71    0.76
  -1  -4 -14   86.02    3.87
   0  -4 -14    2.65    1.04
   1  -4 -14    4.01    1.02
   2  -4 -14  151.94    3.33
   3  -4 -14    2.61    0.61
   4  -4 -14    1.76    0.63
   5  -4 -14   92.37    3.26
  -2  -3 -14    2.63    1.23
  -1  -3 -14    3.48    1.06
   0  -3 -14  178.15    3.65
   1  -3 -14    2.68    0.57
   2  -3 -14    4.39    0.64
   3  -3 -14  184.88    2.89
   4  -3 -14    2.69    0.57
   5  -3 -14    1.44    0.57
  -3  -2 -14    1.61    1.35
  -2  -2 -14  144.19    3.83
  -1  -2 -14    3.38    0.71
   0  -2 -14    5.45    0.58
   1  -2 -14  279.28    3.62
   2  -2 -14    5.30    0.50
   3  -2 -14    2.92    0.46
   4  -2 -14  150.58    2.95
   5  -2 -14    1.05    0.61
  -4  -1 -14   78.56    4.94
  -3  -1 -14    1.64    0.88
  -2  -1 -14    2.94    0.84
  -1  -1 -14  279.69    4.92
   0  -1 -14    7.16    0.54
   1  -1 -14    8.27    0.53
   2  -1 -14  277.71    3.88
   3  -1 -14    4.06    0.50
   4  -1 -14    2.76    0.64
   5  -1 -14   92.35    4.47
  -5   0 -14    1.63    1.29
  -4   0 -14    0.91    0.68
  -3   0 -14  178.68    3.83
  -2   0 -14    3.68    0.66
  -1   0 -14    6.48    0.99
   0   0 -14  375.39    5.03
   1   0 -14    6.89    0.71
   2   0 -14    4.68    0.62
   3   0 -14  182.96    3.82
   4   0 -14    0.35    0.70
   5   0 -14    1.50    1.09
  -5   1 -14   91.29    3.54
  -4   1 -14    1.82    0.65
  -3   1 -14    4.15    0.62
  -2   1 -14  286.22    4.14
  -1   1 -14    6.40    0.59
   0   1 -14    6.86    0.78
   1   1 -14  286.77    4.78
   2   1 -14    2.42    0.76
   3   1 -14    2.66    0.95
   4   1 -14   90.82    4.24
  -5   2 -14    1.62    0.81
  -4   2 -14  152.41    3.27
  -3   2 -14    4.04    0.57
  -2   2 -14    4.74    0.50
  -1   2 -14  272.88    5.35
   0   2 -14    5.10    0.67
   1   2 -14    3.24    0.84
   2   2 -14  141.20    4.94
   3   2 -14    1.54    0.96
  -5   3 -14    1.13    0.96
  -4   3 -14    4.07    1.10
  -3   3 -14  178.48    3.16
  -2   3 -14    3.75    0.68
  -1   3 -14    4.15    1.03
   0   3 -14  175.27    5.37
  -5   4 -14   98.41    4.50
  -4   4 -14    0.22    0.79
  -3   4 -14    2.86    1.19
   0  -5 -13    1.16    1.05
   1  -5 -13   12.41    1.77
   2  -5 -13    2.53    1.04
   3  -5 -13    0.63    0.57
   4  -5 -13   15.01    1.37
   5  -5 -13    2.21    0.88
  -1  -4 -13   13.08    1.90
   0  -4 -13    2.78    1.07
   1  -4 -13    0.66    0.80
   2  -4 -13   23.87    1.40
   3  -4 -13    4.62    0.76
   4  -4 -13    0.29    0.53
   5  -4 -13   15.88    1.60
  -3  -3 -13    8.16    2.90
  -2  -3 -13    2.13    1.07
  -1  -3 -13    0.68    0.83
   0  -3 -13   28.92    1.52
   1  -3 -13    5.72    0.72
   2  -3 -13    1.13    0.42
   3  -3 -13   29.43    1.04
   4  -3 -13    5.31    0.69
   5  -3 -13    0.31    0.43
   6  -3 -13    9.61    2.08
  -3  -2 -13    0.27    1.28
  -2  -2 -13   22.09    1.78
  -1  -2 -13    5.06    0.79
   0  -2 -13    2.44    0.42
   1  -2 -13   42.18    1.08
   2  -2 -13    7.77    0.56
   3  -2 -13    2.14    0.40
   4  -2 -13   21.53    1.11
   5  -2 -13    2.51    0.78
  -4  -1 -13   12.88    2.58
  -3  -1 -13    4.02    1.08
  -2  -1 -13    1.40    0.67
  -1  -1 -13   41.17    1.71
   0  -1 -13   10.77    0.61
   1  -1 -13    3.80    0.36
   2  -1 -13   41.70    1.11
   3  -1 -13    6.15    0.59
   4  -1 -13    1.82    0.58
   5  -1 -13   10.56    1.27
  -5   0 -13    1.65    1.10
  -4   0 -13    0.65    0.64
  -3   0 -13   30.03    1.60
  -2   0 -13    8.97    0.86
  -1   0 -13    2.93    0.69
   0   0 -13   58.08    1.43
   1   0 -13   10.96    0.84
   2   0 -13    2.60    0.47
   3   0 -13   26.05    1.25
   4   0 -13    3.06    1.02
   5   0 -13    1.74    1.20
  -5   1 -13   12.93    1.41
  -4   1 -13    4.70    0.80
  -3   1 -13    1.02    0.43
  -2   1 -13   41.84    1.23
  -1   1 -13    9.89    0.68
   0   1 -13    2.72    0.52
   1   1 -13   41.59    1.32
   2   1 -13    4.68    0.94
   3   1 -13    0.53    0.64
   4   1 -13   14.34    2.02
  -5   2 -13    0.09    0.55
  -4   2 -13   22.62    1.84
  -3   2 -13    6.27    0.82
  -2   2 -13    2.31    0.36
  -1   2 -13   39.70    1.61
   0   2 -13    8.50    0.73
   1   2 -13    1.53    0.63
   2   2 -13   21.55    1.83
   3   2 -13    2.39    0.95
  -5   3 -13    5.65    1.58
  -4   3 -13    0.53    0.56
  -3   3 -13   28.79    1.39
  -2   3 -13    6.49    0.79
  -1   3 -13    0.92    0.68
   0   3 -13   28.97    1.89
  -5   4 -13   14.25    2.15
  -4   4 -13    3.56    0.88
  -3   4 -13    1.19    0.96
  -5   5 -13   -0.63    1.15
   0  -5 -12    0.07    0.94
   1  -5 -12    1.32    0.96
   2  -5 -12   15.71    1.85
   3  -5 -12    1.45    0.87
   4  -5 -12   -0.30    0.57
   5  -5 -12    9.57    1.37
  -1  -4 -12    0.27    0.98
   0  -4 -12   17.20    1.91
   1  -4 -12    1.97    0.87
   2  -4 -12    1.09    0.48
   3  -4 -12   23.01    1.45
   4  -4 -12    0.38    0.51
   5  -4 -12    1.42    0.67
  -3  -3 -12   -0.18    1.40
  -2  -3 -12   14.21    1.95
  -1  -3 -12    1.53    0.88
   0  -3 -12    2.86    0.60
   1  -3 -12   31.21    1.30
   2  -3 -12    3.73    0.58
   3  -3 -12    2.70    0.41
   4  -3 -12   22.22    1.21
   5  -3 -12    0.85    0.48
   6  -3 -12    1.00    0.81
  -3  -2 -12    1.80    1.46
  -2  -2 -12    0.30    0.77
  -1  -2 -12   33.98    1.58
   0  -2 -12    4.68    0.49
   1  -2 -12    7.39    0.51
   2  -2 -12   43.18    1.05
   3  -2 -12    2.70    0.41
   4  -2 -12    1.69    0.43
   5  -2 -12   14.34    1.16
   6  -2 -12    0.71    1.03
  -4  -1 -12    1.30    1.70
  -3  -1 -12   20.48    1.78
  -2  -1 -12    2.63    0.77
  -1  -1 -12    7.17    0.92
   0  -1 -12   60.68    1.27
   1  -1 -12    4.87    0.39
   2  -1 -12    6.28    0.50
   3  -1 -12   32.77    1.07
   4  -1 -12    1.74    0.53
   5  -1 -12   -0.23    0.57
  -5   0 -12   10.56    1.47
  -4   0 -12    0.54    0.65
  -3   0 -12    2.63    0.66
  -2   0 -12   41.53    1.47
  -1   0 -12    4.01    0.53
   0   0 -12   11.13    0.72
   1   0 -12   57.66    1.62
   2   0 -12    3.51    0.37
   3   0 -12    1.66    0.47
   4   0 -12   19.12    2.08
   5   0 -12    0.25    0.87
  -5   1 -12    0.80    0.72
  -4   1 -12   22.05    1.48
  -3   1 -12    2.83    0.53
  -2   1 -12    6.94    0.60
  -1   1 -12   56.91    1.31
   0   1 -12    4.97    0.64
   1   1 -12    6.85    0.59
   2   1 -12   31.13    1.89
   3   1 -12    1.78    0.74
   4   1 -12   -0.44    0.72
  -5   2 -12    1.06    0.85
  -4   2 -12    2.57    0.77
  -3   2 -12   31.83    1.43
  -2   2 -12    4.39    0.47
  -1   2 -12    5.89    0.71
   0   2 -12   41.84    1.31
   1   2 -12    1.41    0.60
   2   2 -12    1.87    0.73
   3   2 -12   12.62    1.77
  -5   3 -12   15.47    1.68
  -4   3 -12    1.41    0.64
  -3   3 -12    4.63    0.75
  -2   3 -12   32.53    1.42
  -1   3 -12    1.61    0.69
   0   3 -12    2.86    0.75
  -5   4 -12    0.98    0.84
  -4   4 -12   19.45    1.73
  -5   5 -12    2.71    1.33
   3  -6 -11    4.66    1.39
   0  -5 -11    4.20    1.27
   1  -5 -11   10.24    1.65
   2  -5 -11    0.19    0.72
   3  -5 -11    4.37    1.10
   4  -5 -11    8.74    1.09
   5  -5 -11   -0.45    0.60
  -2  -4 -11    2.63    1.93
  -1  -4 -11    8.49    1.62
   0  -4 -11    0.12    0.83
   1  -4 -11    6.73    1.23
   2  -4 -11   21.43    1.37
   3  -4 -11    0.18    0.36
   4  -4 -11    3.70    0.69
   5  -4 -11   12.94    1.50
  -3  -3 -11    5.89    1.72
  -2  -3 -11   -0.18    0.92
  -1  -3 -11    7.86    1.34
   0  -3 -11   28.42    1.37
   1  -3 -11    1.82    0.47
   2  -3 -11   10.67    0.86
   3  -3 -11   27.47    0.95
   4  -3 -11    0.22    0.32
   5  -3 -11    4.79    0.73
   6  -3 -11    7.25    1.01
  -4  -2 -11   -2.61    2.21
  -3  -2 -11    2.60    1.50
  -2  -2 -11   23.81    1.84
  -1  -2 -11    0.60    0.52
   0  -2 -11   14.99    0.78
   1  -2 -11   52.33    1.12
   2  -2 -11    2.66    0.33
   3  -2 -11   11.97    0.79
   4  -2 -11   21.51    1.02
   5  -2 -11    0.46    0.45
   6  -2 -11    2.53    1.24
  -4  -1 -11   11.61    2.44
  -3  -1 -11   -0.07    0.58
  -2  -1 -11   12.60    1.19
  -1  -1 -11   52.50    1.86
   0  -1 -11    4.38    0.43
   1  -1 -11   19.80    0.62
   2  -1 -11   51.29    1.18
   3  -1 -11    1.33    0.31
   4  -1 -11    6.81    0.84
   5  -1 -11    9.43    1.18
  -5   0 -11   -0.19    0.80
  -4   0 -11    4.09    0.88
  -3   0 -11   30.11    1.49
  -2   0 -11    3.59    0.57
  -1   0 -11   20.65    1.24
   0   0 -11   80.90    1.66
   1   0 -11    5.48    0.56
   2   0 -11   14.17    0.59
   3   0 -11   28.27    1.24
   4   0 -11    0.12    0.58
   5   0 -11    2.08    1.14
  -5   1 -11    8.98    1.19
  -4   1 -11    0.43    0.62
  -3   1 -11   11.87    1.16
  -2   1 -11   51.70    1.28
  -1   1 -11    5.47    0.52
   0   1 -11   18.59    1.00
   1   1 -11   51.62    1.35
   2   1 -11    1.52    0.60
   3   1 -11    7.31    1.20
   4   1 -11    8.06    1.48
  -6   2 -11   -0.96    2.10
  -5   2 -11    2.37    0.96
  -4   2 -11   23.40    1.78
  -3   2 -11    1.97    0.52
  -2   2 -11   13.75    1.06
  -1   2 -11   49.77    1.62
   0   2 -11    3.39    0.43
   1   2 -11    9.17    1.13
   2   2 -11   18.82    1.63
   3   2 -11    1.02    0.75
  -6   3 -11    3.74    2.39
  -5   3 -11    0.19    0.70
  -4   3 -11    7.32    1.06
  -3   3 -11   24.14    2.05
  -2   3 -11    1.13    0.42
  -1   3 -11   12.55    1.51
   0   3 -11   27.17    1.65
  -5   4 -11   10.24    1.48
  -4   4 -11    1.40    1.20
  -5   5 -11    2.04    1.09
   2  -6 -10   49.31    4.11
   3  -6 -10    2.91    1.23
   0  -5 -10   58.61    3.22
   1  -5 -10    4.43    1.22
   2  -5 -10    5.38    1.15
   3  -5 -10   91.97    3.46
   4  -5 -10    5.63    0.90
   5  -5 -10    2.57    0.80
  -2  -4 -10   45.57    4.55
  -1  -4 -10    5.04    1.35
   0  -4 -10    6.78    1.30
   1  -4 -10  131.63    4.11
   2  -4 -10   10.21    0.92
   3  -4 -10    8.30    0.89
   4  -4 -10  104.97    2.69
   5  -4 -10    4.85    0.97
   6  -4 -10    2.34    1.40
  -3  -3 -10    1.82    1.39
  -2  -3 -10    3.29    1.30
  -1  -3 -10  136.75    4.34
   0  -3 -10   13.59    1.07
   1  -3 -10   16.39    0.98
   2  -3 -10  205.21    3.51
   3  -3 -10   12.91    0.72
   4  -3 -10    8.95    0.81
   5  -3 -10   88.48    2.34
   6  -3 -10    3.46    0.80
  -4  -2 -10    0.88    1.85
  -3  -2 -10   88.95    4.50
  -2  -2 -10    8.80    1.27
  -1  -2 -10   14.65    1.21
   0  -2 -10  276.44    3.61
   1  -2 -10   21.90    0.68
   2  -2 -10   20.38    0.69
   3  -2 -10  204.92    3.21
   4  -2 -10    9.14    0.78
   5  -2 -10    6.18    0.80
   6  -2 -10   51.14    3.43
  -4  -1 -10    5.98    2.03
  -3  -1 -10    7.71    1.13
  -2  -1 -10  214.19    4.24
  -1  -1 -10   22.20    1.38
   0  -1 -10   29.57    0.87
   1  -1 -10  376.35    4.07
   2  -1 -10   21.67    0.73
   3  -1 -10   14.72    0.74
   4  -1 -10  135.33    3.24
   5  -1 -10    6.16    0.94
  -5   0 -10    2.36    1.03
  -4   0 -10  100.63    2.95
  -3   0 -10   13.29    1.07
  -2   0 -10   21.79    1.02
  -1   0 -10  367.88    6.04
   0   0 -10   30.73    0.97
   1   0 -10   31.25    1.04
   2   0 -10  273.56    3.58
   3   0 -10   14.08    0.93
   4   0 -10    7.98    1.39
   5   0 -10   57.76    3.50
  -5   1 -10    5.24    0.96
  -4   1 -10    8.38    1.31
  -3   1 -10  204.53    4.45
  -2   1 -10   21.09    0.96
  -1   1 -10   30.17    0.96
   0   1 -10  374.54    6.00
   1   1 -10   22.35    0.81
   2   1 -10   16.06    0.80
   3   1 -10  127.26    4.51
   4   1 -10    4.89    1.21
  -6   2 -10    1.10    2.16
  -5   2 -10   85.13    3.37
  -4   2 -10    9.60    1.21
  -3   2 -10   15.41    1.21
  -1   2 -10   20.47    0.96
   0   2 -10   19.03    0.75
   1   2 -10  194.94    5.33
   2   2 -10    8.84    1.22
   3   2 -10    3.65    1.01
  -6   3 -10    1.37    1.08
  -5   3 -10    3.65    0.98
  -4   3 -10  128.53    3.53
  -2   3 -10   14.69    1.70
  -1   3 -10  200.08    5.72
   0   3 -10   11.99    1.23
  -6   4 -10   45.64    4.42
  -5   4 -10    5.52    1.20
  -4   4 -10    7.12    1.84
  -5   5 -10   59.77    4.82
   2  -6  -9   33.58    3.68
   3  -6  -9   -0.98    0.84
   0  -5  -9   40.93    2.82
   1  -5  -9    0.21    0.88
   2  -5  -9    1.18    0.77
   3  -5  -9   56.63    2.71
   4  -5  -9    0.95    0.59
   5  -5  -9    1.57    0.75
  -2  -4  -9   28.05    2.80
  -1  -4  -9    0.68    1.02
   0  -4  -9    0.08    0.74
   1  -4  -9   80.08    3.13
   2  -4  -9    0.89    0.41
   3  -4  -9    0.65    0.39
   4  -4  -9   66.75    2.10
   5  -4  -9    0.37    0.55
   6  -4  -9   -1.43    0.98
  -3  -3  -9    0.45    1.32
  -2  -3  -9    1.09    1.12
  -1  -3  -9   82.57    3.39
   0  -3  -9    2.64    0.55
   1  -3  -9    0.88    0.34
   2  -3  -9  126.98    2.52
   3  -3  -9    1.75    0.33
   4  -3  -9    0.71    0.35
   5  -3  -9   59.02    1.88
   6  -3  -9    0.93    0.69
  -4  -2  -9   -1.66    1.59
  -3  -2  -9   56.66    3.94
  -2  -2  -9    0.02    1.02
  -1  -2  -9    1.03    0.55
   0  -2  -9  161.16    2.44
   1  -2  -9    5.25    0.38
   2  -2  -9    1.20    0.24
   3  -2  -9  124.58    2.28
   4  -2  -9    1.47    0.37
   5  -2  -9    0.66    0.43
   6  -2  -9   38.73    3.07
  -4  -1  -9   -0.80    1.38
  -3  -1  -9    0.14    0.55
  -2  -1  -9  133.27    3.09
  -1  -1  -9    5.27    0.77
   0  -1  -9    1.08    0.27
   1  -1  -9  223.01    2.63
   2  -1  -9    4.07    0.38
   3  -1  -9    0.46    0.23
   4  -1  -9   85.80    2.46
   5  -1  -9    0.79    0.55
  -5   0  -9    0.74    0.80
  -4   0  -9   68.76    2.37
  -3   0  -9    2.64    0.56
  -2   0  -9    0.86    0.36
  -1   0  -9  220.70    3.26
   0   0  -9    7.76    0.58
   1   0  -9    1.16    0.27
   2   0  -9  163.91    2.37
   3   0  -9    2.82    0.49
   4   0  -9    1.89    0.74
   5   0  -9   49.15    3.19
  -5   1  -9    0.70    1.01
  -4   1  -9    1.76    0.74
  -3   1  -9  132.97    3.31
  -2   1  -9    5.27    0.60
  -1   1  -9    1.22    0.26
   0   1  -9  222.54    3.93
   1   1  -9    4.78    0.41
   2   1  -9    0.53    0.26
   3   1  -9   81.18    3.40
   4   1  -9   -0.26    0.63
  -6   2  -9   -1.35    1.91
  -5   2  -9   59.51    2.81
  -4   2  -9    2.04    0.61
  -3   2  -9    1.10    0.50
  -1   2  -9    4.84    0.54
   0   2  -9    1.88    0.54
   1   2  -9  122.54    3.74
   2   2  -9    0.81    0.55
   3   2  -9    0.69    0.70
  -6   3  -9    0.44    0.99
  -5   3  -9    1.04    0.73
  -4   3  -9   88.20    2.77
  -2   3  -9    1.22    0.63
  -1   3  -9  122.04    3.99
   0   3  -9    2.17    0.58
  -6   4  -9   37.71    4.63
  -5   4  -9    0.88    0.74
  -4   4  -9    1.74    1.09
  -5   5  -9   47.94    5.28
   2  -6  -8    8.12    1.65
   3  -6  -8    8.83    1.66
   4  -6  -8    2.36    1.13
   0  -5  -8    9.50    1.62
   1  -5  -8   11.61    1.70
   2  -5  -8    4.87    1.06
   3  -5  -8   13.70    1.63
   4  -5  -8   16.34    1.35
   5  -5  -8    4.08    0.96
  -2  -4  -8    7.57    1.68
  -1  -4  -8   14.77    1.93
   0  -4  -8   10.34    1.44
   1  -4  -8   20.95    1.86
   2  -4  -8   28.83    1.27
   3  -4  -8   14.01    1.07
   4  -4  -8   16.64    1.30
   5  -4  -8   16.53    1.55
   6  -4  -8    3.85    1.03
  -3  -3  -8    8.48    1.95
  -2  -3  -8    4.38    1.36
  -1  -3  -8   22.17    2.12
   0  -3  -8   38.56    1.40
   1  -3  -8   25.81    1.06
   2  -3  -8   29.68    1.12
   3  -3  -8   35.47    1.02
   4  -3  -8   12.81    0.94
   5  -3  -8   15.58    1.17
   6  -3  -8   11.83    1.42
  -4  -2  -8    3.27    1.98
  -3  -2  -8   10.47    2.13
  -2  -2  -8   27.81    2.68
  -1  -2  -8   26.50    1.50
   0  -2  -8   39.94    1.34
   1  -2  -8   66.54    1.14
   2  -2  -8   36.94    0.88
   3  -2  -8   30.31    1.00
   4  -2  -8   28.43    1.10
   5  -2  -8    6.67    0.93
   6  -2  -8    8.24    1.22
  -4  -1  -8   10.94    2.27
  -3  -1  -8   13.39    1.28
  -2  -1  -8   34.12    1.60
  -1  -1  -8   68.81    2.01
   0  -1  -8   57.49    1.17
   1  -1  -8   55.31    0.96
   2  -1  -8   66.80    1.30
   3  -1  -8   23.89    0.87
   4  -1  -8   22.12    1.24
   5  -1  -8   17.83    1.48
  -5   0  -8    4.67    1.10
  -4   0  -8   22.84    1.62
  -3   0  -8   34.78    1.38
  -2   0  -8   37.12    1.19
  -1   0  -8   54.46    1.25
   0   0  -8  102.80    1.82
   1   0  -8   57.17    0.97
   2   0  -8   38.00    1.18
   3   0  -8   37.08    1.35
   4   0  -8   10.62    1.51
   5   0  -8    9.13    1.68
  -5   1  -8   13.84    1.87
  -4   1  -8   12.89    1.47
  -3   1  -8   30.56    1.49
  -2   1  -8   63.90    1.72
  -1   1  -8   56.96    1.26
   0   1  -8   54.93    1.51
   1   1  -8   65.86    1.39
   2   1  -8   23.52    0.91
   3   1  -8   20.96    1.72
   4   1  -8   16.07    1.95
  -6   2  -8    1.64    1.22
  -5   2  -8   12.33    1.59
  -4   2  -8   26.29    1.62
  -3   2  -8   23.95    1.21
  -1   2  -8   64.38    1.62
   0   2  -8   34.53    1.64
   1   2  -8   29.95    1.53
   2   2  -8   29.82    1.79
   3   2  -8   10.27    1.47
  -6   3  -8    7.55    1.55
  -5   3  -8    7.56    1.20
  -4   3  -8   24.80    1.60
  -1   3  -8   31.14    1.74
   0   3  -8   34.48    1.72
  -6   4  -8   10.17    1.68
  -5   4  -8   17.86    1.87
  -4   4  -8   11.72    2.22
  -5   5  -8    9.32    2.59
   2  -6  -7    4.03    1.32
   3  -6  -7    1.01    0.97
   4  -6  -7   13.03    1.86
   0  -5  -7    1.38    1.09
   1  -5  -7    0.64    0.85
   2  -5  -7   21.83    2.05
   3  -5  -7    6.07    1.11
   4  -5  -7    2.12    0.61
   5  -5  -7   19.36    1.71
  -2  -4  -7    2.20    2.02
  -1  -4  -7    0.70    1.01
   0  -4  -7   31.71    2.45
   1  -4  -7    8.72    1.29
   2  -4  -7    1.15    0.41
   3  -4  -7   42.54    1.53
   4  -4  -7    6.68    0.81
   5  -4  -7    1.59    0.65
   6  -4  -7   16.26    1.77
  -3  -3  -7    2.15    1.44
  -2  -3  -7   20.82    2.34
  -1  -3  -7    8.72    1.43
   0  -3  -7    0.74    0.37
   1  -3  -7   74.86    1.78
   2  -3  -7   12.99    0.82
   3  -3  -7    1.26    0.31
   4  -3  -7   42.81    1.38
   5  -3  -7    6.12    0.72
   6  -3  -7    0.77    0.65
  -4  -2  -7    9.94    2.57
  -3  -2  -7    5.83    1.87
  -2  -2  -7   -0.87    0.89
  -1  -2  -7   79.82    2.30
   0  -2  -7   16.89    0.94
   1  -2  -7    1.19    0.19
   2  -2  -7  104.76    1.64
   3  -2  -7   13.62    0.67
   4  -2  -7    1.07    0.35
   5  -2  -7   27.91    1.55
   6  -2  -7    3.53    0.90
  -4  -1  -7    0.67    1.55
  -3  -1  -7   44.03    1.92
  -2  -1  -7   14.57    1.13
  -1  -1  -7    1.06    0.47
   0  -1  -7  163.79    2.24
   1  -1  -7   22.69    0.56
   2  -1  -7    1.10    0.23
   3  -1  -7   76.72    1.61
   4  -1  -7   10.51    0.98
   5  -1  -7    1.94    0.67
  -5   0  -7   16.15    2.38
  -4   0  -7    7.34    0.93
  -3   0  -7    1.40    0.74
  -2   0  -7  108.73    2.76
  -1   0  -7   22.32    0.76
   0   0  -7    0.83    0.31
   1   0  -7  163.72    2.09
   2   0  -7   16.28    0.74
   3   0  -7    0.87    0.36
   4   0  -7   33.43    2.22
   5   0  -7    5.06    1.29
  -5   1  -7    0.40    1.02
  -4   1  -7   44.48    2.16
  -3   1  -7   15.61    1.30
  -2   1  -7    1.49    0.40
  -1   1  -7  168.32    3.61
   0   1  -7   21.26    0.88
   1   1  -7    1.04    0.22
   2   1  -7   73.88    1.73
   3   1  -7    9.40    1.27
   4   1  -7    1.77    0.91
  -6   2  -7   14.61    2.01
  -5   2  -7    7.39    1.31
  -4   2  -7    1.46    0.57
  -3   2  -7   72.97    2.17
  -1   2  -7    0.89    0.51
   0   2  -7  106.32    3.02
   1   2  -7   13.88    1.04
   2   2  -7    0.69    0.51
   3   2  -7   24.98    1.94
  -6   3  -7    2.31    1.03
  -5   3  -7   27.23    1.90
  -4   3  -7   12.90    2.15
  -1   3  -7   12.53    1.24
  -6   4  -7    3.98    1.27
  -5   4  -7    1.55    1.47
  -4   4  -7   33.42    3.08
  -5   5  -7    4.62    2.17
   2  -6  -6   -1.02    0.90
   3  -6  -6    2.33    1.07
   4  -6  -6   10.92    1.65
   0  -5  -6    0.08    0.98
   1  -5  -6    5.07    1.17
   2  -5  -6   18.85    1.87
   3  -5  -6   -0.26    0.60
   4  -5  -6    4.61    0.79
   5  -5  -6   11.79    1.40
  -2  -4  -6    1.14    2.14
  -1  -4  -6    5.25    1.32
   0  -4  -6   22.12    2.04
   1  -4  -6    0.17    0.55
   2  -4  -6    8.57    0.76
   3  -4  -6   27.46    1.27
   4  -4  -6   -0.19    0.33
   5  -4  -6    6.53    0.99
   6  -4  -6    9.19    1.33
  -3  -3  -6    3.54    1.60
  -2  -3  -6   18.89    2.15
  -1  -3  -6    0.48    0.78
   0  -3  -6   10.96    1.35
   1  -3  -6   44.32    1.30
   2  -3  -6   -0.02    0.14
   3  -3  -6   12.13    0.71
   4  -3  -6   26.67    1.09
   5  -3  -6   -0.11    0.34
   6  -3  -6    3.04    0.84
  -4  -2  -6   10.67    2.54
  -3  -2  -6   -0.63    1.26
  -2  -2  -6    7.76    1.61
  -1  -2  -6   44.42    1.73
   0  -2  -6    0.35    0.27
   1  -2  -6   20.22    0.75
   2  -2  -6   57.37    1.10
   3  -2  -6   -0.03    0.17
   4  -2  -6   10.02    0.79
   5  -2  -6   17.10    1.43
   6  -2  -6   -0.07    0.60
  -4  -1  -6    5.78    1.90
  -3  -1  -6   25.20    1.50
  -2  -1  -6   -0.30    0.32
  -1  -1  -6   23.62    1.18
   0  -1  -6   87.61    1.41
   1  -1  -6    0.21    0.12
   2  -1  -6   19.03    0.64
   3  -1  -6   44.39    1.18
   4  -1  -6    0.21    0.36
   5  -1  -6    6.33    0.91
  -5   0  -6   10.61    2.02
  -4   0  -6   -0.13    0.79
  -3   0  -6   11.83    1.31
  -2   0  -6   54.83    1.85
  -1   0  -6    0.21    0.20
   0   0  -6   30.43    0.88
   1   0  -6   85.94    1.25
   2   0  -6    0.12    0.18
   3   0  -6   11.01    0.84
   4   0  -6   24.85    1.29
   5   0  -6    0.19    0.78
  -5   1  -6    3.66    1.14
  -4   1  -6   30.47    1.88
  -3   1  -6   -0.48    0.32
  -2   1  -6   18.38    0.87
   0   1  -6    0.09    0.22
   1   1  -6   18.85    0.60
   2   1  -6   42.44    1.22
   3   1  -6    0.68    0.55
   4   1  -6    6.77    1.36
  -6   2  -6    8.58    1.71
  -5   2  -6    0.36    0.65
  -4   2  -6   11.49    1.19
  -3   2  -6   43.59    2.56
  -1   2  -6   20.26    1.31
   0   2  -6   55.08    1.91
   1   2  -6    0.61    0.34
   2   2  -6    8.80    1.10
   3   2  -6   16.56    1.78
  -6   3  -6    3.59    1.18
  -5   3  -6   17.81    1.72
  -4   3  -6   -0.84    0.78
  -1   3  -6    0.36    0.37
  -6   4  -6    0.13    0.82
  -5   4  -6    4.95    1.91
  -4   4  -6   28.22    3.46
  -5   5  -6    0.77    1.59
   2  -6  -5    0.00    0.89
   3  -6  -5   -0.27    0.82
   4  -6  -5   49.37    2.95
   0  -5  -5   -0.04    0.89
   1  -5  -5    0.88    0.77
   2  -5  -5   75.00    3.10
   3  -5  -5   -0.18    0.56
   4  -5  -5   -0.15    0.43
   5  -5  -5   58.19    2.48
  -2  -4  -5   -0.28    2.04
  -1  -4  -5   -0.13    0.90
   0  -4  -5   88.46    3.39
   1  -4  -5    0.12    0.58
   2  -4  -5    0.36    0.29
   3  -4  -5  111.76    2.53
   4  -4  -5    0.18    0.35
   5  -4  -5    0.19    0.47
   6  -4  -5   46.47    1.93
  -3  -3  -5   -0.45    2.07
  -2  -3  -5   79.47    3.69
  -1  -3  -5   -0.59    0.68
   0  -3  -5   -0.04    0.56
   1  -3  -5  178.16    2.99
   2  -3  -5    0.04    0.14
   3  -3  -5    0.34    0.20
   4  -3  -5  108.32    2.31
   5  -3  -5    0.66    0.39
   6  -3  -5    0.39    0.60
  -4  -2  -5   42.72    4.14
  -3  -2  -5    0.69    1.47
  -2  -2  -5   -0.47    0.93
  -1  -2  -5  186.92    3.67
   0  -2  -5    0.00    0.23
   1  -2  -5    0.36    0.19
   2  -2  -5  235.24    2.87
   3  -2  -5    0.24    0.19
   4  -2  -5    0.09    0.26
   5  -2  -5   78.76    2.55
   6  -2  -5    0.16    0.61
  -4  -1  -5    0.53    1.38
  -3  -1  -5  113.00    2.89
  -2  -1  -5    0.05    0.33
  -1  -1  -5    0.35    0.32
   0  -1  -5  356.85    4.78
   1  -1  -5   -0.08    0.10
   2  -1  -5    0.18    0.14
   3  -1  -5  182.25    2.79
   4  -1  -5    0.29    0.37
   5  -1  -5   -0.15    0.41
  -5   0  -5   51.57    3.61
  -4   0  -5   -0.32    0.74
  -3   0  -5   -0.63    0.51
  -2   0  -5  238.43    4.52
  -1   0  -5   -0.14    0.14
   0   0  -5    0.96    0.28
   1   0  -5  373.96    4.09
   2   0  -5    0.40    0.19
   3   0  -5   -0.15    0.24
   4   0  -5   96.01    2.58
   5   0  -5    0.82    0.81
  -5   1  -5   -0.21    0.77
  -4   1  -5  117.72    3.52
  -3   1  -5    0.27    0.32
  -2   1  -5    0.13    0.25
   0   1  -5   -0.20    0.18
   1   1  -5    0.20    0.13
   2   1  -5  175.89    3.11
   3   1  -5   -0.01    0.43
   4   1  -5    0.25    0.68
  -6   2  -5   45.83    2.96
  -5   2  -5    0.84    0.69
  -4   2  -5    0.75    0.54
  -3   2  -5  178.36    5.87
  -1   2  -5    0.50    0.38
   0   2  -5  233.80    5.19
   1   2  -5    0.18    0.30
   2   2  -5    0.10    0.41
   3   2  -5   72.92    3.23
  -6   3  -5    0.03    0.86
  -5   3  -5   71.93    2.89
  -4   3  -5    0.40    0.95
  -1   3  -5    0.45    0.34
  -6   4  -5    0.04    0.94
  -5   4  -5    1.95    1.52
  -4   4  -5   88.46    5.04
  -5   5  -5    0.72    1.53
   2  -6  -4    0.29    0.91
   3  -6  -4    0.87    0.91
   4  -6  -4   50.59    3.00
   0  -5  -4    0.03    0.88
   1  -5  -4    1.78    0.89
   2  -5  -4   85.58    3.25
   3  -5  -4   -0.20    0.58
   4  -5  -4    0.50    0.49
   5  -5  -4   56.41    2.49
  -2  -4  -4    2.44    2.19
  -1  -4  -4    1.74    1.01
   0  -4  -4  100.14    3.57
   1  -4  -4    0.24    0.59
   2  -4  -4    1.26    0.38
   3  -4  -4  123.72    2.67
   4  -4  -4    0.31    0.39
   5  -4  -4    0.94    0.58
   6  -4  -4   53.24    2.06
  -3  -3  -4   -1.33    1.99
  -2  -3  -4   88.26    3.85
  -1  -3  -4    0.42    0.72
   0  -3  -4    1.43    0.63
   1  -3  -4  195.60    3.12
   2  -3  -4    1.96    0.25
   3  -3  -4    1.21    0.28
   4  -3  -4  124.15    2.48
   5  -3  -4    0.01    0.34
   6  -3  -4    0.89    0.63
  -4  -2  -4   49.68    6.74
  -3  -2  -4    0.01    1.30
  -2  -2  -4   -0.04    1.07
  -1  -2  -4  194.63    3.75
   0  -2  -4    4.31    0.47
   1  -2  -4    1.41    0.26
   2  -2  -4  251.80    3.02
   3  -2  -4    2.57    0.36
   4  -2  -4    1.66    0.38
   5  -2  -4   85.12    2.68
   6  -2  -4   -0.07    0.54
  -4  -1  -4   -0.27    1.35
  -3  -1  -4  127.25    3.04
  -2  -1  -4    2.24    0.46
  -1  -1  -4    1.74    0.39
   0  -1  -4  382.59    4.97
   1  -1  -4    7.49    0.30
   2  -1  -4    1.67    0.25
   3  -1  -4  197.64    2.95
   4  -1  -4    0.88    0.39
   5  -1  -4    0.76    0.49
  -5   0  -4   64.00    3.83
  -4   0  -4   -0.32    0.68
  -3   0  -4    1.06    0.58
  -2   0  -4  261.14    4.75
  -1   0  -4    7.60    0.64
   0   0  -4    2.01    0.29
   1   0  -4  402.87    4.33
   2   0  -4    4.94    0.46
   3   0  -4    1.53    0.37
   4   0  -4  106.25    2.75
   5   0  -4    1.45    0.88
  -5   1  -4    0.74    0.92
  -4   1  -4  132.76    3.71
  -3   1  -4    1.79    0.54
  -2   1  -4    1.79    0.41
   0   1  -4    7.89    0.62
   1   1  -4    1.51    0.20
   2   1  -4  191.01    3.30
   3   1  -4    0.11    0.43
   4   1  -4    2.23    0.90
  -6   2  -4   51.26    3.11
  -5   2  -4   -0.52    0.58
  -4   2  -4    0.99    0.56
  -3   2  -4  186.56    6.19
  -1   2  -4    1.43    0.47
   0   2  -4  250.82    5.39
   1   2  -4    1.47    0.44
   2   2  -4    1.16    0.51
   3   2  -4   82.45    3.44
  -6   3  -4    0.60    0.99
  -5   3  -4   77.04    3.05
  -4   3  -4    0.69    0.98
  -1   3  -4    1.46    0.40
  -6   4  -4    0.23    0.89
  -5   4  -4    0.16    1.32
  -4   4  -4  110.21    5.57
  -5   5  -4   -0.56    1.74
   2  -6  -3    7.92    1.44
   3  -6  -3    1.34    0.94
   4  -6  -3    0.20    0.83
   0  -5  -3    6.43    2.53
   1  -5  -3    1.33    0.89
   2  -5  -3    0.02    0.56
   3  -5  -3    9.43    1.39
   4  -5  -3    0.87    0.48
   5  -5  -3    1.13    0.64
  -2  -4  -3    4.87    2.57
  -1  -4  -3    2.01    1.02
   0  -4  -3    2.43    0.88
   1  -4  -3   15.59    1.53
   2  -4  -3    0.86    0.34
   3  -4  -3    3.90    0.57
   4  -4  -3   12.62    1.07
   5  -4  -3    0.68    0.58
   6  -4  -3    0.64    0.58
  -3  -3  -3   -0.17    2.00
  -2  -3  -3    3.66    1.26
  -1  -3  -3   18.30    1.85
   0  -3  -3    1.52    0.64
   1  -3  -3    6.47    0.55
   2  -3  -3   25.76    0.71
   3  -3  -3    0.59    0.23
   4  -3  -3    2.43    0.46
   5  -3  -3   13.04    1.05
   6  -3  -3    0.82    0.61
  -4  -2  -3    0.72    2.61
  -3  -2  -3    9.36    2.13
  -2  -2  -3    1.56    1.16
  -1  -2  -3    6.48    0.84
   0  -2  -3   39.81    1.07
   1  -2  -3    0.15    0.16
   2  -2  -3    8.52    0.48
   3  -2  -3   26.74    0.88
   4  -2  -3    0.45    0.28
   5  -2  -3    1.20    0.59
   6  -2  -3    6.96    1.10
  -4  -1  -3   -0.04    1.37
  -3  -1  -3    3.65    0.65
  -2  -1  -3   28.75    1.21
  -1  -1  -3    0.22    0.29
   0  -1  -3   13.58    0.65
   1  -1  -3   62.46    0.91
   2  -1  -3    0.40    0.15
   3  -1  -3    5.86    0.53
   4  -1  -3   16.56    1.10
   5  -1  -3    0.24    0.46
  -5   0  -3    2.06    1.49
  -4   0  -3   11.65    1.60
  -3   0  -3    0.06    0.47
  -2   0  -3    8.73    0.90
  -1   0  -3   64.34    1.51
   0   0  -3    0.43    0.17
   1   0  -3   13.23    0.38
   2   0  -3   44.91    1.18
   3   0  -3    0.23    0.26
   4   0  -3    2.85    0.61
   5   0  -3   12.28    1.83
  -5   1  -3    0.31    0.74
  -4   1  -3    4.39    0.94
  -3   1  -3   28.02    1.33
  -2   1  -3    0.59    0.53
   0   1  -3   65.66    1.73
   1   1  -3    0.34    0.13
   2   1  -3    7.40    0.57
   3   1  -3   14.93    1.53
   4   1  -3    0.16    0.61
   5   1  -3    1.41    1.00
  -6   2  -3    1.77    1.14
  -5   2  -3   12.17    1.54
  -4   2  -3    0.71    0.47
  -3   2  -3    8.16    1.50
   0   2  -3    8.17    0.59
   1   2  -3   25.31    1.25
   2   2  -3    0.22    0.38
  -6   3  -3    0.29    0.93
  -5   3  -3    2.65    0.82
  -4   3  -3   17.32    2.65
  -6   4  -3   10.06    1.69
  -5   4  -3   -0.37    1.26
  -4   4  -3    7.81    1.85
  -5   5  -3    7.03    2.66
   2  -6  -2    5.68    2.52
   3  -6  -2    2.09    1.05
   4  -6  -2    0.39    0.85
   0  -5  -2    3.90    2.16
   1  -5  -2    3.19    1.03
   2  -5  -2   -1.03    0.50
   3  -5  -2   12.11    1.46
   4  -5  -2    2.70    0.65
   5  -5  -2    0.53    0.61
  -2  -4  -2    5.71    2.90
  -1  -4  -2    3.43    1.13
   0  -4  -2    0.53    0.71
   1  -4  -2   13.15    1.38
   2  -4  -2    3.44    0.51
   3  -4  -2    1.24    0.44
   4  -4  -2   12.58    1.06
   5  -4  -2    1.10    0.47
   6  -4  -2    0.78    0.55
  -3  -3  -2    1.60    2.46
  -2  -3  -2    0.81    1.05
  -1  -3  -2   12.43    1.52
   0  -3  -2    0.43    1.24
   1  -3  -2    1.33    0.30
   2  -3  -2   21.39    0.63
   3  -3  -2    1.00    0.31
   4  -3  -2    1.18    0.35
   5  -3  -2   11.75    0.98
   6  -3  -2    0.38    0.60
  -4  -2  -2    4.43    3.07
  -3  -2  -2   13.16    2.53
  -2  -2  -2    0.73    1.24
  -1  -2  -2    1.17    0.51
   0  -2  -2   29.57    0.85
   1  -2  -2    0.97    0.31
   2  -2  -2    1.93    0.24
   3  -2  -2   21.81    0.79
   4  -2  -2    1.15    0.34
   5  -2  -2   -0.38    0.37
   6  -2  -2    7.82    1.12
  -4  -1  -2    1.76    1.51
  -3  -1  -2    0.85    0.45
  -2  -1  -2   27.48    2.18
  -1  -1  -2    0.75    0.29
   0  -1  -2    3.75    0.34
   1  -1  -2   44.12    0.72
   2  -1  -2    0.96    0.20
   3  -1  -2    2.09    0.33
   4  -1  -2   15.75    1.16
   5  -1  -2    1.25    0.57
  -5   0  -2    1.71    1.47
  -4   0  -2   14.16    1.80
  -3   0  -2    1.42    0.59
  -2   0  -2    2.48    0.51
  -1   0  -2   46.27    1.21
   0   0  -2    1.12    0.17
   1   0  -2    3.50    0.23
   2   0  -2   33.10    0.99
   3   0  -2    0.82    0.31
   4   0  -2    0.48    0.42
   5   0  -2    6.91    1.45
  -5   1  -2    1.57    0.99
  -4   1  -2    1.40    0.62
  -3   1  -2   22.30    1.19
  -2   1  -2    1.01    0.62
   0   1  -2   44.44    1.23
   1   1  -2    0.96    0.17
   2   1  -2    1.48    0.30
   3   1  -2   14.16    1.48
   4   1  -2    1.81    0.75
   5   1  -2    1.10    0.97
  -6   2  -2    0.39    0.94
  -5   2  -2    9.30    1.33
  -4   2  -2    0.27    0.40
  -3   2  -2    1.72    0.92
   0   2  -2    2.23    0.32
   1   2  -2   20.26    1.12
   2   2  -2    0.00    0.39
  -6   3  -2    0.64    0.92
  -5   3  -2    0.62    0.69
  -4   3  -2   16.47    2.56
  -6   4  -2    5.59    1.29
  -5   4  -2    0.64    1.47
  -4   4  -2    0.83    1.23
  -5   5  -2    9.89    2.93
   2  -6  -1    0.09    1.85
   3  -6  -1    6.56    1.31
   4  -6  -1    0.14    0.82
   0  -5  -1   -2.22    1.59
   1  -5  -1    6.98    2.38
   2  -5  -1   -0.05    0.62
   3  -5  -1    0.39    0.56
   4  -5  -1    9.93    1.35
   5  -5  -1    1.44    0.67
  -2  -4  -1   -0.19    2.21
  -1  -4  -1    9.37    2.60
   0  -4  -1    0.47    0.62
   1  -4  -1   -0.33    0.45
   2  -4  -1    8.54    1.79
   3  -4  -1    1.59    0.46
   4  -4  -1    0.10    0.33
   5  -4  -1   10.54    0.93
   6  -4  -1    1.21    0.61
  -3  -3  -1    9.11    2.91
  -2  -3  -1    0.73    0.96
  -1  -3  -1   -0.18    0.60
   0  -3  -1    9.00    2.02
   1  -3  -1    4.74    0.44
   2  -3  -1    0.35    0.17
   4  -3  -1    2.43    0.43
   5  -3  -1    0.74    0.35
   6  -3  -1    5.40    0.97
  -4  -2  -1    2.18    3.15
  -3  -2  -1   -0.40    1.39
  -1  -2  -1    4.33    0.62
   0  -2  -1    1.06    0.20
   2  -2  -1    5.87    0.39
   3  -2  -1    0.65    0.23
   4  -2  -1    6.98    0.82
   5  -2  -1    1.19    0.51
   6  -2  -1    0.37    0.61
  -4  -1  -1   19.68    2.77
  -3  -1  -1    2.40    1.08
  -2  -1  -1    1.06    0.78
   0  -1  -1    9.94    0.42
   1  -1  -1    3.24    0.21
   3  -1  -1    4.08    0.45
   4  -1  -1   -0.02    0.32
   5  -1  -1    2.70    0.69
  -5   0  -1    0.44    1.31
  -4   0  -1   -0.60    0.64
  -3   0  -1    6.90    1.02
  -2   0  -1    8.38    0.84
  -1   0  -1    3.71    0.42
   1   0  -1   10.80    0.42
   2   0  -1    1.01    0.26
   3   0  -1    4.13    0.54
   4   0  -1    1.83    0.48
   5   0  -1   -0.82    0.57
  -6   1  -1    0.92    1.66
  -5   1  -1    6.12    1.25
  -4   1  -1    2.39    0.75
  -3   1  -1    1.56    0.48
  -2   1  -1    4.14    0.92
   0   1  -1    3.56    0.30
   1   1  -1    3.20    0.28
   2   1  -1    3.19    0.39
   3   1  -1    0.05    0.40
   4   1  -1    2.74    0.91
   5   1  -1    1.32    1.10
  -6   2  -1    1.44    0.99
  -5   2  -1   -0.05    0.64
  -4   2  -1    4.65    0.83
  -3   2  -1    4.07    1.19
   0   2  -1    5.45    0.42
   1   2  -1    0.67    0.34
   2   2  -1    4.81    0.78
  -6   3  -1    3.19    1.19
  -5   3  -1    0.70    0.68
  -4   3  -1   -0.63    0.79
  -6   4  -1    1.89    0.98
  -5   4  -1    5.98    2.06
  -5   5  -1    0.55    1.96
   2  -6   0    0.55    1.98
   3  -6   0  139.60    4.60
   4  -6   0   -0.57    0.79
   0  -5   0    0.01    1.72
   1  -5   0  209.30    5.44
   2  -5   0    0.22    0.63
   3  -5   0    0.34    0.60
   4  -5   0  199.31    4.00
   5  -5   0    0.46    0.57
  -2  -4   0    0.01    2.24
  -1  -4   0  199.60    9.44
   0  -4   0    1.01    0.68
   1  -4   0    1.12    0.64
   2  -4   0  381.67    7.18
   3  -4   0    0.82    0.37
   4  -4   0    0.09    0.39
   5  -4   0  199.64    3.73
   6  -4   0   -0.44    0.48
  -3  -3   0  142.07    8.89
  -2  -3   0    1.27    1.90
  -1  -3   0    0.89    0.66
   0  -3   0  512.66    8.96
   1  -3   0    1.85    0.29
   2  -3   0    2.14    0.26
   3  -3   0  504.32    5.74
   4  -3   0    0.51    0.30
   5  -3   0    0.38    0.39
   6  -3   0  142.11    3.99
  -4  -2   0   -0.11    2.98
  -3  -2   0   -0.45    1.27
  -2  -2   0  383.79    8.96
  -1  -2   0    1.51    0.71
   0  -2   0    4.02    0.65
   1  -2   0  934.07    9.15
   2  -2   0    3.70    0.31
   3  -2   0    1.96    0.32
   4  -2   0  393.75    5.35
   5  -2   0   -0.30    0.36
   6  -2   0   -0.42    0.56
  -4  -1   0  203.76    6.84
  -3  -1   0    2.09    1.07
  -2  -1   0    1.28    0.78
  -1  -1   0 1000.00   22.30
   0  -1   0    7.05    0.29
   1  -1   0    7.11    0.27
   2  -1   0  972.32   10.38
   3  -1   0    2.04    0.33
   4  -1   0    0.59    0.36
   5  -1   0  208.12    4.54
  -5   0   0    1.06    1.37
  -4   0   0    0.42    0.78
  -3   0   0  519.91    8.88
  -2   0   0    4.60    0.66
  -1   0   0    8.18    0.51
   1   0   0    8.57    0.38
   2   0   0    3.61    0.41
   3   0   0  531.09    7.83
   4   0   0    0.45    0.36
   5   0   0    0.03    0.69
  -6   1   0   -0.48    1.45
  -5   1   0  209.14    5.59
  -4   1   0    0.56    0.54
  -3   1   0    2.22    0.53
  -2   1   0  932.25   20.62
   0   1   0    7.10    0.33
   1   1   0  942.94   12.51
   2   1   0    2.08    0.34
   3   1   0    1.19    0.60
   4   1   0  202.12    6.21
   5   1   0   -0.36    0.86
  -6   2   0    0.29    1.01
  -5   2   0    0.71    0.66
  -4   2   0  399.15   11.49
  -3   2   0    3.34    1.06
   1   2   0    2.66    0.47
   2   2   0  370.61    8.54
  -6   3   0  139.47    4.74
  -5   3   0   -0.54    1.16
  -4   3   0   -0.13    0.84
  -6   4   0    0.19    0.93
  -5   4   0  200.26    8.91
  -5   5   0    0.68    1.96
   2  -6   1    2.85    2.26
   3  -6   1    2.36    0.99
   4  -6   1    0.79    0.87
   0  -5   1    1.53    1.98
   1  -5   1    5.09    2.61
   2  -5   1    0.72    0.66
   3  -5   1    1.70    0.73
   4  -5   1    3.86    0.75
   5  -5   1    0.36    0.53
  -2  -4   1   -0.33    2.32
  -1  -4   1    2.89    1.98
   0  -4   1   -0.01    0.61
   1  -4   1    2.63    0.70
   2  -4   1    3.95    0.76
   3  -4   1    0.20    0.29
   4  -4   1    0.93    0.41
   5  -4   1    3.44    0.67
   6  -4   1    0.75    0.54
  -3  -3   1    3.03    2.67
  -2  -3   1   -1.31    1.52
  -1  -3   1    1.40    0.77
   0  -3   1    5.09    0.83
   1  -3   1    1.02    0.23
   2  -3   1    3.95    0.35
   3  -3   1    3.36    0.40
   4  -3   1    0.17    0.25
   5  -3   1    0.96    0.42
   6  -3   1    4.02    0.95
  -4  -2   1   -2.80    2.57
  -3  -2   1    1.96    1.59
  -2  -2   1    2.54    1.27
  -1  -2   1    1.85    0.72
   0  -2   1    5.31    0.71
   1  -2   1    3.36    0.26
   2  -2   1    1.49    0.22
   3  -2   1    4.28    0.44
   4  -2   1    2.70    0.51
   5  -2   1   -0.22    0.37
   6  -2   1    2.54    0.80
  -4  -1   1    3.33    1.61
  -3  -1   1    0.30    0.91
  -2  -1   1    4.10    1.00
  -1  -1   1    3.56    0.81
   0  -1   1    3.30    0.44
   1  -1   1    8.77    0.29
   2  -1   1    3.88    0.36
   3  -1   1    0.19    0.24
   4  -1   1    2.18    0.49
   5  -1   1    3.14    0.76
  -5   0   1    0.24    1.30
  -4   0   1    1.10    0.83
  -3   0   1    3.70    0.74
  -2   0   1    2.10    0.45
  -1   0   1   10.38    0.53
   1   0   1    3.36    0.28
   2   0   1    6.39    0.51
   3   0   1    4.55    0.62
   4   0   1    0.02    0.31
   5   0   1   -0.79    0.58
  -6   1   1   -1.47    1.54
  -5   1   1    3.57    1.10
  -4   1   1    0.31    0.53
  -3   1   1    5.56    0.75
   2   1   1    0.33    0.23
   3   1   1    1.92    0.62
   4   1   1    7.60    1.30
   5   1   1    0.13    0.99
  -6   2   1   -0.24    0.91
  -5   2   1    1.15    0.80
  -3   2   1    0.64    0.72
   1   2   1    3.32    0.50
  -6   3   1    6.53    1.31
  -5   3   1   -1.99    1.14
  -4   3   1    0.81    0.98
  -6   4   1   -0.19    0.98
  -5   4   1   15.31    3.04
  -5   5   1   -0.97    1.75
   2  -6   2    2.13    2.22
   3  -6   2    2.29    1.95
   4  -6   2    5.97    1.26
   0  -5   2    2.17    2.15
   1  -5   2    0.40    2.05
   2  -5   2    9.68    1.32
   3  -5   2    1.89    0.73
   4  -5   2    0.40    0.45
   5  -5   2    9.01    1.18
  -2  -4   2    0.34    2.20
  -1  -4   2   -1.01    1.54
   0  -4   2   15.75    1.51
   1  -4   2    1.61    0.62
   2  -4   2    0.97    0.53
   3  -4   2   16.01    1.05
   4  -4   2    0.95    0.42
   5  -4   2   -0.01    0.36
   6  -4   2    7.18    0.94
  -3  -3   2   -2.56    2.10
  -2  -3   2   11.37    3.08
  -1  -3   2    0.97    0.68
   0  -3   2    0.30    0.46
   1  -3   2   21.48    0.74
   2  -3   2    0.93    0.21
   3  -3   2    0.29    0.21
   4  -3   2   16.29    0.93
   5  -3   2    0.93    0.41
   6  -3   2    0.27    0.62
  -4  -2   2    5.81    3.52
  -3  -2   2   -0.02    2.18
  -2  -2   2    0.80    1.11
  -1  -2   2   22.31    1.75
   0  -2   2    2.39    0.49
   1  -2   2    0.82    0.15
   2  -2   2   28.39    0.71
   3  -2   2    1.12    0.26
   4  -2   2   -0.37    0.26
   5  -2   2   10.82    1.17
   6  -2   2    0.96    0.72
  -4  -1   2    0.82    1.40
  -3  -1   2   13.06    1.84
  -2  -1   2    1.32    0.74
  -1  -1   2    0.30    0.57
   0  -1   2   46.04    1.16
   1  -1   2    3.21    0.22
   2  -1   2    0.84    0.20
   3  -1   2   21.34    0.98
   4  -1   2    1.11    0.43
   5  -1   2   -0.45    0.45
  -5   0   2    9.99    2.05
  -4   0   2    1.41    0.87
  -3   0   2    0.33    0.47
  -2   0   2   33.27    1.26
  -1   0   2    3.71    0.39
   0   0   2    1.12    0.26
   1   0   2   47.69    0.98
   2   0   2    2.02    0.31
   3   0   2   -0.84    0.27
   4   0   2   11.76    1.04
   5   0   2    1.30    0.82
  -6   1   2    0.29    1.50
  -5   1   2    0.76    0.84
  -4   1   2   17.68    1.55
  -3   1   2    1.78    0.51
  -2   1   2    1.75    0.73
   1   1   2    0.22    0.29
   2   1   2   20.92    0.86
   3   1   2    1.88    0.63
   4   1   2    0.70    0.68
   5   1   2    3.02    1.35
  -6   2   2    7.95    1.65
  -5   2   2    2.83    0.86
  -4   2   2    3.03    1.35
  -3   2   2   23.99    2.57
   1   2   2    1.62    0.37
   2   2   2    1.60    0.55
  -6   3   2    0.11    0.87
  -5   3   2   11.62    2.68
  -4   3   2    1.21    1.08
  -6   4   2    1.97    1.92
  -5   4   2    4.51    2.04
  -5   5   2    1.75    2.16
   2  -6   3    2.85    2.36
   3  -6   3   -0.31    1.85
   4  -6   3    6.21    1.27
   0  -5   3    2.08    2.25
   1  -5   3    0.48    1.93
   2  -5   3   11.33    1.35
   3  -5   3    4.74    0.85
   4  -5   3    0.54    0.63
   5  -5   3    6.73    1.01
  -2  -4   3    4.12    2.86
  -1  -4   3   -0.29    1.75
   0  -4   3   15.98    3.28
   1  -4   3    6.64    0.91
   2  -4   3    0.20    0.40
   3  -4   3   16.97    1.08
   4  -4   3    3.80    0.50
   5  -4   3    0.50    0.44
   6  -4   3    7.18    1.13
  -3  -3   3    2.51    2.86
  -2  -3   3    8.39    2.89
  -1  -3   3    5.96    0.98
   0  -3   3    0.34    0.41
   1  -3   3   27.77    0.81
   2  -3   3    9.48    0.57
   3  -3   3    0.66    0.23
   4  -3   3   16.31    1.02
   5  -3   3    3.05    0.56
   6  -3   3    0.07    0.58
  -4  -2   3    6.64    3.87
  -3  -2   3    7.02    3.00
  -2  -2   3   -0.43    1.01
  -1  -2   3   26.86    1.63
   0  -2   3   10.65    0.75
   1  -2   3    0.12    0.11
   2  -2   3   40.44    0.86
   3  -2   3    5.18    0.49
   4  -2   3    0.34    0.29
   5  -2   3   12.35    1.23
   6  -2   3    1.04    0.61
  -4  -1   3    2.13    2.39
  -3  -1   3   17.34    1.98
  -2  -1   3    9.10    1.21
  -1  -1   3   -0.53    0.50
   0  -1   3   63.16    1.35
   1  -1   3   12.51    0.35
   2  -1   3    0.24    0.14
   3  -1   3   29.52    1.01
   4  -1   3    3.43    0.59
   5  -1   3   -0.21    0.46
  -5   0   3    4.44    2.86
  -4   0   3    2.59    0.92
  -3   0   3    0.49    0.47
  -2   0   3   40.40    1.41
  -1   0   3   14.90    1.52
   0   0   3   -0.01    0.23
   1   0   3   66.04    1.26
   2   0   3    8.36    0.55
   3   0   3   -0.31    0.24
   4   0   3   12.29    1.07
   5   0   3    1.37    0.97
  -5   1   3   -0.06    0.81
  -4   1   3   19.75    1.65
  -3   1   3    7.04    1.48
  -2   1   3    0.74    0.61
   1   1   3    0.07    0.18
   2   1   3   26.74    0.98
   3   1   3    2.40    0.47
   4   1   3   -0.31    0.56
  -6   2   3    6.01    1.48
  -5   2   3    2.87    0.93
  -4   2   3    0.11    0.87
  -3   2   3   25.81    2.17
   1   2   3    5.09    0.58
   2   2   3    0.81    0.45
  -6   3   3    0.35    0.87
  -5   3   3   15.93    3.08
  -4   3   3    5.49    1.76
  -6   4   3    3.42    2.28
  -5   4   3    0.77    1.54
  -5   5   3   -0.48    1.91
   2  -6   4   49.42    5.67
   3  -6   4    0.34    1.99
   4  -6   4    0.59    0.77
   0  -5   4   62.76    5.86
   1  -5   4    1.46    2.10
   2  -5   4    0.66    0.63
   3  -5   4   86.85    2.99
   4  -5   4    1.59    0.76
   5  -5   4    0.32    0.51
  -2  -4   4   69.33    6.65
  -1  -4   4    0.16    1.85
   0  -4   4    1.49    1.68
   1  -4   4  128.41    3.33
   2  -4   4    1.16    0.50
   3  -4   4    0.32    0.30
   4  -4   4  104.00    2.11
   5  -4   4    1.17    0.47
   6  -4   4   -0.10    0.57
  -3  -3   4    4.39    3.00
  -2  -3   4   -0.23    1.95
  -1  -3   4  132.59    7.09
   0  -3   4    1.80    0.50
   1  -3   4    2.03    0.28
   2  -3   4  195.77    2.56
   3  -3   4    0.81    0.23
   4  -3   4    0.34    0.28
   5  -3   4   87.68    2.75
   6  -3   4   -0.23    0.52
  -4  -2   4   -0.74    3.05
  -3  -2   4   88.86    7.34
  -2  -2   4    1.66    1.00
  -1  -2   4    1.52    0.61
   0  -2   4  259.46    4.56
   1  -2   4    1.67    0.20
   2  -2   4    4.34    0.34
   3  -2   4  192.63    2.96
   4  -2   4    1.24    0.43
   5  -2   4    0.39    0.44
   6  -2   4   57.19    2.50
  -4  -1   4    1.00    2.21
  -3  -1   4    0.20    0.90
  -2  -1   4  201.24    4.81
  -1  -1   4    1.61    0.64
   0  -1   4    5.98    1.18
   1  -1   4  384.94    3.90
   2  -1   4    1.23    0.22
   3  -1   4    2.52    0.38
   4  -1   4  134.19    3.10
   5  -1   4    1.03    0.56
  -5   0   4   -0.34    2.58
  -4   0   4  107.37    3.68
  -3   0   4    1.25    0.54
  -2   0   4    4.33    0.60
  -1   0   4  390.03    7.17
   0   0   4    1.61    0.51
   1   0   4    7.17    0.40
   2   0   4  261.40    4.13
   3   0   4    0.93    0.33
   4   0   4    0.37    0.37
   5   0   4   64.30    3.47
  -5   1   4    1.58    1.00
  -4   1   4    0.70    0.58
  -3   1   4  194.39    6.58
  -2   1   4    3.14    0.84
   0   1   4  376.88    7.36
   1   1   4    1.49    0.33
   2   1   4    1.54    0.47
   3   1   4  114.08    3.97
   4   1   4    1.66    0.84
  -6   2   4    0.39    1.02
  -5   2   4   86.24    3.25
  -4   2   4    1.65    1.16
  -3   2   4    2.46    0.97
   1   2   4  190.44    4.42
   2   2   4    0.78    0.44
  -6   3   4    1.55    0.97
  -5   3   4    1.49    1.66
  -4   3   4  123.40    5.78
  -6   4   4   55.91    5.38
  -5   4   4    0.90    1.59
  -5   5   4   58.03    5.51
   2  -6   5   40.69    5.13
   3  -6   5    2.24    1.94
   4  -6   5    0.13    0.92
   0  -5   5   45.82    5.62
   1  -5   5    2.10    2.18
   2  -5   5    0.18    1.64
   3  -5   5   75.30    2.80
   4  -5   5   -0.26    0.52
   5  -5   5   -0.35    0.49
  -2  -4   5   50.62    6.46
  -1  -4   5    1.39    1.97
   0  -4   5    0.84    1.68
   1  -4   5  115.34    3.06
   2  -4   5    0.40    0.37
   3  -4   5   -0.19    0.27
   4  -4   5   92.20    1.98
   5  -4   5    0.01    0.39
   6  -4   5    0.84    0.64
  -3  -3   5   -1.16    2.68
  -2  -3   5    1.05    2.20
  -1  -3   5  116.56    6.56
   0  -3   5    0.17    0.36
   1  -3   5    0.13    0.17
   2  -3   5  179.43    2.42
   3  -3   5    0.21    0.18
   4  -3   5    0.15    0.26
   5  -3   5   75.73    2.59
   6  -3   5   -0.39    0.52
  -4  -2   5   -2.02    3.12
  -3  -2   5   73.19    6.95
  -2  -2   5    1.66    2.03
  -1  -2   5   -0.03    0.43
   0  -2   5  239.22    4.21
   1  -2   5    0.20    0.13
   2  -2   5    0.10    0.12
   3  -2   5  175.14    2.79
   4  -2   5   -0.34    0.24
   5  -2   5    0.09    0.43
   6  -2   5   46.49    2.28
  -4  -1   5   -1.62    2.11
  -3  -1   5    0.62    0.94
  -2  -1   5  181.17    4.51
  -1  -1   5    0.18    0.53
   0  -1   5    0.26    0.29
   1  -1   5  360.08    3.69
   2  -1   5    0.32    0.17
   3  -1   5    0.04    0.20
   4  -1   5  117.61    2.94
   5  -1   5   -0.20    0.41
  -5   0   5    0.21    2.57
  -4   0   5   94.07    3.42
  -3   0   5   -0.07    0.43
  -2   0   5   -0.02    0.22
  -1   0   5  356.69    6.79
   0   0   5    0.47    0.45
   1   0   5   -0.15    0.11
   2   0   5  245.62    3.95
   3   0   5    0.11    0.26
   4   0   5    0.39    0.38
   5   0   5   61.26    3.38
  -5   1   5   -0.12    0.82
  -4   1   5    1.12    0.66
  -3   1   5  184.18    6.32
  -2   1   5    0.41    0.56
   0   1   5  356.65    7.10
   1   1   5    0.54    0.26
   2   1   5    0.06    0.30
   3   1   5  106.02    3.75
   4   1   5   -0.06    0.59
  -6   2   5   -0.30    1.04
  -5   2   5   82.62    3.18
  -4   2   5    0.00    0.89
  -3   2   5   -0.34    0.59
   1   2   5  179.94    4.18
   2   2   5    0.25    0.42
  -6   3   5    0.11    0.91
  -5   3   5    0.78    1.61
  -4   3   5  117.42    5.59
  -6   4   5   52.03    5.87
  -5   4   5   -0.44    1.46
  -5   5   5   57.14    5.40
   2  -6   6    5.49    2.53
   3  -6   6    4.38    2.46
   4  -6   6    0.70    1.89
   0  -5   6    7.24    2.93
   1  -5   6    6.31    2.57
   2  -5   6    0.37    1.49
   3  -5   6   16.03    1.55
   4  -5   6    4.88    1.01
   5  -5   6    0.22    0.53
  -2  -4   6    7.51    3.52
  -1  -4   6    4.30    2.35
   0  -4   6    0.59    1.63
   1  -4   6   26.52    1.51
   2  -4   6    7.76    0.90
   3  -4   6    0.24    0.29
   4  -4   6   20.23    1.04
   5  -4   6    5.25    0.74
   6  -4   6    0.38    0.62
  -3  -3   6    3.09    3.37
  -2  -3   6    0.26    1.95
  -1  -3   6   26.59    3.83
   0  -3   6   11.33    0.86
   1  -3   6    0.12    0.27
   2  -3   6   42.21    1.00
   3  -3   6   11.38    0.68
   4  -3   6    0.27    0.28
   5  -3   6   16.23    1.44
   6  -3   6    2.95    0.77
  -4  -2   6   -2.25    3.11
  -3  -2   6   13.80    3.92
  -2  -2   6    7.68    2.58
  -1  -2   6   -0.19    0.41
   0  -2   6   57.90    1.49
   1  -2   6   18.88    0.59
   2  -2   6    0.18    0.13
   3  -2   6   41.21    1.16
   4  -2   6    9.24    0.94
   5  -2   6   -0.13    0.41
   6  -2   6   11.79    1.43
  -4  -1   6    6.18    3.11
  -3  -1   6    1.22    0.93
  -2  -1   6   48.18    2.19
  -1  -1   6   21.20    2.63
   0  -1   6   -0.33    0.29
   1  -1   6   85.16    1.16
   2  -1   6   19.55    0.73
   3  -1   6    0.50    0.25
   4  -1   6   25.47    1.32
   5  -1   6    4.72    0.80
  -5   0   6   -0.94    2.37
  -4   0   6   22.87    2.06
  -3   0   6   14.06    1.26
  -2   0   6   -0.27    0.20
  -1   0   6   83.25    2.31
   0   0   6   25.39    1.81
   1   0   6    0.37    0.23
   2   0   6   59.75    1.40
   3   0   6   11.12    0.80
   4   0   6    0.14    0.37
   5   0   6   12.04    1.87
  -5   1   6    5.44    1.28
  -4   1   6    0.01    0.50
  -3   1   6   51.68    3.10
  -2   1   6   19.59    1.58
   0   1   6   81.80    2.23
   1   1   6   19.37    0.96
   2   1   6    0.02    0.31
   3   1   6   23.92    1.73
   4   1   6    4.12    1.06
  -6   2   6    1.40    1.09
  -5   2   6   18.75    1.88
  -4   2   6   12.07    2.32
  -3   2   6   -0.45    0.58
   1   2   6   41.02    1.59
  -6   3   6    3.86    1.36
  -5   3   6    0.47    1.40
  -4   3   6   30.70    3.63
  -6   4   6    9.08    3.02
  -5   4   6    2.20    1.83
  -4   4   6   -0.45    1.18
  -5   5   6   14.41    3.72
   2  -6   7   12.81    3.21
   3  -6   7    1.64    2.14
   4  -6   7    2.79    1.93
   0  -5   7   11.11    3.09
   1  -5   7    3.15    2.22
   2  -5   7    7.28    2.25
   3  -5   7   28.10    1.75
   4  -5   7    2.62    0.88
   5  -5   7    4.94    0.97
  -2  -4   7   13.54    4.04
  -1  -4   7    0.45    1.91
   0  -4   7   10.00    2.57
   1  -4   7   37.79    3.60
   2  -4   7    1.07    0.49
   3  -4   7    9.91    0.83
   4  -4   7   32.04    1.16
   5  -4   7    0.87    0.43
   6  -4   7    5.42    1.01
  -3  -3   7    1.36    2.89
  -2  -3   7    7.46    2.84
  -1  -3   7   44.53    4.73
   0  -3   7    0.61    1.28
   1  -3   7   13.33    0.84
   2  -3   7   77.02    1.41
   3  -3   7    0.53    0.22
   4  -3   7    8.90    0.77
   5  -3   7   27.76    1.58
   6  -3   7    1.21    0.71
  -4  -2   7    1.68    3.45
  -3  -2   7   29.31    5.11
  -2  -2   7   -1.14    1.80
  -1  -2   7   11.92    0.92
   0  -2   7  105.08    4.68
   1  -2   7    1.41    0.23
   2  -2   7   15.71    0.54
   3  -2   7   75.84    1.64
   4  -2   7    1.33    0.44
   5  -2   7    4.20    0.75
   6  -2   7   16.55    1.64
  -4  -1   7    2.69    2.74
  -3  -1   7    8.49    2.71
  -2  -1   7   77.42    2.74
  -1  -1   7    0.08    0.36
   0  -1   7   22.66    1.66
   1  -1   7  163.95    1.92
   2  -1   7    0.95    0.25
   3  -1   7   13.64    0.89
   4  -1   7   46.66    1.76
   5  -1   7    2.45    0.70
  -5   0   7   -1.27    2.62
  -4   0   7   39.12    2.34
  -3   0   7    0.94    0.51
  -2   0   7   13.58    0.85
  -1   0   7  151.56    3.73
   0   0   7    0.96    0.70
   1   0   7   22.54    0.95
   2   0   7  108.50    2.09
   3   0   7    1.68    0.38
   4   0   7    7.11    0.87
   5   0   7   22.15    2.51
  -5   1   7    2.58    0.97
  -4   1   7   11.13    1.24
  -3   1   7   76.50    3.92
  -2   1   7    0.85    0.64
  -1   1   7   23.03    1.67
   1   1   7    1.06    0.36
   2   1   7   12.79    1.04
   3   1   7   41.96    2.22
   4   1   7    1.13    0.78
  -6   2   7    4.46    1.40
  -5   2   7   27.89    2.02
  -4   2   7    2.39    1.35
  -3   2   7   17.32    2.19
   1   2   7   76.73    2.32
  -6   3   7    1.64    1.15
  -5   3   7    8.54    2.59
  -4   3   7   40.89    3.38
  -6   4   7   13.84    3.36
  -5   4   7    2.37    1.84
  -4   4   7    8.80    2.22
  -5   5   7   16.97    3.62
   2  -6   8    1.20    2.22
   3  -6   8    8.47    2.73
   4  -6   8    3.39    2.00
   0  -5   8    2.93    2.23
   1  -5   8    9.92    3.01
   2  -5   8   19.87    3.35
   3  -5   8    8.55    1.21
   4  -5   8   13.48    1.56
   5  -5   8   12.14    1.36
  -2  -4   8    1.96    3.05
  -1  -4   8   17.30    3.73
   0  -4   8   20.07    3.51
   1  -4   8   13.40    2.61
   2  -4   8   26.60    1.41
   3  -4   8   22.98    1.07
   4  -4   8   10.08    0.79
   5  -4   8   14.67    1.16
   6  -4   8    9.77    1.37
  -3  -3   8    7.13    3.51
  -2  -3   8   16.11    3.79
  -1  -3   8   16.19    2.99
   0  -3   8   28.98    3.43
   1  -3   8   32.05    1.21
   2  -3   8   24.60    0.76
   3  -3   8   35.72    1.02
   4  -3   8   20.93    1.01
   5  -3   8    7.52    1.04
   6  -3   8   13.17    1.54
  -4  -2   8    9.50    4.24
  -3  -2   8    6.66    3.37
  -2  -2   8   32.56    4.73
  -1  -2   8   34.57    3.81
   0  -2   8   35.25    2.71
   1  -2   8   66.05    1.22
   2  -2   8   39.86    0.89
   3  -2   8   25.14    0.92
   4  -2   8   26.26    1.34
   5  -2   8   15.22    1.43
   6  -2   8    3.99    1.00
  -4  -1   8    9.79    3.42
  -3  -1   8   23.38    3.95
  -2  -1   8   23.43    1.63
  -1  -1   8   61.55    3.69
   0  -1   8   54.27    2.42
   1  -1   8   57.26    1.35
   2  -1   8   67.85    1.54
   3  -1   8   30.16    1.13
   4  -1   8   13.31    1.13
   5  -1   8   16.57    1.50
  -5   0   8   10.11    3.69
  -4   0   8    8.32    2.83
  -3   0   8   36.65    1.71
  -2   0   8   38.31    1.37
  -1   0   8   47.09    1.87
   0   0   8   95.02    4.34
   1   0   8   59.02    1.65
   2   0   8   36.33    1.12
   3   0   8   33.47    1.26
   4   0   8   17.89    1.37
   5   0   8    2.40    1.12
  -5   1   8   15.01    1.82
  -4   1   8   24.66    1.86
  -3   1   8   25.06    2.35
  -2   1   8   64.65    2.93
  -1   1   8   54.78    2.86
   1   1   8   66.84    2.12
   2   1   8   31.76    1.60
   3   1   8   13.22    1.48
   4   1   8   15.85    1.90
  -6   2   8    8.19    1.70
  -5   2   8    7.99    1.32
  -4   2   8   31.87    3.52
  -3   2   8   31.04    2.42
   1   2   8   23.16    1.24
  -6   3   8    7.75    1.66
  -5   3   8   15.48    3.05
  -4   3   8   13.01    2.41
  -6   4   8    3.40    2.40
  -5   4   8   14.38    3.02
  -4   4   8   20.19    3.23
  -5   5   8    2.56    2.22
   2  -6   9    0.77    2.13
   3  -6   9    0.70    2.05
   4  -6   9   35.17    4.09
   0  -5   9   -0.51    1.87
   1  -5   9    2.35    2.01
   2  -5   9   61.98    4.70
   3  -5   9   -0.02    1.40
   4  -5   9    0.59    0.67
   5  -5   9   46.09    2.18
  -2  -4   9   -4.01    2.67
  -1  -4   9    0.35    2.01
   0  -4   9   73.74    5.29
   1  -4   9    0.99    1.31
   2  -4   9    1.88    0.59
   3  -4   9   88.77    2.05
   4  -4   9    0.27    0.34
   5  -4   9    0.15    0.39
   6  -4   9   43.25    3.24
  -3  -3   9    3.99    3.40
  -2  -3   9   52.39    6.13
  -1  -3   9   -0.53    1.48
   0  -3   9    0.72    1.17
   1  -3   9  129.83    2.74
   2  -3   9    0.82    0.22
   3  -3   9    2.29    0.37
   4  -3   9   83.33    2.04
   5  -3   9    1.03    0.57
   6  -3   9    0.28    0.59
  -4  -2   9   38.66    6.95
  -3  -2   9    4.01    2.91
  -2  -2   9   -0.42    1.86
  -1  -2   9  119.37    6.12
   0  -2   9    0.01    0.40
   1  -2   9    5.03    0.47
   2  -2   9  163.31    2.19
   3  -2   9    0.73    0.31
   4  -2   9    0.89    0.38
   5  -2   9   60.56    2.35
   6  -2   9    0.11    0.83
  -4  -1   9    0.16    2.67
  -3  -1   9   76.31    6.22
  -2  -1   9    0.73    0.67
  -1  -1   9    3.95    1.45
   0  -1   9  219.62    5.89
   1  -1   9    1.04    0.26
   2  -1   9    4.35    0.47
   3  -1   9  127.21    2.62
   4  -1   9    0.52    0.38
   5  -1   9    0.20    0.49
  -5   0   9   28.98    5.20
  -4   0   9   -2.00    1.80
  -3   0   9    2.03    0.59
  -2   0   9  161.14    2.87
  -1   0   9    0.79    0.44
   0   0   9    7.11    1.35
   1   0   9  229.56    4.47
   2   0   9    0.71    0.35
   3   0   9    1.80    0.41
   4   0   9   72.20    3.29
   5   0   9    0.61    0.86
  -5   1   9    0.74    2.18
  -4   1   9   88.56    2.96
  -3   1   9    1.71    0.97
  -2   1   9    5.00    1.03
  -1   1   9  217.23    7.78
   1   1   9    3.94    0.58
   2   1   9  125.78    3.75
   3   1   9    0.63    0.53
   4   1   9    1.16    0.76
  -5   2   9    1.50    0.83
  -4   2   9    3.81    1.44
  -3   2   9  123.84    5.10
  -2   2   9    0.62    0.63
   1   2   9    0.92    0.39
  -6   3   9    0.34    1.08
  -5   3   9   69.00    5.18
  -4   3   9    1.27    1.19
  -5   4   9    2.53    1.83
  -4   4   9   67.10    4.72
  -5   5   9   -0.93    1.88
   2  -6  10    1.43    2.25
   3  -6  10    1.87    1.95
   4  -6  10   49.22    4.68
   0  -5  10    0.87    2.08
   1  -5  10    6.39    2.52
   2  -5  10   83.70    5.34
   3  -5  10    3.95    1.84
   4  -5  10    6.53    1.14
   5  -5  10   62.65    2.54
  -2  -4  10    0.90    2.99
  -1  -4  10    1.98    2.33
   0  -4  10  100.15    6.17
   1  -4  10    8.65    2.08
   2  -4  10    9.13    1.86
   3  -4  10  134.69    2.34
   4  -4  10    6.86    0.74
   5  -4  10    5.47    0.99
   6  -4  10   51.65    3.68
  -3  -3  10    4.52    3.17
  -2  -3  10   86.99    6.85
  -1  -3  10    6.30    2.29
   0  -3  10   14.07    2.46
   1  -3  10  211.62    3.87
   2  -3  10   15.58    0.66
   3  -3  10   13.56    0.77
   4  -3  10  128.61    3.29
   5  -3  10    5.35    0.93
   6  -3  10    4.62    1.01
  -3  -2  10    4.92    3.39
  -2  -2  10    7.61    2.85
  -1  -2  10  211.44    8.21
   0  -2  10   17.21    2.02
   1  -2  10   22.67    0.80
   2  -2  10  275.14    3.28
   3  -2  10   14.65    0.97
   4  -2  10   10.68    1.04
   5  -2  10   92.06    2.96
  -4  -1  10    3.39    2.99
  -3  -1  10  133.44    7.92
  -2  -1  10   16.08    2.86
  -1  -1  10   14.02    2.24
   0  -1  10  367.82    8.81
   1  -1  10   29.55    1.58
   2  -1  10   23.16    0.91
   3  -1  10  209.17    3.70
   4  -1  10    6.81    0.87
   5  -1  10    6.16    0.97
  -5   0  10   42.57    6.33
  -4   0  10    6.49    2.83
  -3   0  10   10.94    1.17
  -2   0  10  266.78    6.19
  -1   0  10   25.08    1.79
   0   0  10   30.83    2.38
   1   0  10  370.34    6.84
   2   0  10   21.23    1.18
   3   0  10   12.97    1.22
   4   0  10  115.29    4.36
   5   0  10    3.31    1.16
  -5   1  10    3.03    2.43
  -4   1  10  135.16    3.81
  -3   1  10   16.51    2.25
  -2   1  10   24.03    1.75
  -1   1  10  368.88   12.14
   1   1  10   22.83    1.25
   2   1  10  202.75    5.38
   3   1  10    8.24    1.21
   4   1  10    5.06    1.21
  -5   2  10    4.19    1.12
  -4   2  10   12.03    2.37
  -3   2  10  211.00    7.06
  -2   2  10   21.01    1.92
   1   2  10   14.98    1.07
  -6   3  10    3.98    1.44
  -5   3  10   78.55    5.53
  -4   3  10   12.58    2.56
  -5   4  10    4.69    2.13
  -4   4  10  101.11    5.76
  -5   5  10    1.13    2.16
   2  -6  11    2.01    2.35
   3  -6  11    4.70    2.17
   0  -5  11    0.82    2.07
   1  -5  11    7.90    2.57
   2  -5  11    1.42    1.70
   3  -5  11   -1.10    1.28
   4  -5  11   12.43    1.46
   5  -5  11    1.99    0.79
  -2  -4  11   -1.60    2.83
  -1  -4  11   11.63    3.39
   0  -4  11    2.05    1.87
   1  -4  11    0.28    1.20
   2  -4  11   21.08    2.60
   3  -4  11    6.51    0.61
   4  -4  11    0.00    0.36
   5  -4  11   10.35    1.27
   6  -4  11    2.79    1.44
  -3  -3  11    2.81    3.56
  -2  -3  11    2.31    2.60
  -1  -3  11    1.32    1.67
   0  -3  11   31.29    3.37
   1  -3  11    9.38    1.58
   2  -3  11    1.04    0.25
   3  -3  11   26.07    0.92
   4  -3  11    5.75    0.82
   5  -3  11    0.54    0.46
   6  -3  11    9.53    2.04
  -3  -2  11   -0.65    2.77
  -2  -2  11   17.47    3.57
  -1  -2  11    9.96    2.30
   0  -2  11    2.22    0.98
   1  -2  11   53.02    1.30
   2  -2  11   13.88    0.57
   3  -2  11    0.96    0.35
   4  -2  11   21.59    1.37
   5  -2  11    4.42    0.83
  -4  -1  11    6.36    3.51
  -3  -1  11    6.24    2.73
  -2  -1  11    0.35    1.44
  -1  -1  11   42.80    3.20
   0  -1  11   20.07    1.33
   1  -1  11    3.21    0.67
   2  -1  11   50.71    1.43
   3  -1  11   11.16    0.88
   4  -1  11   -0.15    0.35
   5  -1  11   12.35    1.35
  -5   0  11   -1.50    3.22
  -4   0  11    1.20    2.17
  -3   0  11   24.96    1.48
  -2   0  11   14.34    1.18
  -1   0  11    3.21    0.87
   0   0  11   75.69    4.12
   1   0  11   19.73    1.10
   2   0  11    2.68    0.56
   3   0  11   26.89    1.56
   4   0  11    3.54    0.98
   5   0  11    0.09    0.83
  -5   1  11    6.37    3.06
  -4   1  11    6.74    1.13
  -3   1  11   -0.67    0.84
  -2   1  11   50.08    2.57
  -1   1  11   19.60    1.95
   0   1  11    5.94    1.35
   1   1  11   53.70    2.04
   2   1  11    9.39    1.12
   3   1  11   -0.21    0.42
   4   1  11   12.10    1.81
  -5   2  11   -0.19    0.75
  -4   2  11   21.71    2.95
  -3   2  11   10.54    1.78
  -2   2  11    1.95    0.86
   1   2  11    1.99    0.55
  -6   3  11    8.10    1.73
  -5   3  11    4.92    2.16
  -4   3  11    0.55    1.18
  -5   4  11   10.87    2.79
  -4   4  11    5.57    1.87
  -5   5  11   -1.02    1.87
   0  -5  12    9.41    2.92
   1  -5  12    0.90    2.02
   2  -5  12    0.60    1.47
   3  -5  12   12.67    2.40
   4  -5  12    2.51    1.56
   5  -5  12    0.83    0.68
  -1  -4  12    1.99    2.41
   0  -4  12    1.55    1.70
   1  -4  12   14.81    2.50
   2  -4  12    1.21    0.68
   3  -4  12    1.19    0.35
   4  -4  12   18.34    1.21
   5  -4  12    0.14    0.55
  -3  -3  12   -2.84    2.99
  -2  -3  12    1.46    2.44
  -1  -3  12   25.82    3.84
   0  -3  12    2.31    1.36
   1  -3  12    2.40    1.01
   2  -3  12   34.50    1.30
   3  -3  12    1.73    0.35
   4  -3  12    1.62    0.52
   5  -3  12   13.57    1.36
  -3  -2  12    7.04    3.59
  -2  -2  12   -1.15    1.96
  -1  -2  12    1.38    1.39
   0  -2  12   39.88    2.58
   1  -2  12    6.50    0.98
   2  -2  12    3.04    0.40
   3  -2  12   32.80    1.41
   4  -2  12    1.56    0.49
   5  -2  12    0.94    0.58
  -4  -1  12    3.14    3.08
  -3  -1  12    0.88    2.46
  -2  -1  12   23.12    3.40
  -1  -1  12    5.01    1.57
   1  -1  12   58.20    2.46
   2  -1  12    7.07    1.00
   3  -1  12    2.27    0.46
   4  -1  12   22.39    1.35
   5  -1  12    0.66    0.77
  -5   0  12    1.24    3.44
  -4   0  12   21.74    4.13
  -3   0  12    2.76    1.74
  -2   0  12    3.26    0.68
  -1   0  12   46.65    2.46
   0   0  12   11.93    1.86
   1   0  12    4.90    0.68
   2   0  12   43.18    1.77
   3   0  12    3.21    0.69
   4   0  12    0.53    0.61
   5   0  12    8.17    1.62
  -5   1  12    0.85    2.31
  -4   1  12    1.55    0.76
  -3   1  12   29.89    2.72
  -2   1  12    6.87    1.22
  -1   1  12    4.44    1.24
   0   1  12   59.18    3.79
   1   1  12    7.08    0.90
   2   1  12    1.87    0.61
   3   1  12   20.48    1.45
   4   1  12    0.29    0.82
  -5   2  12   20.29    2.07
  -4   2  12    1.32    1.23
  -3   2  12    1.81    1.05
  -2   2  12   41.26    2.88
  -6   3  12    2.43    1.49
  -5   3  12    4.22    2.05
  -4   3  12   25.38    3.31
  -5   4  12    0.62    1.59
  -4   4  12    1.39    1.33
  -5   5  12   16.74    3.60
   0  -5  13    0.71    2.35
   1  -5  13    7.91    2.73
   2  -5  13    1.65    1.50
   3  -5  13    3.31    1.70
  -1  -4  13   15.54    3.51
   0  -4  13    0.79    1.62
   1  -4  13    3.91    1.51
   2  -4  13   25.27    2.43
   3  -4  13    0.83    0.46
   4  -4  13    2.66    0.57
   5  -4  13   13.65    1.46
  -3  -3  13    6.34    4.10
  -2  -3  13    1.96    2.51
  -1  -3  13    1.44    1.82
   0  -3  13   26.69    3.05
   1  -3  13    0.51    0.47
   2  -3  13    7.09    0.74
   3  -3  13   26.73    1.39
   4  -3  13    0.06    0.36
   5  -3  13    1.81    0.67
  -3  -2  13    3.64    3.35
  -2  -2  13   23.28    3.93
  -1  -2  13    0.44    0.60
   0  -2  13    6.15    1.25
   1  -2  13   43.86    1.92
   2  -2  13    1.46    0.53
   3  -2  13    6.11    0.77
   4  -2  13   24.18    1.41
   5  -2  13    0.84    0.57
  -4  -1  13   11.70    4.14
  -3  -1  13   -2.00    2.08
  -2  -1  13    3.38    1.96
  -1  -1  13   35.08    2.99
   1  -1  13    9.99    1.20
   2  -1  13   41.70    2.10
   3  -1  13    1.26    0.40
   4  -1  13    5.56    0.86
   5  -1  13   13.37    2.03
  -5   0  13   -0.91    3.17
  -4   0  13    6.41    2.56
  -3   0  13   27.35    3.63
  -2   0  13    2.24    0.60
  -1   0  13   10.18    1.37
   0   0  13   50.96    3.65
   1   0  13    3.59    0.63
   2   0  13   10.49    1.06
   3   0  13   29.67    1.73
   4   0  13    0.98    0.76
   5   0  13    3.55    1.17
  -5   1  13   11.90    3.55
  -4   1  13    1.11    1.80
  -3   1  13    6.41    1.66
  -2   1  13   40.24    2.38
  -1   1  13    2.24    0.99
   0   1  13    8.08    1.70
   1   1  13   44.78    1.76
   2   1  13    1.10    0.52
   3   1  13    2.84    0.73
   4   1  13   13.90    1.87
  -5   2  13    2.06    1.05
  -4   2  13   26.87    3.26
  -3   2  13    2.35    1.07
  -2   2  13    8.22    1.58
  -6   3  13    9.49    2.32
  -5   3  13    1.61    1.86
  -4   3  13    4.80    1.73
  -5   4  13   15.43    3.27
  -4   4  13    3.22    1.61
  -5   5  13   -1.09    1.70
  -1  -4  14   99.74    6.71
   0  -4  14    2.66    1.83
   1  -4  14    1.47    1.21
   2  -4  14  152.20    5.86
   3  -4  14    3.95    1.29
   4  -4  14    2.72    0.74
   5  -4  14   93.59    3.30
  -2  -3  14    0.76    2.35
  -1  -3  14    1.79    1.76
   0  -3  14  175.79    6.84
   1  -3  14    2.51    1.00
   2  -3  14    3.25    0.54
   3  -3  14  186.01    4.06
   4  -3  14    2.68    0.68
   5  -3  14    0.88    0.61
  -3  -2  14    0.28    3.22
  -2  -2  14  148.95    8.03
  -1  -2  14    2.73    1.51
   0  -2  14    4.36    1.10
   1  -2  14  273.14    6.84
   2  -2  14    4.30    0.95
   3  -2  14    2.44    0.52
   4  -2  14  147.30    3.75
   5  -2  14    1.88    0.70
  -3  -1  14    3.31    2.42
  -2  -1  14    1.87    1.66
  -1  -1  14  259.06    8.71
   2  -1  14  271.36    7.12
   3  -1  14    3.96    0.75
   4  -1  14    2.35    0.92
   5  -1  14   94.83    4.54
  -5   0  14    4.02    3.58
  -4   0  14    1.89    2.42
  -3   0  14  167.90    7.91
  -2   0  14    3.17    0.71
  -1   0  14    6.23    1.11
   0   0  14  367.82   13.40
   1   0  14    6.18    0.81
   2   0  14    5.55    0.83
   3   0  14  186.65    4.85
   4   0  14    1.67    0.85
   5   0  14    0.56    0.92
  -5   1  14   84.66    6.92
  -4   1  14    1.06    1.70
  -3   1  14    7.10    1.69
  -2   1  14  281.16    7.88
  -1   1  14    7.29    1.56
   0   1  14    7.71    1.75
   1   1  14  280.27    5.87
   2   1  14    4.70    0.79
   3   1  14    1.21    0.59
  -5   2  14    2.10    2.53
  -4   2  14  145.91    6.54
  -3   2  14    4.34    1.30
  -2   2  14    7.15    1.53
  -1   2  14  280.43   10.70
   3   2  14    0.20    1.63
  -5   3  14    3.11    1.92
  -4   3  14    2.04    1.44
  -5   4  14   83.37    5.94
  -4   4  14    2.97    1.63
  -5   5  14    0.64    2.01
  -1  -4  15    5.41    3.13
   0  -4  15    2.78    1.91
   1  -4  15    1.56    1.40
   4  -4  15    0.74    0.55
   5  -4  15    7.09    1.20
  -2  -3  15    0.38    2.32
  -1  -3  15    0.16    1.43
   0  -3  15   22.17    2.67
   1  -3  15    8.90    1.35
   2  -3  15    0.50    0.48
   3  -3  15   22.59    1.34
   4  -3  15    5.45    0.91
   5  -3  15    0.57    0.60
  -3  -2  15    2.48    3.10
  -2  -2  15   14.12    3.13
  -1  -2  15    6.17    1.75
   0  -2  15    0.00    0.42
   1  -2  15   36.16    1.67
   2  -2  15   13.37    1.63
   3  -2  15   -0.18    0.40
   4  -2  15   21.09    1.60
   5  -2  15    2.67    0.79
  -4  -1  15    8.97    3.90
  -3  -1  15    6.13    2.91
  -2  -1  15    0.72    0.66
  -1  -1  15   28.39    2.76
   1  -1  15   -0.05    0.76
   2  -1  15   33.65    2.05
   3  -1  15   10.11    1.23
   4  -1  15    0.82    0.65
   5  -1  15   10.08    1.87
  -5   0  15    6.23    4.06
  -4   0  15   -1.95    2.10
  -3   0  15   24.57    3.53
  -2   0  15   13.15    2.14
  -1   0  15    0.47    0.49
   0   0  15   55.89    4.09
   1   0  15   17.51    1.27
   2   0  15    1.79    0.57
   3   0  15   16.29    1.55
   4   0  15    4.36    1.19
   5   0  15   -0.39    0.83
  -5   1  15   12.37    3.75
  -4   1  15    7.71    2.47
  -3   1  15    1.59    1.21
  -2   1  15   35.05    1.85
  -1   1  15   17.47    1.04
   0   1  15    1.37    0.98
   1   1  15   34.88    1.70
   2   1  15    8.77    1.01
   3   1  15   -0.33    0.49
  -5   2  15    3.59    2.46
  -4   2  15   20.58    2.98
  -3   2  15    9.90    1.77
  -2   2  15    2.24    1.16
  -1   2  15   33.84    3.19
   3   2  15    3.58    2.00
  -5   3  15    3.53    2.13
  -4   3  15    2.98    1.57
  -3   3  15   21.95    2.68
  -2   3  15    9.32    2.04
  -5   4  15   11.46    3.01
  -4   4  15    4.33    1.88
  -5   5  15   -1.16    1.85
   2  -4  16    0.26    0.89
   4  -4  16    2.41    0.77
   5  -4  16    0.89    0.67
  -2  -3  16    3.41    2.59
  -1  -3  16    1.67    1.89
   0  -3  16    0.48    0.56
   3  -3  16    0.23    0.58
   4  -3  16    4.21    0.88
   5  -3  16    2.11    0.74
  -3  -2  16    1.40    3.11
  -2  -2  16    0.13    1.96
  -1  -2  16    4.58    1.61
   0  -2  16    5.64    1.10
   1  -2  16   -0.39    0.88
   2  -2  16    5.94    1.14
   3  -2  16    6.31    1.23
   4  -2  16   -0.69    0.51
   5  -2  16    4.78    1.44
  -4  -1  16    1.81    3.31
  -3  -1  16    0.78    2.00
  -2  -1  16    2.33    1.79
  -1  -1  16    0.50    0.53
   2  -1  16    0.91    0.56
   3  -1  16    4.75    0.94
   4  -1  16    4.81    1.19
   5  -1  16   -0.82    0.82
  -5   0  16    0.85    3.67
  -4   0  16    3.19    2.85
  -3   0  16    0.49    1.42
  -2   0  16    3.57    1.37
   0   0  16    2.81    1.19
   1   0  16    6.28    0.93
   2   0  16    6.88    0.99
   3   0  16    0.30    0.57
   4   0  16    3.91    1.16
   5   0  16    1.37    1.02
  -5   1  16   -0.02    2.58
  -4   1  16    1.61    1.94
  -3   1  16    5.17    1.68
  -2   1  16    1.24    0.63
  -1   1  16    6.40    0.78
   0   1  16    8.25    1.94
   1   1  16    0.91    0.51
   2   1  16    4.05    0.79
   3   1  16    2.13    0.74
  -5   2  16    3.15    2.79
  -4   2  16    1.29    1.44
  -3   2  16    5.04    1.40
  -2   2  16    8.70    1.84
  -1   2  16    0.73    0.99
   0   2  16    5.35    1.72
   2   2  16    1.03    1.39
   3   2  16    3.51    2.15
  -5   3  16    1.61    1.89
  -4   3  16    2.76    1.68
  -3   3  16    1.03    1.12
  -2   3  16    3.48    1.46
  -5   4  16    0.58    1.88
  -4   4  16    5.20    2.10
   1  -4  17    0.41    0.81
   3  -4  17    1.10    1.13
   4  -4  17    0.95    0.92
   5  -4  17    2.62    1.34
   2  -3  17   -0.41    0.74
   3  -3  17    2.72    0.85
   4  -3  17    1.64    0.92
   5  -3  17    2.27    1.12
  -3  -2  17    0.43    3.17
  -2  -2  17    6.51    2.76
  -1  -2  17    3.46    1.45
   0  -2  17    1.10    0.99
   2  -2  17    1.06    0.62
   3  -2  17    0.69    0.68
   4  -2  17    4.25    1.17
   5  -2  17    2.59    1.16
  -4  -1  17   -1.05    3.44
  -3  -1  17   -4.20    2.10
  -2  -1  17    1.32    0.58
  -1  -1  17    6.40    1.54
   2  -1  17    8.85    1.34
   3  -1  17    2.05    0.72
   4  -1  17    0.79    0.84
   5  -1  17    0.46    0.96
  -4   0  17    0.77    2.46
  -3   0  17    5.39    2.12
  -2   0  17    1.15    0.65
   1   0  17    1.95    0.61
   2   0  17    3.26    0.83
   3   0  17    3.53    0.89
   4   0  17    1.75    0.85
  -5   1  17    1.54    3.15
  -4   1  17    5.26    2.33
  -3   1  17    2.47    1.53
  -2   1  17   10.05    1.57
  -1   1  17    3.13    0.63
   0   1  17    4.14    1.59
   1   1  17    9.85    1.13
   2   1  17    1.36    0.69
   3   1  17    1.57    0.81
  -5   2  17   -2.07    2.23
  -4   2  17    4.41    1.81
  -3   2  17    3.73    1.32
  -2   2  17    2.90    0.79
  -1   2  17    7.78    1.98
   0   2  17    1.67    1.20
   1   2  17    2.38    1.52
   2   2  17    3.14    1.77
   3   2  17    0.76    1.72
  -5   3  17    3.59    2.14
  -4   3  17    2.22    1.51
  -3   3  17    7.17    1.62
  -5   4  17    2.57    2.02
  -4   4  17    1.88    1.81
   4  -4  18  116.72    5.41
   5  -4  18    1.87    1.38
   3  -3  18    6.14    1.46
   4  -3  18    7.92    1.66
   5  -3  18  103.48    5.11
   2  -2  18   29.37    2.19
   3  -2  18  201.69    6.55
   4  -2  18    3.28    1.14
   5  -2  18    6.03    1.66
  -3  -1  18    7.76    2.98
  -2  -1  18  190.65    8.54
   2  -1  18   11.53    1.63
   3  -1  18   18.34    2.07
   4  -1  18  132.84    5.38
   5  -1  18    3.61    1.39
  -4   0  18  107.72    7.87
  -3   0  18    7.01    2.28
  -2   0  18   22.72    2.76
   1   0  18   37.84    3.80
   2   0  18  262.21    6.27
   3   0  18    6.81    1.14
   4   0  18    7.18    1.52
  -5   1  18    2.96    2.96
  -4   1  18   13.09    3.08
  -3   1  18  193.69    7.82
  -2   1  18   14.74    1.88
  -1   1  18   34.78    3.25
   0   1  18  329.83   13.15
   1   1  18   10.15    1.20
   2   1  18   18.76    1.66
   3   1  18  136.79    4.39
  -5   2  18   75.14    6.50
  -4   2  18    4.68    1.92
  -3   2  18   19.27    2.40
  -2   2  18  265.10    6.20
  -1   2  18   10.01    2.23
   0   2  18   23.59    3.12
   1   2  18  199.04   10.01
   2   2  18    1.93    1.64
  -5   3  18    9.99    2.97
  -4   3  18  136.57    6.46
  -3   3  18    3.59    1.38
  -2   3  18   14.26    2.75
  -1   3  18  194.11    9.65
   2   3  18   83.14    7.16
  -5   4  18    4.14    2.47
  -4   4  18    7.18    2.17
  -2   4  18    2.06    1.66
  -4   5  18    2.69    2.10
   2  -4  19    0.51    1.02
   4  -4  19   31.36    3.39
   5  -4  19    0.67    1.23
   0  -3  19    0.30    0.86
   3  -3  19   -0.08    0.52
   4  -3  19    9.59    1.76
   5  -3  19   23.43    3.00
   1  -2  19    0.11    1.08
   3  -2  19   36.60    2.61
   4  -2  19    0.03    0.66
   5  -2  19    4.16    1.43
  -1  -1  19    0.38    0.84
   2  -1  19    0.23    0.52
   3  -1  19   14.12    1.84
   4  -1  19   30.36    2.57
   5  -1  19   -0.99    0.85
  -3   0  19    1.58    1.75
   1   0  19   24.08    3.52
   2   0  19   45.48    2.31
   3   0  19   -0.35    0.55
   4   0  19    5.40    1.32
  -4   1  19   10.43    2.91
  -3   1  19   38.52    3.52
  -2   1  19   -0.16    0.83
  -1   1  19   28.06    3.10
   0   1  19   50.78    4.42
   1   1  19    0.53    1.06
   2   1  19   11.00    1.36
   3   1  19   28.57    2.07
  -5   2  19   16.78    3.79
  -4   2  19    0.10    1.36
  -3   2  19   13.58    2.25
  -2   2  19   43.87    2.16
  -1   2  19    0.40    0.97
   0   2  19   18.16    3.18
   1   2  19   34.42    4.05
   2   2  19    0.46    1.47
   3   2  19    5.11    2.45
  -5   3  19    5.48    2.48
  -4   3  19   31.98    3.65
  -3   3  19    1.71    1.21
  -2   3  19   12.19    2.57
  -1   3  19   41.93    4.16
   0   3  19   -1.03    1.09
   2   3  19   15.33    3.65
  -5   4  19   -0.28    2.14
  -4   4  19    5.62    2.20
  -2   4  19   -0.15    1.42
  -4   5  19   -0.78    1.76
   3  -4  20   -0.12    1.00
   4  -4  20    7.44    1.73
   5  -4  20    5.25    1.67
   1  -3  20   -0.04    0.76
   3  -3  20    6.91    1.54
   4  -3  20    0.76    0.96
   5  -3  20    9.25    2.04
  -1  -2  20    0.21    0.73
   2  -2  20   -0.62    1.08
   3  -2  20   18.86    2.32
   4  -2  20    1.48    0.94
   5  -2  20    0.94    1.11
   0  -1  20    0.10    1.08
   2  -1  20   11.18    1.66
   3  -1  20   -0.37    0.53
   4  -1  20   15.73    2.30
   5  -1  20    0.98    1.28
  -2   0  20   -0.58    0.71
   1   0  20    0.10    1.00
   2   0  20   22.18    1.93
   3   0  20    5.02    1.07
   4   0  20   -0.48    0.76
  -1   1  20    0.92    1.13
   0   1  20   32.72    3.70
   1   1  20    8.81    2.33
   2   1  20    0.36    0.56
   3   1  20   11.08    1.58
  -4   2  20    5.73    2.09
  -3   2  20   -1.53    0.92
  -2   2  20   27.36    3.17
  -1   2  20   13.60    2.71
   0   2  20   -0.04    1.13
   1   2  20   12.89    2.85
   2   2  20    5.16    2.25
   3   2  20   -1.04    1.85
  -4   3  20   12.94    2.70
  -3   3  20    8.38    1.90
  -2   3  20    0.28    1.11
  -1   3  20   19.58    3.37
   0   3  20    5.55    2.24
   1   3  20   -0.68    1.32
   2   3  20    3.21    2.20
  -5   4  20    2.04    2.56
  -4   4  20   -1.49    1.49
  -1   4  20    0.17    1.57
  -4   5  20    5.31    2.30
   3  -5  21    0.44    1.42
   0  -3  21   -0.35    0.84
   3  -3  21    0.17    1.49
   4  -3  21   13.89    2.33
   5  -3  21    2.73    1.45
   1  -2  21    0.16    1.22
   3  -2  21    4.03    1.24
   4  -2  21    1.56    1.07
   5  -2  21    9.68    2.15
  -1  -1  21    0.07    0.95
   2  -1  21    1.95    0.81
   3  -1  21   24.21    2.54
   4  -1  21    4.90    1.50
   0   0  21    0.60    1.03
   1   0  21   42.86    4.34
   2   0  21    8.51    1.32
   3   0  21    2.18    0.90
   4   0  21   12.44    1.81
  -1   1  21   44.94    4.10
   0   1  21   11.31    2.68
   1   1  21    3.97    1.82
   2   1  21   26.16    1.96
   3   1  21    3.84    1.11
  -2   2  21   10.42    2.31
  -1   2  21    4.73    1.97
   0   2  21   29.31    4.20
   1   2  21    4.38    1.86
   2   2  21    0.14    1.57
   3   2  21   11.06    3.07
  -2   3  21   19.69    3.38
  -1   3  21    7.91    2.40
   0   3  21    2.87    1.85
   1   3  21    8.68    2.60
   2   3  21    2.17    2.12
  -1   4  21    9.22    2.65
   0   4  21    2.60    2.08
   3  -5  22   -0.33    1.25
   1  -4  22    0.20    1.12
   2  -3  22   -0.64    0.90
   3  -3  22   -0.57    1.70
   4  -3  22   26.52    3.03
   0  -2  22    0.69    1.12
   3  -2  22   -0.27    0.58
   4  -2  22    5.21    1.45
  -2  -1  22    0.22    0.86
   1  -1  22   -0.40    0.98
   2  -1  22    8.97    1.63
   3  -1  22   34.50    2.78
   4  -1  22    0.03    0.94
  -1   0  22   -0.55    0.73
   1   0  22   65.51    5.46
   2   0  22    0.03    0.58
   3   0  22    5.64    1.25
   4   0  22   20.18    2.25
  -1   1  22   56.19    4.76
   0   1  22    0.48    1.20
   1   1  22    6.42    2.32
   2   1  22   37.02    2.29
   3   1  22    0.63    1.94
  -2   2  22    0.25    1.13
  -1   2  22    6.32    2.16
   0   2  22   41.35    4.42
   1   2  22    0.00    1.34
   2   2  22    4.99    2.29
   3   2  22   11.10    3.43
  -1   3  22   -0.20    1.40
   0   3  22    5.89    2.20
   1   3  22   17.88    3.87
  -1   4  22   18.76    3.71
   0   4  22    0.06    1.79
   1  -4  23    0.03    1.12
   2  -4  23   -0.25    0.98
   0  -3  23   -0.14    0.82
   2  -3  23   -0.09    1.19
   3  -3  23    0.28    1.54
   4  -3  23   56.10    3.98
   0  -2  23    0.27    1.07
   1  -2  23   -0.50    1.14
   3  -2  23    1.61    0.94
   4  -2  23    0.41    0.90
  -1  -1  23   -0.73    0.78
   2  -1  23    0.43    1.34
   3  -1  23   80.20    4.22
   4  -1  23    2.21    1.17
   0   0  23   -0.13    0.94
   1   0  23  118.75    7.84
   2   0  23    4.38    1.01
   3   0  23    0.46    0.77
   4   0  23   48.25    3.05
   0   1  23    6.20    2.14
   1   1  23    1.58    1.51
   2   1  23   76.17    3.31
   3   1  23    1.44    2.13
  -1   2  23    1.05    1.46
   0   2  23   83.85    6.55
   1   2  23    6.58    2.39
   2   2  23    0.06    1.67
  -1   3  23    2.59    1.72
   0   3  23   -0.37    1.42
  -1   4  23   51.58    5.85
   0   4  23    2.93    2.36
   1  -4  24   -0.15    1.26
   2  -4  24   -0.16    1.22
   2  -3  24   -0.32    1.20
   3  -3  24   -0.86    1.59
   4  -3  24   47.68    3.72
   0  -2  24   -0.18    0.87
   3  -2  24    0.87    0.82
   4  -2  24    0.46    0.89
  -1  -1  24    0.79    1.21
   1  -1  24    0.51    1.15
   2  -1  24    0.78    1.42
   3  -1  24   63.62    3.84
   4  -1  24   -0.49    0.82
  -1   0  24    0.40    1.06
   1   0  24   96.01    7.05
   2   0  24    0.75    1.49
   3   0  24    3.45    1.15
   4   0  24   34.31    2.98
   0   1  24   -0.22    1.16
   1   1  24    5.56    2.29
   2   1  24   62.69    6.06
   3   1  24   -1.65    1.73
  -1   2  24    5.95    2.10
   0   2  24   66.65    5.87
   1   2  24    0.82    1.45
   2   2  24    3.83    2.19
  -1   3  24    1.26    1.53
   0   3  24    6.04    2.66
   1   3  24   43.22    5.49
  -1   4  24   40.17    5.26
   0   4  24   -0.34    1.88
   1  -4  25   -0.15    1.20
   2  -4  25    0.32    1.28
   3  -4  25    0.56    1.59
   0  -3  25   -0.47    0.95
   2  -3  25    1.18    1.75
   3  -3  25    0.63    2.08
   4  -3  25    3.60    1.41
   0  -2  25   -0.15    1.10
   1  -2  25    0.12    1.36
   3  -2  25   -0.37    1.68
   4  -2  25    1.65    1.03
  -1  -1  25    0.00    1.06
   1  -1  25   -0.22    1.20
   2  -1  25    0.08    1.33
   3  -1  25    2.13    1.03
   4  -1  25    0.64    1.07
  -1   0  25   -0.06    1.15
   0   0  25    1.13    1.47
   2   0  25    6.48    2.53
   3   0  25    2.48    1.05
   4   0  25    1.95    1.29
   0   1  25    4.96    2.14
   1   1  25    3.32    2.10
   2   1  25    4.28    2.29
   3   1  25    2.36    2.26
  -1   2  25    1.45    1.64
   0   2  25    7.29    2.62
   1   2  25    2.13    1.97
   2   2  25    2.05    2.15
  -1   3  25    3.82    2.10
   0   3  25    1.59    1.87
   1   3  25    1.69    1.99
  -1   4  25    2.06    2.30
   2  -4  26   -0.96    1.09
   3  -4  26    0.97    1.62
   0  -3  26    0.55    1.19
   1  -3  26    0.23    1.32
   3  -3  26   -0.52    1.67
   4  -3  26    3.20    2.98
  -1  -2  26   -0.31    1.04
   1  -2  26    0.06    1.52
   2  -2  26    0.25    1.54
   4  -2  26    0.01    0.98
  -1  -1  26   -0.17    1.15
   0  -1  26    0.48    1.27
   2  -1  26    0.28    1.58
   3  -1  26    0.00    0.78
   4  -1  26    3.08    1.28
   0   0  26   -0.59    1.17
   2   0  26    8.73    2.85
   3   0  26    0.98    0.98
   4   0  26   -0.36    1.06
  -1   1  26   -0.61    1.14
   0   1  26   14.19    3.09
   1   1  26    0.94    1.59
   2   1  26   -0.10    1.69
   3   1  26    3.93    2.51
  -1   2  26    1.30    1.68
   0   2  26    1.11    1.62
   1   2  26    8.91    3.11
   2   2  26    1.34    2.00
  -1   3  26    8.44    2.91
   0   3  26    1.53    1.76
   1   3  26   -0.63    1.74
  -1   4  26    0.80    1.96
   1  -4  27    0.24    1.56
   3  -4  27    0.28    1.77
   1  -3  27   -0.34    1.20
   2  -3  27    0.80    1.70
   4  -3  27   -0.96    2.48
  -1  -2  27    0.41    1.03
   0  -2  27   -0.72    1.06
   2  -2  27    0.36    1.73
   3  -2  27   -0.15    1.70
   4  -2  27   15.19    2.55
   0  -1  27    0.15    1.30
   1  -1  27   -0.45    1.00
   3  -1  27   -0.79    1.62
   4  -1  27   -0.35    1.15
  -1   0  27   -0.31    1.15
   2   0  27    3.37    2.11
   3   0  27   20.43    2.23
  -1   1  27   -0.46    1.09
   0   1  27    1.31    1.63
   1   1  27   35.89    5.32
   2   1  27   -1.05    1.56
   3   1  27   -0.59    2.07
  -1   2  27   32.59    4.88
   0   2  27    0.72    1.64
   1   2  27    0.18    1.76
   2   2  27   13.12    3.69
  -1   3  27    0.36    1.74
   0   3  27   20.60    4.34
   1   3  27    1.75    2.22
  -1   4  27    0.09    1.82
   1  -3  28   -0.45    1.19
   2  -3  28    0.35    1.60
   4  -3  28   -1.48    2.39
  -1  -2  28    0.55    1.19
   0  -2  28   -0.81    0.98
   2  -2  28    1.06    1.80
   3  -2  28   -0.18    1.88
   0  -1  28   -0.34    1.35
   1  -1  28    0.05    1.39
   3  -1  28    0.47    1.89
   4  -1  28   -0.29    2.53
  -1   0  28   -0.62    1.32
   2   0  28    0.11    1.47
   3   0  28   96.76    8.59
  -1   1  28   -0.10    1.23
   0   1  28   -0.94    1.22
   1   1  28  141.32    9.81
   2   1  28    0.02    1.74
  -1   2  28  156.20    9.41
   0   2  28    0.48    1.87
   1   2  28    0.68    1.75
  -1   3  28   -0.56    1.75
   0   3  28   97.22    8.18
  -1   4  28   -0.87    1.97
   0  -3  29   -0.01    1.26
   1  -3  29    0.58    1.65
   2  -3  29   -0.94    1.36
   3  -3  29    0.44    2.07
  -1  -2  29    0.44    1.08
   0  -2  29    0.63    1.50
   1  -2  29   -0.03    1.61
   2  -2  29   -0.87    1.45
   3  -2  29    1.89    2.61
   4  -2  29    0.79    2.48
  -1  -1  29    0.03    1.44
   0  -1  29    1.02    1.77
   1  -1  29   -0.27    1.28
   2  -1  29   -0.36    1.70
   3  -1  29   -0.74    1.86
  -1   0  29    0.12    1.47
   0   0  29    0.86    1.59
   1   0  29    0.68    1.48
   3   0  29   -1.13    1.61
  -1   1  29    0.16    1.29
   0   1  29   -0.07    1.42
   1   1  29   -1.10    1.60
   2   1  29   -0.66    1.60
  -1   2  29   -0.56    1.44
   0   2  29   -1.02    1.70
   1   2  29    0.31    1.77
  -1   3  29    0.34    1.77
   0   3  29   -0.33    1.94
   0  -3  30    0.21    1.38
   2  -3  30    0.01    1.63
   3  -3  30   -0.14    2.19
   0  -2  30   -1.15    1.12
   1  -2  30   -0.46    1.51
   3  -2  30    1.34    2.59
  -1  -1  30    0.36    1.49
   1  -1  30    0.92    1.84
   2  -1  30   -0.10    1.89
  -1   0  30   -0.50    1.40
   0   0  30    0.91    1.92
   1   1  30    0.72    1.80
   2   1  30    9.61    3.32
  -1   2  30    0.24    1.57
   0   2  30   10.89    3.39
   1   2  30   -0.59    1.67
  -1   3  30    0.76    2.13
   0   3  30    0.47    2.04
   1  -3  31   -0.21    1.46
   2  -3  31   -0.43    1.85
  -1  -2  31   -0.06    1.20
   0  -2  31    0.00    1.49
   1  -2  31   -0.37    1.64
   2  -2  31    0.48    1.84
   3  -2  31   -0.39    2.23
  -1  -1  31    0.13    1.43
   1  -1  31   -0.34    1.36
   2  -1  31    0.24    1.64
   3  -1  31   -0.10    2.31
  -1   0  31    0.32    1.73
   0   0  31    0.23    1.71
   1   0  31    1.49    1.79
   1   1  31   -0.26    1.76
   2   1  31    2.22    2.26
  -1   2  31   -0.86    1.65
   0   2  31    2.52    2.27
   1   2  31   -0.51    1.97
  -1   3  31   -0.28    1.93
  -1  -2  32    0.26    1.18
   1  -2  32    0.07    2.13
   2  -2  32   -0.09    2.22
  -1  -1  32   -0.09    1.44
   0  -1  32   -0.96    1.44
   2  -1  32   -0.46    1.79
   0   0  32    0.22    1.55
   1   0  32   -0.17    1.42
  -1   1  32   -0.67    1.74
   1   1  32    1.28    2.03
   0   2  32   -0.45    1.73
  -1   3  32   59.33    6.59
   1  -2  33   -0.51    1.84
   2  -2  33    1.08    2.14
  -1  -1  33   -0.39    1.51
   0  -1  33   -1.29    1.62
   2  -1  33    0.23    2.38
   0   0  33    1.10    2.12
   1   0  33    1.06    1.99
  -1   1  33    0.13    1.87
   1   1  33   -0.27    1.91
   0   2  33   -1.17    1.87
   0  -2  34   -0.13    1.66
   1  -2  34    1.52    2.53
  -1  -1  34   -0.20    1.74
   0  -1  34   -1.27    1.95
   1  -1  34   -1.36    1.47
   2  -1  34    0.24    2.07
  -1   0  34    0.80    2.19
   0   0  34   -0.42    1.78
   1   0  34   -0.13    1.87
  -1   1  34   -0.51    1.80
   0   1  34   -0.54    1.65
   0   2  34    1.13    2.35
  -1  -1  35    0.71    1.89
   0  -1  35    0.31    2.10
   1  -1  35   -0.59    1.89
  -1   0  35   -0.46    1.81
   0   0  35   -0.37    1.75
   1   0  35    1.36    2.44
  -1   1  35   -0.05    2.16
   0   1  35   -0.44    1.91
   0  -1  36    0.00    2.60
  -1   0  36    0.08    2.17
   0   1  36   -0.65    1.89
   0   0   0    0.00    0.00
;
_shelx_hkl_checksum              21668
#END Tags that were not found in dictionaries
loop_
_space_group_symop_operation_xyz
'x, y, z'
'-y, x-y, z'
'-x+y, -x, z'
'y, x, -z'
'x-y, -y, -z'
'-x, -x+y, -z'
'-x, -y, -z'
'y, -x+y, -z'
'x-y, x, -z'
'-y, -x, z'
'-x+y, y, z'
'x, x-y, z'
loop_
_atom_site_label
_atom_site_type_symbol
_atom_site_fract_x
_atom_site_fract_y
_atom_site_fract_z
_atom_site_U_iso_or_equiv
_atom_site_adp_type
_atom_site_occupancy
_atom_site_site_symmetry_order
_atom_site_calc_flag
_atom_site_refinement_flags_posn
_atom_site_refinement_flags_adp
_atom_site_refinement_flags_occupancy
Nd1 Nd 0.3333 0.6667 0.07145(2) 0.00725(13) Uani 1 6 d S T P
Nd2 Nd 0.0000 0.0000 0.21498(2) 0.00821(14) Uani 1 6 d S T P
Nd3 Nd 0.0000 0.0000 0.5000 0.0112(6) Uani 0.410(4) 12 d S T .
Zn1A Zn 0.3333 0.6667 0.40538(10) 0.0279(5) Uani 0.830(4) 6 d S T P
Zn1B Zn 0.3333 0.6667 0.4550(5) 0.0279(5) Uani 0.170(4) 6 d S T P
Zn2 Zn 0.3333 0.6667 0.67457(6) 0.0169(3) Uani 1 6 d S T P
As1 As 0.3333 0.6667 0.28933(5) 0.0087(2) Uani 1 6 d S T P
As2 As 0.3333 0.6667 0.57088(5) 0.0116(2) Uani 1 6 d S T P
As3 As 0.3333 0.6667 0.85542(4) 0.0067(2) Uani 1 6 d S T P
As4 As 0.0000 0.0000 0.0000 0.0067(3) Uani 1 12 d S T P
loop_
_atom_site_aniso_label
_atom_site_aniso_U_11
_atom_site_aniso_U_22
_atom_site_aniso_U_33
_atom_site_aniso_U_23
_atom_site_aniso_U_13
_atom_site_aniso_U_12
Nd1 0.00672(17) 0.00672(17) 0.0083(3) 0.000 0.000 0.00336(9)
Nd2 0.00733(19) 0.00733(19) 0.0100(3) 0.000 0.000 0.00366(9)
Nd3 0.0104(8) 0.0104(8) 0.0128(12) 0.000 0.000 0.0052(4)
Zn1A 0.0170(6) 0.0170(6) 0.0496(14) 0.000 0.000 0.0085(3)
Zn1B 0.0170(6) 0.0170(6) 0.0496(14) 0.000 0.000 0.0085(3)
Zn2 0.0172(5) 0.0172(5) 0.0163(7) 0.000 0.000 0.0086(2)
As1 0.0075(3) 0.0075(3) 0.0109(6) 0.000 0.000 0.00377(16)
As2 0.0110(3) 0.0110(3) 0.0128(5) 0.000 0.000 0.00551(17)
As3 0.0071(3) 0.0071(3) 0.0059(5) 0.000 0.000 0.00353(15)
As4 0.0074(4) 0.0074(4) 0.0055(7) 0.000 0.000 0.0037(2)
loop_
_atom_type_symbol
_atom_type_description
_atom_type_scat_dispersion_real
_atom_type_scat_dispersion_imag
_atom_type_scat_source
Zn Zn 0.2839 1.4301 'International Tables Vol C Tables 4.2.6.8 and 6.1.1.4'
As As 0.0499 2.0058 'International Tables Vol C Tables 4.2.6.8 and 6.1.1.4'
Nd Nd -0.1943 3.0179 'International Tables Vol C Tables 4.2.6.8 and 6.1.1.4'
loop_
_geom_angle_atom_site_label_1
_geom_angle_atom_site_label_2
_geom_angle_atom_site_label_3
_geom_angle
_geom_angle_site_symmetry_1
_geom_angle_site_symmetry_3
As4 Nd1 As4 89.64(4) 1_565 .
As4 Nd1 As4 89.64(4) 1_565 1_665
As4 Nd1 As4 89.64(4) . 1_665
As4 Nd1 As3 179.37(3) 1_565 7_666
As4 Nd1 As3 90.81(4) . 7_666
As4 Nd1 As3 90.81(4) 1_665 7_666
As4 Nd1 As3 90.81(4) 1_565 7_676
As4 Nd1 As3 179.37(3) . 7_676
As4 Nd1 As3 90.81(4) 1_665 7_676
As3 Nd1 As3 88.74(4) 7_666 7_676
As4 Nd1 As3 90.81(4) 1_565 7_566
As4 Nd1 As3 90.81(4) . 7_566
As4 Nd1 As3 179.37(3) 1_665 7_566
As3 Nd1 As3 88.74(4) 7_666 7_566
As3 Nd1 As3 88.74(4) 7_676 7_566
As3 Nd2 As3 90.20(4) 7_556 7_666
As3 Nd2 As3 90.20(4) 7_556 7_566
As3 Nd2 As3 90.20(4) 7_666 7_566
As3 Nd2 As1 178.52(3) 7_556 .
As3 Nd2 As1 90.84(4) 7_666 .
As3 Nd2 As1 90.84(4) 7_566 .
As3 Nd2 As1 90.84(4) 7_556 1_445
As3 Nd2 As1 178.52(3) 7_666 1_445
As3 Nd2 As1 90.84(4) 7_566 1_445
As1 Nd2 As1 88.10(4) . 1_445
As3 Nd2 As1 90.84(4) 7_556 1_545
As3 Nd2 As1 90.84(4) 7_666 1_545
As3 Nd2 As1 178.52(3) 7_566 1_545
As1 Nd2 As1 88.10(4) . 1_545
As1 Nd2 As1 88.09(4) 1_445 1_545
As3 Nd2 Zn2 134.50(2) 7_556 7_666
As3 Nd2 Zn2 82.93(5) 7_666 7_666
As3 Nd2 Zn2 134.50(2) 7_566 7_666
As1 Nd2 Zn2 44.66(2) . 7_666
As1 Nd2 Zn2 95.59(6) 1_445 7_666
As1 Nd2 Zn2 44.66(2) 1_545 7_666
As3 Nd2 Zn2 82.93(5) 7_556 7_556
As3 Nd2 Zn2 134.50(2) 7_666 7_556
As3 Nd2 Zn2 134.50(2) 7_566 7_556
As1 Nd2 Zn2 95.59(6) . 7_556
As1 Nd2 Zn2 44.65(2) 1_445 7_556
As1 Nd2 Zn2 44.66(2) 1_545 7_556
Zn2 Nd2 Zn2 71.12(5) 7_666 7_556
As3 Nd2 Zn2 134.50(2) 7_556 7_566
As3 Nd2 Zn2 134.50(2) 7_666 7_566
As3 Nd2 Zn2 82.93(5) 7_566 7_566
As1 Nd2 Zn2 44.66(2) . 7_566
As1 Nd2 Zn2 44.66(2) 1_445 7_566
As1 Nd2 Zn2 95.59(6) 1_545 7_566
Zn2 Nd2 Zn2 71.12(5) 7_666 7_566
Zn2 Nd2 Zn2 71.12(5) 7_556 7_566
Zn1B Nd3 Zn1B 75.7(3) . 7_666
Zn1B Nd3 Zn1B 104.3(3) . 1_445
Zn1B Nd3 Zn1B 180.0 7_666 1_445
Zn1B Nd3 Zn1B 180.0 . 7_556
Zn1B Nd3 Zn1B 104.3(3) 7_666 7_556
Zn1B Nd3 Zn1B 75.7(3) 1_445 7_556
Zn1B Nd3 Zn1B 75.7(3) . 7_566
Zn1B Nd3 Zn1B 104.3(3) 7_666 7_566
Zn1B Nd3 Zn1B 75.7(3) 1_445 7_566
Zn1B Nd3 Zn1B 104.3(3) 7_556 7_566
Zn1B Nd3 Zn1B 104.3(3) . 1_545
Zn1B Nd3 Zn1B 75.7(3) 7_666 1_545
Zn1B Nd3 Zn1B 104.3(3) 1_445 1_545
Zn1B Nd3 Zn1B 75.7(3) 7_556 1_545
Zn1B Nd3 Zn1B 180.0(5) 7_566 1_545
Zn1B Nd3 As2 120.5(2) . 7_556
Zn1B Nd3 As2 127.53(11) 7_666 7_556
Zn1B Nd3 As2 52.47(11) 1_445 7_556
Zn1B Nd3 As2 59.5(2) 7_556 7_556
Zn1B Nd3 As2 127.53(11) 7_566 7_556
Zn1B Nd3 As2 52.47(11) 1_545 7_556
Zn1B Nd3 As2 52.47(11) . 7_666
Zn1B Nd3 As2 59.5(2) 7_666 7_666
Zn1B Nd3 As2 120.5(2) 1_445 7_666
Zn1B Nd3 As2 127.53(11) 7_556 7_666
Zn1B Nd3 As2 127.53(11) 7_566 7_666
Zn1B Nd3 As2 52.47(11) 1_545 7_666
As2 Nd3 As2 89.95(4) 7_556 7_666
Zn1B Nd3 As2 127.53(11) . 1_445
Zn1B Nd3 As2 120.5(2) 7_666 1_445
Zn1B Nd3 As2 59.5(2) 1_445 1_445
Zn1B Nd3 As2 52.47(11) 7_556 1_445
Zn1B Nd3 As2 52.47(11) 7_566 1_445
Zn1B Nd3 As2 127.53(11) 1_545 1_445
As2 Nd3 As2 90.05(4) 7_556 1_445
As2 Nd3 As2 180.0 7_666 1_445
Zn1B Nd3 As2 59.5(2) . .
Zn1B Nd3 As2 52.47(11) 7_666 .
Zn1B Nd3 As2 127.53(11) 1_445 .
Zn1B Nd3 As2 120.5(2) 7_556 .
Zn1B Nd3 As2 52.47(11) 7_566 .
Zn1B Nd3 As2 127.53(11) 1_545 .
As2 Nd3 As2 180.0 7_556 .
As2 Nd3 As2 90.05(4) 7_666 .
As2 Nd3 As2 89.95(4) 1_445 .
Zn1B Nd3 As2 52.47(11) . 7_566
Zn1B Nd3 As2 127.53(11) 7_666 7_566
Zn1B Nd3 As2 52.47(11) 1_445 7_566
Zn1B Nd3 As2 127.53(11) 7_556 7_566
Zn1B Nd3 As2 59.5(2) 7_566 7_566
Zn1B Nd3 As2 120.5(2) 1_545 7_566
As2 Nd3 As2 89.95(4) 7_556 7_566
As2 Nd3 As2 89.95(4) 7_666 7_566
As2 Nd3 As2 90.05(4) 1_445 7_566
As2 Nd3 As2 90.05(4) . 7_566
Zn1B Nd3 As2 127.53(11) . 1_545
Zn1B Nd3 As2 52.47(11) 7_666 1_545
Zn1B Nd3 As2 127.53(11) 1_445 1_545
Zn1B Nd3 As2 52.47(11) 7_556 1_545
Zn1B Nd3 As2 120.5(2) 7_566 1_545
Zn1B Nd3 As2 59.5(2) 1_545 1_545
As2 Nd3 As2 90.05(4) 7_556 1_545
As2 Nd3 As2 90.05(4) 7_666 1_545
As2 Nd3 As2 89.95(4) 1_445 1_545
As2 Nd3 As2 89.95(4) . 1_545
As2 Nd3 As2 180.00(4) 7_566 1_545
Zn1B Zn1A As2 76.66(6) . 7_666
Zn1B Zn1A As2 76.66(6) . 7_676
As2 Zn1A As2 114.84(5) 7_666 7_676
Zn1B Zn1A As2 76.66(6) . 7_566
As2 Zn1A As2 114.84(5) 7_666 7_566
As2 Zn1A As2 114.84(5) 7_676 7_566
Zn1B Zn1A As1 180.0 . .
As2 Zn1A As1 103.34(6) 7_666 .
As2 Zn1A As1 103.34(6) 7_676 .
As2 Zn1A As1 103.34(6) 7_566 .
Zn1B Zn1A Zn2 128.61(5) . 7_666
As2 Zn1A Zn2 51.96(5) 7_666 7_666
As2 Zn1A Zn2 121.61(4) 7_676 7_666
As2 Zn1A Zn2 121.61(4) 7_566 7_666
As1 Zn1A Zn2 51.39(5) . 7_666
Zn1B Zn1A Zn2 128.61(5) . 7_566
As2 Zn1A Zn2 121.61(4) 7_666 7_566
As2 Zn1A Zn2 121.61(4) 7_676 7_566
As2 Zn1A Zn2 51.96(5) 7_566 7_566
As1 Zn1A Zn2 51.39(5) . 7_566
Zn2 Zn1A Zn2 85.17(7) 7_666 7_566
Zn1B Zn1A Zn2 128.61(5) . 7_676
As2 Zn1A Zn2 121.61(4) 7_666 7_676
As2 Zn1A Zn2 51.96(5) 7_676 7_676
As2 Zn1A Zn2 121.61(4) 7_566 7_676
As1 Zn1A Zn2 51.39(5) . 7_676
Zn2 Zn1A Zn2 85.17(7) 7_666 7_676
Zn2 Zn1A Zn2 85.17(7) 7_566 7_676
Zn1B Zn1A Nd3 46.61(4) . 1_665
As2 Zn1A Nd3 59.20(4) 7_666 1_665
As2 Zn1A Nd3 59.20(4) 7_676 1_665
As2 Zn1A Nd3 123.27(9) 7_566 1_665
As1 Zn1A Nd3 133.39(4) . 1_665
Zn2 Zn1A Nd3 98.32(4) 7_666 1_665
Zn2 Zn1A Nd3 175.22(7) 7_566 1_665
Zn2 Zn1A Nd3 98.32(4) 7_676 1_665
Zn1B Zn1A Nd3 46.61(4) . 1_565
As2 Zn1A Nd3 123.27(9) 7_666 1_565
As2 Zn1A Nd3 59.20(4) 7_676 1_565
As2 Zn1A Nd3 59.20(4) 7_566 1_565
As1 Zn1A Nd3 133.39(4) . 1_565
Zn2 Zn1A Nd3 175.23(7) 7_666 1_565
Zn2 Zn1A Nd3 98.32(4) 7_566 1_565
Zn2 Zn1A Nd3 98.32(4) 7_676 1_565
Nd3 Zn1A Nd3 78.01(6) 1_665 1_565
Zn1B Zn1A Nd3 46.61(4) . .
As2 Zn1A Nd3 59.20(4) 7_666 .
As2 Zn1A Nd3 123.27(9) 7_676 .
As2 Zn1A Nd3 59.20(4) 7_566 .
As1 Zn1A Nd3 133.39(4) . .
Zn2 Zn1A Nd3 98.32(4) 7_666 .
Zn2 Zn1A Nd3 98.32(4) 7_566 .
Zn2 Zn1A Nd3 175.22(7) 7_676 .
Nd3 Zn1A Nd3 78.01(6) 1_665 .
Nd3 Zn1A Nd3 78.01(6) 1_565 .
Zn1A Zn1B As2 75.5(3) . 7_666
Zn1A Zn1B As2 75.5(3) . 7_566
As2 Zn1B As2 114.0(2) 7_666 7_566
Zn1A Zn1B As2 75.5(3) . 7_676
As2 Zn1B As2 114.0(2) 7_666 7_676
As2 Zn1B As2 114.0(2) 7_566 7_676
Zn1A Zn1B Nd3 114.2(2) . 1_565
As2 Zn1B Nd3 170.3(5) 7_666 1_565
As2 Zn1B Nd3 70.19(4) 7_566 1_565
As2 Zn1B Nd3 70.19(4) 7_676 1_565
Zn1A Zn1B Nd3 114.2(2) . 1_665
As2 Zn1B Nd3 70.19(4) 7_666 1_665
As2 Zn1B Nd3 170.3(5) 7_566 1_665
As2 Zn1B Nd3 70.19(4) 7_676 1_665
Nd3 Zn1B Nd3 104.3(3) 1_565 1_665
Zn1A Zn1B Nd3 114.2(2) . .
As2 Zn1B Nd3 70.19(4) 7_666 .
As2 Zn1B Nd3 70.19(4) 7_566 .
As2 Zn1B Nd3 170.3(5) 7_676 .
Nd3 Zn1B Nd3 104.3(3) 1_565 .
Nd3 Zn1B Nd3 104.3(3) 1_665 .
Zn1A Zn1B As2 180.0 . .
As2 Zn1B As2 104.5(3) 7_666 .
As2 Zn1B As2 104.5(3) 7_566 .
As2 Zn1B As2 104.5(3) 7_676 .
Nd3 Zn1B As2 65.8(2) 1_565 .
Nd3 Zn1B As2 65.8(2) 1_665 .
Nd3 Zn1B As2 65.8(2) . .
As2 Zn2 As1 109.83(4) . 7_666
As2 Zn2 As1 109.83(4) . 7_676
As1 Zn2 As1 109.11(4) 7_666 7_676
As2 Zn2 As1 109.83(4) . 7_566
As1 Zn2 As1 109.11(4) 7_666 7_566
As1 Zn2 As1 109.11(4) 7_676 7_566
As2 Zn2 Zn1A 51.39(5) . 7_666
As1 Zn2 Zn1A 58.45(6) 7_666 7_666
As1 Zn2 Zn1A 125.40(2) 7_676 7_666
As1 Zn2 Zn1A 125.40(2) 7_566 7_666
As2 Zn2 Zn1A 51.39(5) . 7_566
As1 Zn2 Zn1A 125.40(2) 7_666 7_566
As1 Zn2 Zn1A 125.40(2) 7_676 7_566
As1 Zn2 Zn1A 58.44(6) 7_566 7_566
Zn1A Zn2 Zn1A 85.17(7) 7_666 7_566
As2 Zn2 Zn1A 51.39(5) . 7_676
As1 Zn2 Zn1A 125.40(2) 7_666 7_676
As1 Zn2 Zn1A 58.44(6) 7_676 7_676
As1 Zn2 Zn1A 125.40(2) 7_566 7_676
Zn1A Zn2 Zn1A 85.17(7) 7_666 7_676
Zn1A Zn2 Zn1A 85.17(7) 7_566 7_676
As2 Zn2 Nd2 137.81(3) . 7_666
As1 Zn2 Nd2 55.44(3) 7_666 7_666
As1 Zn2 Nd2 55.44(3) 7_676 7_666
As1 Zn2 Nd2 112.35(7) 7_566 7_666
Zn1A Zn2 Nd2 101.54(5) 7_666 7_666
Zn1A Zn2 Nd2 170.80(5) 7_566 7_666
Zn1A Zn2 Nd2 101.54(5) 7_676 7_666
As2 Zn2 Nd2 137.81(3) . 7_566
As1 Zn2 Nd2 112.35(7) 7_666 7_566
As1 Zn2 Nd2 55.44(3) 7_676 7_566
As1 Zn2 Nd2 55.44(3) 7_566 7_566
Zn1A Zn2 Nd2 170.80(5) 7_666 7_566
Zn1A Zn2 Nd2 101.54(5) 7_566 7_566
Zn1A Zn2 Nd2 101.54(5) 7_676 7_566
Nd2 Zn2 Nd2 71.12(5) 7_666 7_566
As2 Zn2 Nd2 137.81(3) . 7_556
As1 Zn2 Nd2 55.44(3) 7_666 7_556
As1 Zn2 Nd2 112.35(7) 7_676 7_556
As1 Zn2 Nd2 55.44(3) 7_566 7_556
Zn1A Zn2 Nd2 101.54(5) 7_666 7_556
Zn1A Zn2 Nd2 101.54(5) 7_566 7_556
Zn1A Zn2 Nd2 170.80(5) 7_676 7_556
Nd2 Zn2 Nd2 71.12(5) 7_666 7_556
Nd2 Zn2 Nd2 71.12(5) 7_566 7_556
Zn2 As1 Zn2 109.11(4) 7_666 7_676
Zn2 As1 Zn2 109.11(4) 7_666 7_566
Zn2 As1 Zn2 109.11(4) 7_676 7_566
Zn2 As1 Zn1A 70.17(4) 7_666 .
Zn2 As1 Zn1A 70.17(4) 7_676 .
Zn2 As1 Zn1A 70.17(4) 7_566 .
Zn2 As1 Nd2 79.90(3) 7_666 .
Zn2 As1 Nd2 163.23(5) 7_676 .
Zn2 As1 Nd2 79.90(3) 7_566 .
Zn1A As1 Nd2 126.60(3) . .
Zn2 As1 Nd2 163.23(5) 7_666 1_565
Zn2 As1 Nd2 79.90(3) 7_676 1_565
Zn2 As1 Nd2 79.90(3) 7_566 1_565
Zn1A As1 Nd2 126.60(3) . 1_565
Nd2 As1 Nd2 88.09(4) . 1_565
Zn2 As1 Nd2 79.90(3) 7_666 1_665
Zn2 As1 Nd2 79.90(3) 7_676 1_665
Zn2 As1 Nd2 163.23(5) 7_566 1_665
Zn1A As1 Nd2 126.60(3) . 1_665
Nd2 As1 Nd2 88.09(4) . 1_665
Nd2 As1 Nd2 88.09(4) 1_565 1_665
Zn1A As2 Zn1A 114.84(5) 7_666 7_676
Zn1A As2 Zn1A 114.84(5) 7_666 7_566
Zn1A As2 Zn1A 114.84(5) 7_676 7_566
Zn1A As2 Zn1B 27.8(3) 7_666 7_666
Zn1A As2 Zn1B 121.92(3) 7_676 7_666
Zn1A As2 Zn1B 121.92(3) 7_566 7_666
Zn1A As2 Zn1B 121.92(3) 7_666 7_566
Zn1A As2 Zn1B 121.92(3) 7_676 7_566
Zn1A As2 Zn1B 27.8(3) 7_566 7_566
Zn1B As2 Zn1B 114.0(2) 7_666 7_566
Zn1A As2 Zn1B 121.92(3) 7_666 7_676
Zn1A As2 Zn1B 27.8(3) 7_676 7_676
Zn1A As2 Zn1B 121.92(3) 7_566 7_676
Zn1B As2 Zn1B 114.0(2) 7_666 7_676
Zn1B As2 Zn1B 114.0(2) 7_566 7_676
Zn1A As2 Zn2 76.66(6) 7_666 .
Zn1A As2 Zn2 76.66(6) 7_676 .
Zn1A As2 Zn2 76.66(6) 7_566 .
Zn1B As2 Zn2 104.5(3) 7_666 .
Zn1B As2 Zn2 104.5(3) 7_566 .
Zn1B As2 Zn2 104.5(3) 7_676 .
Zn1A As2 Zn1B 103.34(6) 7_666 .
Zn1A As2 Zn1B 103.34(6) 7_676 .
Zn1A As2 Zn1B 103.34(6) 7_566 .
Zn1B As2 Zn1B 75.5(3) 7_666 .
Zn1B As2 Zn1B 75.5(3) 7_566 .
Zn1B As2 Zn1B 75.5(3) 7_676 .
Zn2 As2 Zn1B 180.0 . .
Zn1A As2 Nd3 74.71(4) 7_666 .
Zn1A As2 Nd3 158.04(7) 7_676 .
Zn1A As2 Nd3 74.71(4) 7_566 .
Zn1B As2 Nd3 57.34(14) 7_666 .
Zn1B As2 Nd3 57.35(14) 7_566 .
Zn1B As2 Nd3 130.2(3) 7_676 .
Zn2 As2 Nd3 125.30(3) . .
Zn1B As2 Nd3 54.70(3) . .
Zn1A As2 Nd3 158.04(7) 7_666 1_565
Zn1A As2 Nd3 74.71(4) 7_676 1_565
Zn1A As2 Nd3 74.71(4) 7_566 1_565
Zn1B As2 Nd3 130.2(3) 7_666 1_565
Zn1B As2 Nd3 57.34(14) 7_566 1_565
Zn1B As2 Nd3 57.34(14) 7_676 1_565
Zn2 As2 Nd3 125.30(3) . 1_565
Zn1B As2 Nd3 54.70(3) . 1_565
Nd3 As2 Nd3 89.95(4) . 1_565
Zn1A As2 Nd3 74.71(4) 7_666 1_665
Zn1A As2 Nd3 74.71(4) 7_676 1_665
Zn1A As2 Nd3 158.04(7) 7_566 1_665
Zn1B As2 Nd3 57.34(14) 7_666 1_665
Zn1B As2 Nd3 130.2(3) 7_566 1_665
Zn1B As2 Nd3 57.35(14) 7_676 1_665
Zn2 As2 Nd3 125.30(3) . 1_665
Zn1B As2 Nd3 54.70(3) . 1_665
Nd3 As2 Nd3 89.95(4) . 1_665
Nd3 As2 Nd3 89.95(4) 1_565 1_665
Nd2 As3 Nd2 90.20(4) 7_566 7_556
Nd2 As3 Nd2 90.20(4) 7_566 7_666
Nd2 As3 Nd2 90.20(4) 7_556 7_666
Nd2 As3 Nd1 178.97(4) 7_566 7_666
Nd2 As3 Nd1 90.52(4) 7_556 7_666
Nd2 As3 Nd1 90.52(4) 7_666 7_666
Nd2 As3 Nd1 90.52(4) 7_566 7_676
Nd2 As3 Nd1 178.97(4) 7_556 7_676
Nd2 As3 Nd1 90.52(4) 7_666 7_676
Nd1 As3 Nd1 88.74(4) 7_666 7_676
Nd2 As3 Nd1 90.52(4) 7_566 7_566
Nd2 As3 Nd1 90.52(4) 7_556 7_566
Nd2 As3 Nd1 178.97(4) 7_666 7_566
Nd1 As3 Nd1 88.74(4) 7_666 7_566
Nd1 As3 Nd1 88.74(4) 7_676 7_566
Nd1 As4 Nd1 89.64(4) 7 7_665
Nd1 As4 Nd1 90.36(4) 7 1_445
Nd1 As4 Nd1 180.000(19) 7_665 1_445
Nd1 As4 Nd1 90.36(4) 7 1_545
Nd1 As4 Nd1 90.36(4) 7_665 1_545
Nd1 As4 Nd1 89.64(4) 1_445 1_545
Nd1 As4 Nd1 89.64(4) 7 7_565
Nd1 As4 Nd1 89.64(4) 7_665 7_565
Nd1 As4 Nd1 90.36(4) 1_445 7_565
Nd1 As4 Nd1 180.000(19) 1_545 7_565
Nd1 As4 Nd1 180.0 7 .
Nd1 As4 Nd1 90.36(4) 7_665 .
Nd1 As4 Nd1 89.64(4) 1_445 .
Nd1 As4 Nd1 89.64(4) 1_545 .
Nd1 As4 Nd1 90.36(4) 7_565 .
loop_
_geom_bond_atom_site_label_1
_geom_bond_atom_site_label_2
_geom_bond_distance
_geom_bond_site_symmetry_2
Nd1 As4 2.9768(14) 1_565
Nd1 As4 2.9768(14) .
Nd1 As4 2.9768(14) 1_665
Nd1 As3 3.0005(16) 7_666
Nd1 As3 3.0006(16) 7_676
Nd1 As3 3.0006(16) 7_566
Nd2 As3 2.9622(16) 7_556
Nd2 As3 2.9622(16) 7_666
Nd2 As3 2.9622(16) 7_566
Nd2 As1 3.0180(16) .
Nd2 As1 3.0180(16) 1_445
Nd2 As1 3.0181(16) 1_545
Nd2 Zn2 3.608(2) 7_666
Nd2 Zn2 3.608(2) 7_556
Nd2 Zn2 3.608(2) 7_566
Nd3 Zn1B 2.657(5) .
Nd3 Zn1B 2.657(5) 7_666
Nd3 Zn1B 2.657(5) 1_445
Nd3 Zn1B 2.657(5) 7_556
Nd3 Zn1B 2.657(5) 7_566
Nd3 Zn1B 2.657(5) 1_545
Nd3 As2 2.9687(15) 7_556
Nd3 As2 2.9687(15) 7_666
Nd3 As2 2.9687(15) 1_445
Nd3 As2 2.9687(15) .
Nd3 As2 2.9688(16) 7_566
Nd3 As2 2.9688(16) 1_545
Zn1A Zn1B 1.200(12) .
Zn1A As2 2.4901(16) 7_666
Zn1A As2 2.4901(16) 7_676
Zn1A As2 2.4901(16) 7_566
Zn1A As1 2.809(3) .
Zn1A Zn2 3.101(2) 7_666
Zn1A Zn2 3.101(2) 7_566
Zn1A Zn2 3.101(2) 7_676
Zn1A Nd3 3.334(2) 1_665
Zn1A Nd3 3.334(2) 1_565
Zn1B As2 2.502(3) 7_666
Zn1B As2 2.502(3) 7_566
Zn1B As2 2.502(3) 7_676
Zn1B Nd3 2.657(5) 1_565
Zn1B Nd3 2.657(5) 1_665
Zn1B As2 2.805(12) .
Zn2 As2 2.510(2) .
Zn2 As1 2.5756(16) 7_666
Zn2 As1 2.5757(16) 7_676
Zn2 As1 2.5757(16) 7_566
Zn2 Zn1A 3.101(2) 7_666
Zn2 Zn1A 3.101(2) 7_566
Zn2 Zn1A 3.101(2) 7_676
Zn2 Nd2 3.608(2) 7_666
Zn2 Nd2 3.608(2) 7_566
Zn2 Nd2 3.608(2) 7_556
As1 Zn2 2.5757(16) 7_666
As1 Zn2 2.5757(16) 7_676
As1 Zn2 2.5757(16) 7_566
As1 Nd2 3.0181(16) 1_565
As1 Nd2 3.0181(16) 1_665
As2 Zn1A 2.4901(16) 7_666
As2 Zn1A 2.4901(16) 7_676
As2 Zn1A 2.4901(16) 7_566
As2 Zn1B 2.502(3) 7_666
As2 Zn1B 2.502(3) 7_566
As2 Zn1B 2.502(3) 7_676
As2 Nd3 2.9687(16) 1_565
As2 Nd3 2.9687(15) 1_665
As3 Nd2 2.9622(16) 7_566
As3 Nd2 2.9622(15) 7_556
As3 Nd2 2.9622(16) 7_666
As3 Nd1 3.0005(16) 7_666
As3 Nd1 3.0006(16) 7_676
As3 Nd1 3.0006(16) 7_566
As4 Nd1 2.9768(14) 7
As4 Nd1 2.9768(14) 7_665
As4 Nd1 2.9768(14) 1_445
As4 Nd1 2.9768(14) 1_545
As4 Nd1 2.9768(14) 7_565
