#------------------------------------------------------------------------------
#$Date: 2023-12-06 14:42:42 +0200 (Wed, 06 Dec 2023) $
#$Revision: 288070 $
#$URL: file:///home/coder/svn-repositories/cod/cif/7/03/74/7037483.cif $
#------------------------------------------------------------------------------
#
# This file is available in the Crystallography Open Database (COD),
# http://www.crystallography.net/
#
# All data on this site have been placed in the public domain by the
# contributors.
#
data_7037483
loop_
_publ_author_name
'Rozova, M. G.'
'Grigoriev, V. V.'
'Bobrikov, I. A.'
'Filimonov, D. S.'
'Zakharov, K. V.'
'Volkova, O. S.'
'Vasiliev, A. N.'
'Antipov, E. V.'
'Tsirlin, A. A.'
'Abakumov, A. M.'
_publ_section_title
;
 Synthesis, structure and magnetic ordering of the mullite-type
 Bi2Fe4-xCrxO9 solid solutions with a frustrated pentagonal Cairo lattice.
;
_journal_issue                   3
_journal_name_full
'Dalton transactions (Cambridge, England : 2003)'
_journal_page_first              1192
_journal_page_last               1200
_journal_paper_doi               10.1039/c5dt04296h
_journal_volume                  45
_journal_year                    2016
_chemical_formula_sum            'Bi2 Cr Fe3 O9'
_chemical_formula_weight         781.5
_space_group_IT_number           55
_symmetry_cell_setting           orthorhombic
_symmetry_Int_Tables_number      55
_symmetry_space_group_name_Hall  '-P 2 2ab'
_symmetry_space_group_name_H-M   'P b a m'
_cell_angle_alpha                90
_cell_angle_beta                 90
_cell_angle_gamma                90
_cell_formula_units_Z            2
_cell_length_a                   7.95579(9)
_cell_length_b                   8.39146(9)
_cell_length_c                   5.98242(7)
_cell_measurement_temperature    293
_cell_volume                     399.391(8)
_diffrn_ambient_temperature      293
_diffrn_measurement_device       HRFD
_diffrn_radiation_probe          neutron
_diffrn_radiation_type           neutron
_diffrn_radiation_wavelength     -1
_exptl_absorpt_coefficient_mu    0
_exptl_crystal_density_diffrn    6.4962
_exptl_crystal_F_000             116
_pd_instr_location               ' ?'
_pd_meas_2theta_range_inc        0.004
_pd_meas_2theta_range_max        37.596
_pd_meas_2theta_range_min        6.008
_pd_meas_number_of_points        7898
_pd_proc_2theta_range_inc        0.004
_pd_proc_2theta_range_max        37.596
_pd_proc_2theta_range_min        6.008
_pd_proc_ls_background_function  '12 Legendre polynoms'
_pd_proc_ls_pref_orient_corr     none
_pd_proc_ls_profile_function     Pseudo-Voigt
_pd_proc_ls_prof_R_factor        0.0751
_pd_proc_ls_prof_wR_expected     0.0333
_pd_proc_ls_prof_wR_factor       0.0448
_refine_ls_goodness_of_fit_all   1.41
_refine_ls_number_constraints    0
_refine_ls_number_parameters     60
_refine_ls_number_restraints     0
_refine_ls_R_factor_all          0.0598
_refine_ls_R_factor_gt           0.0564
_refine_ls_shift/su_max          0.0611
_refine_ls_shift/su_mean         0.0053
_refine_ls_weighting_scheme      sigma
_refine_ls_wR_factor_all         0.0415
_refine_ls_wR_factor_gt          0.0411
_cod_data_source_file            c5dt04296h1.cif
_cod_data_source_block           I
_cod_depositor_comments
;Adding full bibliography for 7037483.cif.

The following automatic conversions were performed:

data name '_atom_site_site_symmetry_mutiplicity' was replaced with
'_atom_site_site_symmetry_multiplicity' as specified in the
replacement file 'data/replacement-values/replacement_tags.lst'.

Automatic conversion script
Id: cif_correct_tags 9268 2022-04-12 08:56:07Z antanas 
;
_cod_original_sg_symbol_Hall     '-P -2xab;-2yab;-2z'
_cod_original_formula_sum        'Bi2 Cr1 Fe3 O9'
_cod_database_code               7037483
loop_
_symmetry_equiv_pos_site_id
_symmetry_equiv_pos_as_xyz
1 x,y,z
2 -x,-y,z
3 -x+1/2,y+1/2,-z
4 x+1/2,-y+1/2,-z
5 -x,-y,-z
6 x,y,-z
7 x+1/2,-y+1/2,z
8 -x+1/2,y+1/2,z
loop_
_atom_site_label
_atom_site_type_symbol
_atom_site_fract_x
_atom_site_fract_y
_atom_site_fract_z
_atom_site_adp_type
_atom_site_U_iso_or_equiv
_atom_site_site_symmetry_multiplicity
_atom_site_occupancy
_atom_site_calc_flag
Bi1 Bi 0.67455(7) 0.17214(7) 0 Uiso 0.00929(19) 4 1 d
Fe1 Fe 0.35229(15) 0.16385(15) 0.5 Uiso 0.0068(3) 4 1 d
Fe2 Fe 0 0 0.2553(4) Uiso 0.0107(4) 4 0.5 d
Cr2 Cr 0 0 0.2553(4) Uiso 0.0107(4) 4 0.5 d
O1 O 0.5 0 0.5 Uiso 0.0172(9) 2 1 d
O2 O 0.3668(2) 0.29587(19) 0.7589(3) Uiso 0.0131(4) 8 1 d
O3 O 0.1469(4) 0.0742(2) 0 Uiso 0.0069(5) 4 1 d
O4 O 0.1307(4) 0.0946(3) 0.5 Uiso 0.0134(6) 4 1 d
loop_
_atom_type_symbol
_atom_type_scat_length_neutron
_atom_type_scat_source
Bi 8.532 International_Tables_Vol_C
Fe 9.450 International_Tables_Vol_C
Cr 3.635 International_Tables_Vol_C
O 5.803 International_Tables_Vol_C
loop_
_geom_angle_atom_site_label_1
_geom_angle_atom_site_label_2
_geom_angle_atom_site_label_3
_geom_angle_site_symmetry_1
_geom_angle_site_symmetry_3
_geom_angle
Fe2 Bi1 Fe2 1_655 3_555 149.681(19)
Fe2 Bi1 Fe2 1_655 5_655 54.51(5)
Fe2 Bi1 Fe2 1_655 7_555 117.16(4)
Fe2 Bi1 Cr2 1_655 1_655 0.0(5)
Fe2 Bi1 Cr2 1_655 3_555 149.681(19)
Fe2 Bi1 Cr2 1_655 5_655 54.51(5)
Fe2 Bi1 Cr2 1_655 7_555 117.16(4)
Fe2 Bi1 O2 1_655 1_554 174.41(4)
Fe2 Bi1 O2 1_655 4_556 35.21(5)
Fe2 Bi1 O2 1_655 6_556 123.96(5)
Fe2 Bi1 O2 1_655 7_554 78.82(6)
Fe2 Bi1 O3 1_655 2_655 37.19(5)
Fe2 Bi1 O3 1_655 4_555 120.71(7)
Fe2 Bi1 Fe2 3_555 5_655 117.16(4)
Fe2 Bi1 Fe2 3_555 7_555 52.72(5)
Fe2 Bi1 Cr2 3_555 1_655 149.681(19)
Fe2 Bi1 Cr2 3_555 3_555 0.0(5)
Fe2 Bi1 Cr2 3_555 5_655 117.16(4)
Fe2 Bi1 Cr2 3_555 7_555 52.72(5)
Fe2 Bi1 O2 3_555 1_554 35.61(3)
Fe2 Bi1 O2 3_555 4_556 119.49(5)
Fe2 Bi1 O2 3_555 6_556 67.07(4)
Fe2 Bi1 O2 3_555 7_554 83.57(5)
Fe2 Bi1 O3 3_555 2_655 152.61(4)
Fe2 Bi1 O3 3_555 4_555 33.16(5)
Fe2 Bi1 Fe2 5_655 7_555 149.681(19)
Fe2 Bi1 Cr2 5_655 1_655 54.51(5)
Fe2 Bi1 Cr2 5_655 3_555 117.16(4)
Fe2 Bi1 Cr2 5_655 5_655 0.0(5)
Fe2 Bi1 Cr2 5_655 7_555 149.681(19)
Fe2 Bi1 O2 5_655 1_554 123.96(5)
Fe2 Bi1 O2 5_655 4_556 78.82(6)
Fe2 Bi1 O2 5_655 6_556 174.41(4)
Fe2 Bi1 O2 5_655 7_554 35.21(5)
Fe2 Bi1 O3 5_655 2_655 37.19(5)
Fe2 Bi1 O3 5_655 4_555 120.71(7)
Fe2 Bi1 Cr2 7_555 1_655 117.16(4)
Fe2 Bi1 Cr2 7_555 3_555 52.72(5)
Fe2 Bi1 Cr2 7_555 5_655 149.681(19)
Fe2 Bi1 Cr2 7_555 7_555 0.0(5)
Fe2 Bi1 O2 7_555 1_554 67.07(4)
Fe2 Bi1 O2 7_555 4_556 83.57(5)
Fe2 Bi1 O2 7_555 6_556 35.61(3)
Fe2 Bi1 O2 7_555 7_554 119.49(5)
Fe2 Bi1 O3 7_555 2_655 152.61(4)
Fe2 Bi1 O3 7_555 4_555 33.16(5)
Cr2 Bi1 Cr2 1_655 3_555 149.681(19)
Cr2 Bi1 Cr2 1_655 5_655 54.51(5)
Cr2 Bi1 Cr2 1_655 7_555 117.16(4)
Cr2 Bi1 O2 1_655 1_554 174.41(4)
Cr2 Bi1 O2 1_655 4_556 35.21(5)
Cr2 Bi1 O2 1_655 6_556 123.96(5)
Cr2 Bi1 O2 1_655 7_554 78.82(6)
Cr2 Bi1 O3 1_655 2_655 37.19(5)
Cr2 Bi1 O3 1_655 4_555 120.71(7)
Cr2 Bi1 Cr2 3_555 5_655 117.16(4)
Cr2 Bi1 Cr2 3_555 7_555 52.72(5)
Cr2 Bi1 O2 3_555 1_554 35.61(3)
Cr2 Bi1 O2 3_555 4_556 119.49(5)
Cr2 Bi1 O2 3_555 6_556 67.07(4)
Cr2 Bi1 O2 3_555 7_554 83.57(5)
Cr2 Bi1 O3 3_555 2_655 152.61(4)
Cr2 Bi1 O3 3_555 4_555 33.16(5)
Cr2 Bi1 Cr2 5_655 7_555 149.681(19)
Cr2 Bi1 O2 5_655 1_554 123.96(5)
Cr2 Bi1 O2 5_655 4_556 78.82(6)
Cr2 Bi1 O2 5_655 6_556 174.41(4)
Cr2 Bi1 O2 5_655 7_554 35.21(5)
Cr2 Bi1 O3 5_655 2_655 37.19(5)
Cr2 Bi1 O3 5_655 4_555 120.71(7)
Cr2 Bi1 O2 7_555 1_554 67.07(4)
Cr2 Bi1 O2 7_555 4_556 83.57(5)
Cr2 Bi1 O2 7_555 6_556 35.61(3)
Cr2 Bi1 O2 7_555 7_554 119.49(5)
Cr2 Bi1 O3 7_555 2_655 152.61(4)
Cr2 Bi1 O3 7_555 4_555 33.16(5)
O2 Bi1 O2 1_554 4_556 149.89(6)
O2 Bi1 O2 1_554 6_556 56.94(4)
O2 Bi1 O2 1_554 7_554 102.49(5)
O2 Bi1 O3 1_554 2_655 137.83(5)
O2 Bi1 O3 1_554 4_555 64.87(7)
O2 Bi1 O2 4_556 6_556 102.49(5)
O2 Bi1 O2 4_556 7_554 85.76(7)
O2 Bi1 O3 4_556 2_655 72.28(6)
O2 Bi1 O3 4_556 4_555 87.03(7)
O2 Bi1 O2 6_556 7_554 149.89(6)
O2 Bi1 O3 6_556 2_655 137.83(5)
O2 Bi1 O3 6_556 4_555 64.87(7)
O2 Bi1 O3 7_554 2_655 72.28(6)
O2 Bi1 O3 7_554 4_555 87.03(7)
O3 Bi1 O3 2_655 4_555 151.41(10)
Fe2 Fe1 Fe2 . 3_556 142.87(4)
Fe2 Fe1 Fe2 . 5_556 50.25(5)
Fe2 Fe1 Fe2 . 7_555 115.50(4)
Fe2 Fe1 Cr2 . . 0.0(5)
Fe2 Fe1 Cr2 . 3_556 142.87(4)
Fe2 Fe1 Cr2 . 5_556 50.25(5)
Fe2 Fe1 Cr2 . 7_555 115.50(4)
Fe2 Fe1 O1 . . 103.00(4)
Fe2 Fe1 O2 . . 128.72(7)
Fe2 Fe1 O2 . 6_556 86.33(6)
Fe2 Fe1 O3 . . 33.87(5)
Fe2 Fe1 O3 . 1_556 84.11(6)
Fe2 Fe1 O4 . . 26.25(4)
Fe2 Fe1 O4 . 4_556 150.33(4)
Fe2 Fe1 Fe2 3_556 5_556 115.50(4)
Fe2 Fe1 Fe2 3_556 7_555 51.20(5)
Fe2 Fe1 Cr2 3_556 . 142.87(4)
Fe2 Fe1 Cr2 3_556 3_556 0.0(5)
Fe2 Fe1 Cr2 3_556 5_556 115.50(4)
Fe2 Fe1 Cr2 3_556 7_555 51.20(5)
Fe2 Fe1 O1 3_556 . 114.05(5)
Fe2 Fe1 O2 3_556 . 31.22(6)
Fe2 Fe1 O2 3_556 6_556 81.16(7)
Fe2 Fe1 O3 3_556 . 135.40(5)
Fe2 Fe1 O3 3_556 1_556 88.37(5)
Fe2 Fe1 O4 3_556 . 126.17(8)
Fe2 Fe1 O4 3_556 4_556 35.13(4)
Fe2 Fe1 Fe2 5_556 7_555 142.87(4)
Fe2 Fe1 Cr2 5_556 . 50.25(5)
Fe2 Fe1 Cr2 5_556 3_556 115.50(4)
Fe2 Fe1 Cr2 5_556 5_556 0.0(5)
Fe2 Fe1 Cr2 5_556 7_555 142.87(4)
Fe2 Fe1 O1 5_556 . 103.00(4)
Fe2 Fe1 O2 5_556 . 86.33(6)
Fe2 Fe1 O2 5_556 6_556 128.72(7)
Fe2 Fe1 O3 5_556 . 84.11(6)
Fe2 Fe1 O3 5_556 1_556 33.87(5)
Fe2 Fe1 O4 5_556 . 26.25(4)
Fe2 Fe1 O4 5_556 4_556 150.33(4)
Fe2 Fe1 Cr2 7_555 . 115.50(4)
Fe2 Fe1 Cr2 7_555 3_556 51.20(5)
Fe2 Fe1 Cr2 7_555 5_556 142.87(4)
Fe2 Fe1 Cr2 7_555 7_555 0.0(5)
Fe2 Fe1 O1 7_555 . 114.05(5)
Fe2 Fe1 O2 7_555 . 81.16(7)
Fe2 Fe1 O2 7_555 6_556 31.22(6)
Fe2 Fe1 O3 7_555 . 88.37(5)
Fe2 Fe1 O3 7_555 1_556 135.40(5)
Fe2 Fe1 O4 7_555 . 126.17(8)
Fe2 Fe1 O4 7_555 4_556 35.13(4)
Cr2 Fe1 Cr2 . 3_556 142.87(4)
Cr2 Fe1 Cr2 . 5_556 50.25(5)
Cr2 Fe1 Cr2 . 7_555 115.50(4)
Cr2 Fe1 O1 . . 103.00(4)
Cr2 Fe1 O2 . . 128.72(7)
Cr2 Fe1 O2 . 6_556 86.33(6)
Cr2 Fe1 O3 . . 33.87(5)
Cr2 Fe1 O3 . 1_556 84.11(6)
Cr2 Fe1 O4 . . 26.25(4)
Cr2 Fe1 O4 . 4_556 150.33(4)
Cr2 Fe1 Cr2 3_556 5_556 115.50(4)
Cr2 Fe1 Cr2 3_556 7_555 51.20(5)
Cr2 Fe1 O1 3_556 . 114.05(5)
Cr2 Fe1 O2 3_556 . 31.22(6)
Cr2 Fe1 O2 3_556 6_556 81.16(7)
Cr2 Fe1 O3 3_556 . 135.40(5)
Cr2 Fe1 O3 3_556 1_556 88.37(5)
Cr2 Fe1 O4 3_556 . 126.17(8)
Cr2 Fe1 O4 3_556 4_556 35.13(4)
Cr2 Fe1 Cr2 5_556 7_555 142.87(4)
Cr2 Fe1 O1 5_556 . 103.00(4)
Cr2 Fe1 O2 5_556 . 86.33(6)
Cr2 Fe1 O2 5_556 6_556 128.72(7)
Cr2 Fe1 O3 5_556 . 84.11(6)
Cr2 Fe1 O3 5_556 1_556 33.87(5)
Cr2 Fe1 O4 5_556 . 26.25(4)
Cr2 Fe1 O4 5_556 4_556 150.33(4)
Cr2 Fe1 O1 7_555 . 114.05(5)
Cr2 Fe1 O2 7_555 . 81.16(7)
Cr2 Fe1 O2 7_555 6_556 31.22(6)
Cr2 Fe1 O3 7_555 . 88.37(5)
Cr2 Fe1 O3 7_555 1_556 135.40(5)
Cr2 Fe1 O4 7_555 . 126.17(8)
Cr2 Fe1 O4 7_555 4_556 35.13(4)
O1 Fe1 O2 . . 113.71(6)
O1 Fe1 O2 . 6_556 113.71(6)
O1 Fe1 O3 . . 98.07(5)
O1 Fe1 O3 . 1_556 98.07(5)
O1 Fe1 O4 . . 112.26(10)
O1 Fe1 O4 . 4_556 91.94(7)
O2 Fe1 O2 . 6_556 108.56(9)
O2 Fe1 O3 . . 148.13(8)
O2 Fe1 O3 . 1_556 57.16(6)
O2 Fe1 O4 . . 103.85(8)
O2 Fe1 O4 . 4_556 64.11(6)
O2 Fe1 O3 6_556 . 57.16(6)
O2 Fe1 O3 6_556 1_556 148.13(8)
O2 Fe1 O4 6_556 . 103.85(8)
O2 Fe1 O4 6_556 4_556 64.11(6)
O3 Fe1 O3 . 1_556 117.96(6)
O3 Fe1 O4 . . 59.20(4)
O3 Fe1 O4 . 4_556 119.40(4)
O3 Fe1 O4 1_556 . 59.20(4)
O3 Fe1 O4 1_556 4_556 119.40(4)
O4 Fe1 O4 . 4_556 155.79(11)
Bi1 Fe2 Bi1 1_455 2_655 125.49(7)
Bi1 Fe2 Bi1 1_455 3_545 80.19(3)
Bi1 Fe2 Bi1 1_455 4_455 76.33(3)
Bi1 Fe2 Fe1 1_455 . 130.75(2)
Bi1 Fe2 Fe1 1_455 2_555 74.697(18)
Bi1 Fe2 Fe1 1_455 3_546 145.86(2)
Bi1 Fe2 Fe1 1_455 4_456 64.407(16)
Bi1 Fe2 Fe2 1_455 5_555 62.75(3)
Bi1 Fe2 Fe2 1_455 5_556 117.25(3)
Bi1 Fe2 Cr2 1_455 . 0
Bi1 Fe2 Cr2 1_455 5_555 62.75(3)
Bi1 Fe2 Cr2 1_455 5_556 117.25(3)
Bi1 Fe2 O2 1_455 3_546 139.18(8)
Bi1 Fe2 O2 1_455 4_456 37.31(5)
Bi1 Fe2 O3 1_455 . 88.25(9)
Bi1 Fe2 O3 1_455 2_555 48.60(7)
Bi1 Fe2 O4 1_455 . 125.29(8)
Bi1 Fe2 O4 1_455 2_555 96.04(8)
Bi1 Fe2 Bi1 2_655 3_545 76.33(3)
Bi1 Fe2 Bi1 2_655 4_455 80.19(3)
Bi1 Fe2 Fe1 2_655 . 74.697(18)
Bi1 Fe2 Fe1 2_655 2_555 130.75(2)
Bi1 Fe2 Fe1 2_655 3_546 64.407(16)
Bi1 Fe2 Fe1 2_655 4_456 145.86(2)
Bi1 Fe2 Fe2 2_655 5_555 62.75(3)
Bi1 Fe2 Fe2 2_655 5_556 117.25(3)
Bi1 Fe2 Cr2 2_655 . 0
Bi1 Fe2 Cr2 2_655 5_555 62.75(3)
Bi1 Fe2 Cr2 2_655 5_556 117.25(3)
Bi1 Fe2 O2 2_655 3_546 37.31(5)
Bi1 Fe2 O2 2_655 4_456 139.18(8)
Bi1 Fe2 O3 2_655 . 48.60(7)
Bi1 Fe2 O3 2_655 2_555 88.25(9)
Bi1 Fe2 O4 2_655 . 96.04(8)
Bi1 Fe2 O4 2_655 2_555 125.29(8)
Bi1 Fe2 Bi1 3_545 4_455 127.28(7)
Bi1 Fe2 Fe1 3_545 . 146.69(2)
Bi1 Fe2 Fe1 3_545 2_555 62.702(16)
Bi1 Fe2 Fe1 3_545 3_546 70.486(18)
Bi1 Fe2 Fe1 3_545 4_456 135.87(2)
Bi1 Fe2 Fe2 3_545 5_555 63.64(3)
Bi1 Fe2 Fe2 3_545 5_556 116.36(3)
Bi1 Fe2 Cr2 3_545 . 0
Bi1 Fe2 Cr2 3_545 5_555 63.64(3)
Bi1 Fe2 Cr2 3_545 5_556 116.36(3)
Bi1 Fe2 O2 3_545 3_546 60.91(5)
Bi1 Fe2 O2 3_545 4_456 116.66(6)
Bi1 Fe2 O3 3_545 . 98.30(8)
Bi1 Fe2 O3 3_545 2_555 35.38(6)
Bi1 Fe2 O4 3_545 . 150.26(8)
Bi1 Fe2 O4 3_545 2_555 78.11(6)
Bi1 Fe2 Fe1 4_455 . 62.702(16)
Bi1 Fe2 Fe1 4_455 2_555 146.69(2)
Bi1 Fe2 Fe1 4_455 3_546 135.87(2)
Bi1 Fe2 Fe1 4_455 4_456 70.486(18)
Bi1 Fe2 Fe2 4_455 5_555 63.64(3)
Bi1 Fe2 Fe2 4_455 5_556 116.36(3)
Bi1 Fe2 Cr2 4_455 . 0
Bi1 Fe2 Cr2 4_455 5_555 63.64(3)
Bi1 Fe2 Cr2 4_455 5_556 116.36(3)
Bi1 Fe2 O2 4_455 3_546 116.66(6)
Bi1 Fe2 O2 4_455 4_456 60.91(5)
Bi1 Fe2 O3 4_455 . 35.38(6)
Bi1 Fe2 O3 4_455 2_555 98.30(8)
Bi1 Fe2 O4 4_455 . 78.11(6)
Bi1 Fe2 O4 4_455 2_555 150.26(8)
Fe1 Fe2 Fe1 . 2_555 129.75(7)
Fe1 Fe2 Fe1 . 3_546 82.34(4)
Fe1 Fe2 Fe1 . 4_456 76.50(4)
Fe1 Fe2 Fe2 . 5_555 115.12(3)
Fe1 Fe2 Fe2 . 5_556 64.88(3)
Fe1 Fe2 Cr2 . . 0
Fe1 Fe2 Cr2 . 5_555 115.12(3)
Fe1 Fe2 Cr2 . 5_556 64.88(3)
Fe1 Fe2 O2 . 3_546 85.96(6)
Fe1 Fe2 O2 . 4_456 96.11(6)
Fe1 Fe2 O3 . . 74.22(6)
Fe1 Fe2 O3 . 2_555 156.00(9)
Fe1 Fe2 O4 . . 24.72(7)
Fe1 Fe2 O4 . 2_555 105.97(10)
Fe1 Fe2 Fe1 2_555 3_546 76.50(4)
Fe1 Fe2 Fe1 2_555 4_456 82.34(4)
Fe1 Fe2 Fe2 2_555 5_555 115.12(3)
Fe1 Fe2 Fe2 2_555 5_556 64.88(3)
Fe1 Fe2 Cr2 2_555 . 0
Fe1 Fe2 Cr2 2_555 5_555 115.12(3)
Fe1 Fe2 Cr2 2_555 5_556 64.88(3)
Fe1 Fe2 O2 2_555 3_546 96.11(6)
Fe1 Fe2 O2 2_555 4_456 85.96(6)
Fe1 Fe2 O3 2_555 . 156.00(9)
Fe1 Fe2 O3 2_555 2_555 74.22(6)
Fe1 Fe2 O4 2_555 . 105.97(10)
Fe1 Fe2 O4 2_555 2_555 24.72(7)
Fe1 Fe2 Fe1 3_546 4_456 128.80(7)
Fe1 Fe2 Fe2 3_546 5_555 115.60(3)
Fe1 Fe2 Fe2 3_546 5_556 64.40(3)
Fe1 Fe2 Cr2 3_546 . 0
Fe1 Fe2 Cr2 3_546 5_555 115.60(3)
Fe1 Fe2 Cr2 3_546 5_556 64.40(3)
Fe1 Fe2 O2 3_546 3_546 29.38(5)
Fe1 Fe2 O2 3_546 4_456 155.21(10)
Fe1 Fe2 O3 3_546 . 112.49(7)
Fe1 Fe2 O3 3_546 2_555 105.69(6)
Fe1 Fe2 O4 3_546 . 80.25(8)
Fe1 Fe2 O4 3_546 2_555 61.65(8)
Fe1 Fe2 Fe2 4_456 5_555 115.60(3)
Fe1 Fe2 Fe2 4_456 5_556 64.40(3)
Fe1 Fe2 Cr2 4_456 . 0
Fe1 Fe2 Cr2 4_456 5_555 115.60(3)
Fe1 Fe2 Cr2 4_456 5_556 64.40(3)
Fe1 Fe2 O2 4_456 3_546 155.21(10)
Fe1 Fe2 O2 4_456 4_456 29.38(5)
Fe1 Fe2 O3 4_456 . 105.69(6)
Fe1 Fe2 O3 4_456 2_555 112.49(7)
Fe1 Fe2 O4 4_456 . 61.65(8)
Fe1 Fe2 O4 4_456 2_555 80.25(8)
Fe2 Fe2 Fe2 5_555 5_556 180.0(5)
Fe2 Fe2 Cr2 5_555 . 0
Fe2 Fe2 Cr2 5_555 5_555 0.0(5)
Fe2 Fe2 Cr2 5_555 5_556 180.0(5)
Fe2 Fe2 O2 5_555 3_546 87.58(8)
Fe2 Fe2 O2 5_555 4_456 87.58(8)
Fe2 Fe2 O3 5_555 . 40.93(7)
Fe2 Fe2 O3 5_555 2_555 40.93(7)
Fe2 Fe2 O4 5_555 . 138.22(7)
Fe2 Fe2 O4 5_555 2_555 138.22(7)
Fe2 Fe2 Cr2 5_556 . 0
Fe2 Fe2 Cr2 5_556 5_555 180.0(5)
Fe2 Fe2 Cr2 5_556 5_556 0.0(5)
Fe2 Fe2 O2 5_556 3_546 92.42(8)
Fe2 Fe2 O2 5_556 4_456 92.42(8)
Fe2 Fe2 O3 5_556 . 139.07(7)
Fe2 Fe2 O3 5_556 2_555 139.07(7)
Fe2 Fe2 O4 5_556 . 41.78(7)
Fe2 Fe2 O4 5_556 2_555 41.78(7)
Cr2 Fe2 Cr2 . 5_555 0
Cr2 Fe2 Cr2 . 5_556 0
Cr2 Fe2 O2 . 3_546 0
Cr2 Fe2 O2 . 4_456 0
Cr2 Fe2 O3 . . 0
Cr2 Fe2 O3 . 2_555 0
Cr2 Fe2 O4 . . 0
Cr2 Fe2 O4 . 2_555 0
Cr2 Fe2 Cr2 5_555 5_556 180.0(5)
Cr2 Fe2 O2 5_555 3_546 87.58(8)
Cr2 Fe2 O2 5_555 4_456 87.58(8)
Cr2 Fe2 O3 5_555 . 40.93(7)
Cr2 Fe2 O3 5_555 2_555 40.93(7)
Cr2 Fe2 O4 5_555 . 138.22(7)
Cr2 Fe2 O4 5_555 2_555 138.22(7)
Cr2 Fe2 O2 5_556 3_546 92.42(8)
Cr2 Fe2 O2 5_556 4_456 92.42(8)
Cr2 Fe2 O3 5_556 . 139.07(7)
Cr2 Fe2 O3 5_556 2_555 139.07(7)
Cr2 Fe2 O4 5_556 . 41.78(7)
Cr2 Fe2 O4 5_556 2_555 41.78(7)
O2 Fe2 O2 3_546 4_456 175.16(14)
O2 Fe2 O3 3_546 . 85.76(9)
O2 Fe2 O3 3_546 2_555 90.58(9)
O2 Fe2 O4 3_546 . 95.53(10)
O2 Fe2 O4 3_546 2_555 88.08(10)
O2 Fe2 O3 4_456 . 90.58(9)
O2 Fe2 O3 4_456 2_555 85.76(9)
O2 Fe2 O4 4_456 . 88.08(10)
O2 Fe2 O4 4_456 2_555 95.53(10)
O3 Fe2 O3 . 2_555 81.86(12)
O3 Fe2 O4 . . 97.62(8)
O3 Fe2 O4 . 2_555 173.81(10)
O3 Fe2 O4 2_555 . 173.81(10)
O3 Fe2 O4 2_555 2_555 97.62(8)
O4 Fe2 O4 . 2_555 83.57(12)
Bi1 Cr2 Bi1 1_455 2_655 125.49(7)
Bi1 Cr2 Bi1 1_455 3_545 80.19(3)
Bi1 Cr2 Bi1 1_455 4_455 76.33(3)
Bi1 Cr2 Fe1 1_455 . 130.75(2)
Bi1 Cr2 Fe1 1_455 2_555 74.697(18)
Bi1 Cr2 Fe1 1_455 3_546 145.86(2)
Bi1 Cr2 Fe1 1_455 4_456 64.407(16)
Bi1 Cr2 Fe2 1_455 . 0
Bi1 Cr2 Fe2 1_455 5_555 62.75(3)
Bi1 Cr2 Fe2 1_455 5_556 117.25(3)
Bi1 Cr2 Cr2 1_455 5_555 62.75(3)
Bi1 Cr2 Cr2 1_455 5_556 117.25(3)
Bi1 Cr2 O2 1_455 3_546 139.18(8)
Bi1 Cr2 O2 1_455 4_456 37.31(5)
Bi1 Cr2 O3 1_455 . 88.25(9)
Bi1 Cr2 O3 1_455 2_555 48.60(7)
Bi1 Cr2 O4 1_455 . 125.29(8)
Bi1 Cr2 O4 1_455 2_555 96.04(8)
Bi1 Cr2 Bi1 2_655 3_545 76.33(3)
Bi1 Cr2 Bi1 2_655 4_455 80.19(3)
Bi1 Cr2 Fe1 2_655 . 74.697(18)
Bi1 Cr2 Fe1 2_655 2_555 130.75(2)
Bi1 Cr2 Fe1 2_655 3_546 64.407(16)
Bi1 Cr2 Fe1 2_655 4_456 145.86(2)
Bi1 Cr2 Fe2 2_655 . 0
Bi1 Cr2 Fe2 2_655 5_555 62.75(3)
Bi1 Cr2 Fe2 2_655 5_556 117.25(3)
Bi1 Cr2 Cr2 2_655 5_555 62.75(3)
Bi1 Cr2 Cr2 2_655 5_556 117.25(3)
Bi1 Cr2 O2 2_655 3_546 37.31(5)
Bi1 Cr2 O2 2_655 4_456 139.18(8)
Bi1 Cr2 O3 2_655 . 48.60(7)
Bi1 Cr2 O3 2_655 2_555 88.25(9)
Bi1 Cr2 O4 2_655 . 96.04(8)
Bi1 Cr2 O4 2_655 2_555 125.29(8)
Bi1 Cr2 Bi1 3_545 4_455 127.28(7)
Bi1 Cr2 Fe1 3_545 . 146.69(2)
Bi1 Cr2 Fe1 3_545 2_555 62.702(16)
Bi1 Cr2 Fe1 3_545 3_546 70.486(18)
Bi1 Cr2 Fe1 3_545 4_456 135.87(2)
Bi1 Cr2 Fe2 3_545 . 0
Bi1 Cr2 Fe2 3_545 5_555 63.64(3)
Bi1 Cr2 Fe2 3_545 5_556 116.36(3)
Bi1 Cr2 Cr2 3_545 5_555 63.64(3)
Bi1 Cr2 Cr2 3_545 5_556 116.36(3)
Bi1 Cr2 O2 3_545 3_546 60.91(5)
Bi1 Cr2 O2 3_545 4_456 116.66(6)
Bi1 Cr2 O3 3_545 . 98.30(8)
Bi1 Cr2 O3 3_545 2_555 35.38(6)
Bi1 Cr2 O4 3_545 . 150.26(8)
Bi1 Cr2 O4 3_545 2_555 78.11(6)
Bi1 Cr2 Fe1 4_455 . 62.702(16)
Bi1 Cr2 Fe1 4_455 2_555 146.69(2)
Bi1 Cr2 Fe1 4_455 3_546 135.87(2)
Bi1 Cr2 Fe1 4_455 4_456 70.486(18)
Bi1 Cr2 Fe2 4_455 . 0
Bi1 Cr2 Fe2 4_455 5_555 63.64(3)
Bi1 Cr2 Fe2 4_455 5_556 116.36(3)
Bi1 Cr2 Cr2 4_455 5_555 63.64(3)
Bi1 Cr2 Cr2 4_455 5_556 116.36(3)
Bi1 Cr2 O2 4_455 3_546 116.66(6)
Bi1 Cr2 O2 4_455 4_456 60.91(5)
Bi1 Cr2 O3 4_455 . 35.38(6)
Bi1 Cr2 O3 4_455 2_555 98.30(8)
Bi1 Cr2 O4 4_455 . 78.11(6)
Bi1 Cr2 O4 4_455 2_555 150.26(8)
Fe1 Cr2 Fe1 . 2_555 129.75(7)
Fe1 Cr2 Fe1 . 3_546 82.34(4)
Fe1 Cr2 Fe1 . 4_456 76.50(4)
Fe1 Cr2 Fe2 . . 0
Fe1 Cr2 Fe2 . 5_555 115.12(3)
Fe1 Cr2 Fe2 . 5_556 64.88(3)
Fe1 Cr2 Cr2 . 5_555 115.12(3)
Fe1 Cr2 Cr2 . 5_556 64.88(3)
Fe1 Cr2 O2 . 3_546 85.96(6)
Fe1 Cr2 O2 . 4_456 96.11(6)
Fe1 Cr2 O3 . . 74.22(6)
Fe1 Cr2 O3 . 2_555 156.00(9)
Fe1 Cr2 O4 . . 24.72(7)
Fe1 Cr2 O4 . 2_555 105.97(10)
Fe1 Cr2 Fe1 2_555 3_546 76.50(4)
Fe1 Cr2 Fe1 2_555 4_456 82.34(4)
Fe1 Cr2 Fe2 2_555 . 0
Fe1 Cr2 Fe2 2_555 5_555 115.12(3)
Fe1 Cr2 Fe2 2_555 5_556 64.88(3)
Fe1 Cr2 Cr2 2_555 5_555 115.12(3)
Fe1 Cr2 Cr2 2_555 5_556 64.88(3)
Fe1 Cr2 O2 2_555 3_546 96.11(6)
Fe1 Cr2 O2 2_555 4_456 85.96(6)
Fe1 Cr2 O3 2_555 . 156.00(9)
Fe1 Cr2 O3 2_555 2_555 74.22(6)
Fe1 Cr2 O4 2_555 . 105.97(10)
Fe1 Cr2 O4 2_555 2_555 24.72(7)
Fe1 Cr2 Fe1 3_546 4_456 128.80(7)
Fe1 Cr2 Fe2 3_546 . 0
Fe1 Cr2 Fe2 3_546 5_555 115.60(3)
Fe1 Cr2 Fe2 3_546 5_556 64.40(3)
Fe1 Cr2 Cr2 3_546 5_555 115.60(3)
Fe1 Cr2 Cr2 3_546 5_556 64.40(3)
Fe1 Cr2 O2 3_546 3_546 29.38(5)
Fe1 Cr2 O2 3_546 4_456 155.21(10)
Fe1 Cr2 O3 3_546 . 112.49(7)
Fe1 Cr2 O3 3_546 2_555 105.69(6)
Fe1 Cr2 O4 3_546 . 80.25(8)
Fe1 Cr2 O4 3_546 2_555 61.65(8)
Fe1 Cr2 Fe2 4_456 . 0
Fe1 Cr2 Fe2 4_456 5_555 115.60(3)
Fe1 Cr2 Fe2 4_456 5_556 64.40(3)
Fe1 Cr2 Cr2 4_456 5_555 115.60(3)
Fe1 Cr2 Cr2 4_456 5_556 64.40(3)
Fe1 Cr2 O2 4_456 3_546 155.21(10)
Fe1 Cr2 O2 4_456 4_456 29.38(5)
Fe1 Cr2 O3 4_456 . 105.69(6)
Fe1 Cr2 O3 4_456 2_555 112.49(7)
Fe1 Cr2 O4 4_456 . 61.65(8)
Fe1 Cr2 O4 4_456 2_555 80.25(8)
Fe2 Cr2 Fe2 . 5_555 0
Fe2 Cr2 Fe2 . 5_556 0
Fe2 Cr2 Cr2 . 5_555 0
Fe2 Cr2 Cr2 . 5_556 0
Fe2 Cr2 O2 . 3_546 0
Fe2 Cr2 O2 . 4_456 0
Fe2 Cr2 O3 . . 0
Fe2 Cr2 O3 . 2_555 0
Fe2 Cr2 O4 . . 0
Fe2 Cr2 O4 . 2_555 0
Fe2 Cr2 Fe2 5_555 5_556 180.0(5)
Fe2 Cr2 Cr2 5_555 5_555 0.0(5)
Fe2 Cr2 Cr2 5_555 5_556 180.0(5)
Fe2 Cr2 O2 5_555 3_546 87.58(8)
Fe2 Cr2 O2 5_555 4_456 87.58(8)
Fe2 Cr2 O3 5_555 . 40.93(7)
Fe2 Cr2 O3 5_555 2_555 40.93(7)
Fe2 Cr2 O4 5_555 . 138.22(7)
Fe2 Cr2 O4 5_555 2_555 138.22(7)
Fe2 Cr2 Cr2 5_556 5_555 180.0(5)
Fe2 Cr2 Cr2 5_556 5_556 0.0(5)
Fe2 Cr2 O2 5_556 3_546 92.42(8)
Fe2 Cr2 O2 5_556 4_456 92.42(8)
Fe2 Cr2 O3 5_556 . 139.07(7)
Fe2 Cr2 O3 5_556 2_555 139.07(7)
Fe2 Cr2 O4 5_556 . 41.78(7)
Fe2 Cr2 O4 5_556 2_555 41.78(7)
Cr2 Cr2 Cr2 5_555 5_556 180.0(5)
Cr2 Cr2 O2 5_555 3_546 87.58(8)
Cr2 Cr2 O2 5_555 4_456 87.58(8)
Cr2 Cr2 O3 5_555 . 40.93(7)
Cr2 Cr2 O3 5_555 2_555 40.93(7)
Cr2 Cr2 O4 5_555 . 138.22(7)
Cr2 Cr2 O4 5_555 2_555 138.22(7)
Cr2 Cr2 O2 5_556 3_546 92.42(8)
Cr2 Cr2 O2 5_556 4_456 92.42(8)
Cr2 Cr2 O3 5_556 . 139.07(7)
Cr2 Cr2 O3 5_556 2_555 139.07(7)
Cr2 Cr2 O4 5_556 . 41.78(7)
Cr2 Cr2 O4 5_556 2_555 41.78(7)
O2 Cr2 O2 3_546 4_456 175.16(14)
O2 Cr2 O3 3_546 . 85.76(9)
O2 Cr2 O3 3_546 2_555 90.58(9)
O2 Cr2 O4 3_546 . 95.53(10)
O2 Cr2 O4 3_546 2_555 88.08(10)
O2 Cr2 O3 4_456 . 90.58(9)
O2 Cr2 O3 4_456 2_555 85.76(9)
O2 Cr2 O4 4_456 . 88.08(10)
O2 Cr2 O4 4_456 2_555 95.53(10)
O3 Cr2 O3 . 2_555 81.86(12)
O3 Cr2 O4 . . 97.62(8)
O3 Cr2 O4 . 2_555 173.81(10)
O3 Cr2 O4 2_555 . 173.81(10)
O3 Cr2 O4 2_555 2_555 97.62(8)
O4 Cr2 O4 . 2_555 83.57(12)
Fe1 O1 Fe1 . 2_655 180.0(5)
Fe1 O1 O2 . . 34.14(4)
Fe1 O1 O2 . 2_655 145.86(4)
Fe1 O1 O2 . 5_656 145.86(4)
Fe1 O1 O2 . 6_556 34.14(4)
Fe1 O1 O4 . . 34.37(6)
Fe1 O1 O4 . 2_655 145.63(6)
Fe1 O1 O2 2_655 . 145.86(4)
Fe1 O1 O2 2_655 2_655 34.14(4)
Fe1 O1 O2 2_655 5_656 34.14(4)
Fe1 O1 O2 2_655 6_556 145.86(4)
Fe1 O1 O4 2_655 . 145.63(6)
Fe1 O1 O4 2_655 2_655 34.37(6)
O2 O1 O2 . 2_655 120.30(4)
O2 O1 O2 . 5_656 180.0(5)
O2 O1 O2 . 6_556 59.70(4)
O2 O1 O4 . . 57.54(5)
O2 O1 O4 . 2_655 122.46(5)
O2 O1 O2 2_655 5_656 59.70(4)
O2 O1 O2 2_655 6_556 180.0(5)
O2 O1 O4 2_655 . 122.46(5)
O2 O1 O4 2_655 2_655 57.54(5)
O2 O1 O2 5_656 6_556 120.30(4)
O2 O1 O4 5_656 . 122.46(5)
O2 O1 O4 5_656 2_655 57.54(5)
O2 O1 O4 6_556 . 57.54(5)
O2 O1 O4 6_556 2_655 122.46(5)
O4 O1 O4 . 2_655 180.0(5)
Bi1 O2 Bi1 1_556 4_456 107.65(6)
Bi1 O2 Fe1 1_556 . 103.69(7)
Bi1 O2 Fe2 1_556 3_556 83.47(6)
Bi1 O2 Cr2 1_556 3_556 83.47(6)
Bi1 O2 O1 1_556 . 71.82(4)
Bi1 O2 O2 1_556 6_556 118.47(6)
Bi1 O2 O2 1_556 6_557 61.53(5)
Bi1 O2 O3 1_556 1_556 91.76(6)
Bi1 O2 O3 1_556 3_556 94.22(7)
Bi1 O2 O3 1_556 4_556 42.46(5)
Bi1 O2 O4 1_556 . 124.51(7)
Bi1 O2 O4 1_556 3_556 122.49(8)
Bi1 O2 O4 1_556 4_556 76.51(6)
Bi1 O2 Fe1 4_456 . 125.61(9)
Bi1 O2 Fe2 4_456 3_556 107.49(8)
Bi1 O2 Cr2 4_456 3_556 107.49(8)
Bi1 O2 O1 4_456 . 133.27(7)
Bi1 O2 O2 4_456 6_556 132.88(8)
Bi1 O2 O2 4_456 6_557 47.12(5)
Bi1 O2 O3 4_456 1_556 46.77(5)
Bi1 O2 O3 4_456 3_556 60.43(7)
Bi1 O2 O3 4_456 4_556 99.81(7)
Bi1 O2 O4 4_456 . 88.31(7)
Bi1 O2 O4 4_456 3_556 104.76(8)
Bi1 O2 O4 4_456 4_556 152.46(9)
Fe1 O2 Fe2 . 3_556 119.40(11)
Fe1 O2 Cr2 . 3_556 119.40(11)
Fe1 O2 O1 . . 32.15(4)
Fe1 O2 O2 . 6_556 35.72(5)
Fe1 O2 O2 . 6_557 144.28(9)
Fe1 O2 O3 . 1_556 89.71(7)
Fe1 O2 O3 . 3_556 156.56(9)
Fe1 O2 O3 . 4_556 132.51(9)
Fe1 O2 O4 . . 37.46(6)
Fe1 O2 O4 . 3_556 93.87(7)
Fe1 O2 O4 . 4_556 77.54(7)
Fe2 O2 Cr2 3_556 3_556 0.0(5)
Fe2 O2 O1 3_556 . 118.55(8)
Fe2 O2 O2 3_556 6_556 87.58(9)
Fe2 O2 O2 3_556 6_557 92.42(9)
Fe2 O2 O3 3_556 1_556 150.83(10)
Fe2 O2 O3 3_556 3_556 47.20(7)
Fe2 O2 O3 3_556 4_556 44.79(7)
Fe2 O2 O4 3_556 . 142.70(10)
Fe2 O2 O4 3_556 3_556 41.54(7)
Fe2 O2 O4 3_556 4_556 45.18(7)
Cr2 O2 O1 3_556 . 118.55(8)
Cr2 O2 O2 3_556 6_556 87.58(9)
Cr2 O2 O2 3_556 6_557 92.42(9)
Cr2 O2 O3 3_556 1_556 150.83(10)
Cr2 O2 O3 3_556 3_556 47.20(7)
Cr2 O2 O3 3_556 4_556 44.79(7)
Cr2 O2 O4 3_556 . 142.70(10)
Cr2 O2 O4 3_556 3_556 41.54(7)
Cr2 O2 O4 3_556 4_556 45.18(7)
O1 O2 O2 . 6_556 60.15(4)
O1 O2 O2 . 6_557 119.85(6)
O1 O2 O3 . 1_556 86.67(6)
O1 O2 O3 . 3_556 162.37(9)
O1 O2 O3 . 4_556 106.79(7)
O1 O2 O4 . . 60.06(6)
O1 O2 O4 . 3_556 114.50(6)
O1 O2 O4 . 4_556 74.22(6)
O2 O2 O2 6_556 6_557 180.0(5)
O2 O2 O3 6_556 1_556 119.46(7)
O2 O2 O3 6_556 3_556 121.66(7)
O2 O2 O3 6_556 4_556 120.17(7)
O2 O2 O4 6_556 . 58.48(5)
O2 O2 O4 6_556 3_556 58.28(5)
O2 O2 O4 6_556 4_556 55.95(5)
O2 O2 O3 6_557 1_556 60.54(5)
O2 O2 O3 6_557 3_556 58.34(5)
O2 O2 O3 6_557 4_556 59.83(5)
O2 O2 O4 6_557 . 121.52(7)
O2 O2 O4 6_557 3_556 121.72(7)
O2 O2 O4 6_557 4_556 124.05(8)
O3 O2 O3 1_556 3_556 104.92(7)
O3 O2 O3 1_556 4_556 117.20(7)
O3 O2 O4 1_556 . 61.14(5)
O3 O2 O4 1_556 3_556 143.32(10)
O3 O2 O4 1_556 4_556 159.87(9)
O3 O2 O3 3_556 4_556 56.22(8)
O3 O2 O4 3_556 . 137.22(10)
O3 O2 O4 3_556 3_556 63.45(5)
O3 O2 O4 3_556 4_556 92.38(8)
O3 O2 O4 4_556 . 166.29(9)
O3 O2 O4 4_556 3_556 86.33(7)
O3 O2 O4 4_556 4_556 64.26(6)
O4 O2 O4 . 3_556 102.38(7)
O4 O2 O4 . 4_556 112.20(7)
O4 O2 O4 3_556 4_556 54.40(8)
Bi1 O3 Bi1 2_655 4_455 139.60(13)
Bi1 O3 Fe1 2_655 1_554 84.98(6)
Bi1 O3 Fe1 2_655 . 84.98(6)
Bi1 O3 Fe2 2_655 . 94.21(7)
Bi1 O3 Fe2 2_655 5_555 94.21(7)
Bi1 O3 Cr2 2_655 . 94.21(7)
Bi1 O3 Cr2 2_655 5_555 94.21(7)
Bi1 O3 O2 2_655 1_554 100.65(9)
Bi1 O3 O2 2_655 3_546 47.29(5)
Bi1 O3 O2 2_655 4_456 138.84(7)
Bi1 O3 O2 2_655 6_556 100.65(9)
Bi1 O3 O2 2_655 7_454 138.84(7)
Bi1 O3 O2 2_655 8_544 47.29(5)
Bi1 O3 O3 2_655 2_555 96.44(9)
Bi1 O3 O4 2_655 1_554 94.08(7)
Bi1 O3 O4 2_655 . 94.08(7)
Bi1 O3 Fe1 4_455 1_554 74.78(5)
Bi1 O3 Fe1 4_455 . 74.78(5)
Bi1 O3 Fe2 4_455 . 111.47(8)
Bi1 O3 Fe2 4_455 5_555 111.47(8)
Bi1 O3 Cr2 4_455 . 111.47(8)
Bi1 O3 Cr2 4_455 5_555 111.47(8)
Bi1 O3 O2 4_455 1_554 46.20(5)
Bi1 O3 O2 4_455 3_546 148.19(4)
Bi1 O3 O2 4_455 4_456 72.66(7)
Bi1 O3 O2 4_455 6_556 46.20(5)
Bi1 O3 O2 4_455 7_454 72.66(7)
Bi1 O3 O2 4_455 8_544 148.19(4)
Bi1 O3 O3 4_455 2_555 123.96(12)
Bi1 O3 O4 4_455 1_554 87.01(6)
Bi1 O3 O4 4_455 . 87.01(6)
Fe1 O3 Fe1 1_554 . 117.96(8)
Fe1 O3 Fe2 1_554 . 169.90(10)
Fe1 O3 Fe2 1_554 5_555 71.92(5)
Fe1 O3 Cr2 1_554 . 169.90(10)
Fe1 O3 Cr2 1_554 5_555 71.92(5)
Fe1 O3 O2 1_554 1_554 33.13(4)
Fe1 O3 O2 1_554 3_546 130.66(8)
Fe1 O3 O2 1_554 4_456 135.43(7)
Fe1 O3 O2 1_554 6_556 90.31(7)
Fe1 O3 O2 1_554 7_454 81.43(4)
Fe1 O3 O2 1_554 8_544 75.64(5)
Fe1 O3 O3 1_554 2_555 120.96(4)
Fe1 O3 O4 1_554 1_554 32.12(6)
Fe1 O3 O4 1_554 . 149.61(10)
Fe1 O3 Fe2 . . 71.92(5)
Fe1 O3 Fe2 . 5_555 169.90(10)
Fe1 O3 Cr2 . . 71.92(5)
Fe1 O3 Cr2 . 5_555 169.90(10)
Fe1 O3 O2 . 1_554 90.31(7)
Fe1 O3 O2 . 3_546 75.64(5)
Fe1 O3 O2 . 4_456 81.43(4)
Fe1 O3 O2 . 6_556 33.13(4)
Fe1 O3 O2 . 7_454 135.43(7)
Fe1 O3 O2 . 8_544 130.66(8)
Fe1 O3 O3 . 2_555 120.96(4)
Fe1 O3 O4 . 1_554 149.61(10)
Fe1 O3 O4 . . 32.12(6)
Fe2 O3 Fe2 . 5_555 98.14(13)
Fe2 O3 Cr2 . . 0.0(5)
Fe2 O3 Cr2 . 5_555 98.14(13)
Fe2 O3 O2 . 1_554 155.77(9)
Fe2 O3 O2 . 3_546 47.04(5)
Fe2 O3 O2 . 4_456 44.63(6)
Fe2 O3 O2 . 6_556 99.72(6)
Fe2 O3 O2 . 7_454 92.74(11)
Fe2 O3 O2 . 8_544 96.41(9)
Fe2 O3 O3 . 2_555 49.07(7)
Fe2 O3 O4 . 1_554 138.28(13)
Fe2 O3 O4 . . 40.46(7)
Fe2 O3 Cr2 5_555 . 98.14(13)
Fe2 O3 Cr2 5_555 5_555 0.0(5)
Fe2 O3 O2 5_555 1_554 99.72(6)
Fe2 O3 O2 5_555 3_546 96.41(9)
Fe2 O3 O2 5_555 4_456 92.74(11)
Fe2 O3 O2 5_555 6_556 155.77(9)
Fe2 O3 O2 5_555 7_454 44.63(6)
Fe2 O3 O2 5_555 8_544 47.04(5)
Fe2 O3 O3 5_555 2_555 49.07(7)
Fe2 O3 O4 5_555 1_554 40.46(7)
Fe2 O3 O4 5_555 . 138.28(13)
Cr2 O3 Cr2 . 5_555 98.14(13)
Cr2 O3 O2 . 1_554 155.77(9)
Cr2 O3 O2 . 3_546 47.04(5)
Cr2 O3 O2 . 4_456 44.63(6)
Cr2 O3 O2 . 6_556 99.72(6)
Cr2 O3 O2 . 7_454 92.74(11)
Cr2 O3 O2 . 8_544 96.41(9)
Cr2 O3 O3 . 2_555 49.07(7)
Cr2 O3 O4 . 1_554 138.28(13)
Cr2 O3 O4 . . 40.46(7)
Cr2 O3 O2 5_555 1_554 99.72(6)
Cr2 O3 O2 5_555 3_546 96.41(9)
Cr2 O3 O2 5_555 4_456 92.74(11)
Cr2 O3 O2 5_555 6_556 155.77(9)
Cr2 O3 O2 5_555 7_454 44.63(6)
Cr2 O3 O2 5_555 8_544 47.04(5)
Cr2 O3 O3 5_555 2_555 49.07(7)
Cr2 O3 O4 5_555 1_554 40.46(7)
Cr2 O3 O4 5_555 . 138.28(13)
O2 O3 O2 1_554 3_546 145.19(12)
O2 O3 O2 1_554 4_456 118.01(8)
O2 O3 O2 1_554 6_556 58.91(6)
O2 O3 O2 1_554 7_454 88.58(6)
O2 O3 O2 1_554 8_544 107.74(7)
O2 O3 O3 1_554 2_555 145.57(7)
O2 O3 O4 1_554 1_554 59.93(6)
O2 O3 O4 1_554 . 118.69(9)
O2 O3 O2 3_546 4_456 91.62(7)
O2 O3 O2 3_546 6_556 107.74(7)
O2 O3 O2 3_546 7_454 123.78(11)
O2 O3 O2 3_546 8_544 63.33(6)
O2 O3 O3 3_546 2_555 64.22(7)
O2 O3 O4 3_546 1_554 124.77(8)
O2 O3 O4 3_546 . 61.51(6)
O2 O3 O2 4_456 6_556 88.58(6)
O2 O3 O2 4_456 7_454 60.35(7)
O2 O3 O2 4_456 8_544 123.78(11)
O2 O3 O3 4_456 2_555 59.56(8)
O2 O3 O4 4_456 1_554 116.52(10)
O2 O3 O4 4_456 . 56.20(7)
O2 O3 O2 6_556 7_454 118.01(8)
O2 O3 O2 6_556 8_544 145.19(12)
O2 O3 O3 6_556 2_555 145.57(7)
O2 O3 O4 6_556 1_554 118.69(9)
O2 O3 O4 6_556 . 59.93(6)
O2 O3 O2 7_454 8_544 91.62(7)
O2 O3 O3 7_454 2_555 59.56(8)
O2 O3 O4 7_454 1_554 56.20(7)
O2 O3 O4 7_454 . 116.52(10)
O2 O3 O3 8_544 2_555 64.22(7)
O2 O3 O4 8_544 1_554 61.51(6)
O2 O3 O4 8_544 . 124.77(8)
O3 O3 O4 2_555 1_554 89.37(7)
O3 O3 O4 2_555 . 89.37(7)
O4 O3 O4 1_554 . 171.83(11)
Fe1 O4 Fe1 . 4_456 119.28(11)
Fe1 O4 Fe2 . . 129.03(9)
Fe1 O4 Fe2 . 5_556 129.03(9)
Fe1 O4 Cr2 . . 129.03(9)
Fe1 O4 Cr2 . 5_556 129.03(9)
Fe1 O4 O1 . . 33.37(6)
Fe1 O4 O2 . . 38.69(5)
Fe1 O4 O2 . 3_546 105.08(11)
Fe1 O4 O2 . 4_456 128.07(9)
Fe1 O4 O2 . 6_556 38.69(5)
Fe1 O4 O2 . 7_455 128.07(9)
Fe1 O4 O2 . 8_545 105.08(11)
Fe1 O4 O3 . . 88.69(8)
Fe1 O4 O3 . 1_556 88.69(8)
Fe1 O4 O4 . 2_555 160.92(15)
Fe1 O4 Fe2 4_456 . 83.23(9)
Fe1 O4 Fe2 4_456 5_556 83.23(9)
Fe1 O4 Cr2 4_456 . 83.23(9)
Fe1 O4 Cr2 4_456 5_556 83.23(9)
Fe1 O4 O1 4_456 . 152.65(9)
Fe1 O4 O2 4_456 . 94.74(7)
Fe1 O4 O2 4_456 3_546 125.39(9)
Fe1 O4 O2 4_456 4_456 38.35(5)
Fe1 O4 O2 4_456 6_556 94.74(7)
Fe1 O4 O2 4_456 7_455 38.35(5)
Fe1 O4 O2 4_456 8_545 125.39(9)
Fe1 O4 O3 4_456 . 94.02(7)
Fe1 O4 O3 4_456 1_556 94.02(7)
Fe1 O4 O4 4_456 2_555 79.80(10)
Fe2 O4 Fe2 . 5_556 96.43(13)
Fe2 O4 Cr2 . . 0.0(5)
Fe2 O4 Cr2 . 5_556 96.43(13)
Fe2 O4 O1 . . 113.96(9)
Fe2 O4 O2 . . 162.94(10)
Fe2 O4 O2 . 3_546 42.92(5)
Fe2 O4 O2 . 4_456 46.74(6)
Fe2 O4 O2 . 6_556 100.16(6)
Fe2 O4 O2 . 7_455 98.61(12)
Fe2 O4 O2 . 8_545 92.96(10)
Fe2 O4 O3 . . 41.92(7)
Fe2 O4 O3 . 1_556 138.03(13)
Fe2 O4 O4 . 2_555 48.22(7)
Fe2 O4 Cr2 5_556 . 96.43(13)
Fe2 O4 Cr2 5_556 5_556 0.0(5)
Fe2 O4 O1 5_556 . 113.96(9)
Fe2 O4 O2 5_556 . 100.16(6)
Fe2 O4 O2 5_556 3_546 92.96(10)
Fe2 O4 O2 5_556 4_456 98.61(12)
Fe2 O4 O2 5_556 6_556 162.94(10)
Fe2 O4 O2 5_556 7_455 46.74(6)
Fe2 O4 O2 5_556 8_545 42.92(5)
Fe2 O4 O3 5_556 . 138.03(13)
Fe2 O4 O3 5_556 1_556 41.92(7)
Fe2 O4 O4 5_556 2_555 48.22(7)
Cr2 O4 Cr2 . 5_556 96.43(13)
Cr2 O4 O1 . . 113.96(9)
Cr2 O4 O2 . . 162.94(10)
Cr2 O4 O2 . 3_546 42.92(5)
Cr2 O4 O2 . 4_456 46.74(6)
Cr2 O4 O2 . 6_556 100.16(6)
Cr2 O4 O2 . 7_455 98.61(12)
Cr2 O4 O2 . 8_545 92.96(10)
Cr2 O4 O3 . . 41.92(7)
Cr2 O4 O3 . 1_556 138.03(13)
Cr2 O4 O4 . 2_555 48.22(7)
Cr2 O4 O1 5_556 . 113.96(9)
Cr2 O4 O2 5_556 . 100.16(6)
Cr2 O4 O2 5_556 3_546 92.96(10)
Cr2 O4 O2 5_556 4_456 98.61(12)
Cr2 O4 O2 5_556 6_556 162.94(10)
Cr2 O4 O2 5_556 7_455 46.74(6)
Cr2 O4 O2 5_556 8_545 42.92(5)
Cr2 O4 O3 5_556 . 138.03(13)
Cr2 O4 O3 5_556 1_556 41.92(7)
Cr2 O4 O4 5_556 2_555 48.22(7)
O1 O4 O2 . . 62.40(6)
O1 O4 O2 . 3_546 76.81(7)
O1 O4 O2 . 4_456 145.02(5)
O1 O4 O2 . 6_556 62.40(6)
O1 O4 O2 . 7_455 145.02(5)
O1 O4 O2 . 8_545 76.81(7)
O1 O4 O3 . . 86.78(8)
O1 O4 O3 . 1_556 86.78(8)
O1 O4 O4 . 2_555 127.54(10)
O2 O4 O2 . 3_546 139.07(11)
O2 O4 O2 . 4_456 125.75(10)
O2 O4 O2 . 6_556 63.03(7)
O2 O4 O2 . 7_455 89.94(6)
O2 O4 O2 . 8_545 101.88(6)
O2 O4 O3 . . 121.78(10)
O2 O4 O3 . 1_556 58.93(6)
O2 O4 O4 . 2_555 148.18(5)
O2 O4 O2 3_546 4_456 89.62(7)
O2 O4 O2 3_546 6_556 101.88(6)
O2 O4 O2 3_546 7_455 125.60(11)
O2 O4 O2 3_546 8_545 63.43(7)
O2 O4 O3 3_546 . 55.04(5)
O2 O4 O3 3_546 1_556 118.40(9)
O2 O4 O4 3_546 2_555 59.29(7)
O2 O4 O2 4_456 6_556 89.94(6)
O2 O4 O2 4_456 7_455 68.10(8)
O2 O4 O2 4_456 8_545 125.60(11)
O2 O4 O3 4_456 . 59.53(7)
O2 O4 O3 4_456 1_556 127.58(11)
O2 O4 O4 4_456 2_555 66.31(8)
O2 O4 O2 6_556 7_455 125.75(10)
O2 O4 O2 6_556 8_545 139.07(11)
O2 O4 O3 6_556 . 58.93(6)
O2 O4 O3 6_556 1_556 121.78(10)
O2 O4 O4 6_556 2_555 148.18(5)
O2 O4 O2 7_455 8_545 89.62(7)
O2 O4 O3 7_455 . 127.58(11)
O2 O4 O3 7_455 1_556 59.53(7)
O2 O4 O4 7_455 2_555 66.31(8)
O2 O4 O3 8_545 . 118.40(9)
O2 O4 O3 8_545 1_556 55.04(5)
O2 O4 O4 8_545 2_555 59.29(7)
O3 O4 O3 . 1_556 171.83(12)
O3 O4 O4 . 2_555 89.98(7)
O3 O4 O4 1_556 2_555 89.98(7)
loop_
_geom_bond_atom_site_label_1
_geom_bond_atom_site_label_2
_geom_bond_site_symmetry_2
_geom_bond_distance
Bi1 Fe2 1_655 3.3352(11)
Bi1 Fe2 3_555 3.4395(11)
Bi1 Fe2 5_655 3.3352(11)
Bi1 Fe2 7_555 3.4395(11)
Bi1 Cr2 1_655 3.3352(11)
Bi1 Cr2 3_555 3.4395(11)
Bi1 Cr2 5_655 3.3352(11)
Bi1 Cr2 7_555 3.4395(11)
Bi1 O2 1_554 3.0252(17)
Bi1 O2 4_556 2.1193(17)
Bi1 O2 6_556 3.0252(17)
Bi1 O2 7_554 2.1193(17)
Bi1 O3 2_655 2.508(2)
Bi1 O3 4_555 2.140(2)
Fe1 Fe2 . 3.4481(14)
Fe1 Fe2 3_556 3.3883(15)
Fe1 Fe2 5_556 3.4481(14)
Fe1 Fe2 7_555 3.3883(15)
Fe1 Cr2 . 3.4481(14)
Fe1 Cr2 3_556 3.3883(15)
Fe1 Cr2 5_556 3.4481(14)
Fe1 Cr2 7_555 3.3883(15)
Fe1 O1 . 1.8087(12)
Fe1 O2 . 1.9079(18)
Fe1 O2 6_556 1.9079(18)
Fe1 O3 . 3.4905(15)
Fe1 O3 1_556 3.4905(15)
Fe1 O4 . 1.856(3)
Fe1 O4 4_556 3.003(3)
Fe2 Fe2 5_555 3.055(3)
Fe2 Fe2 5_556 2.928(3)
Fe2 Cr2 . 0
Fe2 Cr2 5_555 3.055(3)
Fe2 Cr2 5_556 2.928(3)
Fe2 O2 3_546 2.0160(16)
Fe2 O2 4_456 2.0160(16)
Fe2 O3 . 2.021(2)
Fe2 O3 2_555 2.021(2)
Fe2 O4 . 1.963(2)
Fe2 O4 2_555 1.963(2)
Cr2 Cr2 5_555 3.055(3)
Cr2 Cr2 5_556 2.928(3)
Cr2 O2 3_546 2.0160(16)
Cr2 O2 4_456 2.0160(16)
Cr2 O3 . 2.021(2)
Cr2 O3 2_555 2.021(2)
Cr2 O4 . 1.963(2)
Cr2 O4 2_555 1.963(2)
O1 O2 . 3.1123(16)
O1 O2 2_655 3.1123(16)
O1 O2 5_656 3.1123(16)
O1 O2 6_556 3.1123(16)
O1 O4 . 3.043(3)
O1 O4 2_655 3.043(3)
O2 O2 6_556 3.098(2)
O2 O2 6_557 2.884(2)
O2 O3 1_556 2.933(3)
O2 O3 3_556 2.747(2)
O2 O3 4_556 2.869(3)
O2 O4 . 2.963(3)
O2 O4 3_556 2.947(3)
O2 O4 4_556 2.767(3)
O3 O3 2_555 2.649(4)
O3 O4 1_554 2.9988(3)
O3 O4 . 2.9988(3)
O4 O4 2_555 2.616(4)
loop_
_pd_proc_point_id
_pd_proc_2theta_corrected
_pd_proc_intensity_net
_pd_calc_intensity_net
_pd_proc_ls_weight
13 0.0000 173696.00 168564.00 4438.00
14 0.0000 169885.00 170413.00 4434.00
15 0.0000 168534.00 172556.00 4426.00
16 0.0000 168372.00 175371.00 4422.00
17 0.0000 174987.00 178754.00 4414.00
18 0.0000 178809.00 181776.00 4405.00
19 0.0000 183141.00 183515.00 4402.00
20 0.0000 184219.00 184284.00 4394.00
21 0.0000 189943.00 184972.00 4391.00
22 0.0000 192683.00 185205.00 4383.00
23 0.0000 187282.00 183755.00 4375.00
24 0.0000 179266.00 180503.00 4371.00
25 0.0000 174311.00 176763.00 4364.00
26 0.0000 167999.00 174007.00 4360.00
27 0.0000 168536.00 172945.00 4353.00
28 0.0000 171056.00 173217.00 4346.00
29 0.0000 173999.00 173975.00 4342.00
30 0.0000 175294.00 174725.00 4335.00
31 0.0000 173561.00 175582.00 4332.00
32 0.0000 172988.00 177051.00 4324.00
33 0.0000 183046.00 179348.00 4317.00
34 0.0000 186573.00 182065.00 4314.00
35 0.0000 182150.00 184461.00 4307.00
36 0.0000 183840.00 185786.00 4304.00
37 0.0000 182815.00 186008.00 4297.00
38 0.0000 188250.00 185495.00 4290.00
39 0.0000 186422.00 184468.00 4287.00
40 0.0000 187060.00 182741.00 4280.00
41 0.0000 184269.00 180256.00 4278.00
42 0.0000 184007.00 178083.00 4271.00
43 0.0000 181376.00 177458.00 4265.00
44 0.0000 176156.00 178809.00 4262.00
45 0.0000 177257.00 181702.00 4256.00
46 0.0000 180169.00 185014.00 4253.00
47 0.0000 182813.00 187516.00 4247.00
48 0.0000 184120.00 187889.00 4241.00
49 0.0000 181391.00 185574.00 4238.00
50 0.0000 178076.00 182007.00 4232.00
51 0.0000 173203.00 178843.00 4229.00
52 0.0000 170052.00 176649.00 4223.00
53 0.0000 173626.00 175545.00 4217.00
54 0.0000 181307.00 175578.00 4214.00
55 0.0000 184663.00 176567.00 4208.00
56 0.0000 186321.00 178152.00 4206.00
57 0.0000 187779.00 180249.00 4200.00
58 0.0000 186833.00 182692.00 4195.00
59 0.0000 183485.00 184674.00 4193.00
60 0.0000 185420.00 185219.00 4187.00
61 0.0000 180064.00 184064.00 4185.00
62 0.0000 177185.00 181479.00 4179.00
63 0.0000 173599.00 177969.00 4174.00
64 0.0000 171215.00 174442.00 4172.00
65 0.0000 169756.00 171832.00 4167.00
66 0.0000 171217.00 170757.00 4165.00
67 0.0000 170356.00 171533.00 4160.00
68 0.0000 172225.00 173994.00 4154.00
69 0.0000 179131.00 177215.00 4152.00
70 0.0000 183009.00 179657.00 4147.00
71 0.0000 185917.00 180519.00 4145.00
72 0.0000 186566.00 180937.00 4140.00
73 0.0000 183015.00 182705.00 4135.00
74 0.0000 185481.00 186116.00 4133.00
75 0.0000 186220.00 189581.00 4128.00
76 0.0000 187507.00 191408.00 4126.00
77 0.0000 185548.00 191679.00 4121.00
78 0.0000 185814.00 191856.00 4116.00
79 0.0000 189353.00 192617.00 4115.00
80 0.0000 191393.00 192801.00 4110.00
81 0.0000 192757.00 191329.00 4109.00
82 0.0000 189574.00 188604.00 4104.00
83 0.0000 186072.00 185208.00 4099.00
84 0.0000 178282.00 181542.00 4098.00
85 0.0000 176107.00 178523.00 4094.00
86 0.0000 175878.00 176941.00 4093.00
87 0.0000 179750.00 176554.00 4088.00
88 0.0000 178271.00 176483.00 4084.00
89 0.0000 171754.00 176299.00 4084.00
90 0.0000 174408.00 176183.00 4080.00
91 0.0000 174536.00 176625.00 4079.00
92 0.0000 174368.00 177901.00 4075.00
93 0.0000 178859.00 179648.00 4072.00
94 0.0000 177720.00 181296.00 4071.00
95 0.0000 179368.00 182244.00 4067.00
96 0.0000 178336.00 181797.00 4067.00
97 0.0000 175916.00 179986.00 4063.00
98 0.0000 172706.00 177566.00 4060.00
99 0.0000 167133.00 175266.00 4060.00
100 0.0000 169121.00 173417.00 4056.00
101 0.0000 170682.00 172028.00 4056.00
102 0.0000 176172.00 171224.00 4053.00
103 0.0000 175086.00 171461.00 4050.00
104 0.0000 175610.00 173111.00 4050.00
105 0.0000 176818.00 176300.00 4047.00
106 0.0000 175637.00 180919.00 4047.00
107 0.0000 180604.00 186143.00 4044.00
108 0.0000 189598.00 190412.00 4041.00
109 0.0000 194335.00 191883.00 4042.00
110 0.0000 197639.00 189915.00 4039.00
111 0.0000 191501.00 186291.00 4040.00
112 0.0000 190985.00 183156.00 4037.00
113 0.0000 190170.00 180964.00 4034.00
114 0.0000 185716.00 178867.00 4035.00
115 0.0000 180987.00 176062.00 4033.00
116 0.0000 174446.00 172569.00 4034.00
117 0.0000 168218.00 169333.00 4031.00
118 0.0000 162373.00 167288.00 4028.00
119 0.0000 163141.00 166756.00 4029.00
120 0.0000 160577.00 167411.00 4027.00
121 0.0000 165480.00 168525.00 4028.00
122 0.0000 172197.00 169323.00 4026.00
123 0.0000 172803.00 169582.00 4023.00
124 0.0000 174859.00 169532.00 4024.00
125 0.0000 170679.00 169259.00 4022.00
126 0.0000 165222.00 168685.00 4023.00
127 0.0000 163013.00 167800.00 4021.00
128 0.0000 160782.00 166856.00 4018.00
129 0.0000 160436.00 166350.00 4020.00
130 0.0000 162744.00 166699.00 4018.00
131 0.0000 165138.00 168258.00 4019.00
132 0.0000 168483.00 171234.00 4017.00
133 0.0000 176792.00 175391.00 4015.00
134 0.0000 181334.00 179775.00 4017.00
135 0.0000 186110.00 182888.00 4014.00
136 0.0000 185688.00 183654.00 4016.00
137 0.0000 186438.00 182698.00 4014.00
138 0.0000 185232.00 181363.00 4011.00
139 0.0000 182209.00 179983.00 4013.00
140 0.0000 179106.00 177969.00 4011.00
141 0.0000 180410.00 175549.00 4012.00
142 0.0000 177542.00 173991.00 4010.00
143 0.0000 176089.00 174321.00 4008.00
144 0.0000 175566.00 176575.00 4009.00
145 0.0000 175106.00 179760.00 4006.00
146 0.0000 173784.00 182536.00 4008.00
147 0.0000 178473.00 183808.00 4005.00
148 0.0000 177726.00 183764.00 4003.00
149 0.0000 178868.00 184091.00 4004.00
150 0.0000 187543.00 186314.00 4001.00
151 0.0000 195083.00 190684.00 4002.00
152 0.0000 206931.00 195821.00 4000.00
153 0.0000 211388.00 199881.00 3997.00
154 0.0000 209821.00 201527.00 3998.00
155 0.0000 201128.00 199813.00 3996.00
156 0.0000 191455.00 194616.00 3997.00
157 0.0000 181025.00 187229.00 3994.00
158 0.0000 177989.00 179775.00 3992.00
159 0.0000 173698.00 173972.00 3992.00
160 0.0000 170337.00 170257.00 3990.00
161 0.0000 166162.00 168154.00 3990.00
162 0.0000 166968.00 167130.00 3988.00
163 0.0000 166158.00 167094.00 3985.00
164 0.0000 160274.00 168368.00 3985.00
165 0.0000 160008.00 171121.00 3982.00
166 0.0000 166112.00 174919.00 3982.00
167 0.0000 170606.00 178535.00 3979.00
168 0.0000 172269.00 180498.00 3977.00
169 0.0000 173935.00 180461.00 3976.00
170 0.0000 173823.00 179431.00 3973.00
171 0.0000 172454.00 178482.00 3973.00
172 0.0000 178838.00 177992.00 3970.00
173 0.0000 179826.00 178038.00 3967.00
174 0.0000 182736.00 179229.00 3966.00
175 0.0000 188547.00 182792.00 3963.00
176 0.0000 199540.00 189867.00 3962.00
177 0.0000 212067.00 200017.00 3959.00
178 0.0000 227193.00 210139.00 3955.00
179 0.0000 232689.00 215515.00 3954.00
180 0.0000 230113.00 213374.00 3951.00
181 0.0000 219781.00 205866.00 3950.00
182 0.0000 204911.00 197669.00 3946.00
183 0.0000 195984.00 191865.00 3943.00
184 0.0000 189199.00 188845.00 3942.00
185 0.0000 185398.00 187468.00 3939.00
186 0.0000 189246.00 186571.00 3937.00
187 0.0000 186529.00 185840.00 3934.00
188 0.0000 186502.00 185740.00 3930.00
189 0.0000 183672.00 186785.00 3928.00
190 0.0000 188945.00 188863.00 3925.00
191 0.0000 187063.00 191526.00 3923.00
192 0.0000 189430.00 193433.00 3919.00
193 0.0000 191155.00 192502.00 3916.00
194 0.0000 186017.00 188692.00 3914.00
195 0.0000 182154.00 184671.00 3910.00
196 0.0000 180107.00 182587.00 3908.00
197 0.0000 179067.00 182271.00 3904.00
198 0.0000 178932.00 182046.00 3900.00
199 0.0000 179052.00 181376.00 3898.00
200 0.0000 183335.00 182045.00 3894.00
201 0.0000 183628.00 185612.00 3891.00
202 0.0000 188802.00 191279.00 3887.00
203 0.0000 195539.00 195814.00 3884.00
204 0.0000 195408.00 196142.00 3881.00
205 0.0000 192365.00 192314.00 3878.00
206 0.0000 182382.00 186116.00 3875.00
207 0.0000 175350.00 179562.00 3872.00
208 0.0000 168975.00 174575.00 3868.00
209 0.0000 171500.00 172277.00 3865.00
210 0.0000 172826.00 172888.00 3861.00
211 0.0000 176861.00 175730.00 3858.00
212 0.0000 184316.00 179314.00 3855.00
213 0.0000 191110.00 181986.00 3851.00
214 0.0000 193448.00 183095.00 3849.00
215 0.0000 192390.00 183317.00 3845.00
216 0.0000 189048.00 184203.00 3842.00
217 0.0000 189568.00 187169.00 3838.00
218 0.0000 190982.00 192176.00 3835.00
219 0.0000 196501.00 197298.00 3832.00
220 0.0000 203780.00 200097.00 3828.00
221 0.0000 208108.00 199529.00 3825.00
222 0.0000 208376.00 195781.00 3822.00
223 0.0000 195643.00 190028.00 3819.00
224 0.0000 192240.00 184139.00 3816.00
225 0.0000 183172.00 179798.00 3813.00
226 0.0000 180287.00 178064.00 3811.00
227 0.0000 180026.00 178775.00 3807.00
228 0.0000 181310.00 180444.00 3804.00
229 0.0000 178341.00 181402.00 3802.00
230 0.0000 177558.00 180812.00 3798.00
231 0.0000 181171.00 178763.00 3796.00
232 0.0000 177162.00 176148.00 3793.00
233 0.0000 175862.00 173949.00 3789.00
234 0.0000 176217.00 172554.00 3787.00
235 0.0000 177425.00 171959.00 3783.00
236 0.0000 180401.00 171645.00 3781.00
237 0.0000 180471.00 171332.00 3778.00
238 0.0000 177620.00 171381.00 3775.00
239 0.0000 179182.00 171891.00 3773.00
240 0.0000 178560.00 172245.00 3769.00
241 0.0000 172576.00 171929.00 3767.00
242 0.0000 174829.00 171154.00 3764.00
243 0.0000 176806.00 171056.00 3761.00
244 0.0000 184493.00 173230.00 3759.00
245 0.0000 193357.00 178688.00 3755.00
246 0.0000 202895.00 187065.00 3753.00
247 0.0000 210713.00 196095.00 3750.00
248 0.0000 214703.00 202296.00 3747.00
249 0.0000 216427.00 202510.00 3745.00
250 0.0000 207371.00 196163.00 3742.00
251 0.0000 193966.00 186446.00 3740.00
252 0.0000 179746.00 177604.00 3737.00
253 0.0000 175055.00 171929.00 3734.00
254 0.0000 169051.00 169263.00 3732.00
255 0.0000 170042.00 168061.00 3729.00
256 0.0000 167671.00 166995.00 3727.00
257 0.0000 163885.00 165721.00 3725.00
258 0.0000 163099.00 164526.00 3722.00
259 0.0000 163864.00 163802.00 3720.00
260 0.0000 166446.00 163669.00 3717.00
261 0.0000 167703.00 163998.00 3715.00
262 0.0000 168446.00 164670.00 3712.00
263 0.0000 172194.00 165770.00 3709.00
264 0.0000 172427.00 167555.00 3707.00
265 0.0000 174955.00 169909.00 3704.00
266 0.0000 174750.00 172176.00 3702.00
267 0.0000 174973.00 173566.00 3699.00
268 0.0000 178009.00 174095.00 3696.00
269 0.0000 181470.00 174616.00 3694.00
270 0.0000 183434.00 175876.00 3691.00
271 0.0000 187715.00 178394.00 3690.00
272 0.0000 190445.00 182765.00 3687.00
273 0.0000 193587.00 188627.00 3684.00
274 0.0000 195546.00 193705.00 3682.00
275 0.0000 194852.00 194868.00 3680.00
276 0.0000 197030.00 191187.00 3678.00
277 0.0000 190998.00 184544.00 3675.00
278 0.0000 183484.00 178131.00 3672.00
279 0.0000 186283.00 175192.00 3671.00
280 0.0000 183677.00 177684.00 3668.00
281 0.0000 190329.00 185566.00 3666.00
282 0.0000 202354.00 196297.00 3663.00
283 0.0000 209553.00 205164.00 3660.00
284 0.0000 214580.00 207589.00 3658.00
285 0.0000 220111.00 203300.00 3655.00
286 0.0000 206010.00 195204.00 3653.00
287 0.0000 193653.00 186084.00 3650.00
288 0.0000 179763.00 178216.00 3647.00
289 0.0000 175806.00 172697.00 3645.00
290 0.0000 172855.00 169149.00 3642.00
291 0.0000 170027.00 166709.00 3640.00
292 0.0000 173221.00 164963.00 3636.00
293 0.0000 171838.00 163985.00 3633.00
294 0.0000 169314.00 164120.00 3631.00
295 0.0000 168489.00 165933.00 3628.00
296 0.0000 171421.00 169602.00 3625.00
297 0.0000 174915.00 174342.00 3622.00
298 0.0000 180430.00 178353.00 3619.00
299 0.0000 184904.00 179768.00 3616.00
300 0.0000 185019.00 178247.00 3613.00
301 0.0000 180924.00 175603.00 3611.00
302 0.0000 178615.00 174241.00 3608.00
303 0.0000 174696.00 175319.00 3604.00
304 0.0000 174479.00 178285.00 3602.00
305 0.0000 175898.00 181336.00 3598.00
306 0.0000 178195.00 182554.00 3596.00
307 0.0000 181062.00 181361.00 3592.00
308 0.0000 179783.00 178908.00 3589.00
309 0.0000 181821.00 177032.00 3586.00
310 0.0000 179634.00 176846.00 3583.00
311 0.0000 174110.00 178113.00 3581.00
312 0.0000 170514.00 179413.00 3577.00
313 0.0000 173123.00 179187.00 3574.00
314 0.0000 171088.00 177295.00 3571.00
315 0.0000 171077.00 174642.00 3568.00
316 0.0000 170170.00 172026.00 3565.00
317 0.0000 165894.00 170015.00 3562.00
318 0.0000 167794.00 169513.00 3559.00
319 0.0000 162311.00 171503.00 3556.00
320 0.0000 167628.00 176461.00 3553.00
321 0.0000 178287.00 183811.00 3550.00
322 0.0000 185992.00 191860.00 3547.00
323 0.0000 194668.00 198577.00 3543.00
324 0.0000 202261.00 202413.00 3540.00
325 0.0000 204647.00 203094.00 3537.00
326 0.0000 203761.00 201511.00 3534.00
327 0.0000 199821.00 198200.00 3531.00
328 0.0000 191934.00 192726.00 3528.00
329 0.0000 186012.00 185355.00 3525.00
330 0.0000 176623.00 177528.00 3522.00
331 0.0000 171169.00 170611.00 3519.00
332 0.0000 164412.00 165480.00 3516.00
333 0.0000 160656.00 162308.00 3512.00
334 0.0000 157736.00 160883.00 3510.00
335 0.0000 161201.00 160864.00 3506.00
336 0.0000 160665.00 161987.00 3504.00
337 0.0000 165508.00 164049.00 3501.00
338 0.0000 169970.00 166671.00 3498.00
339 0.0000 172623.00 169361.00 3495.00
340 0.0000 174097.00 171828.00 3492.00
341 0.0000 174019.00 173800.00 3489.00
342 0.0000 170723.00 174939.00 3486.00
343 0.0000 169718.00 175250.00 3484.00
344 0.0000 170276.00 175127.00 3481.00
345 0.0000 169285.00 174935.00 3478.00
346 0.0000 162834.00 174293.00 3476.00
347 0.0000 164458.00 172666.00 3473.00
348 0.0000 162860.00 170619.00 3470.00
349 0.0000 161205.00 169419.00 3468.00
350 0.0000 159974.00 169781.00 3465.00
351 0.0000 159404.00 171132.00 3463.00
352 0.0000 168941.00 171847.00 3460.00
353 0.0000 169709.00 170677.00 3458.00
354 0.0000 166205.00 167895.00 3456.00
355 0.0000 156947.00 164728.00 3453.00
356 0.0000 150803.00 162343.00 3451.00
357 0.0000 150080.00 161398.00 3448.00
358 0.0000 155671.00 162051.00 3446.00
359 0.0000 157318.00 164076.00 3444.00
360 0.0000 159365.00 166933.00 3442.00
361 0.0000 163784.00 169870.00 3440.00
362 0.0000 166995.00 172008.00 3437.00
363 0.0000 164562.00 172736.00 3435.00
364 0.0000 166593.00 171711.00 3434.00
365 0.0000 164710.00 168878.00 3431.00
366 0.0000 163905.00 165080.00 3430.00
367 0.0000 163961.00 161648.00 3428.00
368 0.0000 158415.00 159660.00 3426.00
369 0.0000 154896.00 159697.00 3425.00
370 0.0000 153522.00 162024.00 3423.00
371 0.0000 158632.00 166598.00 3422.00
372 0.0000 164487.00 172926.00 3419.00
373 0.0000 171619.00 179797.00 3417.00
374 0.0000 182879.00 185650.00 3417.00
375 0.0000 187977.00 189055.00 3415.00
376 0.0000 192197.00 189515.00 3414.00
377 0.0000 187456.00 188042.00 3412.00
378 0.0000 191113.00 186109.00 3410.00
379 0.0000 188112.00 184921.00 3409.00
380 0.0000 185828.00 184977.00 3408.00
381 0.0000 182247.00 185312.00 3407.00
382 0.0000 181441.00 184317.00 3405.00
383 0.0000 182689.00 181786.00 3403.00
384 0.0000 181083.00 178797.00 3403.00
385 0.0000 177177.00 176108.00 3401.00
386 0.0000 175760.00 173474.00 3400.00
387 0.0000 171294.00 170492.00 3399.00
388 0.0000 164609.00 167477.00 3397.00
389 0.0000 159980.00 165078.00 3397.00
390 0.0000 157696.00 163980.00 3395.00
391 0.0000 160750.00 164597.00 3394.00
392 0.0000 168802.00 166626.00 3392.00
393 0.0000 166429.00 169172.00 3391.00
394 0.0000 168021.00 171110.00 3390.00
395 0.0000 164175.00 171739.00 3389.00
396 0.0000 158175.00 170756.00 3388.00
397 0.0000 157078.00 168213.00 3386.00
398 0.0000 157736.00 164741.00 3385.00
399 0.0000 158054.00 161175.00 3384.00
400 0.0000 156437.00 158201.00 3382.00
401 0.0000 153915.00 156307.00 3382.00
402 0.0000 152362.00 155760.00 3380.00
403 0.0000 149102.00 156642.00 3379.00
404 0.0000 152350.00 158808.00 3378.00
405 0.0000 155629.00 161596.00 3376.00
406 0.0000 157514.00 164030.00 3376.00
407 0.0000 158183.00 165085.00 3374.00
408 0.0000 155750.00 164706.00 3372.00
409 0.0000 153505.00 163792.00 3371.00
410 0.0000 155562.00 163217.00 3370.00
411 0.0000 159447.00 163380.00 3369.00
412 0.0000 156083.00 164130.00 3367.00
413 0.0000 154705.00 164931.00 3365.00
414 0.0000 155213.00 165580.00 3365.00
415 0.0000 154420.00 166327.00 3363.00
416 0.0000 157797.00 167247.00 3362.00
417 0.0000 164261.00 168033.00 3360.00
418 0.0000 167640.00 168311.00 3359.00
419 0.0000 170291.00 168216.00 3358.00
420 0.0000 171063.00 168483.00 3356.00
421 0.0000 168798.00 169744.00 3356.00
422 0.0000 172818.00 171938.00 3354.00
423 0.0000 176016.00 174389.00 3352.00
424 0.0000 179583.00 176170.00 3351.00
425 0.0000 176779.00 176279.00 3349.00
426 0.0000 172687.00 174428.00 3349.00
427 0.0000 168328.00 171703.00 3347.00
428 0.0000 168780.00 169664.00 3345.00
429 0.0000 165882.00 169196.00 3344.00
430 0.0000 171471.00 170164.00 3342.00
431 0.0000 169585.00 171953.00 3341.00
432 0.0000 175681.00 174489.00 3338.00
433 0.0000 177304.00 178180.00 3336.00
434 0.0000 178520.00 182998.00 3335.00
435 0.0000 184549.00 187921.00 3333.00
436 0.0000 186160.00 191022.00 3331.00
437 0.0000 187140.00 190627.00 3329.00
438 0.0000 183219.00 187256.00 3327.00
439 0.0000 184065.00 183000.00 3326.00
440 0.0000 181334.00 179395.00 3324.00
441 0.0000 179849.00 176882.00 3322.00
442 0.0000 178469.00 175760.00 3320.00
443 0.0000 176132.00 176566.00 3317.00
444 0.0000 171681.00 179836.00 3316.00
445 0.0000 179068.00 185980.00 3313.00
446 0.0000 185712.00 194242.00 3311.00
447 0.0000 193810.00 201902.00 3309.00
448 0.0000 198784.00 205204.00 3307.00
449 0.0000 195617.00 202416.00 3305.00
450 0.0000 186657.00 195020.00 3302.00
451 0.0000 180900.00 185611.00 3300.00
452 0.0000 171466.00 176800.00 3298.00
453 0.0000 166926.00 170200.00 3295.00
454 0.0000 159049.00 165953.00 3293.00
455 0.0000 156457.00 163240.00 3291.00
456 0.0000 150366.00 160940.00 3289.00
457 0.0000 153209.00 158503.00 3287.00
458 0.0000 147165.00 156120.00 3284.00
459 0.0000 146818.00 154139.00 3282.00
460 0.0000 142944.00 152829.00 3280.00
461 0.0000 142973.00 152215.00 3278.00
462 0.0000 147576.00 152153.00 3275.00
463 0.0000 148191.00 152445.00 3273.00
464 0.0000 149655.00 152888.00 3271.00
465 0.0000 151716.00 153397.00 3269.00
466 0.0000 156034.00 154068.00 3267.00
467 0.0000 153940.00 155099.00 3265.00
468 0.0000 152682.00 156601.00 3262.00
469 0.0000 154766.00 158596.00 3261.00
470 0.0000 156317.00 161226.00 3258.00
471 0.0000 158884.00 164913.00 3257.00
472 0.0000 168598.00 169927.00 3254.00
473 0.0000 173596.00 175643.00 3252.00
474 0.0000 180626.00 180269.00 3251.00
475 0.0000 183452.00 181879.00 3249.00
476 0.0000 182519.00 180211.00 3248.00
477 0.0000 179627.00 176445.00 3246.00
478 0.0000 171177.00 171920.00 3244.00
479 0.0000 164824.00 168033.00 3244.00
480 0.0000 164841.00 165791.00 3242.00
481 0.0000 164334.00 165352.00 3242.00
482 0.0000 166005.00 166347.00 3240.00
483 0.0000 168718.00 167986.00 3238.00
484 0.0000 163624.00 169416.00 3238.00
485 0.0000 166413.00 170521.00 3237.00
486 0.0000 163261.00 172043.00 3237.00
487 0.0000 169635.00 174630.00 3236.00
488 0.0000 176520.00 178460.00 3234.00
489 0.0000 183296.00 183171.00 3234.00
490 0.0000 188349.00 187198.00 3233.00
491 0.0000 190720.00 188080.00 3233.00
492 0.0000 186918.00 184708.00 3232.00
493 0.0000 182514.00 178491.00 3230.00
494 0.0000 169292.00 171882.00 3231.00
495 0.0000 161955.00 166837.00 3230.00
496 0.0000 157885.00 163932.00 3230.00
497 0.0000 157943.00 162464.00 3229.00
498 0.0000 158309.00 161515.00 3227.00
499 0.0000 156863.00 161015.00 3228.00
500 0.0000 153506.00 161408.00 3226.00
501 0.0000 158945.00 162825.00 3226.00
502 0.0000 164835.00 164618.00 3225.00
503 0.0000 166504.00 165838.00 3224.00
504 0.0000 169117.00 165995.00 3224.00
505 0.0000 164289.00 164967.00 3223.00
506 0.0000 160052.00 162891.00 3224.00
507 0.0000 156525.00 160389.00 3223.00
508 0.0000 153285.00 158221.00 3222.00
509 0.0000 149433.00 156660.00 3223.00
510 0.0000 148568.00 155570.00 3222.00
511 0.0000 149897.00 154656.00 3223.00
512 0.0000 150596.00 153834.00 3223.00
513 0.0000 149680.00 153202.00 3222.00
514 0.0000 147908.00 153050.00 3223.00
515 0.0000 147763.00 153782.00 3223.00
516 0.0000 147570.00 155598.00 3224.00
517 0.0000 149976.00 158185.00 3224.00
518 0.0000 154689.00 160631.00 3223.00
519 0.0000 156483.00 161833.00 3224.00
520 0.0000 156543.00 161275.00 3224.00
521 0.0000 156156.00 159323.00 3225.00
522 0.0000 153933.00 156829.00 3224.00
523 0.0000 152330.00 154663.00 3224.00
524 0.0000 150687.00 153411.00 3225.00
525 0.0000 147046.00 153349.00 3225.00
526 0.0000 151145.00 154432.00 3226.00
527 0.0000 160284.00 156280.00 3226.00
528 0.0000 159787.00 158115.00 3225.00
529 0.0000 157888.00 159070.00 3226.00
530 0.0000 158869.00 159100.00 3226.00
531 0.0000 159583.00 159493.00 3227.00
532 0.0000 160405.00 162035.00 3227.00
533 0.0000 168073.00 167823.00 3226.00
534 0.0000 172600.00 176292.00 3228.00
535 0.0000 179029.00 184904.00 3227.00
536 0.0000 182561.00 189958.00 3228.00
537 0.0000 180845.00 189015.00 3228.00
538 0.0000 177578.00 182791.00 3228.00
539 0.0000 172935.00 174593.00 3229.00
540 0.0000 168096.00 167936.00 3228.00
541 0.0000 165060.00 164938.00 3230.00
542 0.0000 166367.00 165892.00 3229.00
543 0.0000 171520.00 169576.00 3229.00
544 0.0000 174314.00 174141.00 3230.00
545 0.0000 179493.00 178282.00 3229.00
546 0.0000 180946.00 182162.00 3230.00
547 0.0000 186551.00 186868.00 3230.00
548 0.0000 190893.00 193550.00 3229.00
549 0.0000 197471.00 202624.00 3230.00
550 0.0000 206698.00 212441.00 3229.00
551 0.0000 215462.00 219755.00 3230.00
552 0.0000 218320.00 221760.00 3229.00
553 0.0000 214545.00 216601.00 3229.00
554 0.0000 203931.00 204606.00 3229.00
555 0.0000 187252.00 189522.00 3229.00
556 0.0000 172165.00 175803.00 3229.00
557 0.0000 163386.00 165989.00 3229.00
558 0.0000 164395.00 160445.00 3228.00
559 0.0000 160570.00 158298.00 3228.00
560 0.0000 161228.00 158633.00 3227.00
561 0.0000 158968.00 160822.00 3227.00
562 0.0000 162747.00 164225.00 3226.00
563 0.0000 170047.00 168191.00 3225.00
564 0.0000 174836.00 172085.00 3225.00
565 0.0000 178259.00 175137.00 3224.00
566 0.0000 184950.00 176795.00 3224.00
567 0.0000 180452.00 177559.00 3223.00
568 0.0000 178135.00 178511.00 3222.00
569 0.0000 175973.00 179960.00 3222.00
570 0.0000 177922.00 180982.00 3220.00
571 0.0000 180726.00 180212.00 3220.00
572 0.0000 176977.00 177522.00 3219.00
573 0.0000 172189.00 174155.00 3218.00
574 0.0000 166205.00 171128.00 3218.00
575 0.0000 162554.00 168227.00 3217.00
576 0.0000 160002.00 164675.00 3216.00
577 0.0000 160182.00 160387.00 3215.00
578 0.0000 155863.00 156131.00 3214.00
579 0.0000 153649.00 152813.00 3214.00
580 0.0000 148693.00 150894.00 3213.00
581 0.0000 150481.00 150346.00 3213.00
582 0.0000 151058.00 150873.00 3212.00
583 0.0000 151471.00 152223.00 3211.00
584 0.0000 156497.00 154358.00 3211.00
585 0.0000 159855.00 157359.00 3211.00
586 0.0000 163894.00 160999.00 3211.00
587 0.0000 166713.00 164436.00 3210.00
588 0.0000 168095.00 166546.00 3209.00
589 0.0000 170099.00 166961.00 3210.00
590 0.0000 172499.00 166199.00 3209.00
591 0.0000 169456.00 164831.00 3209.00
592 0.0000 169194.00 163234.00 3209.00
593 0.0000 164821.00 161924.00 3208.00
594 0.0000 166645.00 161201.00 3209.00
595 0.0000 161573.00 160890.00 3208.00
596 0.0000 164457.00 160753.00 3209.00
597 0.0000 168006.00 161085.00 3208.00
598 0.0000 167638.00 162360.00 3208.00
599 0.0000 165290.00 164648.00 3209.00
600 0.0000 168788.00 167779.00 3208.00
601 0.0000 171408.00 171654.00 3209.00
602 0.0000 181884.00 176348.00 3208.00
603 0.0000 185628.00 181738.00 3208.00
604 0.0000 190844.00 187196.00 3209.00
605 0.0000 196440.00 191786.00 3208.00
606 0.0000 199779.00 194236.00 3209.00
607 0.0000 200117.00 193452.00 3209.00
608 0.0000 196100.00 190226.00 3208.00
609 0.0000 185803.00 187415.00 3209.00
610 0.0000 184914.00 187229.00 3209.00
611 0.0000 189488.00 189364.00 3209.00
612 0.0000 191991.00 191287.00 3209.00
613 0.0000 191501.00 190323.00 3208.00
614 0.0000 186928.00 186013.00 3209.00
615 0.0000 180525.00 179529.00 3209.00
616 0.0000 171915.00 172491.00 3210.00
617 0.0000 163117.00 166533.00 3209.00
618 0.0000 165176.00 163167.00 3208.00
619 0.0000 167683.00 163095.00 3209.00
620 0.0000 168823.00 166148.00 3209.00
621 0.0000 176048.00 170989.00 3209.00
622 0.0000 181251.00 175354.00 3209.00
623 0.0000 184226.00 176943.00 3208.00
624 0.0000 186936.00 174514.00 3209.00
625 0.0000 179153.00 168908.00 3208.00
626 0.0000 166683.00 162334.00 3209.00
627 0.0000 159047.00 156595.00 3209.00
628 0.0000 152988.00 152556.00 3208.00
629 0.0000 154348.00 150427.00 3209.00
630 0.0000 154102.00 150130.00 3208.00
631 0.0000 151575.00 151543.00 3209.00
632 0.0000 155625.00 154467.00 3208.00
633 0.0000 155441.00 158371.00 3208.00
634 0.0000 157883.00 162284.00 3208.00
635 0.0000 160487.00 164966.00 3208.00
636 0.0000 161721.00 165438.00 3208.00
637 0.0000 163604.00 163881.00 3207.00
638 0.0000 163636.00 161431.00 3207.00
639 0.0000 164423.00 159268.00 3207.00
640 0.0000 162404.00 157998.00 3206.00
641 0.0000 162703.00 157471.00 3207.00
642 0.0000 162417.00 157262.00 3206.00
643 0.0000 161392.00 157561.00 3205.00
644 0.0000 162138.00 158877.00 3205.00
645 0.0000 166052.00 161258.00 3205.00
646 0.0000 166682.00 163942.00 3205.00
647 0.0000 171575.00 165753.00 3204.00
648 0.0000 170485.00 166131.00 3203.00
649 0.0000 170705.00 166061.00 3203.00
650 0.0000 168673.00 167382.00 3202.00
651 0.0000 170741.00 171739.00 3202.00
652 0.0000 179012.00 180288.00 3201.00
653 0.0000 197612.00 193232.00 3200.00
654 0.0000 214233.00 208747.00 3199.00
655 0.0000 225709.00 222290.00 3198.00
656 0.0000 232354.00 227910.00 3198.00
657 0.0000 227244.00 223269.00 3197.00
658 0.0000 217176.00 213177.00 3196.00
659 0.0000 207602.00 205690.00 3195.00
660 0.0000 204971.00 206620.00 3194.00
661 0.0000 212979.00 216527.00 3193.00
662 0.0000 227814.00 230430.00 3192.00
663 0.0000 240195.00 240062.00 3191.00
664 0.0000 241702.00 238997.00 3190.00
665 0.0000 226112.00 227274.00 3189.00
666 0.0000 209814.00 210022.00 3188.00
667 0.0000 190377.00 192856.00 3186.00
668 0.0000 176738.00 178753.00 3185.00
669 0.0000 164438.00 168212.00 3184.00
670 0.0000 155142.00 160782.00 3182.00
671 0.0000 149361.00 155881.00 3181.00
672 0.0000 150927.00 152711.00 3179.00
673 0.0000 147844.00 150719.00 3178.00
674 0.0000 143493.00 149500.00 3177.00
675 0.0000 142175.00 148852.00 3175.00
676 0.0000 148040.00 148756.00 3173.00
677 0.0000 154744.00 149378.00 3171.00
678 0.0000 160765.00 151021.00 3170.00
679 0.0000 166109.00 153897.00 3168.00
680 0.0000 167268.00 157992.00 3167.00
681 0.0000 172437.00 163107.00 3165.00
682 0.0000 176841.00 168975.00 3163.00
683 0.0000 185854.00 175378.00 3162.00
684 0.0000 185306.00 181575.00 3160.00
685 0.0000 188672.00 185994.00 3158.00
686 0.0000 187494.00 187335.00 3156.00
687 0.0000 187807.00 185445.00 3155.00
688 0.0000 185812.00 180723.00 3153.00
689 0.0000 177038.00 174130.00 3152.00
690 0.0000 168630.00 167859.00 3150.00
691 0.0000 164830.00 164355.00 3148.00
692 0.0000 169141.00 165286.00 3147.00
693 0.0000 169321.00 170873.00 3145.00
694 0.0000 179934.00 179594.00 3144.00
695 0.0000 186091.00 188422.00 3142.00
696 0.0000 194639.00 193607.00 3141.00
697 0.0000 197591.00 192267.00 3139.00
698 0.0000 190749.00 184857.00 3138.00
699 0.0000 178667.00 174881.00 3137.00
700 0.0000 170149.00 165872.00 3135.00
701 0.0000 166732.00 159656.00 3134.00
702 0.0000 164718.00 156306.00 3133.00
703 0.0000 165119.00 154798.00 3132.00
704 0.0000 164986.00 153862.00 3131.00
705 0.0000 163089.00 152594.00 3130.00
706 0.0000 158127.00 150764.00 3129.00
707 0.0000 152540.00 148747.00 3128.00
708 0.0000 149203.00 146947.00 3127.00
709 0.0000 145731.00 145692.00 3126.00
710 0.0000 147772.00 145229.00 3125.00
711 0.0000 153971.00 145861.00 3125.00
712 0.0000 152107.00 148312.00 3124.00
713 0.0000 162167.00 153758.00 3124.00
714 0.0000 167259.00 163406.00 3123.00
715 0.0000 181591.00 177797.00 3123.00
716 0.0000 198569.00 195485.00 3123.00
717 0.0000 212704.00 212394.00 3123.00
718 0.0000 225168.00 222442.00 3122.00
719 0.0000 222198.00 221196.00 3123.00
720 0.0000 213872.00 210153.00 3123.00
721 0.0000 197034.00 195105.00 3123.00
722 0.0000 180428.00 181113.00 3123.00
723 0.0000 170979.00 170419.00 3123.00
724 0.0000 161716.00 162952.00 3124.00
725 0.0000 158785.00 157906.00 3124.00
726 0.0000 155073.00 154465.00 3125.00
727 0.0000 155657.00 151939.00 3125.00
728 0.0000 153372.00 149877.00 3126.00
729 0.0000 153982.00 148199.00 3127.00
730 0.0000 153024.00 147179.00 3128.00
731 0.0000 154331.00 147263.00 3129.00
732 0.0000 155634.00 148819.00 3130.00
733 0.0000 161335.00 151941.00 3130.00
734 0.0000 165357.00 156355.00 3132.00
735 0.0000 168805.00 161349.00 3133.00
736 0.0000 173124.00 166100.00 3135.00
737 0.0000 172989.00 170012.00 3136.00
738 0.0000 173381.00 172500.00 3137.00
739 0.0000 178696.00 173080.00 3139.00
740 0.0000 177014.00 171239.00 3140.00
741 0.0000 173300.00 166813.00 3143.00
742 0.0000 166768.00 160695.00 3143.00
743 0.0000 160506.00 154484.00 3144.00
744 0.0000 154789.00 149440.00 3147.00
745 0.0000 149111.00 146243.00 3148.00
746 0.0000 144807.00 144943.00 3151.00
747 0.0000 148136.00 145408.00 3152.00
748 0.0000 151788.00 147255.00 3153.00
749 0.0000 153805.00 150201.00 3156.00
750 0.0000 156399.00 153779.00 3157.00
751 0.0000 160479.00 157404.00 3160.00
752 0.0000 163057.00 160642.00 3161.00
753 0.0000 163270.00 163554.00 3162.00
754 0.0000 167183.00 166311.00 3165.00
755 0.0000 175322.00 169011.00 3166.00
756 0.0000 179513.00 171876.00 3169.00
757 0.0000 184740.00 176450.00 3170.00
758 0.0000 188222.00 184154.00 3171.00
759 0.0000 197705.00 194753.00 3174.00
760 0.0000 204842.00 205928.00 3175.00
761 0.0000 211388.00 214339.00 3178.00
762 0.0000 215693.00 218360.00 3179.00
763 0.0000 215367.00 218761.00 3180.00
764 0.0000 213278.00 216029.00 3183.00
765 0.0000 206476.00 209487.00 3184.00
766 0.0000 198460.00 199490.00 3187.00
767 0.0000 187082.00 188383.00 3187.00
768 0.0000 178232.00 178201.00 3188.00
769 0.0000 167357.00 169618.00 3191.00
770 0.0000 158492.00 162374.00 3192.00
771 0.0000 156429.00 156409.00 3194.00
772 0.0000 153694.00 152013.00 3195.00
773 0.0000 146541.00 149479.00 3196.00
774 0.0000 146162.00 148797.00 3198.00
775 0.0000 147097.00 149464.00 3198.00
776 0.0000 152999.00 150573.00 3200.00
777 0.0000 153411.00 151048.00 3201.00
778 0.0000 151251.00 150327.00 3201.00
779 0.0000 151159.00 148640.00 3202.00
780 0.0000 153586.00 146655.00 3203.00
781 0.0000 151757.00 145049.00 3204.00
782 0.0000 148804.00 144366.00 3204.00
783 0.0000 150758.00 145032.00 3204.00
784 0.0000 153863.00 147412.00 3205.00
785 0.0000 158689.00 151715.00 3205.00
786 0.0000 159110.00 157659.00 3206.00
787 0.0000 165324.00 164337.00 3206.00
788 0.0000 170843.00 170016.00 3206.00
789 0.0000 176508.00 173636.00 3206.00
790 0.0000 182908.00 175879.00 3206.00
791 0.0000 186463.00 179648.00 3206.00
792 0.0000 193694.00 188090.00 3205.00
793 0.0000 204633.00 201888.00 3204.00
794 0.0000 218374.00 217947.00 3204.00
795 0.0000 232891.00 229943.00 3203.00
796 0.0000 240151.00 231948.00 3202.00
797 0.0000 233994.00 224182.00 3201.00
798 0.0000 219697.00 214034.00 3201.00
799 0.0000 208601.00 210683.00 3200.00
800 0.0000 213742.00 220208.00 3198.00
801 0.0000 230923.00 242638.00 3197.00
802 0.0000 255891.00 270983.00 3196.00
803 0.0000 276872.00 293161.00 3194.00
804 0.0000 284442.00 297366.00 3193.00
805 0.0000 274020.00 280411.00 3191.00
806 0.0000 249396.00 249878.00 3189.00
807 0.0000 218681.00 216803.00 3188.00
808 0.0000 188917.00 189462.00 3187.00
809 0.0000 166165.00 171635.00 3184.00
810 0.0000 160276.00 163369.00 3183.00
811 0.0000 156883.00 162497.00 3180.00
812 0.0000 164375.00 166228.00 3178.00
813 0.0000 169497.00 171694.00 3176.00
814 0.0000 173820.00 176382.00 3173.00
815 0.0000 179475.00 178569.00 3171.00
816 0.0000 177806.00 177883.00 3167.00
817 0.0000 176557.00 175116.00 3165.00
818 0.0000 173802.00 171586.00 3163.00
819 0.0000 170741.00 168232.00 3159.00
820 0.0000 170598.00 165381.00 3157.00
821 0.0000 161678.00 163470.00 3153.00
822 0.0000 162072.00 163021.00 3151.00
823 0.0000 166874.00 163923.00 3149.00
824 0.0000 168539.00 165026.00 3144.00
825 0.0000 168817.00 164714.00 3142.00
826 0.0000 168888.00 162163.00 3138.00
827 0.0000 168221.00 158151.00 3135.00
828 0.0000 160702.00 154425.00 3133.00
829 0.0000 159489.00 153021.00 3129.00
830 0.0000 159514.00 156111.00 3126.00
831 0.0000 169375.00 165910.00 3122.00
832 0.0000 184529.00 183971.00 3119.00
833 0.0000 208598.00 209643.00 3116.00
834 0.0000 240381.00 238571.00 3112.00
835 0.0000 259538.00 262566.00 3109.00
836 0.0000 272408.00 272413.00 3105.00
837 0.0000 269358.00 264564.00 3102.00
838 0.0000 250152.00 244934.00 3099.00
839 0.0000 225969.00 223137.00 3095.00
840 0.0000 209396.00 206158.00 3093.00
841 0.0000 198083.00 196029.00 3088.00
842 0.0000 195844.00 190562.00 3086.00
843 0.0000 193435.00 185941.00 3083.00
844 0.0000 180833.00 179302.00 3079.00
845 0.0000 168079.00 170428.00 3077.00
846 0.0000 159084.00 161240.00 3073.00
847 0.0000 151915.00 153507.00 3070.00
848 0.0000 150151.00 148194.00 3068.00
849 0.0000 143979.00 145419.00 3064.00
850 0.0000 144010.00 144725.00 3062.00
851 0.0000 143303.00 145521.00 3058.00
852 0.0000 146487.00 147142.00 3055.00
853 0.0000 148407.00 148812.00 3053.00
854 0.0000 156238.00 149905.00 3049.00
855 0.0000 156550.00 149758.00 3047.00
856 0.0000 149179.00 148403.00 3044.00
857 0.0000 144460.00 146480.00 3042.00
858 0.0000 143231.00 144710.00 3040.00
859 0.0000 144592.00 143605.00 3036.00
860 0.0000 142471.00 143393.00 3034.00
861 0.0000 146365.00 144019.00 3031.00
862 0.0000 149127.00 145342.00 3029.00
863 0.0000 154283.00 147236.00 3027.00
864 0.0000 152735.00 149747.00 3024.00
865 0.0000 159024.00 153118.00 3022.00
866 0.0000 160270.00 157921.00 3019.00
867 0.0000 168877.00 164610.00 3017.00
868 0.0000 178776.00 172920.00 3015.00
869 0.0000 189646.00 181579.00 3012.00
870 0.0000 200399.00 188704.00 3010.00
871 0.0000 203242.00 192864.00 3008.00
872 0.0000 201481.00 193723.00 3006.00
873 0.0000 198343.00 191523.00 3004.00
874 0.0000 192441.00 186697.00 3001.00
875 0.0000 186788.00 179871.00 2999.00
876 0.0000 180171.00 171743.00 2997.00
877 0.0000 171511.00 163481.00 2995.00
878 0.0000 161222.00 156402.00 2993.00
879 0.0000 152525.00 151257.00 2991.00
880 0.0000 151014.00 148123.00 2989.00
881 0.0000 145301.00 146547.00 2986.00
882 0.0000 145118.00 145798.00 2984.00
883 0.0000 143036.00 145207.00 2983.00
884 0.0000 140123.00 144292.00 2980.00
885 0.0000 143542.00 143037.00 2978.00
886 0.0000 143934.00 141627.00 2976.00
887 0.0000 140415.00 140525.00 2974.00
888 0.0000 140985.00 139896.00 2972.00
889 0.0000 142072.00 139953.00 2970.00
890 0.0000 144037.00 140979.00 2968.00
891 0.0000 143553.00 143363.00 2965.00
892 0.0000 147443.00 147543.00 2963.00
893 0.0000 154383.00 153669.00 2961.00
894 0.0000 160182.00 161373.00 2958.00
895 0.0000 166204.00 169433.00 2956.00
896 0.0000 171156.00 176049.00 2953.00
897 0.0000 174122.00 179622.00 2951.00
898 0.0000 177865.00 179460.00 2949.00
899 0.0000 172696.00 175680.00 2946.00
900 0.0000 163599.00 169062.00 2944.00
901 0.0000 157621.00 161269.00 2942.00
902 0.0000 154988.00 154217.00 2940.00
903 0.0000 152455.00 149286.00 2937.00
904 0.0000 152017.00 147207.00 2935.00
905 0.0000 149284.00 148177.00 2933.00
906 0.0000 152457.00 152000.00 2930.00
907 0.0000 157661.00 158125.00 2927.00
908 0.0000 165589.00 165741.00 2925.00
909 0.0000 170292.00 173966.00 2922.00
910 0.0000 180168.00 182341.00 2920.00
911 0.0000 190719.00 191180.00 2917.00
912 0.0000 199704.00 200562.00 2915.00
913 0.0000 208793.00 209104.00 2912.00
914 0.0000 212689.00 214162.00 2910.00
915 0.0000 210522.00 213860.00 2907.00
916 0.0000 204316.00 208475.00 2904.00
917 0.0000 193863.00 199362.00 2902.00
918 0.0000 181175.00 188083.00 2901.00
919 0.0000 172559.00 176637.00 2898.00
920 0.0000 166284.00 167204.00 2896.00
921 0.0000 165110.00 161490.00 2894.00
922 0.0000 166222.00 160317.00 2892.00
923 0.0000 166759.00 163216.00 2890.00
924 0.0000 174164.00 168489.00 2888.00
925 0.0000 177945.00 173463.00 2886.00
926 0.0000 177013.00 175600.00 2884.00
927 0.0000 179367.00 174131.00 2882.00
928 0.0000 179039.00 170849.00 2880.00
929 0.0000 172176.00 168496.00 2878.00
930 0.0000 166299.00 168779.00 2877.00
931 0.0000 165420.00 171429.00 2875.00
932 0.0000 167952.00 174337.00 2873.00
933 0.0000 170153.00 174786.00 2872.00
934 0.0000 169494.00 171543.00 2870.00
935 0.0000 164488.00 165774.00 2868.00
936 0.0000 157083.00 159522.00 2866.00
937 0.0000 153625.00 154205.00 2865.00
938 0.0000 149488.00 150186.00 2864.00
939 0.0000 150765.00 147132.00 2862.00
940 0.0000 145219.00 144618.00 2861.00
941 0.0000 141696.00 142412.00 2860.00
942 0.0000 137735.00 140535.00 2858.00
943 0.0000 136331.00 139075.00 2857.00
944 0.0000 135830.00 138059.00 2856.00
945 0.0000 137389.00 137435.00 2855.00
946 0.0000 136161.00 137101.00 2854.00
947 0.0000 138962.00 136983.00 2853.00
948 0.0000 138656.00 137076.00 2852.00
949 0.0000 138676.00 137356.00 2851.00
950 0.0000 136310.00 137869.00 2851.00
951 0.0000 138140.00 138684.00 2851.00
952 0.0000 141934.00 139776.00 2850.00
953 0.0000 142683.00 140976.00 2850.00
954 0.0000 142376.00 142110.00 2850.00
955 0.0000 143996.00 142971.00 2850.00
956 0.0000 146816.00 143657.00 2850.00
957 0.0000 146851.00 144659.00 2850.00
958 0.0000 144600.00 146575.00 2849.00
959 0.0000 146606.00 149659.00 2850.00
960 0.0000 153061.00 153554.00 2850.00
961 0.0000 159475.00 157347.00 2850.00
962 0.0000 158161.00 159883.00 2851.00
963 0.0000 158895.00 160600.00 2851.00
964 0.0000 157775.00 159819.00 2851.00
965 0.0000 158400.00 157952.00 2852.00
966 0.0000 158138.00 155252.00 2852.00
967 0.0000 155952.00 151975.00 2853.00
968 0.0000 154120.00 148710.00 2853.00
969 0.0000 147174.00 146042.00 2854.00
970 0.0000 144622.00 144156.00 2855.00
971 0.0000 142517.00 142874.00 2856.00
972 0.0000 137944.00 141837.00 2857.00
973 0.0000 136009.00 140864.00 2857.00
974 0.0000 137931.00 140077.00 2859.00
975 0.0000 141134.00 139735.00 2859.00
976 0.0000 147199.00 140029.00 2861.00
977 0.0000 144041.00 140922.00 2861.00
978 0.0000 145575.00 142156.00 2862.00
979 0.0000 146143.00 143213.00 2863.00
980 0.0000 147774.00 143567.00 2864.00
981 0.0000 146324.00 143029.00 2866.00
982 0.0000 146312.00 141890.00 2867.00
983 0.0000 142745.00 140659.00 2868.00
984 0.0000 141503.00 139681.00 2870.00
985 0.0000 140641.00 139252.00 2871.00
986 0.0000 138151.00 139453.00 2874.00
987 0.0000 141485.00 140291.00 2875.00
988 0.0000 144006.00 141649.00 2876.00
989 0.0000 146111.00 143216.00 2879.00
990 0.0000 147497.00 144528.00 2880.00
991 0.0000 148887.00 145142.00 2883.00
992 0.0000 150260.00 145067.00 2885.00
993 0.0000 153449.00 144951.00 2886.00
994 0.0000 155519.00 145832.00 2890.00
995 0.0000 156691.00 148735.00 2891.00
996 0.0000 164990.00 154285.00 2895.00
997 0.0000 173955.00 162403.00 2896.00
998 0.0000 185038.00 172183.00 2898.00
999 0.0000 193050.00 182091.00 2902.00
1000 0.0000 200030.00 190595.00 2904.00
1001 0.0000 202072.00 197019.00 2908.00
1002 0.0000 207255.00 201217.00 2909.00
1003 0.0000 209236.00 202381.00 2911.00
1004 0.0000 207582.00 199286.00 2915.00
1005 0.0000 199727.00 191596.00 2917.00
1006 0.0000 186271.00 180604.00 2921.00
1007 0.0000 169655.00 168797.00 2923.00
1008 0.0000 158683.00 158728.00 2925.00
1009 0.0000 150146.00 152172.00 2929.00
1010 0.0000 150486.00 150066.00 2931.00
1011 0.0000 155052.00 152729.00 2935.00
1012 0.0000 159951.00 159827.00 2937.00
1013 0.0000 171472.00 170100.00 2939.00
1014 0.0000 184821.00 181119.00 2943.00
1015 0.0000 194980.00 189342.00 2945.00
1016 0.0000 196039.00 191371.00 2948.00
1017 0.0000 192177.00 186221.00 2950.00
1018 0.0000 180996.00 176115.00 2952.00
1019 0.0000 164790.00 164517.00 2956.00
1020 0.0000 153580.00 154277.00 2958.00
1021 0.0000 147148.00 146843.00 2962.00
1022 0.0000 143089.00 142327.00 2964.00
1023 0.0000 138767.00 140066.00 2965.00
1024 0.0000 136596.00 139192.00 2969.00
1025 0.0000 137370.00 139004.00 2971.00
1026 0.0000 136499.00 139086.00 2974.00
1027 0.0000 133897.00 139347.00 2976.00
1028 0.0000 139792.00 140082.00 2977.00
1029 0.0000 141152.00 141906.00 2980.00
1030 0.0000 145209.00 145265.00 2981.00
1031 0.0000 146020.00 150474.00 2984.00
1032 0.0000 151340.00 157031.00 2986.00
1033 0.0000 158234.00 163581.00 2987.00
1034 0.0000 162431.00 168066.00 2990.00
1035 0.0000 160685.00 168714.00 2991.00
1036 0.0000 159466.00 165194.00 2993.00
1037 0.0000 155991.00 159101.00 2994.00
1038 0.0000 154710.00 152434.00 2995.00
1039 0.0000 148924.00 146688.00 2998.00
1040 0.0000 143270.00 142565.00 2999.00
1041 0.0000 138356.00 140053.00 3000.00
1042 0.0000 135622.00 138772.00 3001.00
1043 0.0000 135397.00 138374.00 3002.00
1044 0.0000 130636.00 138751.00 3004.00
1045 0.0000 135088.00 140086.00 3005.00
1046 0.0000 139272.00 142821.00 3006.00
1047 0.0000 144794.00 147487.00 3007.00
1048 0.0000 151957.00 154437.00 3008.00
1049 0.0000 161377.00 163581.00 3009.00
1050 0.0000 171606.00 174241.00 3009.00
1051 0.0000 178886.00 185248.00 3011.00
1052 0.0000 186857.00 195450.00 3011.00
1053 0.0000 194256.00 204101.00 3012.00
1054 0.0000 203525.00 210440.00 3012.00
1055 0.0000 206841.00 212892.00 3013.00
1056 0.0000 202132.00 209904.00 3013.00
1057 0.0000 195081.00 201958.00 3014.00
1058 0.0000 186284.00 192380.00 3014.00
1059 0.0000 179301.00 185222.00 3015.00
1060 0.0000 174095.00 183038.00 3015.00
1061 0.0000 178740.00 185712.00 3015.00
1062 0.0000 185388.00 190508.00 3015.00
1063 0.0000 194057.00 193305.00 3015.00
1064 0.0000 192923.00 190922.00 3015.00
1065 0.0000 182642.00 183200.00 3015.00
1066 0.0000 171712.00 172607.00 3015.00
1067 0.0000 162778.00 162168.00 3015.00
1068 0.0000 152107.00 153981.00 3015.00
1069 0.0000 150437.00 148979.00 3015.00
1070 0.0000 148165.00 147077.00 3014.00
1071 0.0000 146851.00 147790.00 3014.00
1072 0.0000 151299.00 150590.00 3013.00
1073 0.0000 156294.00 155125.00 3013.00
1074 0.0000 167304.00 161421.00 3012.00
1075 0.0000 177552.00 170112.00 3012.00
1076 0.0000 192084.00 182442.00 3011.00
1077 0.0000 204610.00 199394.00 3010.00
1078 0.0000 224297.00 220221.00 3010.00
1079 0.0000 241539.00 241758.00 3008.00
1080 0.0000 260142.00 258923.00 3008.00
1081 0.0000 262371.00 267041.00 3006.00
1082 0.0000 261846.00 265658.00 3006.00
1083 0.0000 254295.00 259304.00 3005.00
1084 0.0000 246363.00 253397.00 3004.00
1085 0.0000 241051.00 250710.00 3003.00
1086 0.0000 240418.00 249963.00 3001.00
1087 0.0000 236650.00 246741.00 3001.00
1088 0.0000 229899.00 237188.00 3000.00
1089 0.0000 218805.00 221459.00 2998.00
1090 0.0000 197926.00 203228.00 2998.00
1091 0.0000 181105.00 186333.00 2996.00
1092 0.0000 161412.00 172959.00 2995.00
1093 0.0000 151940.00 163320.00 2994.00
1094 0.0000 145827.00 156390.00 2992.00
1095 0.0000 141213.00 151085.00 2992.00
1096 0.0000 138536.00 146921.00 2990.00
1097 0.0000 137837.00 143743.00 2990.00
1098 0.0000 135219.00 141453.00 2989.00
1099 0.0000 136228.00 139870.00 2987.00
1100 0.0000 135784.00 138751.00 2986.00
1101 0.0000 130501.00 137898.00 2984.00
1102 0.0000 129082.00 137206.00 2984.00
1103 0.0000 129113.00 136633.00 2983.00
1104 0.0000 129757.00 136201.00 2981.00
1105 0.0000 130992.00 135883.00 2981.00
1106 0.0000 132976.00 135669.00 2979.00
1107 0.0000 131052.00 135539.00 2978.00
1108 0.0000 128807.00 135459.00 2978.00
1109 0.0000 128040.00 135457.00 2976.00
1110 0.0000 129439.00 135561.00 2976.00
1111 0.0000 130000.00 135786.00 2974.00
1112 0.0000 134928.00 136102.00 2973.00
1113 0.0000 136511.00 136481.00 2973.00
1114 0.0000 138796.00 136833.00 2972.00
1115 0.0000 139827.00 137044.00 2972.00
1116 0.0000 136431.00 137011.00 2970.00
1117 0.0000 135156.00 136765.00 2970.00
1118 0.0000 135164.00 136425.00 2970.00
1119 0.0000 132904.00 136088.00 2969.00
1120 0.0000 131595.00 135839.00 2969.00
1121 0.0000 129908.00 135718.00 2968.00
1122 0.0000 132319.00 135743.00 2968.00
1123 0.0000 135723.00 135979.00 2968.00
1124 0.0000 134657.00 136505.00 2967.00
1125 0.0000 136524.00 137607.00 2967.00
1126 0.0000 135686.00 139672.00 2967.00
1127 0.0000 144056.00 143238.00 2967.00
1128 0.0000 150022.00 148583.00 2967.00
1129 0.0000 160067.00 155716.00 2967.00
1130 0.0000 171600.00 163986.00 2967.00
1131 0.0000 177656.00 172170.00 2966.00
1132 0.0000 183181.00 178914.00 2967.00
1133 0.0000 184934.00 183636.00 2967.00
1134 0.0000 183641.00 186826.00 2966.00
1135 0.0000 188640.00 189429.00 2967.00
1136 0.0000 191993.00 191857.00 2966.00
1137 0.0000 196071.00 194305.00 2967.00
1138 0.0000 199445.00 196363.00 2967.00
1139 0.0000 200150.00 197231.00 2967.00
1140 0.0000 199090.00 196211.00 2967.00
1141 0.0000 195687.00 192839.00 2966.00
1142 0.0000 191394.00 187582.00 2967.00
1143 0.0000 186557.00 182049.00 2967.00
1144 0.0000 179528.00 177936.00 2967.00
1145 0.0000 176784.00 175772.00 2968.00
1146 0.0000 172744.00 174639.00 2968.00
1147 0.0000 169551.00 172846.00 2968.00
1148 0.0000 168594.00 169257.00 2968.00
1149 0.0000 162603.00 164286.00 2968.00
1150 0.0000 156830.00 159212.00 2968.00
1151 0.0000 152591.00 155459.00 2968.00
1152 0.0000 149976.00 154201.00 2968.00
1153 0.0000 155111.00 155897.00 2968.00
1154 0.0000 158374.00 160035.00 2967.00
1155 0.0000 162033.00 165118.00 2967.00
1156 0.0000 167314.00 169032.00 2966.00
1157 0.0000 165235.00 169914.00 2966.00
1158 0.0000 165183.00 167450.00 2966.00
1159 0.0000 167429.00 163221.00 2965.00
1160 0.0000 166736.00 159455.00 2965.00
1161 0.0000 161777.00 157773.00 2964.00
1162 0.0000 161834.00 158536.00 2964.00
1163 0.0000 160720.00 160778.00 2963.00
1164 0.0000 162083.00 162669.00 2962.00
1165 0.0000 160130.00 162460.00 2962.00
1166 0.0000 155639.00 159639.00 2960.00
1167 0.0000 151595.00 155135.00 2960.00
1168 0.0000 149378.00 150456.00 2959.00
1169 0.0000 146223.00 146968.00 2957.00
1170 0.0000 147157.00 145663.00 2957.00
1171 0.0000 148356.00 147216.00 2955.00
1172 0.0000 150246.00 152128.00 2955.00
1173 0.0000 162919.00 160715.00 2954.00
1174 0.0000 173302.00 172890.00 2952.00
1175 0.0000 185115.00 187834.00 2952.00
1176 0.0000 199296.00 203706.00 2949.00
1177 0.0000 212574.00 218084.00 2948.00
1178 0.0000 222477.00 228598.00 2948.00
1179 0.0000 224396.00 233031.00 2945.00
1180 0.0000 224070.00 229683.00 2945.00
1181 0.0000 214586.00 218659.00 2942.00
1182 0.0000 203865.00 202879.00 2941.00
1183 0.0000 188731.00 186557.00 2941.00
1184 0.0000 176888.00 172963.00 2938.00
1185 0.0000 164903.00 163457.00 2937.00
1186 0.0000 160759.00 157575.00 2934.00
1187 0.0000 153722.00 153886.00 2933.00
1188 0.0000 150729.00 150964.00 2932.00
1189 0.0000 150879.00 148199.00 2930.00
1190 0.0000 149796.00 145619.00 2929.00
1191 0.0000 144300.00 143490.00 2925.00
1192 0.0000 139188.00 142136.00 2924.00
1193 0.0000 137755.00 141945.00 2923.00
1194 0.0000 136496.00 143297.00 2920.00
1195 0.0000 143586.00 146611.00 2919.00
1196 0.0000 151505.00 152329.00 2916.00
1197 0.0000 163027.00 160508.00 2915.00
1198 0.0000 171239.00 170544.00 2914.00
1199 0.0000 179858.00 180904.00 2911.00
1200 0.0000 190368.00 189141.00 2910.00
1201 0.0000 193964.00 192639.00 2906.00
1202 0.0000 194694.00 190355.00 2905.00
1203 0.0000 186283.00 183665.00 2904.00
1204 0.0000 177381.00 175054.00 2901.00
1205 0.0000 165234.00 166508.00 2900.00
1206 0.0000 157642.00 158972.00 2897.00
1207 0.0000 150032.00 152703.00 2896.00
1208 0.0000 143905.00 147747.00 2895.00
1209 0.0000 141438.00 144054.00 2892.00
1210 0.0000 140476.00 141511.00 2891.00
1211 0.0000 140414.00 139938.00 2888.00
1212 0.0000 140925.00 139155.00 2887.00
1213 0.0000 141996.00 138896.00 2886.00
1214 0.0000 143942.00 138942.00 2882.00
1215 0.0000 143282.00 139128.00 2881.00
1216 0.0000 139683.00 139349.00 2878.00
1217 0.0000 138453.00 139554.00 2877.00
1218 0.0000 140052.00 139732.00 2876.00
1219 0.0000 143087.00 139911.00 2873.00
1220 0.0000 145554.00 140245.00 2872.00
1221 0.0000 143499.00 140988.00 2869.00
1222 0.0000 147122.00 142609.00 2869.00
1223 0.0000 145918.00 145792.00 2868.00
1224 0.0000 149925.00 151303.00 2865.00
1225 0.0000 157289.00 159652.00 2864.00
1226 0.0000 168440.00 170631.00 2861.00
1227 0.0000 179714.00 182942.00 2861.00
1228 0.0000 189077.00 194063.00 2860.00
1229 0.0000 196095.00 201109.00 2857.00
1230 0.0000 199073.00 201987.00 2857.00
1231 0.0000 192697.00 196719.00 2855.00
1232 0.0000 182347.00 187313.00 2854.00
1233 0.0000 172608.00 176424.00 2854.00
1234 0.0000 163184.00 166580.00 2852.00
1235 0.0000 160710.00 159446.00 2851.00
1236 0.0000 157268.00 155797.00 2849.00
1237 0.0000 155177.00 155413.00 2849.00
1238 0.0000 156040.00 157474.00 2849.00
1239 0.0000 158325.00 160828.00 2847.00
1240 0.0000 158511.00 164234.00 2846.00
1241 0.0000 163539.00 166434.00 2844.00
1242 0.0000 167107.00 166525.00 2844.00
1243 0.0000 165417.00 164228.00 2844.00
1244 0.0000 160014.00 159942.00 2842.00
1245 0.0000 154955.00 154550.00 2842.00
1246 0.0000 146903.00 149049.00 2840.00
1247 0.0000 141807.00 144222.00 2840.00
1248 0.0000 140010.00 140494.00 2839.00
1249 0.0000 135862.00 137919.00 2838.00
1250 0.0000 134312.00 136330.00 2837.00
1251 0.0000 135247.00 135449.00 2836.00
1252 0.0000 133057.00 135041.00 2836.00
1253 0.0000 132732.00 134928.00 2836.00
1254 0.0000 134263.00 134984.00 2834.00
1255 0.0000 133822.00 135115.00 2834.00
1256 0.0000 136307.00 135203.00 2833.00
1257 0.0000 132535.00 135237.00 2833.00
1258 0.0000 133300.00 135147.00 2834.00
1259 0.0000 133566.00 134954.00 2832.00
1260 0.0000 135269.00 134711.00 2833.00
1261 0.0000 136959.00 134485.00 2832.00
1262 0.0000 136659.00 134308.00 2832.00
1263 0.0000 136297.00 134191.00 2833.00
1264 0.0000 135146.00 134128.00 2832.00
1265 0.0000 135248.00 134108.00 2833.00
1266 0.0000 133788.00 134116.00 2832.00
1267 0.0000 136591.00 134145.00 2833.00
1268 0.0000 135700.00 134195.00 2834.00
1269 0.0000 135191.00 134269.00 2834.00
1270 0.0000 133558.00 134385.00 2835.00
1271 0.0000 133379.00 134582.00 2835.00
1272 0.0000 137310.00 134945.00 2835.00
1273 0.0000 140404.00 135642.00 2836.00
1274 0.0000 140828.00 136974.00 2837.00
1275 0.0000 143135.00 139414.00 2838.00
1276 0.0000 145442.00 143570.00 2838.00
1277 0.0000 147709.00 149990.00 2839.00
1278 0.0000 151796.00 158791.00 2841.00
1279 0.0000 167005.00 169247.00 2841.00
1280 0.0000 182267.00 179593.00 2843.00
1281 0.0000 190689.00 187215.00 2844.00
1282 0.0000 191950.00 189489.00 2845.00
1283 0.0000 188908.00 185408.00 2847.00
1284 0.0000 178116.00 176511.00 2848.00
1285 0.0000 165917.00 165771.00 2850.00
1286 0.0000 156672.00 155631.00 2851.00
1287 0.0000 147807.00 147726.00 2853.00
1288 0.0000 143873.00 142596.00 2854.00
1289 0.0000 137233.00 140040.00 2856.00
1290 0.0000 133959.00 139573.00 2858.00
1291 0.0000 135072.00 140672.00 2859.00
1292 0.0000 142506.00 142806.00 2861.00
1293 0.0000 147875.00 145358.00 2863.00
1294 0.0000 150096.00 147608.00 2865.00
1295 0.0000 152478.00 148850.00 2867.00
1296 0.0000 154651.00 148740.00 2869.00
1297 0.0000 156798.00 147632.00 2871.00
1298 0.0000 152136.00 146339.00 2873.00
1299 0.0000 149816.00 145769.00 2875.00
1300 0.0000 145809.00 146550.00 2877.00
1301 0.0000 149660.00 148895.00 2879.00
1302 0.0000 154957.00 152518.00 2881.00
1303 0.0000 160954.00 156656.00 2883.00
1304 0.0000 163167.00 160144.00 2885.00
1305 0.0000 162696.00 161705.00 2887.00
1306 0.0000 161755.00 160599.00 2888.00
1307 0.0000 158298.00 157194.00 2890.00
1308 0.0000 154039.00 152617.00 2893.00
1309 0.0000 149509.00 148011.00 2894.00
1310 0.0000 145376.00 144038.00 2896.00
1311 0.0000 139870.00 140960.00 2898.00
1312 0.0000 140549.00 138721.00 2900.00
1313 0.0000 140228.00 137140.00 2902.00
1314 0.0000 139851.00 136037.00 2903.00
1315 0.0000 138578.00 135281.00 2905.00
1316 0.0000 141371.00 134786.00 2906.00
1317 0.0000 137861.00 134488.00 2908.00
1318 0.0000 138297.00 134338.00 2910.00
1319 0.0000 137158.00 134296.00 2911.00
1320 0.0000 138023.00 134338.00 2913.00
1321 0.0000 135558.00 134464.00 2914.00
1322 0.0000 136881.00 134675.00 2916.00
1323 0.0000 141167.00 134971.00 2918.00
1324 0.0000 141901.00 135382.00 2919.00
1325 0.0000 139187.00 135933.00 2921.00
1326 0.0000 139060.00 136649.00 2922.00
1327 0.0000 142716.00 137557.00 2924.00
1328 0.0000 143117.00 138682.00 2926.00
1329 0.0000 143460.00 140061.00 2927.00
1330 0.0000 142741.00 141768.00 2928.00
1331 0.0000 140967.00 143978.00 2929.00
1332 0.0000 142214.00 147066.00 2931.00
1333 0.0000 146041.00 151717.00 2932.00
1334 0.0000 153054.00 158939.00 2933.00
1335 0.0000 160813.00 169829.00 2935.00
1336 0.0000 172499.00 184966.00 2935.00
1337 0.0000 192607.00 203614.00 2937.00
1338 0.0000 213899.00 223135.00 2938.00
1339 0.0000 226917.00 239219.00 2938.00
1340 0.0000 233977.00 246877.00 2940.00
1341 0.0000 227764.00 243188.00 2940.00
1342 0.0000 213902.00 229588.00 2941.00
1343 0.0000 196924.00 210700.00 2943.00
1344 0.0000 180341.00 191357.00 2943.00
1345 0.0000 166945.00 174857.00 2945.00
1346 0.0000 155057.00 162515.00 2945.00
1347 0.0000 144393.00 154081.00 2946.00
1348 0.0000 138130.00 148612.00 2947.00
1349 0.0000 135028.00 145144.00 2948.00
1350 0.0000 136087.00 142956.00 2949.00
1351 0.0000 136132.00 141576.00 2949.00
1352 0.0000 141183.00 140725.00 2950.00
1353 0.0000 140786.00 140243.00 2952.00
1354 0.0000 139991.00 140098.00 2952.00
1355 0.0000 140578.00 140323.00 2953.00
1356 0.0000 144856.00 140947.00 2954.00
1357 0.0000 145194.00 141989.00 2955.00
1358 0.0000 147944.00 143551.00 2956.00
1359 0.0000 152922.00 145932.00 2956.00
1360 0.0000 162522.00 149616.00 2958.00
1361 0.0000 169182.00 154946.00 2958.00
1362 0.0000 174078.00 161772.00 2960.00
1363 0.0000 179130.00 169116.00 2961.00
1364 0.0000 181216.00 175210.00 2962.00
1365 0.0000 184011.00 177979.00 2963.00
1366 0.0000 177731.00 176153.00 2964.00
1367 0.0000 171430.00 170317.00 2966.00
1368 0.0000 163998.00 162455.00 2967.00
1369 0.0000 156181.00 154744.00 2968.00
1370 0.0000 148403.00 148804.00 2970.00
1371 0.0000 142431.00 145498.00 2971.00
1372 0.0000 145058.00 144990.00 2973.00
1373 0.0000 146372.00 146992.00 2974.00
1374 0.0000 150734.00 150911.00 2976.00
1375 0.0000 156563.00 155679.00 2977.00
1376 0.0000 156773.00 160072.00 2979.00
1377 0.0000 160840.00 162656.00 2981.00
1378 0.0000 159271.00 162332.00 2982.00
1379 0.0000 159491.00 159066.00 2984.00
1380 0.0000 155861.00 153913.00 2986.00
1381 0.0000 148795.00 148271.00 2988.00
1382 0.0000 143629.00 143247.00 2990.00
1383 0.0000 136977.00 139432.00 2992.00
1384 0.0000 135767.00 136914.00 2994.00
1385 0.0000 132137.00 135468.00 2997.00
1386 0.0000 131110.00 134774.00 2999.00
1387 0.0000 133980.00 134551.00 3001.00
1388 0.0000 133980.00 134604.00 3004.00
1389 0.0000 137979.00 134798.00 3007.00
1390 0.0000 134722.00 135023.00 3009.00
1391 0.0000 135183.00 135173.00 3012.00
1392 0.0000 137423.00 135173.00 3015.00
1393 0.0000 139414.00 135001.00 3018.00
1394 0.0000 136674.00 134726.00 3021.00
1395 0.0000 132751.00 134390.00 3024.00
1396 0.0000 132816.00 134081.00 3027.00
1397 0.0000 136101.00 133796.00 3030.00
1398 0.0000 137819.00 133631.00 3033.00
1399 0.0000 140017.00 133530.00 3037.00
1400 0.0000 137209.00 133477.00 3040.00
1401 0.0000 136345.00 133452.00 3044.00
1402 0.0000 135448.00 133443.00 3047.00
1403 0.0000 133708.00 133476.00 3050.00
1404 0.0000 136133.00 133484.00 3054.00
1405 0.0000 135592.00 133498.00 3057.00
1406 0.0000 133119.00 133518.00 3062.00
1407 0.0000 128953.00 133544.00 3065.00
1408 0.0000 127232.00 133580.00 3068.00
1409 0.0000 129118.00 133626.00 3073.00
1410 0.0000 131709.00 133687.00 3076.00
1411 0.0000 132332.00 133762.00 3081.00
1412 0.0000 136652.00 133854.00 3084.00
1413 0.0000 139186.00 133965.00 3088.00
1414 0.0000 139521.00 134113.00 3093.00
1415 0.0000 140758.00 134305.00 3096.00
1416 0.0000 138153.00 134582.00 3101.00
1417 0.0000 137754.00 134978.00 3105.00
1418 0.0000 132240.00 135511.00 3108.00
1419 0.0000 133904.00 136215.00 3113.00
1420 0.0000 136749.00 137159.00 3117.00
1421 0.0000 136559.00 138547.00 3121.00
1422 0.0000 140054.00 140794.00 3125.00
1423 0.0000 147610.00 144734.00 3129.00
1424 0.0000 151567.00 151384.00 3133.00
1425 0.0000 159795.00 161715.00 3137.00
1426 0.0000 175867.00 176097.00 3141.00
1427 0.0000 196306.00 193622.00 3145.00
1428 0.0000 217648.00 211803.00 3148.00
1429 0.0000 227693.00 226837.00 3152.00
1430 0.0000 235102.00 234616.00 3156.00
1431 0.0000 226883.00 232370.00 3160.00
1432 0.0000 217200.00 220470.00 3164.00
1433 0.0000 199183.00 202688.00 3167.00
1434 0.0000 179476.00 183591.00 3171.00
1435 0.0000 166240.00 166740.00 3175.00
1436 0.0000 150520.00 153971.00 3179.00
1437 0.0000 143577.00 145501.00 3182.00
1438 0.0000 136108.00 140574.00 3185.00
1439 0.0000 134968.00 138129.00 3188.00
1440 0.0000 130746.00 137294.00 3191.00
1441 0.0000 132450.00 137558.00 3195.00
1442 0.0000 134724.00 138732.00 3198.00
1443 0.0000 135818.00 140823.00 3200.00
1444 0.0000 141822.00 143913.00 3203.00
1445 0.0000 147038.00 148068.00 3206.00
1446 0.0000 151494.00 153287.00 3208.00
1447 0.0000 157109.00 159443.00 3211.00
1448 0.0000 162926.00 166299.00 3213.00
1449 0.0000 168429.00 173432.00 3215.00
1450 0.0000 174268.00 180063.00 3217.00
1451 0.0000 177402.00 185057.00 3219.00
1452 0.0000 180268.00 187485.00 3221.00
1453 0.0000 182671.00 187426.00 3223.00
1454 0.0000 182033.00 185929.00 3224.00
1455 0.0000 178485.00 184465.00 3226.00
1456 0.0000 175768.00 184569.00 3227.00
1457 0.0000 176759.00 187202.00 3229.00
1458 0.0000 180782.00 191963.00 3230.00
1459 0.0000 184645.00 196912.00 3230.00
1460 0.0000 193181.00 199184.00 3232.00
1461 0.0000 199190.00 196436.00 3232.00
1462 0.0000 191176.00 188501.00 3234.00
1463 0.0000 180269.00 177364.00 3235.00
1464 0.0000 166191.00 165686.00 3235.00
1465 0.0000 157600.00 155663.00 3236.00
1466 0.0000 142973.00 148522.00 3236.00
1467 0.0000 139284.00 144537.00 3237.00
1468 0.0000 139045.00 143304.00 3238.00
1469 0.0000 137158.00 144119.00 3237.00
1470 0.0000 135110.00 146088.00 3238.00
1471 0.0000 140219.00 148439.00 3237.00
1472 0.0000 144694.00 150494.00 3238.00
1473 0.0000 148193.00 151865.00 3239.00
1474 0.0000 147095.00 152524.00 3238.00
1475 0.0000 149294.00 152685.00 3239.00
1476 0.0000 144875.00 152660.00 3237.00
1477 0.0000 147853.00 152730.00 3238.00
1478 0.0000 147708.00 153123.00 3239.00
1479 0.0000 147639.00 154118.00 3237.00
1480 0.0000 150485.00 156201.00 3238.00
1481 0.0000 156200.00 160078.00 3236.00
1482 0.0000 161000.00 166460.00 3236.00
1483 0.0000 167344.00 175879.00 3236.00
1484 0.0000 174759.00 188400.00 3234.00
1485 0.0000 191089.00 203404.00 3235.00
1486 0.0000 209985.00 219257.00 3232.00
1487 0.0000 224850.00 232984.00 3233.00
1488 0.0000 234782.00 240525.00 3233.00
1489 0.0000 239408.00 238727.00 3230.00
1490 0.0000 230935.00 227398.00 3231.00
1491 0.0000 207294.00 209731.00 3228.00
1492 0.0000 182322.00 190061.00 3228.00
1493 0.0000 161519.00 172043.00 3228.00
1494 0.0000 146144.00 157837.00 3226.00
1495 0.0000 136661.00 148010.00 3226.00
1496 0.0000 131504.00 142029.00 3223.00
1497 0.0000 130177.00 138922.00 3223.00
1498 0.0000 133082.00 137786.00 3223.00
1499 0.0000 129372.00 137978.00 3220.00
1500 0.0000 128739.00 139083.00 3220.00
1501 0.0000 130597.00 140758.00 3217.00
1502 0.0000 132239.00 142611.00 3217.00
1503 0.0000 132247.00 144155.00 3217.00
1504 0.0000 138105.00 144886.00 3214.00
1505 0.0000 139414.00 144499.00 3214.00
1506 0.0000 136794.00 143083.00 3212.00
1507 0.0000 135237.00 141073.00 3212.00
1508 0.0000 134909.00 138960.00 3212.00
1509 0.0000 128872.00 137098.00 3209.00
1510 0.0000 131445.00 135711.00 3209.00
1511 0.0000 132315.00 134810.00 3207.00
1512 0.0000 132486.00 134288.00 3207.00
1513 0.0000 134107.00 134033.00 3208.00
1514 0.0000 130916.00 133976.00 3206.00
1515 0.0000 133797.00 134068.00 3206.00
1516 0.0000 130909.00 134331.00 3204.00
1517 0.0000 133088.00 134861.00 3205.00
1518 0.0000 132781.00 135853.00 3205.00
1519 0.0000 139519.00 137610.00 3204.00
1520 0.0000 145279.00 140682.00 3204.00
1521 0.0000 147796.00 145618.00 3203.00
1522 0.0000 152613.00 152906.00 3204.00
1523 0.0000 161757.00 162546.00 3205.00
1524 0.0000 170548.00 173790.00 3204.00
1525 0.0000 181486.00 184912.00 3205.00
1526 0.0000 186567.00 193384.00 3205.00
1527 0.0000 192741.00 196614.00 3206.00
1528 0.0000 191452.00 193394.00 3208.00
1529 0.0000 187225.00 184866.00 3208.00
1530 0.0000 176256.00 173695.00 3210.00
1531 0.0000 158966.00 162638.00 3211.00
1532 0.0000 152832.00 153655.00 3213.00
1533 0.0000 147105.00 147672.00 3215.00
1534 0.0000 145300.00 144735.00 3216.00
1535 0.0000 143168.00 144313.00 3219.00
1536 0.0000 141530.00 145636.00 3221.00
1537 0.0000 141271.00 147818.00 3223.00
1538 0.0000 143695.00 149948.00 3226.00
1539 0.0000 143303.00 151157.00 3228.00
1540 0.0000 148214.00 150941.00 3231.00
1541 0.0000 145284.00 149335.00 3234.00
1542 0.0000 141406.00 146932.00 3237.00
1543 0.0000 143700.00 144395.00 3239.00
1544 0.0000 144958.00 142138.00 3242.00
1545 0.0000 142869.00 140290.00 3246.00
1546 0.0000 141895.00 138764.00 3249.00
1547 0.0000 141052.00 137391.00 3253.00
1548 0.0000 141226.00 136280.00 3256.00
1549 0.0000 138935.00 135288.00 3260.00
1550 0.0000 134860.00 134490.00 3264.00
1551 0.0000 134288.00 133903.00 3268.00
1552 0.0000 133697.00 133509.00 3272.00
1553 0.0000 135880.00 133269.00 3276.00
1554 0.0000 132077.00 133136.00 3281.00
1555 0.0000 130885.00 133096.00 3285.00
1556 0.0000 127875.00 133076.00 3290.00
1557 0.0000 127066.00 133093.00 3294.00
1558 0.0000 132115.00 133150.00 3298.00
1559 0.0000 136465.00 133275.00 3304.00
1560 0.0000 133732.00 133486.00 3308.00
1561 0.0000 135538.00 133858.00 3314.00
1562 0.0000 133863.00 134498.00 3318.00
1563 0.0000 132127.00 135546.00 3323.00
1564 0.0000 132054.00 137175.00 3329.00
1565 0.0000 135337.00 139481.00 3333.00
1566 0.0000 140181.00 142406.00 3339.00
1567 0.0000 139795.00 145642.00 3344.00
1568 0.0000 143175.00 148613.00 3348.00
1569 0.0000 144964.00 150633.00 3354.00
1570 0.0000 144193.00 151033.00 3359.00
1571 0.0000 141273.00 149821.00 3365.00
1572 0.0000 142690.00 147598.00 3370.00
1573 0.0000 143852.00 145255.00 3374.00
1574 0.0000 143873.00 143637.00 3380.00
1575 0.0000 139749.00 143369.00 3385.00
1576 0.0000 140537.00 144770.00 3390.00
1577 0.0000 144947.00 147805.00 3395.00
1578 0.0000 150786.00 152072.00 3399.00
1579 0.0000 155817.00 156702.00 3405.00
1580 0.0000 160150.00 160524.00 3409.00
1581 0.0000 164374.00 162292.00 3415.00
1582 0.0000 160894.00 161260.00 3419.00
1583 0.0000 155967.00 157705.00 3423.00
1584 0.0000 151958.00 152689.00 3428.00
1585 0.0000 146358.00 147417.00 3432.00
1586 0.0000 145481.00 142779.00 3437.00
1587 0.0000 142338.00 139321.00 3441.00
1588 0.0000 147155.00 137083.00 3444.00
1589 0.0000 144812.00 135912.00 3449.00
1590 0.0000 143381.00 135628.00 3452.00
1591 0.0000 139529.00 136212.00 3457.00
1592 0.0000 140204.00 137818.00 3460.00
1593 0.0000 142621.00 140863.00 3463.00
1594 0.0000 147777.00 145818.00 3467.00
1595 0.0000 156710.00 152959.00 3469.00
1596 0.0000 163876.00 162052.00 3472.00
1597 0.0000 175546.00 172164.00 3475.00
1598 0.0000 185204.00 181750.00 3478.00
1599 0.0000 191229.00 189122.00 3480.00
1600 0.0000 192180.00 193415.00 3482.00
1601 0.0000 196042.00 195536.00 3485.00
1602 0.0000 199790.00 197889.00 3487.00
1603 0.0000 205208.00 202770.00 3489.00
1604 0.0000 209618.00 210927.00 3490.00
1605 0.0000 218278.00 220956.00 3492.00
1606 0.0000 230063.00 229647.00 3493.00
1607 0.0000 238678.00 233372.00 3495.00
1608 0.0000 236009.00 230350.00 3496.00
1609 0.0000 227751.00 222066.00 3496.00
1610 0.0000 212136.00 212037.00 3497.00
1611 0.0000 199988.00 203555.00 3497.00
1612 0.0000 195108.00 198303.00 3497.00
1613 0.0000 196045.00 195971.00 3498.00
1614 0.0000 190326.00 194746.00 3497.00
1615 0.0000 190805.00 192581.00 3498.00
1616 0.0000 181447.00 188506.00 3496.00
1617 0.0000 178015.00 182645.00 3496.00
1618 0.0000 170410.00 175669.00 3496.00
1619 0.0000 163497.00 168378.00 3494.00
1620 0.0000 152276.00 161772.00 3494.00
1621 0.0000 148106.00 157035.00 3492.00
1622 0.0000 147546.00 155341.00 3491.00
1623 0.0000 153180.00 157673.00 3491.00
1624 0.0000 159203.00 164556.00 3487.00
1625 0.0000 166734.00 175660.00 3487.00
1626 0.0000 180379.00 189445.00 3483.00
1627 0.0000 191927.00 203148.00 3482.00
1628 0.0000 202010.00 213247.00 3481.00
1629 0.0000 209853.00 216605.00 3477.00
1630 0.0000 206444.00 212294.00 3476.00
1631 0.0000 199918.00 202313.00 3472.00
1632 0.0000 191308.00 190281.00 3471.00
1633 0.0000 176736.00 179610.00 3470.00
1634 0.0000 170716.00 172380.00 3465.00
1635 0.0000 166066.00 168948.00 3464.00
1636 0.0000 163360.00 168159.00 3459.00
1637 0.0000 165213.00 168018.00 3457.00
1638 0.0000 161274.00 166631.00 3456.00
1639 0.0000 159015.00 163158.00 3451.00
1640 0.0000 152869.00 158038.00 3450.00
1641 0.0000 150962.00 152392.00 3444.00
1642 0.0000 148118.00 147458.00 3443.00
1643 0.0000 145403.00 144173.00 3441.00
1644 0.0000 146923.00 143126.00 3437.00
1645 0.0000 145239.00 144543.00 3435.00
1646 0.0000 146448.00 148298.00 3430.00
1647 0.0000 153899.00 153857.00 3429.00
1648 0.0000 160267.00 160221.00 3427.00
1649 0.0000 170413.00 165971.00 3422.00
1650 0.0000 170596.00 169532.00 3421.00
1651 0.0000 166434.00 169708.00 3417.00
1652 0.0000 162069.00 166362.00 3415.00
1653 0.0000 157465.00 160517.00 3414.00
1654 0.0000 153010.00 153694.00 3410.00
1655 0.0000 145112.00 147216.00 3409.00
1656 0.0000 144210.00 141935.00 3405.00
1657 0.0000 139744.00 138140.00 3405.00
1658 0.0000 138352.00 135705.00 3404.00
1659 0.0000 139701.00 134296.00 3401.00
1660 0.0000 140599.00 133529.00 3400.00
1661 0.0000 137087.00 133176.00 3397.00
1662 0.0000 136276.00 133086.00 3397.00
1663 0.0000 135212.00 133048.00 3396.00
1664 0.0000 129774.00 133076.00 3394.00
1665 0.0000 130152.00 133172.00 3394.00
1666 0.0000 132284.00 133397.00 3391.00
1667 0.0000 134240.00 133844.00 3391.00
1668 0.0000 136690.00 134856.00 3391.00
1669 0.0000 138360.00 136736.00 3390.00
1670 0.0000 145621.00 139881.00 3390.00
1671 0.0000 147394.00 144579.00 3389.00
1672 0.0000 150635.00 150793.00 3390.00
1673 0.0000 154207.00 157939.00 3390.00
1674 0.0000 157665.00 164864.00 3390.00
1675 0.0000 163686.00 169966.00 3391.00
1676 0.0000 169374.00 171788.00 3391.00
1677 0.0000 172549.00 169682.00 3392.00
1678 0.0000 164295.00 164350.00 3393.00
1679 0.0000 157269.00 157316.00 3393.00
1680 0.0000 151557.00 150157.00 3395.00
1681 0.0000 142516.00 143982.00 3396.00
1682 0.0000 138317.00 139328.00 3398.00
1683 0.0000 134219.00 136205.00 3399.00
1684 0.0000 130791.00 134315.00 3401.00
1685 0.0000 133891.00 133269.00 3403.00
1686 0.0000 136446.00 132727.00 3405.00
1687 0.0000 136125.00 132458.00 3407.00
1688 0.0000 134797.00 132330.00 3409.00
1689 0.0000 128992.00 132242.00 3412.00
1690 0.0000 125240.00 132272.00 3414.00
1691 0.0000 123842.00 132370.00 3417.00
1692 0.0000 131421.00 132616.00 3419.00
1693 0.0000 131942.00 132902.00 3421.00
1694 0.0000 132065.00 133270.00 3424.00
1695 0.0000 133481.00 133673.00 3427.00
1696 0.0000 133969.00 134035.00 3430.00
1697 0.0000 136329.00 134263.00 3433.00
1698 0.0000 135557.00 134289.00 3436.00
1699 0.0000 140139.00 134109.00 3439.00
1700 0.0000 138969.00 133784.00 3442.00
1701 0.0000 137379.00 133420.00 3446.00
1702 0.0000 134844.00 133076.00 3449.00
1703 0.0000 134322.00 132817.00 3452.00
1704 0.0000 132742.00 132672.00 3456.00
1705 0.0000 129181.00 132657.00 3459.00
1706 0.0000 126258.00 132791.00 3463.00
1707 0.0000 127685.00 133124.00 3466.00
1708 0.0000 129902.00 133737.00 3469.00
1709 0.0000 132855.00 134737.00 3473.00
1710 0.0000 137027.00 136214.00 3476.00
1711 0.0000 139753.00 138202.00 3480.00
1712 0.0000 144106.00 140612.00 3483.00
1713 0.0000 148306.00 143347.00 3486.00
1714 0.0000 150176.00 146299.00 3490.00
1715 0.0000 154503.00 149635.00 3493.00
1716 0.0000 151660.00 154021.00 3496.00
1717 0.0000 159023.00 160659.00 3499.00
1718 0.0000 166071.00 170816.00 3502.00
1719 0.0000 175506.00 185058.00 3505.00
1720 0.0000 191551.00 202535.00 3508.00
1721 0.0000 210272.00 220655.00 3511.00
1722 0.0000 228799.00 235422.00 3513.00
1723 0.0000 240631.00 242541.00 3516.00
1724 0.0000 235784.00 239466.00 3519.00
1725 0.0000 223165.00 227130.00 3521.00
1726 0.0000 205284.00 209263.00 3524.00
1727 0.0000 184087.00 190249.00 3526.00
1728 0.0000 165947.00 173605.00 3529.00
1729 0.0000 153190.00 161259.00 3531.00
1730 0.0000 147128.00 153526.00 3534.00
1731 0.0000 145247.00 149532.00 3536.00
1732 0.0000 143405.00 147830.00 3538.00
1733 0.0000 145613.00 146985.00 3539.00
1734 0.0000 138596.00 145904.00 3541.00
1735 0.0000 139200.00 144212.00 3543.00
1736 0.0000 138048.00 142046.00 3545.00
1737 0.0000 139606.00 139748.00 3546.00
1738 0.0000 138450.00 137708.00 3548.00
1739 0.0000 139656.00 136130.00 3549.00
1740 0.0000 136208.00 135092.00 3551.00
1741 0.0000 136142.00 134586.00 3552.00
1742 0.0000 132257.00 134603.00 3553.00
1743 0.0000 139517.00 135248.00 3555.00
1744 0.0000 144063.00 136842.00 3555.00
1745 0.0000 150024.00 140003.00 3557.00
1746 0.0000 158330.00 145659.00 3557.00
1747 0.0000 163514.00 154901.00 3559.00
1748 0.0000 176866.00 168609.00 3560.00
1749 0.0000 185723.00 186902.00 3560.00
1750 0.0000 204004.00 208583.00 3561.00
1751 0.0000 224672.00 230879.00 3561.00
1752 0.0000 239417.00 249840.00 3562.00
1753 0.0000 255491.00 261403.00 3562.00
1754 0.0000 265123.00 263121.00 3562.00
1755 0.0000 265674.00 255788.00 3563.00
1756 0.0000 253227.00 242991.00 3563.00
1757 0.0000 231643.00 228855.00 3564.00
1758 0.0000 212198.00 216249.00 3565.00
1759 0.0000 199955.00 206122.00 3565.00
1760 0.0000 194485.00 197905.00 3566.00
1761 0.0000 190930.00 190489.00 3565.00
1762 0.0000 181404.00 182923.00 3566.00
1763 0.0000 169585.00 174727.00 3567.00
1764 0.0000 164297.00 166107.00 3566.00
1765 0.0000 152152.00 157771.00 3567.00
1766 0.0000 142574.00 150450.00 3567.00
1767 0.0000 137537.00 144587.00 3567.00
1768 0.0000 141632.00 140331.00 3568.00
1769 0.0000 137643.00 137361.00 3567.00
1770 0.0000 135377.00 135419.00 3568.00
1771 0.0000 132675.00 134179.00 3567.00
1772 0.0000 133383.00 133385.00 3568.00
1773 0.0000 135826.00 132863.00 3568.00
1774 0.0000 132286.00 132511.00 3568.00
1775 0.0000 128363.00 132269.00 3568.00
1776 0.0000 126980.00 132106.00 3568.00
1777 0.0000 125937.00 131996.00 3568.00
1778 0.0000 130564.00 131936.00 3569.00
1779 0.0000 132674.00 131916.00 3568.00
1780 0.0000 131085.00 131933.00 3568.00
1781 0.0000 133614.00 131992.00 3567.00
1782 0.0000 129452.00 132103.00 3568.00
1783 0.0000 132420.00 132293.00 3569.00
1784 0.0000 130958.00 132627.00 3568.00
1785 0.0000 133656.00 133192.00 3569.00
1786 0.0000 130911.00 134340.00 3568.00
1787 0.0000 136070.00 136403.00 3568.00
1788 0.0000 141605.00 139863.00 3569.00
1789 0.0000 147056.00 145154.00 3568.00
1790 0.0000 156803.00 152426.00 3569.00
1791 0.0000 163022.00 161280.00 3568.00
1792 0.0000 171909.00 170615.00 3569.00
1793 0.0000 182433.00 178702.00 3570.00
1794 0.0000 192452.00 183554.00 3569.00
1795 0.0000 192243.00 183705.00 3570.00
1796 0.0000 192715.00 179096.00 3570.00
1797 0.0000 174195.00 171105.00 3571.00
1798 0.0000 160945.00 161715.00 3572.00
1799 0.0000 147239.00 152694.00 3572.00
1800 0.0000 145596.00 145205.00 3572.00
1801 0.0000 139718.00 139696.00 3572.00
1802 0.0000 136041.00 136057.00 3573.00
1803 0.0000 135740.00 133875.00 3574.00
1804 0.0000 134692.00 132673.00 3574.00
1805 0.0000 133616.00 132056.00 3575.00
1806 0.0000 136859.00 131759.00 3574.00
1807 0.0000 133898.00 131631.00 3575.00
1808 0.0000 135048.00 131599.00 3576.00
1809 0.0000 134016.00 131638.00 3576.00
1810 0.0000 130220.00 131746.00 3577.00
1811 0.0000 127936.00 131936.00 3577.00
1812 0.0000 127070.00 132229.00 3578.00
1813 0.0000 128067.00 132652.00 3579.00
1814 0.0000 134461.00 133228.00 3579.00
1815 0.0000 135725.00 134035.00 3580.00
1816 0.0000 137221.00 134986.00 3580.00
1817 0.0000 140180.00 136267.00 3582.00
1818 0.0000 145561.00 137900.00 3583.00
1819 0.0000 149224.00 139977.00 3583.00
1820 0.0000 149013.00 142742.00 3585.00
1821 0.0000 150981.00 146617.00 3585.00
1822 0.0000 148281.00 152273.00 3587.00
1823 0.0000 154971.00 160663.00 3588.00
1824 0.0000 171435.00 172739.00 3588.00
1825 0.0000 185961.00 189063.00 3590.00
1826 0.0000 208648.00 209263.00 3590.00
1827 0.0000 230667.00 231452.00 3591.00
1828 0.0000 255136.00 252207.00 3592.00
1829 0.0000 268730.00 267046.00 3593.00
1830 0.0000 274585.00 271765.00 3594.00
1831 0.0000 260969.00 264592.00 3595.00
1832 0.0000 242699.00 247425.00 3596.00
1833 0.0000 221350.00 224616.00 3598.00
1834 0.0000 196278.00 200796.00 3598.00
1835 0.0000 170927.00 179514.00 3600.00
1836 0.0000 155628.00 162695.00 3600.00
1837 0.0000 142444.00 150733.00 3602.00
1838 0.0000 140691.00 142975.00 3603.00
1839 0.0000 133079.00 138351.00 3604.00
1840 0.0000 130372.00 135859.00 3605.00
1841 0.0000 127901.00 134699.00 3605.00
1842 0.0000 133775.00 134411.00 3607.00
1843 0.0000 132021.00 134715.00 3608.00
1844 0.0000 134813.00 135414.00 3608.00
1845 0.0000 142330.00 136318.00 3610.00
1846 0.0000 141085.00 137200.00 3610.00
1847 0.0000 141986.00 137818.00 3611.00
1848 0.0000 139585.00 137957.00 3612.00
1849 0.0000 138760.00 137516.00 3612.00
1850 0.0000 138173.00 136580.00 3613.00
1851 0.0000 135879.00 135362.00 3613.00
1852 0.0000 132089.00 134097.00 3614.00
1853 0.0000 131247.00 132970.00 3616.00
1854 0.0000 131784.00 132083.00 3616.00
1855 0.0000 131574.00 131459.00 3617.00
1856 0.0000 130509.00 131068.00 3617.00
1857 0.0000 129207.00 130851.00 3618.00
1858 0.0000 130995.00 130736.00 3620.00
1859 0.0000 132686.00 130728.00 3620.00
1860 0.0000 126309.00 130772.00 3622.00
1861 0.0000 132686.00 130848.00 3622.00
1862 0.0000 134608.00 130939.00 3624.00
1863 0.0000 138374.00 131031.00 3626.00
1864 0.0000 138700.00 131116.00 3627.00
1865 0.0000 135500.00 131201.00 3629.00
1866 0.0000 129903.00 131327.00 3631.00
1867 0.0000 132222.00 131580.00 3633.00
1868 0.0000 135643.00 132122.00 3635.00
1869 0.0000 137733.00 133229.00 3637.00
1870 0.0000 143504.00 135328.00 3639.00
1871 0.0000 146885.00 138984.00 3641.00
1872 0.0000 153705.00 144808.00 3644.00
1873 0.0000 163256.00 153244.00 3647.00
1874 0.0000 168995.00 164286.00 3650.00
1875 0.0000 176702.00 177218.00 3653.00
1876 0.0000 192665.00 190490.00 3657.00
1877 0.0000 210214.00 201890.00 3660.00
1878 0.0000 221384.00 209084.00 3663.00
1879 0.0000 224128.00 210585.00 3668.00
1880 0.0000 220295.00 206389.00 3671.00
1881 0.0000 209931.00 197683.00 3676.00
1882 0.0000 199478.00 186025.00 3680.00
1883 0.0000 187141.00 173425.00 3684.00
1884 0.0000 171906.00 161605.00 3690.00
1885 0.0000 160757.00 151680.00 3695.00
1886 0.0000 154895.00 144136.00 3701.00
1887 0.0000 148696.00 138809.00 3705.00
1888 0.0000 148097.00 135349.00 3710.00
1889 0.0000 146757.00 133265.00 3717.00
1890 0.0000 144054.00 132100.00 3722.00
1891 0.0000 142808.00 131511.00 3729.00
1892 0.0000 138651.00 131294.00 3734.00
1893 0.0000 137041.00 131318.00 3739.00
1894 0.0000 140098.00 131766.00 3746.00
1895 0.0000 141812.00 132759.00 3752.00
1896 0.0000 142509.00 134579.00 3759.00
1897 0.0000 146722.00 137621.00 3765.00
1898 0.0000 144620.00 141967.00 3770.00
1899 0.0000 147058.00 147658.00 3778.00
1900 0.0000 153712.00 154242.00 3784.00
1901 0.0000 162380.00 160800.00 3792.00
1902 0.0000 171769.00 166040.00 3798.00
1903 0.0000 171476.00 168644.00 3803.00
1904 0.0000 168454.00 167840.00 3812.00
1905 0.0000 164715.00 163849.00 3817.00
1906 0.0000 159388.00 157792.00 3825.00
1907 0.0000 154154.00 151030.00 3831.00
1908 0.0000 149303.00 144709.00 3837.00
1909 0.0000 143461.00 139542.00 3845.00
1910 0.0000 135772.00 135772.00 3850.00
1911 0.0000 134209.00 133288.00 3858.00
1912 0.0000 132640.00 131790.00 3864.00
1913 0.0000 136722.00 130960.00 3869.00
1914 0.0000 135207.00 130525.00 3876.00
1915 0.0000 138620.00 130305.00 3881.00
1916 0.0000 140040.00 130197.00 3888.00
1917 0.0000 137524.00 130147.00 3893.00
1918 0.0000 135877.00 130133.00 3898.00
1919 0.0000 135424.00 130155.00 3905.00
1920 0.0000 137202.00 130219.00 3909.00
1921 0.0000 136475.00 130344.00 3915.00
1922 0.0000 132448.00 130549.00 3920.00
1923 0.0000 133844.00 130849.00 3924.00
1924 0.0000 130796.00 131244.00 3930.00
1925 0.0000 139766.00 131710.00 3934.00
1926 0.0000 143482.00 132192.00 3940.00
1927 0.0000 143471.00 132616.00 3944.00
1928 0.0000 139814.00 132902.00 3948.00
1929 0.0000 143471.00 132999.00 3953.00
1930 0.0000 138708.00 132924.00 3957.00
1931 0.0000 140216.00 132753.00 3962.00
1932 0.0000 140778.00 132595.00 3966.00
1933 0.0000 138500.00 132585.00 3969.00
1934 0.0000 149019.00 132898.00 3973.00
1935 0.0000 154897.00 133813.00 3977.00
1936 0.0000 160468.00 135815.00 3980.00
1937 0.0000 163765.00 139613.00 3983.00
1938 0.0000 165626.00 146248.00 3986.00
1939 0.0000 175618.00 156882.00 3988.00
1940 0.0000 184701.00 172453.00 3991.00
1941 0.0000 203834.00 193164.00 3993.00
1942 0.0000 221303.00 217948.00 3995.00
1943 0.0000 243007.00 244421.00 3997.00
1944 0.0000 269392.00 268939.00 3998.00
1945 0.0000 285810.00 287494.00 4000.00
1946 0.0000 287851.00 297311.00 4001.00
1947 0.0000 291960.00 298159.00 4003.00
1948 0.0000 290347.00 291943.00 4004.00
1949 0.0000 280320.00 280887.00 4004.00
1950 0.0000 268921.00 266454.00 4005.00
1951 0.0000 250952.00 249615.00 4004.00
1952 0.0000 239554.00 231906.00 4005.00
1953 0.0000 227518.00 215836.00 4005.00
1954 0.0000 214924.00 204346.00 4003.00
1955 0.0000 206634.00 200052.00 4004.00
1956 0.0000 207991.00 204528.00 4001.00
1957 0.0000 215753.00 217645.00 4001.00
1958 0.0000 241373.00 237138.00 4001.00
1959 0.0000 261170.00 258728.00 3997.00
1960 0.0000 281053.00 276846.00 3997.00
1961 0.0000 285362.00 286071.00 3992.00
1962 0.0000 286702.00 283311.00 3991.00
1963 0.0000 271285.00 269502.00 3991.00
1964 0.0000 253593.00 248764.00 3985.00
1965 0.0000 231432.00 226053.00 3984.00
1966 0.0000 205780.00 205297.00 3978.00
1967 0.0000 185156.00 188581.00 3977.00
1968 0.0000 170708.00 176105.00 3975.00
1969 0.0000 166583.00 166863.00 3968.00
1970 0.0000 158342.00 159513.00 3966.00
1971 0.0000 159171.00 153174.00 3958.00
1972 0.0000 151582.00 147525.00 3956.00
1973 0.0000 144485.00 142599.00 3954.00
1974 0.0000 139009.00 138533.00 3946.00
1975 0.0000 135696.00 135418.00 3943.00
1976 0.0000 131238.00 133211.00 3934.00
1977 0.0000 130939.00 131760.00 3932.00
1978 0.0000 125084.00 130870.00 3929.00
1979 0.0000 126694.00 130363.00 3920.00
1980 0.0000 129687.00 130109.00 3917.00
1981 0.0000 131369.00 130029.00 3907.00
1982 0.0000 133669.00 130086.00 3904.00
1983 0.0000 135401.00 130255.00 3901.00
1984 0.0000 137748.00 130509.00 3892.00
1985 0.0000 137413.00 130805.00 3889.00
1986 0.0000 140588.00 131079.00 3880.00
1987 0.0000 142710.00 131263.00 3877.00
1988 0.0000 140746.00 131305.00 3874.00
1989 0.0000 137809.00 131210.00 3865.00
1990 0.0000 135231.00 131060.00 3862.00
1991 0.0000 136866.00 131004.00 3853.00
1992 0.0000 140919.00 131255.00 3850.00
1993 0.0000 139372.00 132085.00 3848.00
1994 0.0000 143398.00 133802.00 3839.00
1995 0.0000 137612.00 136693.00 3837.00
1996 0.0000 144884.00 140911.00 3829.00
1997 0.0000 154533.00 146341.00 3828.00
1998 0.0000 157318.00 152477.00 3825.00
1999 0.0000 161633.00 158416.00 3819.00
2000 0.0000 168301.00 162981.00 3817.00
2001 0.0000 173512.00 165024.00 3811.00
2002 0.0000 177568.00 163944.00 3810.00
2003 0.0000 179152.00 160070.00 3808.00
2004 0.0000 167379.00 154376.00 3803.00
2005 0.0000 158640.00 148089.00 3803.00
2006 0.0000 149469.00 142218.00 3798.00
2007 0.0000 141206.00 137391.00 3798.00
2008 0.0000 138217.00 133832.00 3798.00
2009 0.0000 137046.00 131446.00 3794.00
2010 0.0000 135916.00 129977.00 3794.00
2011 0.0000 134109.00 129069.00 3792.00
2012 0.0000 132753.00 128605.00 3792.00
2013 0.0000 133667.00 128365.00 3793.00
2014 0.0000 131031.00 128217.00 3792.00
2015 0.0000 127674.00 128122.00 3793.00
2016 0.0000 132110.00 128016.00 3793.00
2017 0.0000 131452.00 127962.00 3795.00
2018 0.0000 135735.00 127919.00 3797.00
2019 0.0000 129001.00 127889.00 3798.00
2020 0.0000 134041.00 127867.00 3801.00
2021 0.0000 132719.00 127874.00 3802.00
2022 0.0000 138124.00 127894.00 3805.00
2023 0.0000 139208.00 127946.00 3808.00
2024 0.0000 141533.00 128036.00 3811.00
2025 0.0000 138701.00 128166.00 3814.00
2026 0.0000 134019.00 128327.00 3818.00
2027 0.0000 131945.00 128460.00 3822.00
2028 0.0000 131082.00 128640.00 3826.00
2029 0.0000 133123.00 128804.00 3831.00
2030 0.0000 131603.00 128960.00 3835.00
2031 0.0000 137779.00 129149.00 3840.00
2032 0.0000 137469.00 129434.00 3845.00
2033 0.0000 135601.00 129923.00 3850.00
2034 0.0000 138458.00 130538.00 3856.00
2035 0.0000 140626.00 131303.00 3861.00
2036 0.0000 138788.00 132095.00 3868.00
2037 0.0000 133086.00 132746.00 3874.00
2038 0.0000 137372.00 133079.00 3879.00
2039 0.0000 139990.00 132971.00 3888.00
2040 0.0000 144558.00 132441.00 3894.00
2041 0.0000 152222.00 131617.00 3903.00
2042 0.0000 141951.00 130722.00 3909.00
2043 0.0000 142799.00 129820.00 3915.00
2044 0.0000 140990.00 129063.00 3925.00
2045 0.0000 139590.00 128494.00 3931.00
2046 0.0000 136589.00 128108.00 3941.00
2047 0.0000 133151.00 127873.00 3948.00
2048 0.0000 134110.00 127744.00 3955.00
2049 0.0000 135578.00 127684.00 3966.00
2050 0.0000 137381.00 127666.00 3973.00
2051 0.0000 143947.00 127672.00 3983.00
2052 0.0000 142864.00 127695.00 3990.00
2053 0.0000 135731.00 127731.00 3998.00
2054 0.0000 136520.00 127781.00 4008.00
2055 0.0000 138860.00 127856.00 4015.00
2056 0.0000 142410.00 127971.00 4026.00
2057 0.0000 144748.00 128168.00 4033.00
2058 0.0000 138953.00 128527.00 4040.00
2059 0.0000 136624.00 129195.00 4051.00
2060 0.0000 138356.00 130408.00 4058.00
2061 0.0000 141127.00 132498.00 4068.00
2062 0.0000 152453.00 135844.00 4075.00
2063 0.0000 162060.00 140765.00 4082.00
2064 0.0000 164635.00 147347.00 4092.00
2065 0.0000 173149.00 155262.00 4099.00
2066 0.0000 176731.00 163668.00 4109.00
2067 0.0000 181626.00 171262.00 4116.00
2068 0.0000 183267.00 176531.00 4123.00
2069 0.0000 189446.00 178282.00 4133.00
2070 0.0000 191123.00 176292.00 4140.00
2071 0.0000 185659.00 171550.00 4149.00
2072 0.0000 179807.00 165757.00 4156.00
2073 0.0000 174196.00 160627.00 4162.00
2074 0.0000 164736.00 157378.00 4171.00
2075 0.0000 167037.00 156466.00 4177.00
2076 0.0000 167737.00 157553.00 4185.00
2077 0.0000 170767.00 159700.00 4191.00
2078 0.0000 172890.00 161740.00 4197.00
2079 0.0000 175814.00 162662.00 4205.00
2080 0.0000 175020.00 162202.00 4211.00
2081 0.0000 172315.00 160860.00 4218.00
2082 0.0000 174895.00 159541.00 4223.00
2083 0.0000 177580.00 159094.00 4229.00
2084 0.0000 180358.00 160019.00 4235.00
2085 0.0000 185721.00 162388.00 4240.00
2086 0.0000 185648.00 165947.00 4246.00
2087 0.0000 186089.00 170314.00 4251.00
2088 0.0000 191905.00 175200.00 4256.00
2089 0.0000 193948.00 180551.00 4262.00
2090 0.0000 202292.00 186464.00 4267.00
2091 0.0000 207235.00 192925.00 4271.00
2092 0.0000 210507.00 199667.00 4276.00
2093 0.0000 215343.00 206311.00 4279.00
2094 0.0000 222927.00 212720.00 4283.00
2095 0.0000 229647.00 219216.00 4287.00
2096 0.0000 240241.00 226162.00 4290.00
2097 0.0000 242294.00 233297.00 4294.00
2098 0.0000 240143.00 239469.00 4298.00
2099 0.0000 241601.00 242990.00 4300.00
2100 0.0000 235133.00 242590.00 4303.00
2101 0.0000 236103.00 238571.00 4306.00
2102 0.0000 235068.00 232907.00 4309.00
2103 0.0000 227524.00 228126.00 4312.00
2104 0.0000 220002.00 226055.00 4313.00
2105 0.0000 223824.00 227091.00 4316.00
2106 0.0000 225565.00 230016.00 4317.00
2107 0.0000 231734.00 232313.00 4320.00
2108 0.0000 233104.00 231077.00 4323.00
2109 0.0000 230107.00 224405.00 4323.00
2110 0.0000 213453.00 212434.00 4326.00
2111 0.0000 197363.00 197029.00 4326.00
2112 0.0000 179885.00 180652.00 4328.00
2113 0.0000 164191.00 165490.00 4331.00
2114 0.0000 152467.00 152951.00 4330.00
2115 0.0000 147142.00 143569.00 4332.00
2116 0.0000 141366.00 137164.00 4331.00
2117 0.0000 133315.00 133157.00 4333.00
2118 0.0000 130688.00 130801.00 4335.00
2119 0.0000 130966.00 129506.00 4333.00
2120 0.0000 131855.00 128835.00 4335.00
2121 0.0000 133692.00 128535.00 4334.00
2122 0.0000 135450.00 128500.00 4335.00
2123 0.0000 134650.00 128752.00 4337.00
2124 0.0000 135580.00 129425.00 4335.00
2125 0.0000 136733.00 130757.00 4337.00
2126 0.0000 140912.00 133070.00 4335.00
2127 0.0000 143166.00 136752.00 4336.00
2128 0.0000 146578.00 141916.00 4338.00
2129 0.0000 153039.00 148550.00 4336.00
2130 0.0000 164514.00 156173.00 4337.00
2131 0.0000 164818.00 163838.00 4336.00
2132 0.0000 169419.00 170242.00 4337.00
2133 0.0000 181535.00 174026.00 4338.00
2134 0.0000 181917.00 174308.00 4337.00
2135 0.0000 174699.00 171213.00 4339.00
2136 0.0000 168463.00 165868.00 4338.00
2137 0.0000 159129.00 159973.00 4340.00
2138 0.0000 163681.00 155144.00 4342.00
2139 0.0000 157509.00 152653.00 4341.00
2140 0.0000 161744.00 153143.00 4343.00
2141 0.0000 168616.00 156513.00 4343.00
2142 0.0000 172243.00 161921.00 4345.00
2143 0.0000 172748.00 167947.00 4347.00
2144 0.0000 175848.00 172870.00 4348.00
2145 0.0000 183104.00 175088.00 4350.00
2146 0.0000 182528.00 173691.00 4351.00
2147 0.0000 180032.00 168929.00 4354.00
2148 0.0000 170998.00 161918.00 4356.00
2149 0.0000 161810.00 154113.00 4359.00
2150 0.0000 153742.00 146819.00 4362.00
2151 0.0000 142725.00 140946.00 4365.00
2152 0.0000 141401.00 136942.00 4369.00
2153 0.0000 140463.00 134841.00 4373.00
2154 0.0000 139874.00 134375.00 4377.00
2155 0.0000 142478.00 135092.00 4381.00
2156 0.0000 141436.00 136481.00 4386.00
2157 0.0000 150427.00 137973.00 4391.00
2158 0.0000 151161.00 139046.00 4396.00
2159 0.0000 150656.00 139312.00 4402.00
2160 0.0000 148908.00 138631.00 4407.00
2161 0.0000 146240.00 137108.00 4415.00
2162 0.0000 147015.00 135106.00 4420.00
2163 0.0000 143341.00 132960.00 4426.00
2164 0.0000 144754.00 130971.00 4435.00
2165 0.0000 142955.00 129328.00 4442.00
2166 0.0000 149606.00 128100.00 4452.00
2167 0.0000 137696.00 127222.00 4459.00
2168 0.0000 138244.00 126707.00 4466.00
2169 0.0000 134515.00 126425.00 4477.00
2170 0.0000 130485.00 126302.00 4485.00
2171 0.0000 132265.00 126512.00 4498.00
2172 0.0000 129368.00 126623.00 4506.00
2173 0.0000 127756.00 126888.00 4515.00
2174 0.0000 131694.00 127409.00 4529.00
2175 0.0000 130967.00 128363.00 4538.00
2176 0.0000 137457.00 129975.00 4553.00
2177 0.0000 141409.00 132620.00 4563.00
2178 0.0000 150381.00 136547.00 4573.00
2179 0.0000 159725.00 141884.00 4589.00
2180 0.0000 167124.00 148472.00 4600.00
2181 0.0000 167388.00 155804.00 4617.00
2182 0.0000 171764.00 162953.00 4628.00
2183 0.0000 183326.00 168763.00 4639.00
2184 0.0000 188089.00 172382.00 4658.00
2185 0.0000 193108.00 173634.00 4669.00
2186 0.0000 192736.00 173455.00 4688.00
2187 0.0000 189917.00 173667.00 4699.00
2188 0.0000 187998.00 176291.00 4711.00
2189 0.0000 194269.00 182831.00 4731.00
2190 0.0000 198768.00 193689.00 4742.00
2191 0.0000 209876.00 207822.00 4762.00
2192 0.0000 223401.00 222772.00 4774.00
2193 0.0000 235703.00 235088.00 4786.00
2194 0.0000 232721.00 241303.00 4806.00
2195 0.0000 238445.00 239217.00 4817.00
2196 0.0000 230969.00 229033.00 4837.00
2197 0.0000 212923.00 213096.00 4848.00
2198 0.0000 191968.00 194634.00 4860.00
2199 0.0000 175391.00 176600.00 4880.00
2200 0.0000 163197.00 161066.00 4891.00
2201 0.0000 155304.00 148994.00 4910.00
2202 0.0000 141314.00 140466.00 4921.00
2203 0.0000 133585.00 134887.00 4932.00
2204 0.0000 138508.00 131462.00 4949.00
2205 0.0000 132588.00 129450.00 4960.00
2206 0.0000 131006.00 128290.00 4976.00
2207 0.0000 123067.00 127612.00 4986.00
2208 0.0000 114415.00 127204.00 4996.00
2209 0.0000 117648.00 126953.00 5011.00
2210 0.0000 121945.00 126800.00 5021.00
2211 0.0000 126480.00 126714.00 5035.00
2212 0.0000 133624.00 126677.00 5044.00
2213 0.0000 127912.00 126655.00 5052.00
2214 0.0000 122452.00 126688.00 5065.00
2215 0.0000 125292.00 126749.00 5074.00
2216 0.0000 125399.00 126837.00 5085.00
2217 0.0000 128249.00 126953.00 5092.00
2218 0.0000 138091.00 127099.00 5099.00
2219 0.0000 138848.00 127277.00 5110.00
2220 0.0000 135750.00 127494.00 5117.00
2221 0.0000 138904.00 127754.00 5125.00
2222 0.0000 133828.00 128069.00 5132.00
2223 0.0000 136797.00 128454.00 5138.00
2224 0.0000 142427.00 128940.00 5145.00
2225 0.0000 148591.00 129593.00 5150.00
2226 0.0000 149442.00 130557.00 5156.00
2227 0.0000 151347.00 132134.00 5160.00
2228 0.0000 149973.00 134938.00 5165.00
2229 0.0000 152477.00 140072.00 5168.00
2230 0.0000 157085.00 149345.00 5172.00
2231 0.0000 172044.00 165352.00 5174.00
2232 0.0000 202534.00 191281.00 5177.00
2233 0.0000 239309.00 230209.00 5180.00
2234 0.0000 287759.00 283898.00 5180.00
2235 0.0000 347954.00 351262.00 5182.00
2236 0.0000 424715.00 427264.00 5180.00
2237 0.0000 503804.00 502673.00 5181.00
2238 0.0000 554481.00 565146.00 5182.00
2239 0.0000 581048.00 602182.00 5179.00
2240 0.0000 583256.00 605781.00 5180.00
2241 0.0000 550443.00 577009.00 5176.00
2242 0.0000 503351.00 525742.00 5175.00
2243 0.0000 453140.00 465812.00 5175.00
2244 0.0000 411677.00 410191.00 5169.00
2245 0.0000 371064.00 367859.00 5168.00
2246 0.0000 352202.00 342515.00 5160.00
2247 0.0000 346807.00 332648.00 5158.00
2248 0.0000 350508.00 332753.00 5156.00
2249 0.0000 348796.00 335280.00 5145.00
2250 0.0000 342908.00 333050.00 5142.00
2251 0.0000 322665.00 321664.00 5130.00
2252 0.0000 292053.00 300811.00 5126.00
2253 0.0000 255576.00 273567.00 5122.00
2254 0.0000 226846.00 244549.00 5108.00
2255 0.0000 203880.00 217990.00 5103.00
2256 0.0000 178491.00 196788.00 5087.00
2257 0.0000 161689.00 182069.00 5082.00
2258 0.0000 153931.00 173326.00 5076.00
2259 0.0000 158125.00 168895.00 5058.00
2260 0.0000 161857.00 166623.00 5052.00
2261 0.0000 161205.00 164519.00 5033.00
2262 0.0000 149074.00 161309.00 5026.00
2263 0.0000 151217.00 156632.00 5018.00
2264 0.0000 147149.00 151016.00 4997.00
2265 0.0000 136544.00 145126.00 4989.00
2266 0.0000 137910.00 139645.00 4968.00
2267 0.0000 138702.00 135042.00 4959.00
2268 0.0000 138739.00 131508.00 4950.00
2269 0.0000 137583.00 129000.00 4927.00
2270 0.0000 138911.00 127333.00 4918.00
2271 0.0000 133851.00 126277.00 4895.00
2272 0.0000 134791.00 125620.00 4884.00
2273 0.0000 136766.00 125203.00 4875.00
2274 0.0000 132441.00 124921.00 4851.00
2275 0.0000 127978.00 124713.00 4841.00
2276 0.0000 124697.00 124546.00 4817.00
2277 0.0000 124320.00 124404.00 4806.00
2278 0.0000 116137.00 124277.00 4796.00
2279 0.0000 112623.00 124163.00 4772.00
2280 0.0000 115690.00 124059.00 4762.00
2281 0.0000 112188.00 123963.00 4738.00
2282 0.0000 114070.00 123874.00 4728.00
2283 0.0000 119111.00 123791.00 4718.00
2284 0.0000 117167.00 123713.00 4695.00
2285 0.0000 119461.00 123641.00 4686.00
2286 0.0000 112147.00 123572.00 4664.00
2287 0.0000 113536.00 123508.00 4655.00
2288 0.0000 111211.00 123446.00 4646.00
2289 0.0000 112491.00 123388.00 4626.00
2290 0.0000 113653.00 123333.00 4617.00
2291 0.0000 116390.00 123280.00 4599.00
2292 0.0000 122026.00 123229.00 4591.00
2293 0.0000 124771.00 123181.00 4583.00
2294 0.0000 124309.00 123142.00 4566.00
2295 0.0000 122496.00 123097.00 4560.00
2296 0.0000 117501.00 123054.00 4546.00
2297 0.0000 109453.00 123012.00 4540.00
2298 0.0000 104660.00 122971.00 4534.00
2299 0.0000 103898.00 122932.00 4523.00
2300 0.0000 104246.00 122897.00 4519.00
2301 0.0000 108092.00 122860.00 4508.00
2302 0.0000 110864.00 122824.00 4505.00
2303 0.0000 110802.00 122789.00 4503.00
2304 0.0000 110896.00 122754.00 4496.00
2305 0.0000 113835.00 122721.00 4494.00
2306 0.0000 119147.00 122688.00 4490.00
2307 0.0000 119901.00 122656.00 4489.00
2308 0.0000 122267.00 122625.00 4489.00
2309 0.0000 121807.00 122386.00 4488.00
2310 0.0000 121262.00 122362.00 4489.00
2311 0.0000 119537.00 122338.00 4490.00
2312 0.0000 112662.00 122314.00 4492.00
2313 0.0000 110151.00 122291.00 4494.00
2314 0.0000 111219.00 122451.00 4498.00
2315 0.0000 112955.00 122433.00 4501.00
2316 0.0000 114577.00 122417.00 4507.00
2317 0.0000 119589.00 122400.00 4512.00
2318 0.0000 116388.00 122420.00 4517.00
2319 0.0000 114576.00 122371.00 4525.00
2320 0.0000 119396.00 122309.00 4531.00
2321 0.0000 113299.00 122298.00 4541.00
2322 0.0000 115116.00 122288.00 4548.00
2323 0.0000 117437.00 122278.00 4555.00
2324 0.0000 122695.00 122268.00 4568.00
2325 0.0000 115592.00 122259.00 4576.00
2326 0.0000 113673.00 122251.00 4589.00
2327 0.0000 108598.00 122244.00 4598.00
2328 0.0000 116145.00 122237.00 4607.00
2329 0.0000 117297.00 122231.00 4623.00
2330 0.0000 124147.00 122226.00 4633.00
2331 0.0000 122640.00 122208.00 4649.00
2332 0.0000 117362.00 122205.00 4659.00
2333 0.0000 118552.00 122203.00 4669.00
2334 0.0000 119960.00 122203.00 4687.00
2335 0.0000 118075.00 122204.00 4697.00
2336 0.0000 120687.00 122206.00 4715.00
2337 0.0000 117308.00 122209.00 4726.00
2338 0.0000 118937.00 122214.00 4736.00
2339 0.0000 113775.00 122221.00 4755.00
2340 0.0000 120292.00 122230.00 4765.00
2341 0.0000 120258.00 122241.00 4784.00
2342 0.0000 115483.00 122255.00 4795.00
2343 0.0000 118087.00 122271.00 4805.00
2344 0.0000 106257.00 122291.00 4824.00
2345 0.0000 111382.00 122314.00 4834.00
2346 0.0000 114778.00 122341.00 4852.00
2347 0.0000 118270.00 122372.00 4862.00
2348 0.0000 117848.00 122410.00 4872.00
2349 0.0000 111339.00 122455.00 4889.00
2350 0.0000 120908.00 122510.00 4899.00
2351 0.0000 117745.00 122584.00 4915.00
2352 0.0000 117643.00 122688.00 4925.00
2353 0.0000 121570.00 122848.00 4934.00
2354 0.0000 128529.00 123109.00 4950.00
2355 0.0000 125376.00 123539.00 4958.00
2356 0.0000 126211.00 124234.00 4972.00
2357 0.0000 130886.00 125308.00 4981.00
2358 0.0000 129808.00 126868.00 4989.00
2359 0.0000 134139.00 128975.00 5002.00
2360 0.0000 138383.00 131597.00 5009.00
2361 0.0000 135837.00 134572.00 5020.00
2362 0.0000 134273.00 137607.00 5028.00
2363 0.0000 131197.00 140309.00 5034.00
2364 0.0000 134746.00 142268.00 5044.00
2365 0.0000 139158.00 143196.00 5050.00
2366 0.0000 140414.00 143058.00 5059.00
2367 0.0000 140704.00 142076.00 5065.00
2368 0.0000 131684.00 140582.00 5070.00
2369 0.0000 131565.00 138897.00 5077.00
2370 0.0000 133860.00 137288.00 5082.00
2371 0.0000 125656.00 136011.00 5088.00
2372 0.0000 134070.00 135426.00 5092.00
2373 0.0000 138803.00 136117.00 5096.00
2374 0.0000 142326.00 139053.00 5100.00
2375 0.0000 150966.00 145751.00 5103.00
2376 0.0000 160240.00 158366.00 5106.00
2377 0.0000 184026.00 179577.00 5109.00
2378 0.0000 210858.00 212116.00 5110.00
2379 0.0000 240697.00 257857.00 5111.00
2380 0.0000 290798.00 316716.00 5112.00
2381 0.0000 352745.00 385591.00 5112.00
2382 0.0000 426541.00 457906.00 5112.00
2383 0.0000 498090.00 523994.00 5112.00
2384 0.0000 556958.00 572798.00 5109.00
2385 0.0000 591206.00 594888.00 5108.00
2386 0.0000 588619.00 586343.00 5104.00
2387 0.0000 565290.00 550350.00 5103.00
2388 0.0000 518159.00 494836.00 5102.00
2389 0.0000 449169.00 429197.00 5096.00
2390 0.0000 377798.00 362168.00 5095.00
2391 0.0000 308513.00 300640.00 5088.00
2392 0.0000 248490.00 248903.00 5085.00
2393 0.0000 208440.00 208489.00 5083.00
2394 0.0000 174355.00 178885.00 5074.00
2395 0.0000 146405.00 158406.00 5070.00
2396 0.0000 132909.00 144962.00 5059.00
2397 0.0000 125589.00 136540.00 5055.00
2398 0.0000 111556.00 131475.00 5050.00
2399 0.0000 114264.00 128531.00 5038.00
2400 0.0000 112553.00 126855.00 5033.00
2401 0.0000 105737.00 125903.00 5018.00
2402 0.0000 102625.00 125339.00 5013.00
2403 0.0000 100288.00 124963.00 5006.00
2404 0.0000 105233.00 124656.00 4991.00
2405 0.0000 108411.00 124347.00 4984.00
2406 0.0000 110424.00 124007.00 4967.00
2407 0.0000 110371.00 123637.00 4960.00
2408 0.0000 111800.00 123253.00 4953.00
2409 0.0000 110868.00 122881.00 4935.00
2410 0.0000 105220.00 122539.00 4928.00
2411 0.0000 107524.00 122242.00 4909.00
2412 0.0000 111846.00 121992.00 4901.00
2413 0.0000 110976.00 121787.00 4893.00
2414 0.0000 107333.00 121620.00 4874.00
2415 0.0000 101840.00 121484.00 4866.00
2416 0.0000 94940.00 121371.00 4847.00
2417 0.0000 105069.00 121277.00 4839.00
2418 0.0000 111195.00 121202.00 4831.00
2419 0.0000 113977.00 121146.00 4812.00
2420 0.0000 111746.00 121117.00 4804.00
2421 0.0000 109607.00 121120.00 4785.00
2422 0.0000 108542.00 121163.00 4778.00
2423 0.0000 105403.00 121249.00 4770.00
2424 0.0000 105157.00 121373.00 4751.00
2425 0.0000 111650.00 121523.00 4744.00
2426 0.0000 109783.00 121673.00 4726.00
2427 0.0000 105392.00 121791.00 4719.00
2428 0.0000 108344.00 121844.00 4713.00
2429 0.0000 110677.00 121862.00 4696.00
2430 0.0000 116210.00 121736.00 4690.00
2431 0.0000 111741.00 121536.00 4674.00
2432 0.0000 108130.00 121296.00 4668.00
2433 0.0000 110723.00 121047.00 4662.00
2434 0.0000 104644.00 120816.00 4649.00
2435 0.0000 97798.00 120620.00 4643.00
2436 0.0000 104571.00 120456.00 4631.00
2437 0.0000 108322.00 120337.00 4626.00
2438 0.0000 107652.00 120249.00 4621.00
2439 0.0000 106415.00 120184.00 4611.00
2440 0.0000 107395.00 120134.00 4607.00
2441 0.0000 105200.00 120090.00 4597.00
2442 0.0000 104594.00 120055.00 4594.00
2443 0.0000 111615.00 120022.00 4591.00
2444 0.0000 113953.00 120000.00 4582.00
2445 0.0000 113681.00 119971.00 4580.00
2446 0.0000 117273.00 119943.00 4573.00
2447 0.0000 110776.00 119917.00 4571.00
2448 0.0000 109168.00 119891.00 4570.00
2449 0.0000 110325.00 119865.00 4564.00
2450 0.0000 112058.00 119841.00 4563.00
2451 0.0000 110923.00 119817.00 4558.00
2452 0.0000 112659.00 119794.00 4558.00
2453 0.0000 112964.00 119772.00 4557.00
2454 0.0000 111504.00 119750.00 4553.00
2455 0.0000 106056.00 119729.00 4553.00
2456 0.0000 107822.00 119524.00 4550.00
2457 0.0000 114163.00 119510.00 4550.00
2458 0.0000 114323.00 119496.00 4551.00
2459 0.0000 111256.00 119482.00 4549.00
2460 0.0000 113626.00 119436.00 4549.00
2461 0.0000 114739.00 119425.00 4548.00
2462 0.0000 112918.00 119414.00 4548.00
2463 0.0000 112668.00 119404.00 4549.00
2464 0.0000 108248.00 119395.00 4549.00
2465 0.0000 106912.00 119386.00 4549.00
2466 0.0000 103500.00 119379.00 4549.00
2467 0.0000 104945.00 119373.00 4551.00
2468 0.0000 101729.00 119368.00 4552.00
2469 0.0000 103993.00 119364.00 4552.00
2470 0.0000 110570.00 119362.00 4553.00
2471 0.0000 113029.00 119361.00 4553.00
2472 0.0000 114844.00 119362.00 4555.00
2473 0.0000 112393.00 119365.00 4556.00
2474 0.0000 109403.00 119371.00 4557.00
2475 0.0000 109263.00 119380.00 4559.00
2476 0.0000 111121.00 119392.00 4559.00
2477 0.0000 112002.00 119407.00 4560.00
2478 0.0000 117978.00 119427.00 4562.00
2479 0.0000 113165.00 119452.00 4562.00
2480 0.0000 108715.00 119483.00 4564.00
2481 0.0000 105924.00 119521.00 4565.00
2482 0.0000 104569.00 119568.00 4566.00
2483 0.0000 105679.00 119625.00 4568.00
2484 0.0000 105702.00 119698.00 4568.00
2485 0.0000 104975.00 119792.00 4569.00
2486 0.0000 112341.00 119923.00 4569.00
2487 0.0000 114585.00 120124.00 4571.00
2488 0.0000 119855.00 120457.00 4572.00
2489 0.0000 116230.00 121048.00 4572.00
2490 0.0000 116150.00 122121.00 4574.00
2491 0.0000 113846.00 124035.00 4573.00
2492 0.0000 119258.00 127316.00 4574.00
2493 0.0000 122111.00 132630.00 4575.00
2494 0.0000 130599.00 140672.00 4575.00
2495 0.0000 141519.00 151961.00 4576.00
2496 0.0000 153732.00 166561.00 4574.00
2497 0.0000 175785.00 183803.00 4575.00
2498 0.0000 195178.00 202121.00 4576.00
2499 0.0000 215956.00 219146.00 4574.00
2500 0.0000 225133.00 232045.00 4575.00
2501 0.0000 231591.00 238193.00 4573.00
2502 0.0000 234706.00 236170.00 4573.00
2503 0.0000 231870.00 226470.00 4574.00
2504 0.0000 213946.00 211257.00 4572.00
2505 0.0000 190919.00 193400.00 4573.00
2506 0.0000 168857.00 175623.00 4570.00
2507 0.0000 150142.00 160001.00 4570.00
2508 0.0000 134937.00 147755.00 4571.00
2509 0.0000 126413.00 139260.00 4567.00
2510 0.0000 115991.00 134260.00 4567.00
2511 0.0000 114949.00 132116.00 4564.00
2512 0.0000 115820.00 132018.00 4564.00
2513 0.0000 117425.00 133130.00 4563.00
2514 0.0000 119007.00 134664.00 4559.00
2515 0.0000 121852.00 135930.00 4559.00
2516 0.0000 121977.00 136400.00 4554.00
2517 0.0000 127573.00 135806.00 4554.00
2518 0.0000 126285.00 134195.00 4553.00
2519 0.0000 125771.00 131863.00 4549.00
2520 0.0000 128059.00 129201.00 4548.00
2521 0.0000 128453.00 126570.00 4542.00
2522 0.0000 127593.00 124245.00 4542.00
2523 0.0000 123107.00 122368.00 4541.00
2524 0.0000 119545.00 120970.00 4535.00
2525 0.0000 115453.00 119999.00 4534.00
2526 0.0000 113560.00 119364.00 4529.00
2527 0.0000 111088.00 118966.00 4527.00
2528 0.0000 114333.00 118720.00 4526.00
2529 0.0000 116078.00 118565.00 4520.00
2530 0.0000 120169.00 118461.00 4519.00
2531 0.0000 113751.00 118385.00 4513.00
2532 0.0000 114597.00 118324.00 4512.00
2533 0.0000 115871.00 118272.00 4511.00
2534 0.0000 115561.00 118225.00 4505.00
2535 0.0000 112644.00 118182.00 4504.00
2536 0.0000 105783.00 118143.00 4498.00
2537 0.0000 105457.00 118106.00 4497.00
2538 0.0000 104898.00 118071.00 4496.00
2539 0.0000 101413.00 118045.00 4490.00
2540 0.0000 106076.00 118014.00 4489.00
2541 0.0000 108810.00 117986.00 4485.00
2542 0.0000 110354.00 117959.00 4484.00
2543 0.0000 108937.00 117934.00 4483.00
2544 0.0000 111734.00 117912.00 4479.00
2545 0.0000 105953.00 117892.00 4479.00
2546 0.0000 104766.00 117877.00 4475.00
2547 0.0000 107649.00 117869.00 4475.00
2548 0.0000 104453.00 117873.00 4475.00
2549 0.0000 110065.00 117900.00 4471.00
2550 0.0000 108691.00 117967.00 4471.00
2551 0.0000 109470.00 118096.00 4469.00
2552 0.0000 110810.00 118319.00 4469.00
2553 0.0000 108556.00 118670.00 4469.00
2554 0.0000 104655.00 119180.00 4467.00
2555 0.0000 112717.00 119864.00 4467.00
2556 0.0000 114083.00 120714.00 4466.00
2557 0.0000 116084.00 121688.00 4466.00
2558 0.0000 118267.00 122713.00 4467.00
2559 0.0000 116433.00 123674.00 4465.00
2560 0.0000 123170.00 124461.00 4466.00
2561 0.0000 123117.00 124984.00 4465.00
2562 0.0000 118317.00 125201.00 4466.00
2563 0.0000 120960.00 125115.00 4467.00
2564 0.0000 122404.00 124758.00 4467.00
2565 0.0000 117116.00 124180.00 4468.00
2566 0.0000 119215.00 123438.00 4468.00
2567 0.0000 112440.00 122585.00 4469.00
2568 0.0000 115535.00 121680.00 4471.00
2569 0.0000 114891.00 120784.00 4471.00
2570 0.0000 115950.00 119953.00 4474.00
2571 0.0000 122179.00 119228.00 4474.00
2572 0.0000 125119.00 118631.00 4476.00
2573 0.0000 121868.00 118167.00 4479.00
2574 0.0000 118549.00 117824.00 4480.00
2575 0.0000 118003.00 117533.00 4483.00
2576 0.0000 116173.00 117371.00 4484.00
2577 0.0000 120612.00 117264.00 4487.00
2578 0.0000 118242.00 117194.00 4490.00
2579 0.0000 120366.00 117145.00 4492.00
2580 0.0000 120699.00 117110.00 4495.00
2581 0.0000 118477.00 117082.00 4497.00
2582 0.0000 108516.00 117059.00 4500.00
2583 0.0000 116065.00 117040.00 4503.00
2584 0.0000 119991.00 117025.00 4506.00
2585 0.0000 123359.00 117016.00 4509.00
2586 0.0000 121048.00 117016.00 4513.00
2587 0.0000 116876.00 117027.00 4517.00
2588 0.0000 117238.00 117054.00 4520.00
2589 0.0000 113409.00 117097.00 4524.00
2590 0.0000 118412.00 117152.00 4528.00
2591 0.0000 114960.00 117227.00 4532.00
2592 0.0000 113374.00 117309.00 4537.00
2593 0.0000 113399.00 117385.00 4541.00
2594 0.0000 113381.00 117441.00 4546.00
2595 0.0000 115056.00 117465.00 4551.00
2596 0.0000 117687.00 117450.00 4557.00
2597 0.0000 115171.00 117400.00 4561.00
2598 0.0000 116743.00 117329.00 4566.00
2599 0.0000 113662.00 117257.00 4573.00
2600 0.0000 111712.00 117210.00 4578.00
2601 0.0000 109853.00 117221.00 4586.00
2602 0.0000 112298.00 117332.00 4592.00
2603 0.0000 113960.00 117601.00 4598.00
2604 0.0000 114266.00 118096.00 4607.00
2605 0.0000 119950.00 118892.00 4613.00
2606 0.0000 120065.00 120054.00 4623.00
2607 0.0000 113585.00 121606.00 4630.00
2608 0.0000 116879.00 123501.00 4637.00
2609 0.0000 124264.00 125605.00 4649.00
2610 0.0000 128544.00 127692.00 4656.00
2611 0.0000 129318.00 129471.00 4670.00
2612 0.0000 130425.00 130643.00 4679.00
2613 0.0000 129742.00 130989.00 4688.00
2614 0.0000 130942.00 130469.00 4703.00
2615 0.0000 127680.00 129241.00 4713.00
2616 0.0000 124735.00 127577.00 4730.00
2617 0.0000 121507.00 125766.00 4741.00
2618 0.0000 122462.00 124037.00 4752.00
2619 0.0000 120225.00 122537.00 4772.00
2620 0.0000 118122.00 121328.00 4783.00
2621 0.0000 115708.00 120429.00 4804.00
2622 0.0000 121404.00 119845.00 4817.00
2623 0.0000 123843.00 119596.00 4830.00
2624 0.0000 126801.00 119720.00 4854.00
2625 0.0000 125552.00 120254.00 4868.00
2626 0.0000 125728.00 121210.00 4894.00
2627 0.0000 126773.00 122543.00 4909.00
2628 0.0000 122164.00 124539.00 4925.00
2629 0.0000 123079.00 126186.00 4954.00
2630 0.0000 123364.00 127615.00 4971.00
2631 0.0000 123779.00 128548.00 5003.00
2632 0.0000 128011.00 128768.00 5021.00
2633 0.0000 131612.00 128207.00 5039.00
2634 0.0000 133512.00 126982.00 5073.00
2635 0.0000 127279.00 125324.00 5093.00
2636 0.0000 125320.00 123500.00 5130.00
2637 0.0000 119254.00 121746.00 5150.00
2638 0.0000 124580.00 120221.00 5171.00
2639 0.0000 119805.00 119011.00 5210.00
2640 0.0000 112355.00 118123.00 5232.00
2641 0.0000 115274.00 117517.00 5272.00
2642 0.0000 116278.00 117130.00 5295.00
2643 0.0000 106755.00 116898.00 5318.00
2644 0.0000 112389.00 116781.00 5361.00
2645 0.0000 108103.00 116709.00 5384.00
2646 0.0000 110639.00 116670.00 5428.00
2647 0.0000 115708.00 116649.00 5452.00
2648 0.0000 113698.00 116639.00 5476.00
2649 0.0000 119413.00 116636.00 5521.00
2650 0.0000 115306.00 116637.00 5545.00
2651 0.0000 118227.00 116642.00 5591.00
2652 0.0000 110680.00 116649.00 5616.00
2653 0.0000 107961.00 116660.00 5641.00
2654 0.0000 100916.00 116674.00 5686.00
2655 0.0000 105379.00 116691.00 5711.00
2656 0.0000 103178.00 116711.00 5756.00
2657 0.0000 109266.00 116734.00 5781.00
2658 0.0000 111603.00 116761.00 5806.00
2659 0.0000 121597.00 116791.00 5850.00
2660 0.0000 120224.00 116825.00 5875.00
2661 0.0000 118509.00 116864.00 5919.00
2662 0.0000 106054.00 116907.00 5943.00
2663 0.0000 100998.00 116955.00 5966.00
2664 0.0000 97198.00 117008.00 6008.00
2665 0.0000 103325.00 117068.00 6031.00
2666 0.0000 104822.00 117133.00 6072.00
2667 0.0000 114864.00 117206.00 6094.00
2668 0.0000 108286.00 117287.00 6116.00
2669 0.0000 110843.00 117377.00 6155.00
2670 0.0000 111695.00 117476.00 6175.00
2671 0.0000 111963.00 117587.00 6211.00
2672 0.0000 112055.00 117710.00 6231.00
2673 0.0000 108632.00 117846.00 6251.00
2674 0.0000 115488.00 117999.00 6284.00
2675 0.0000 114584.00 118169.00 6303.00
2676 0.0000 115708.00 118360.00 6334.00
2677 0.0000 114037.00 118575.00 6352.00
2678 0.0000 115474.00 118816.00 6369.00
2679 0.0000 119085.00 119089.00 6397.00
2680 0.0000 116594.00 119399.00 6413.00
2681 0.0000 121477.00 119751.00 6439.00
2682 0.0000 122011.00 120154.00 6453.00
2683 0.0000 116360.00 120619.00 6468.00
2684 0.0000 119009.00 121160.00 6489.00
2685 0.0000 124084.00 121804.00 6502.00
2686 0.0000 133277.00 122598.00 6522.00
2687 0.0000 137490.00 123636.00 6534.00
2688 0.0000 145352.00 125113.00 6545.00
2689 0.0000 148620.00 127438.00 6561.00
2690 0.0000 152980.00 131371.00 6571.00
2691 0.0000 157805.00 138274.00 6584.00
2692 0.0000 170567.00 150392.00 6592.00
2693 0.0000 192836.00 171041.00 6600.00
2694 0.0000 223959.00 204635.00 6609.00
2695 0.0000 270723.00 256202.00 6616.00
2696 0.0000 341156.00 330321.00 6621.00
2697 0.0000 431935.00 429396.00 6626.00
2698 0.0000 535797.00 551765.00 6630.00
2699 0.0000 669393.00 690178.00 6633.00
2700 0.0000 816538.00 831075.00 6635.00
2701 0.0000 958444.00 956143.00 6635.00
2702 0.0000 1068120.00 1045030.00 6637.00
2703 0.0000 1120430.00 1080530.00 6638.00
2704 0.0000 1098380.00 1055090.00 6634.00
2705 0.0000 1011940.00 974450.00 6635.00
2706 0.0000 884591.00 854752.00 6629.00
2707 0.0000 720169.00 716339.00 6630.00
2708 0.0000 562321.00 578005.00 6629.00
2709 0.0000 421877.00 453954.00 6620.00
2710 0.0000 325320.00 352439.00 6617.00
2711 0.0000 250204.00 276049.00 6605.00
2712 0.0000 199501.00 223106.00 6601.00
2713 0.0000 170222.00 189599.00 6596.00
2714 0.0000 150254.00 170657.00 6579.00
2715 0.0000 137940.00 161733.00 6574.00
2716 0.0000 126318.00 159043.00 6554.00
2717 0.0000 131438.00 159627.00 6547.00
2718 0.0000 132328.00 161227.00 6539.00
2719 0.0000 140353.00 162177.00 6516.00
2720 0.0000 137791.00 161413.00 6506.00
2721 0.0000 136185.00 158552.00 6481.00
2722 0.0000 126792.00 153857.00 6470.00
2723 0.0000 117965.00 147992.00 6459.00
2724 0.0000 116212.00 141771.00 6430.00
2725 0.0000 102161.00 135803.00 6418.00
2726 0.0000 100893.00 130611.00 6387.00
2727 0.0000 93392.00 126433.00 6373.00
2728 0.0000 94331.00 123293.00 6359.00
2729 0.0000 96558.00 121067.00 6325.00
2730 0.0000 96384.00 119560.00 6311.00
2731 0.0000 94346.00 118567.00 6275.00
2732 0.0000 94555.00 117914.00 6260.00
2733 0.0000 99303.00 117473.00 6244.00
2734 0.0000 99018.00 117156.00 6208.00
2735 0.0000 104857.00 116913.00 6192.00
2736 0.0000 103339.00 116714.00 6154.00
2737 0.0000 103915.00 116542.00 6138.00
2738 0.0000 107040.00 116389.00 6121.00
2739 0.0000 106364.00 116251.00 6084.00
2740 0.0000 95393.00 116126.00 6067.00
2741 0.0000 96250.00 116011.00 6030.00
2742 0.0000 95976.00 115905.00 6013.00
2743 0.0000 97075.00 115808.00 5997.00
2744 0.0000 108698.00 115719.00 5960.00
2745 0.0000 100162.00 115637.00 5944.00
2746 0.0000 103814.00 115562.00 5907.00
2747 0.0000 108025.00 115496.00 5891.00
2748 0.0000 103437.00 115439.00 5875.00
2749 0.0000 107555.00 115396.00 5840.00
2750 0.0000 108695.00 115372.00 5826.00
2751 0.0000 108627.00 115374.00 5792.00
2752 0.0000 108479.00 115414.00 5777.00
2753 0.0000 107049.00 115502.00 5763.00
2754 0.0000 112608.00 115646.00 5732.00
2755 0.0000 117892.00 115850.00 5718.00
2756 0.0000 113319.00 116107.00 5687.00
2757 0.0000 107143.00 116399.00 5675.00
2758 0.0000 109047.00 116700.00 5662.00
2759 0.0000 116235.00 116980.00 5633.00
2760 0.0000 111930.00 117216.00 5622.00
2761 0.0000 120163.00 117414.00 5595.00
2762 0.0000 117075.00 117623.00 5584.00
2763 0.0000 116942.00 117941.00 5574.00
2764 0.0000 122383.00 118505.00 5549.00
2765 0.0000 112486.00 119454.00 5540.00
2766 0.0000 117409.00 120898.00 5517.00
2767 0.0000 122643.00 122873.00 5508.00
2768 0.0000 119861.00 125302.00 5500.00
2769 0.0000 128117.00 127981.00 5479.00
2770 0.0000 117918.00 130583.00 5471.00
2771 0.0000 129040.00 132709.00 5451.00
2772 0.0000 137505.00 133959.00 5444.00
2773 0.0000 139299.00 134061.00 5437.00
2774 0.0000 130287.00 132977.00 5419.00
2775 0.0000 131986.00 130922.00 5413.00
2776 0.0000 134652.00 128263.00 5396.00
2777 0.0000 134165.00 125397.00 5391.00
2778 0.0000 132131.00 122663.00 5385.00
2779 0.0000 126370.00 119910.00 5370.00
2780 0.0000 117147.00 118044.00 5364.00
2781 0.0000 118403.00 116677.00 5350.00
2782 0.0000 121515.00 115752.00 5345.00
2783 0.0000 116467.00 115177.00 5341.00
2784 0.0000 123770.00 114860.00 5327.00
2785 0.0000 123411.00 114731.00 5323.00
2786 0.0000 125342.00 114747.00 5311.00
2787 0.0000 126828.00 114923.00 5307.00
2788 0.0000 127800.00 115317.00 5303.00
2789 0.0000 121763.00 116067.00 5291.00
2790 0.0000 124218.00 117402.00 5287.00
2791 0.0000 131576.00 119655.00 5275.00
2792 0.0000 128092.00 123246.00 5272.00
2793 0.0000 135310.00 128629.00 5268.00
2794 0.0000 143813.00 136175.00 5257.00
2795 0.0000 150855.00 146017.00 5253.00
2796 0.0000 166224.00 157865.00 5243.00
2797 0.0000 178524.00 170954.00 5240.00
2798 0.0000 185597.00 183946.00 5237.00
2799 0.0000 193312.00 195106.00 5227.00
2800 0.0000 199100.00 202614.00 5224.00
2801 0.0000 207442.00 205026.00 5215.00
2802 0.0000 213383.00 201828.00 5212.00
2803 0.0000 205866.00 193684.00 5210.00
2804 0.0000 194285.00 182121.00 5201.00
2805 0.0000 174479.00 168984.00 5199.00
2806 0.0000 164237.00 155953.00 5191.00
2807 0.0000 148800.00 144287.00 5189.00
2808 0.0000 134605.00 134708.00 5188.00
2809 0.0000 129530.00 127426.00 5180.00
2810 0.0000 123443.00 122267.00 5178.00
2811 0.0000 123395.00 118836.00 5170.00
2812 0.0000 123691.00 116682.00 5169.00
2813 0.0000 117405.00 115390.00 5167.00
2814 0.0000 111604.00 114636.00 5159.00
2815 0.0000 110713.00 114196.00 5158.00
2816 0.0000 112472.00 113931.00 5150.00
2817 0.0000 114029.00 113759.00 5149.00
2818 0.0000 115746.00 113636.00 5148.00
2819 0.0000 114241.00 113540.00 5141.00
2820 0.0000 115353.00 113459.00 5139.00
2821 0.0000 113263.00 113390.00 5133.00
2822 0.0000 117244.00 113327.00 5131.00
2823 0.0000 125819.00 113271.00 5130.00
2824 0.0000 131781.00 113220.00 5123.00
2825 0.0000 126299.00 113173.00 5123.00
2826 0.0000 116898.00 113129.00 5116.00
2827 0.0000 114316.00 113088.00 5115.00
2828 0.0000 111344.00 113051.00 5114.00
2829 0.0000 111722.00 113015.00 5108.00
2830 0.0000 112881.00 112981.00 5107.00
2831 0.0000 120916.00 112950.00 5102.00
2832 0.0000 125101.00 112919.00 5101.00
2833 0.0000 121618.00 112890.00 5100.00
2834 0.0000 132549.00 112863.00 5095.00
2835 0.0000 137467.00 112836.00 5094.00
2836 0.0000 130139.00 112810.00 5090.00
2837 0.0000 118428.00 112785.00 5090.00
2838 0.0000 112598.00 112760.00 5090.00
2839 0.0000 109215.00 112737.00 5086.00
2840 0.0000 111817.00 112715.00 5086.00
2841 0.0000 115547.00 112692.00 5082.00
2842 0.0000 116530.00 112671.00 5082.00
2843 0.0000 118481.00 112650.00 5081.00
2844 0.0000 112594.00 112629.00 5077.00
2845 0.0000 110166.00 112609.00 5078.00
2846 0.0000 104753.00 112590.00 5074.00
2847 0.0000 105077.00 112571.00 5074.00
2848 0.0000 103373.00 112554.00 5075.00
2849 0.0000 110241.00 112537.00 5073.00
2850 0.0000 114397.00 112515.00 5074.00
2851 0.0000 113658.00 112504.00 5071.00
2852 0.0000 112874.00 112496.00 5072.00
2853 0.0000 112344.00 112492.00 5073.00
2854 0.0000 116472.00 112492.00 5072.00
2855 0.0000 117469.00 112494.00 5073.00
2856 0.0000 117104.00 112498.00 5072.00
2857 0.0000 112773.00 112501.00 5074.00
2858 0.0000 113817.00 112501.00 5076.00
2859 0.0000 116675.00 112493.00 5076.00
2860 0.0000 120263.00 112477.00 5077.00
2861 0.0000 119125.00 112453.00 5078.00
2862 0.0000 119291.00 112421.00 5081.00
2863 0.0000 118902.00 112385.00 5083.00
2864 0.0000 116006.00 112347.00 5084.00
2865 0.0000 112304.00 112310.00 5087.00
2866 0.0000 112423.00 112276.00 5089.00
2867 0.0000 115543.00 112246.00 5093.00
2868 0.0000 116083.00 112219.00 5097.00
2869 0.0000 116201.00 112196.00 5100.00
2870 0.0000 115641.00 112175.00 5104.00
2871 0.0000 114441.00 112156.00 5108.00
2872 0.0000 115139.00 112139.00 5113.00
2873 0.0000 116646.00 112122.00 5118.00
2874 0.0000 123673.00 112106.00 5123.00
2875 0.0000 121496.00 112090.00 5128.00
2876 0.0000 122358.00 112075.00 5134.00
2877 0.0000 122154.00 112059.00 5140.00
2878 0.0000 130784.00 112044.00 5145.00
2879 0.0000 131911.00 111993.00 5152.00
2880 0.0000 132802.00 111978.00 5159.00
2881 0.0000 141070.00 112069.00 5167.00
2882 0.0000 141326.00 112057.00 5174.00
2883 0.0000 145834.00 112046.00 5181.00
2884 0.0000 145211.00 112034.00 5190.00
2885 0.0000 137476.00 112023.00 5198.00
2886 0.0000 139288.00 112012.00 5207.00
2887 0.0000 131553.00 112001.00 5214.00
2888 0.0000 128411.00 111991.00 5222.00
2889 0.0000 129325.00 111980.00 5232.00
2890 0.0000 124830.00 111982.00 5241.00
2891 0.0000 123535.00 111973.00 5252.00
2892 0.0000 126737.00 111963.00 5261.00
2893 0.0000 125563.00 111953.00 5269.00
2894 0.0000 126170.00 111944.00 5282.00
2895 0.0000 125970.00 111935.00 5291.00
2896 0.0000 118741.00 111926.00 5304.00
2897 0.0000 119011.00 111918.00 5313.00
2898 0.0000 112590.00 111910.00 5322.00
2899 0.0000 115043.00 111902.00 5337.00
2900 0.0000 118850.00 111894.00 5347.00
2901 0.0000 119739.00 111887.00 5362.00
2902 0.0000 116718.00 111880.00 5372.00
2903 0.0000 112834.00 111873.00 5383.00
2904 0.0000 114475.00 111867.00 5399.00
2905 0.0000 105767.00 111862.00 5409.00
2906 0.0000 105541.00 111856.00 5426.00
2907 0.0000 108692.00 111852.00 5437.00
2908 0.0000 107102.00 111847.00 5449.00
2909 0.0000 109564.00 111844.00 5466.00
2910 0.0000 110699.00 111841.00 5477.00
2911 0.0000 114995.00 111839.00 5495.00
2912 0.0000 123150.00 111837.00 5506.00
2913 0.0000 120187.00 111836.00 5517.00
2914 0.0000 117441.00 111836.00 5535.00
2915 0.0000 109750.00 111837.00 5546.00
2916 0.0000 115363.00 111839.00 5564.00
2917 0.0000 122252.00 111842.00 5576.00
2918 0.0000 114143.00 111846.00 5587.00
2919 0.0000 107784.00 111852.00 5605.00
2920 0.0000 104836.00 111859.00 5617.00
2921 0.0000 105593.00 111867.00 5635.00
2922 0.0000 109663.00 111877.00 5646.00
2923 0.0000 110824.00 111889.00 5657.00
2924 0.0000 108371.00 111903.00 5674.00
2925 0.0000 117253.00 111920.00 5685.00
2926 0.0000 119631.00 111939.00 5702.00
2927 0.0000 115230.00 111961.00 5713.00
2928 0.0000 103238.00 111987.00 5724.00
2929 0.0000 105998.00 112016.00 5740.00
2930 0.0000 109385.00 112049.00 5751.00
2931 0.0000 112560.00 112087.00 5767.00
2932 0.0000 113969.00 112130.00 5778.00
2933 0.0000 110184.00 112179.00 5789.00
2934 0.0000 111732.00 112235.00 5804.00
2935 0.0000 113600.00 112300.00 5814.00
2936 0.0000 113360.00 112374.00 5829.00
2937 0.0000 113859.00 112458.00 5840.00
2938 0.0000 108726.00 112556.00 5851.00
2939 0.0000 120014.00 112669.00 5865.00
2940 0.0000 116328.00 112802.00 5875.00
2941 0.0000 116995.00 112960.00 5889.00
2942 0.0000 124524.00 113158.00 5898.00
2943 0.0000 126041.00 113419.00 5908.00
2944 0.0000 123948.00 113793.00 5921.00
2945 0.0000 113507.00 114375.00 5931.00
2946 0.0000 106783.00 115344.00 5944.00
2947 0.0000 114052.00 117010.00 5954.00
2948 0.0000 126553.00 119969.00 5963.00
2949 0.0000 133544.00 124771.00 5975.00
2950 0.0000 144256.00 132491.00 5984.00
2951 0.0000 153634.00 144284.00 5996.00
2952 0.0000 167871.00 161281.00 6005.00
2953 0.0000 186369.00 184257.00 6014.00
2954 0.0000 213418.00 213236.00 6025.00
2955 0.0000 248227.00 247106.00 6033.00
2956 0.0000 282876.00 283437.00 6044.00
2957 0.0000 307144.00 318496.00 6052.00
2958 0.0000 330461.00 347790.00 6060.00
2959 0.0000 341271.00 366825.00 6070.00
2960 0.0000 351635.00 372353.00 6077.00
2961 0.0000 345748.00 363648.00 6087.00
2962 0.0000 328228.00 342856.00 6094.00
2963 0.0000 304764.00 314116.00 6103.00
2964 0.0000 280364.00 282087.00 6113.00
2965 0.0000 254284.00 250869.00 6120.00
2966 0.0000 233359.00 223333.00 6130.00
2967 0.0000 207407.00 200867.00 6138.00
2968 0.0000 194789.00 183504.00 6146.00
2969 0.0000 176029.00 170336.00 6156.00
2970 0.0000 164882.00 160111.00 6163.00
2971 0.0000 154343.00 151708.00 6172.00
2972 0.0000 146618.00 144406.00 6179.00
2973 0.0000 138780.00 137877.00 6187.00
2974 0.0000 129556.00 132059.00 6196.00
2975 0.0000 120759.00 127020.00 6204.00
2976 0.0000 116343.00 122846.00 6212.00
2977 0.0000 108773.00 119561.00 6219.00
2978 0.0000 109371.00 117109.00 6226.00
2979 0.0000 104439.00 115369.00 6235.00
2980 0.0000 97652.00 114252.00 6241.00
2981 0.0000 107131.00 113478.00 6248.00
2982 0.0000 107433.00 112979.00 6255.00
2983 0.0000 110665.00 112655.00 6261.00
2984 0.0000 108838.00 112439.00 6268.00
2985 0.0000 108121.00 112286.00 6274.00
2986 0.0000 98979.00 112171.00 6280.00
2987 0.0000 91794.00 112080.00 6286.00
2988 0.0000 93843.00 112005.00 6292.00
2989 0.0000 87726.00 111942.00 6297.00
2990 0.0000 91981.00 111889.00 6302.00
2991 0.0000 97009.00 111845.00 6308.00
2992 0.0000 96918.00 111808.00 6313.00
2993 0.0000 106438.00 111779.00 6319.00
2994 0.0000 97940.00 111756.00 6323.00
2995 0.0000 100700.00 111740.00 6329.00
2996 0.0000 102950.00 111730.00 6333.00
2997 0.0000 97298.00 111727.00 6339.00
2998 0.0000 104720.00 111731.00 6344.00
2999 0.0000 107832.00 111741.00 6349.00
3000 0.0000 112587.00 111758.00 6354.00
3001 0.0000 107737.00 111784.00 6359.00
3002 0.0000 105902.00 111817.00 6364.00
3003 0.0000 108011.00 111860.00 6370.00
3004 0.0000 102950.00 111913.00 6375.00
3005 0.0000 112159.00 111978.00 6380.00
3006 0.0000 123055.00 112056.00 6385.00
3007 0.0000 128185.00 112151.00 6390.00
3008 0.0000 120273.00 112266.00 6396.00
3009 0.0000 117917.00 112408.00 6401.00
3010 0.0000 113632.00 112592.00 6406.00
3011 0.0000 113350.00 112844.00 6411.00
3012 0.0000 108592.00 113221.00 6416.00
3013 0.0000 109288.00 113826.00 6422.00
3014 0.0000 111418.00 114850.00 6426.00
3015 0.0000 112529.00 116615.00 6432.00
3016 0.0000 123035.00 119625.00 6435.00
3017 0.0000 133618.00 124603.00 6440.00
3018 0.0000 143844.00 132488.00 6445.00
3019 0.0000 148430.00 144337.00 6449.00
3020 0.0000 158081.00 161135.00 6453.00
3021 0.0000 179856.00 183483.00 6456.00
3022 0.0000 207514.00 211208.00 6460.00
3023 0.0000 241708.00 243095.00 6464.00
3024 0.0000 267063.00 276705.00 6466.00
3025 0.0000 303552.00 308505.00 6469.00
3026 0.0000 332237.00 334294.00 6470.00
3027 0.0000 356183.00 349982.00 6473.00
3028 0.0000 353528.00 352709.00 6477.00
3029 0.0000 329712.00 341944.00 6478.00
3030 0.0000 306807.00 319724.00 6481.00
3031 0.0000 285891.00 289800.00 6481.00
3032 0.0000 255725.00 256445.00 6485.00
3033 0.0000 232274.00 223528.00 6487.00
3034 0.0000 198034.00 193954.00 6486.00
3035 0.0000 171695.00 169415.00 6488.00
3036 0.0000 141803.00 150483.00 6487.00
3037 0.0000 130326.00 136804.00 6489.00
3038 0.0000 129462.00 127509.00 6491.00
3039 0.0000 126124.00 121542.00 6489.00
3040 0.0000 118909.00 117803.00 6490.00
3041 0.0000 120668.00 115680.00 6486.00
3042 0.0000 124152.00 114489.00 6487.00
3043 0.0000 118365.00 113850.00 6487.00
3044 0.0000 117374.00 113542.00 6481.00
3045 0.0000 106259.00 113464.00 6481.00
3046 0.0000 103954.00 113606.00 6475.00
3047 0.0000 98740.00 114051.00 6475.00
3048 0.0000 107365.00 114961.00 6473.00
3049 0.0000 110944.00 116641.00 6465.00
3050 0.0000 112979.00 119520.00 6465.00
3051 0.0000 127994.00 124213.00 6456.00
3052 0.0000 140167.00 131398.00 6454.00
3053 0.0000 143957.00 141752.00 6453.00
3054 0.0000 149496.00 155756.00 6443.00
3055 0.0000 165254.00 173436.00 6441.00
3056 0.0000 184185.00 194176.00 6430.00
3057 0.0000 198852.00 216563.00 6428.00
3058 0.0000 228856.00 238424.00 6425.00
3059 0.0000 250967.00 257054.00 6415.00
3060 0.0000 267633.00 269658.00 6412.00
3061 0.0000 279217.00 274032.00 6400.00
3062 0.0000 272729.00 269332.00 6398.00
3063 0.0000 250007.00 256446.00 6396.00
3064 0.0000 234740.00 237603.00 6384.00
3065 0.0000 208936.00 215602.00 6382.00
3066 0.0000 190385.00 193141.00 6370.00
3067 0.0000 167844.00 172365.00 6368.00
3068 0.0000 151785.00 154682.00 6366.00
3069 0.0000 132920.00 140683.00 6356.00
3070 0.0000 119455.00 130313.00 6354.00
3071 0.0000 116320.00 123086.00 6343.00
3072 0.0000 114280.00 118322.00 6341.00
3073 0.0000 110763.00 115330.00 6340.00
3074 0.0000 104579.00 113521.00 6330.00
3075 0.0000 96287.00 112520.00 6329.00
3076 0.0000 99411.00 111886.00 6319.00
3077 0.0000 101768.00 111496.00 6318.00
3078 0.0000 99275.00 111240.00 6316.00
3079 0.0000 108940.00 111057.00 6309.00
3080 0.0000 114936.00 110915.00 6308.00
3081 0.0000 114851.00 110799.00 6300.00
3082 0.0000 110889.00 110699.00 6300.00
3083 0.0000 102483.00 110613.00 6300.00
3084 0.0000 98586.00 110616.00 6294.00
3085 0.0000 91152.00 110554.00 6295.00
3086 0.0000 96289.00 110502.00 6289.00
3087 0.0000 104737.00 110464.00 6291.00
3088 0.0000 104648.00 110444.00 6293.00
3089 0.0000 100251.00 110450.00 6291.00
3090 0.0000 108564.00 110498.00 6293.00
3091 0.0000 111290.00 110606.00 6292.00
3092 0.0000 118619.00 110801.00 6294.00
3093 0.0000 119000.00 111109.00 6298.00
3094 0.0000 112129.00 111555.00 6299.00
3095 0.0000 112262.00 112154.00 6304.00
3096 0.0000 120147.00 112896.00 6307.00
3097 0.0000 113036.00 113748.00 6312.00
3098 0.0000 112752.00 114640.00 6318.00
3099 0.0000 110600.00 115478.00 6323.00
3100 0.0000 110731.00 116150.00 6330.00
3101 0.0000 119693.00 116548.00 6337.00
3102 0.0000 115239.00 116599.00 6345.00
3103 0.0000 111614.00 116292.00 6352.00
3104 0.0000 109272.00 115680.00 6361.00
3105 0.0000 111025.00 114863.00 6368.00
3106 0.0000 113235.00 113953.00 6379.00
3107 0.0000 112972.00 113053.00 6387.00
3108 0.0000 124885.00 112243.00 6396.00
3109 0.0000 125444.00 111478.00 6408.00
3110 0.0000 122048.00 110959.00 6418.00
3111 0.0000 118359.00 110586.00 6431.00
3112 0.0000 117457.00 110341.00 6441.00
3113 0.0000 110187.00 110200.00 6452.00
3114 0.0000 111792.00 110145.00 6467.00
3115 0.0000 104905.00 110170.00 6478.00
3116 0.0000 99114.00 110282.00 6494.00
3117 0.0000 101906.00 110509.00 6505.00
3118 0.0000 106035.00 110895.00 6516.00
3119 0.0000 114597.00 111499.00 6533.00
3120 0.0000 114970.00 112387.00 6546.00
3121 0.0000 111252.00 113611.00 6563.00
3122 0.0000 104783.00 115197.00 6576.00
3123 0.0000 100340.00 117114.00 6588.00
3124 0.0000 97220.00 119263.00 6606.00
3125 0.0000 111338.00 121470.00 6619.00
3126 0.0000 116170.00 123498.00 6636.00
3127 0.0000 117921.00 125081.00 6649.00
3128 0.0000 126836.00 125971.00 6662.00
3129 0.0000 131164.00 126018.00 6681.00
3130 0.0000 130957.00 125221.00 6693.00
3131 0.0000 139510.00 123731.00 6711.00
3132 0.0000 130711.00 121795.00 6723.00
3133 0.0000 119798.00 119679.00 6734.00
3134 0.0000 118333.00 117624.00 6751.00
3135 0.0000 118551.00 115810.00 6763.00
3136 0.0000 120149.00 114334.00 6779.00
3137 0.0000 118224.00 113231.00 6790.00
3138 0.0000 119316.00 112483.00 6801.00
3139 0.0000 115950.00 112044.00 6815.00
3140 0.0000 113761.00 111862.00 6826.00
3141 0.0000 118958.00 111907.00 6839.00
3142 0.0000 118277.00 112185.00 6849.00
3143 0.0000 124175.00 112707.00 6859.00
3144 0.0000 121900.00 113754.00 6871.00
3145 0.0000 123894.00 115543.00 6880.00
3146 0.0000 124938.00 118505.00 6891.00
3147 0.0000 134268.00 123222.00 6900.00
3148 0.0000 142470.00 130410.00 6908.00
3149 0.0000 142719.00 140818.00 6917.00
3150 0.0000 156550.00 155070.00 6925.00
3151 0.0000 173979.00 173451.00 6933.00
3152 0.0000 202151.00 195698.00 6940.00
3153 0.0000 219058.00 220867.00 6947.00
3154 0.0000 248105.00 247294.00 6954.00
3155 0.0000 282886.00 272852.00 6960.00
3156 0.0000 321151.00 295270.00 6965.00
3157 0.0000 346057.00 312689.00 6970.00
3158 0.0000 358723.00 324315.00 6976.00
3159 0.0000 352638.00 330830.00 6980.00
3160 0.0000 352100.00 334088.00 6985.00
3161 0.0000 349394.00 336195.00 6987.00
3162 0.0000 355157.00 338582.00 6992.00
3163 0.0000 358162.00 341450.00 6996.00
3164 0.0000 357279.00 343655.00 6996.00
3165 0.0000 359590.00 343028.00 6999.00
3166 0.0000 347838.00 337134.00 6997.00
3167 0.0000 342230.00 324335.00 6999.00
3168 0.0000 333173.00 304568.00 7000.00
3169 0.0000 293917.00 279341.00 6997.00
3170 0.0000 266943.00 251094.00 6998.00
3171 0.0000 228408.00 222467.00 6993.00
3172 0.0000 202879.00 195764.00 6993.00
3173 0.0000 174596.00 172610.00 6994.00
3174 0.0000 147970.00 153856.00 6986.00
3175 0.0000 131433.00 139581.00 6985.00
3176 0.0000 118071.00 129329.00 6976.00
3177 0.0000 104620.00 122347.00 6974.00
3178 0.0000 97695.00 117809.00 6973.00
3179 0.0000 93305.00 114964.00 6962.00
3180 0.0000 101650.00 113222.00 6960.00
3181 0.0000 102173.00 112157.00 6948.00
3182 0.0000 107981.00 111490.00 6945.00
3183 0.0000 108102.00 111054.00 6943.00
3184 0.0000 114450.00 110754.00 6930.00
3185 0.0000 114357.00 110553.00 6927.00
3186 0.0000 109052.00 110444.00 6912.00
3187 0.0000 111969.00 110451.00 6908.00
3188 0.0000 106096.00 110629.00 6904.00
3189 0.0000 109446.00 111068.00 6888.00
3190 0.0000 109430.00 111896.00 6884.00
3191 0.0000 111819.00 113268.00 6867.00
3192 0.0000 109360.00 115352.00 6862.00
3193 0.0000 117638.00 118279.00 6857.00
3194 0.0000 120000.00 122105.00 6840.00
3195 0.0000 126479.00 126746.00 6834.00
3196 0.0000 131728.00 131945.00 6816.00
3197 0.0000 138540.00 137331.00 6810.00
3198 0.0000 161472.00 142189.00 6804.00
3199 0.0000 187507.00 145975.00 6787.00
3200 0.0000 203897.00 148155.00 6782.00
3201 0.0000 219085.00 148405.00 6765.00
3202 0.0000 213088.00 146684.00 6760.00
3203 0.0000 196094.00 143245.00 6755.00
3204 0.0000 172369.00 138577.00 6741.00
3205 0.0000 141569.00 133293.00 6737.00
3206 0.0000 122273.00 128003.00 6722.00
3207 0.0000 123756.00 123216.00 6718.00
3208 0.0000 122303.00 119267.00 6713.00
3209 0.0000 115276.00 116317.00 6699.00
3210 0.0000 113458.00 114374.00 6696.00
3211 0.0000 113591.00 113338.00 6685.00
3212 0.0000 113895.00 113062.00 6682.00
3213 0.0000 112910.00 113355.00 6680.00
3214 0.0000 103563.00 114019.00 6669.00
3215 0.0000 94388.00 114860.00 6668.00
3216 0.0000 93849.00 115686.00 6659.00
3217 0.0000 95931.00 116325.00 6659.00
3218 0.0000 101091.00 116639.00 6658.00
3219 0.0000 116318.00 116552.00 6651.00
3220 0.0000 118415.00 116066.00 6652.00
3221 0.0000 121143.00 115259.00 6646.00
3222 0.0000 121667.00 114248.00 6647.00
3223 0.0000 108421.00 113160.00 6648.00
3224 0.0000 111182.00 112105.00 6644.00
3225 0.0000 113029.00 111165.00 6646.00
3226 0.0000 114762.00 110385.00 6644.00
3227 0.0000 111929.00 109780.00 6647.00
3228 0.0000 113873.00 109336.00 6650.00
3229 0.0000 109415.00 109029.00 6649.00
3230 0.0000 103400.00 108826.00 6652.00
3231 0.0000 98380.00 108698.00 6653.00
3232 0.0000 97912.00 108618.00 6657.00
3233 0.0000 101901.00 108609.00 6661.00
3234 0.0000 108109.00 108580.00 6661.00
3235 0.0000 106899.00 108562.00 6667.00
3236 0.0000 121517.00 108551.00 6670.00
3237 0.0000 115285.00 108545.00 6675.00
3238 0.0000 116626.00 108542.00 6681.00
3239 0.0000 119516.00 108542.00 6684.00
3240 0.0000 114848.00 108478.00 6690.00
3241 0.0000 113258.00 108487.00 6695.00
3242 0.0000 110167.00 108503.00 6701.00
3243 0.0000 114344.00 108530.00 6707.00
3244 0.0000 112486.00 108574.00 6713.00
3245 0.0000 104226.00 108642.00 6719.00
3246 0.0000 99106.00 108747.00 6727.00
3247 0.0000 99124.00 108900.00 6734.00
3248 0.0000 97415.00 109114.00 6741.00
3249 0.0000 105128.00 109324.00 6748.00
3250 0.0000 114798.00 109682.00 6755.00
3251 0.0000 117511.00 110103.00 6763.00
3252 0.0000 123709.00 110564.00 6770.00
3253 0.0000 118740.00 111028.00 6777.00
3254 0.0000 120538.00 111450.00 6786.00
3255 0.0000 121041.00 111778.00 6793.00
3256 0.0000 117270.00 111969.00 6801.00
3257 0.0000 119427.00 112000.00 6809.00
3258 0.0000 126432.00 111878.00 6817.00
3259 0.0000 124666.00 111635.00 6825.00
3260 0.0000 122429.00 111322.00 6833.00
3261 0.0000 117757.00 110995.00 6841.00
3262 0.0000 121772.00 110708.00 6847.00
3263 0.0000 125342.00 110512.00 6855.00
3264 0.0000 132317.00 110461.00 6863.00
3265 0.0000 131927.00 110627.00 6870.00
3266 0.0000 132319.00 111122.00 6878.00
3267 0.0000 129939.00 112133.00 6885.00
3268 0.0000 127042.00 113952.00 6892.00
3269 0.0000 132374.00 117009.00 6899.00
3270 0.0000 137219.00 121878.00 6907.00
3271 0.0000 149125.00 129241.00 6913.00
3272 0.0000 161427.00 139783.00 6921.00
3273 0.0000 175729.00 154043.00 6928.00
3274 0.0000 190310.00 172188.00 6934.00
3275 0.0000 208322.00 193802.00 6941.00
3276 0.0000 226010.00 217729.00 6946.00
3277 0.0000 244002.00 242048.00 6952.00
3278 0.0000 271303.00 264232.00 6957.00
3279 0.0000 283921.00 281429.00 6961.00
3280 0.0000 295408.00 291070.00 6966.00
3281 0.0000 294776.00 291525.00 6969.00
3282 0.0000 294722.00 282714.00 6973.00
3283 0.0000 279937.00 266136.00 6977.00
3284 0.0000 251669.00 244316.00 6979.00
3285 0.0000 223910.00 220073.00 6983.00
3286 0.0000 192162.00 196016.00 6985.00
3287 0.0000 167644.00 174122.00 6988.00
3288 0.0000 144331.00 155622.00 6992.00
3289 0.0000 139058.00 140995.00 6992.00
3290 0.0000 127496.00 130120.00 6995.00
3291 0.0000 123343.00 122479.00 6993.00
3292 0.0000 111103.00 117391.00 6996.00
3293 0.0000 108104.00 114159.00 6998.00
3294 0.0000 118366.00 112189.00 6994.00
3295 0.0000 109472.00 111026.00 6995.00
3296 0.0000 107349.00 110352.00 6990.00
3297 0.0000 107810.00 109964.00 6991.00
3298 0.0000 112628.00 109742.00 6992.00
3299 0.0000 117968.00 109623.00 6985.00
3300 0.0000 116073.00 109581.00 6985.00
3301 0.0000 112736.00 109617.00 6978.00
3302 0.0000 111554.00 109759.00 6978.00
3303 0.0000 111022.00 110078.00 6976.00
3304 0.0000 120221.00 110685.00 6967.00
3305 0.0000 119526.00 111757.00 6965.00
3306 0.0000 118719.00 113545.00 6956.00
3307 0.0000 124382.00 116379.00 6954.00
3308 0.0000 136648.00 120647.00 6952.00
3309 0.0000 140438.00 126705.00 6941.00
3310 0.0000 142663.00 134833.00 6938.00
3311 0.0000 156829.00 145095.00 6925.00
3312 0.0000 168330.00 157206.00 6922.00
3313 0.0000 178477.00 170488.00 6920.00
3314 0.0000 195531.00 183850.00 6907.00
3315 0.0000 209206.00 195876.00 6903.00
3316 0.0000 225684.00 205022.00 6889.00
3317 0.0000 225815.00 209913.00 6886.00
3318 0.0000 216099.00 209718.00 6882.00
3319 0.0000 215896.00 204469.00 6869.00
3320 0.0000 194091.00 195038.00 6866.00
3321 0.0000 181196.00 182825.00 6853.00
3322 0.0000 165863.00 169374.00 6849.00
3323 0.0000 140853.00 156082.00 6846.00
3324 0.0000 132411.00 144011.00 6833.00
3325 0.0000 123671.00 133827.00 6830.00
3326 0.0000 131896.00 125774.00 6816.00
3327 0.0000 130100.00 119776.00 6812.00
3328 0.0000 128372.00 115550.00 6808.00
3329 0.0000 117278.00 112720.00 6794.00
3330 0.0000 102961.00 110906.00 6791.00
3331 0.0000 96348.00 109784.00 6778.00
3332 0.0000 97339.00 109105.00 6774.00
3333 0.0000 111042.00 108695.00 6770.00
3334 0.0000 112027.00 108439.00 6757.00
3335 0.0000 118071.00 108271.00 6754.00
3336 0.0000 111066.00 108151.00 6739.00
3337 0.0000 101680.00 108059.00 6736.00
3338 0.0000 105301.00 107983.00 6733.00
3339 0.0000 112759.00 107917.00 6719.00
3340 0.0000 111281.00 107860.00 6716.00
3341 0.0000 109396.00 107808.00 6703.00
3342 0.0000 107399.00 107761.00 6699.00
3343 0.0000 104480.00 107719.00 6696.00
3344 0.0000 100967.00 107680.00 6684.00
3345 0.0000 105953.00 107645.00 6682.00
3346 0.0000 105822.00 107612.00 6670.00
3347 0.0000 102757.00 107582.00 6667.00
3348 0.0000 98820.00 107554.00 6664.00
3349 0.0000 94544.00 107528.00 6652.00
3350 0.0000 93041.00 107504.00 6650.00
3351 0.0000 98821.00 107481.00 6637.00
3352 0.0000 105140.00 107460.00 6634.00
3353 0.0000 109522.00 107440.00 6632.00
3354 0.0000 118185.00 107421.00 6621.00
3355 0.0000 116353.00 107404.00 6619.00
3356 0.0000 118013.00 107387.00 6608.00
3357 0.0000 116611.00 107371.00 6607.00
3358 0.0000 117159.00 107357.00 6605.00
3359 0.0000 121480.00 107343.00 6595.00
3360 0.0000 110724.00 107330.00 6594.00
3361 0.0000 102497.00 107318.00 6585.00
3362 0.0000 99447.00 107307.00 6584.00
3363 0.0000 110955.00 107296.00 6582.00
3364 0.0000 109039.00 107287.00 6574.00
3365 0.0000 112396.00 107211.00 6573.00
3366 0.0000 115002.00 107205.00 6565.00
3367 0.0000 115276.00 107199.00 6564.00
3368 0.0000 122923.00 107195.00 6563.00
3369 0.0000 122405.00 107192.00 6556.00
3370 0.0000 119414.00 107190.00 6556.00
3371 0.0000 114219.00 107189.00 6551.00
3372 0.0000 104079.00 107190.00 6552.00
3373 0.0000 100408.00 107193.00 6552.00
3374 0.0000 99112.00 107199.00 6548.00
3375 0.0000 98067.00 107210.00 6550.00
3376 0.0000 103361.00 107229.00 6546.00
3377 0.0000 101077.00 107261.00 6548.00
3378 0.0000 108182.00 107318.00 6549.00
3379 0.0000 110019.00 107419.00 6546.00
3380 0.0000 109753.00 107591.00 6549.00
3381 0.0000 109929.00 107879.00 6547.00
3382 0.0000 113678.00 108341.00 6550.00
3383 0.0000 115132.00 109053.00 6552.00
3384 0.0000 109437.00 110093.00 6553.00
3385 0.0000 123085.00 111538.00 6555.00
3386 0.0000 132706.00 113436.00 6555.00
3387 0.0000 125031.00 115783.00 6558.00
3388 0.0000 125641.00 118505.00 6562.00
3389 0.0000 120664.00 121447.00 6565.00
3390 0.0000 120787.00 124374.00 6569.00
3391 0.0000 129145.00 126990.00 6571.00
3392 0.0000 137740.00 128990.00 6575.00
3393 0.0000 125959.00 130113.00 6580.00
3394 0.0000 125815.00 130220.00 6584.00
3395 0.0000 120284.00 129336.00 6589.00
3396 0.0000 125541.00 127638.00 6594.00
3397 0.0000 132349.00 125384.00 6599.00
3398 0.0000 129876.00 122841.00 6604.00
3399 0.0000 114472.00 120243.00 6611.00
3400 0.0000 110888.00 117881.00 6617.00
3401 0.0000 112232.00 115643.00 6624.00
3402 0.0000 113879.00 113707.00 6631.00
3403 0.0000 109773.00 112054.00 6638.00
3404 0.0000 107291.00 110749.00 6646.00
3405 0.0000 109579.00 109722.00 6654.00
3406 0.0000 107715.00 108933.00 6665.00
3407 0.0000 110571.00 108341.00 6674.00
3408 0.0000 109609.00 107908.00 6683.00
3409 0.0000 114456.00 107610.00 6696.00
3410 0.0000 112524.00 107396.00 6706.00
3411 0.0000 117189.00 107251.00 6721.00
3412 0.0000 118140.00 107154.00 6731.00
3413 0.0000 113673.00 107089.00 6742.00
3414 0.0000 116914.00 107046.00 6759.00
3415 0.0000 102401.00 107016.00 6770.00
3416 0.0000 106260.00 106995.00 6788.00
3417 0.0000 107211.00 106978.00 6800.00
3418 0.0000 111816.00 106965.00 6813.00
3419 0.0000 112063.00 106955.00 6833.00
3420 0.0000 116085.00 106945.00 6847.00
3421 0.0000 115048.00 106938.00 6869.00
3422 0.0000 119941.00 106931.00 6884.00
3423 0.0000 119864.00 106925.00 6899.00
3424 0.0000 106320.00 106920.00 6922.00
3425 0.0000 97512.00 106917.00 6937.00
3426 0.0000 106049.00 106935.00 6962.00
3427 0.0000 103399.00 106934.00 6977.00
3428 0.0000 103814.00 106932.00 6994.00
3429 0.0000 99513.00 106932.00 7021.00
3430 0.0000 94734.00 106933.00 7039.00
3431 0.0000 98015.00 106934.00 7067.00
3432 0.0000 99114.00 106936.00 7085.00
3433 0.0000 100737.00 106939.00 7103.00
3434 0.0000 103778.00 106942.00 7132.00
3435 0.0000 112737.00 106947.00 7151.00
3436 0.0000 107757.00 106954.00 7182.00
3437 0.0000 113797.00 106960.00 7201.00
3438 0.0000 111502.00 106967.00 7220.00
3439 0.0000 108092.00 106976.00 7252.00
3440 0.0000 102302.00 106986.00 7272.00
3441 0.0000 104872.00 106996.00 7306.00
3442 0.0000 113663.00 107008.00 7326.00
3443 0.0000 124582.00 107022.00 7346.00
3444 0.0000 123577.00 107037.00 7379.00
3445 0.0000 115344.00 107053.00 7400.00
3446 0.0000 117110.00 107072.00 7433.00
3447 0.0000 117823.00 107092.00 7454.00
3448 0.0000 117422.00 107115.00 7473.00
3449 0.0000 115452.00 107139.00 7506.00
3450 0.0000 115880.00 107167.00 7525.00
3451 0.0000 115412.00 107197.00 7556.00
3452 0.0000 113913.00 107230.00 7576.00
3453 0.0000 114422.00 107266.00 7596.00
3454 0.0000 123107.00 107307.00 7626.00
3455 0.0000 109848.00 107352.00 7645.00
3456 0.0000 115550.00 107401.00 7676.00
3457 0.0000 111694.00 107456.00 7694.00
3458 0.0000 104171.00 107517.00 7713.00
3459 0.0000 103039.00 107585.00 7741.00
3460 0.0000 108361.00 107661.00 7759.00
3461 0.0000 108455.00 107746.00 7786.00
3462 0.0000 99822.00 107841.00 7804.00
3463 0.0000 99026.00 107948.00 7820.00
3464 0.0000 105169.00 108070.00 7846.00
3465 0.0000 108476.00 108209.00 7862.00
3466 0.0000 111130.00 108371.00 7886.00
3467 0.0000 109623.00 108565.00 7901.00
3468 0.0000 108812.00 108807.00 7916.00
3469 0.0000 113149.00 109130.00 7937.00
3470 0.0000 123540.00 109594.00 7950.00
3471 0.0000 123196.00 110306.00 7970.00
3472 0.0000 124737.00 111457.00 7983.00
3473 0.0000 128904.00 113356.00 7996.00
3474 0.0000 127938.00 116478.00 8014.00
3475 0.0000 136251.00 121506.00 8026.00
3476 0.0000 145133.00 129328.00 8040.00
3477 0.0000 162629.00 141003.00 8050.00
3478 0.0000 177629.00 157627.00 8060.00
3479 0.0000 199828.00 180107.00 8071.00
3480 0.0000 237545.00 208861.00 8079.00
3481 0.0000 268709.00 243527.00 8088.00
3482 0.0000 305106.00 282687.00 8095.00
3483 0.0000 346235.00 323732.00 8102.00
3484 0.0000 395226.00 363099.00 8108.00
3485 0.0000 437171.00 396586.00 8113.00
3486 0.0000 454638.00 420017.00 8117.00
3487 0.0000 459524.00 430167.00 8121.00
3488 0.0000 441352.00 425731.00 8126.00
3489 0.0000 409828.00 407822.00 8126.00
3490 0.0000 375442.00 379528.00 8129.00
3491 0.0000 347993.00 344909.00 8128.00
3492 0.0000 307845.00 308029.00 8131.00
3493 0.0000 278458.00 272287.00 8132.00
3494 0.0000 263020.00 240038.00 8128.00
3495 0.0000 237218.00 212490.00 8129.00
3496 0.0000 214459.00 189915.00 8123.00
3497 0.0000 193745.00 171902.00 8123.00
3498 0.0000 161505.00 157773.00 8123.00
3499 0.0000 150391.00 146827.00 8113.00
3500 0.0000 136189.00 138489.00 8111.00
3501 0.0000 145270.00 132372.00 8099.00
3502 0.0000 135348.00 128273.00 8096.00
3503 0.0000 127878.00 126135.00 8094.00
3504 0.0000 113615.00 125958.00 8079.00
3505 0.0000 111174.00 127733.00 8075.00
3506 0.0000 119168.00 131362.00 8059.00
3507 0.0000 122174.00 136605.00 8053.00
3508 0.0000 138933.00 143035.00 8048.00
3509 0.0000 145202.00 150026.00 8029.00
3510 0.0000 145722.00 156803.00 8022.00
3511 0.0000 142979.00 162504.00 8002.00
3512 0.0000 155294.00 166307.00 7995.00
3513 0.0000 170537.00 167600.00 7988.00
3514 0.0000 179000.00 166155.00 7965.00
3515 0.0000 170444.00 162204.00 7957.00
3516 0.0000 152853.00 156356.00 7933.00
3517 0.0000 145333.00 149396.00 7924.00
3518 0.0000 139238.00 142114.00 7915.00
3519 0.0000 130974.00 135174.00 7889.00
3520 0.0000 129851.00 129045.00 7879.00
3521 0.0000 116247.00 123968.00 7851.00
3522 0.0000 113677.00 119985.00 7842.00
3523 0.0000 113388.00 116981.00 7832.00
3524 0.0000 113564.00 114757.00 7803.00
3525 0.0000 112911.00 113100.00 7793.00
3526 0.0000 107529.00 111827.00 7764.00
3527 0.0000 106862.00 110808.00 7753.00
3528 0.0000 104194.00 109958.00 7741.00
3529 0.0000 105185.00 109235.00 7712.00
3530 0.0000 110470.00 108619.00 7701.00
3531 0.0000 113480.00 108103.00 7670.00
3532 0.0000 110339.00 107682.00 7659.00
3533 0.0000 103615.00 107349.00 7648.00
3534 0.0000 104609.00 107094.00 7617.00
3535 0.0000 100479.00 106902.00 7606.00
3536 0.0000 104806.00 106761.00 7577.00
3537 0.0000 107941.00 106656.00 7566.00
3538 0.0000 99578.00 106577.00 7556.00
3539 0.0000 97817.00 106515.00 7528.00
3540 0.0000 103865.00 106466.00 7518.00
3541 0.0000 107511.00 106423.00 7492.00
3542 0.0000 114366.00 106386.00 7482.00
3543 0.0000 107444.00 106353.00 7473.00
3544 0.0000 104176.00 106322.00 7447.00
3545 0.0000 104558.00 106293.00 7439.00
3546 0.0000 100869.00 106266.00 7416.00
3547 0.0000 97091.00 106258.00 7408.00
3548 0.0000 106356.00 106234.00 7401.00
3549 0.0000 113222.00 106211.00 7380.00
3550 0.0000 119116.00 106191.00 7373.00
3551 0.0000 120744.00 106170.00 7352.00
3552 0.0000 111519.00 106151.00 7346.00
3553 0.0000 113766.00 106132.00 7340.00
3554 0.0000 120849.00 106114.00 7320.00
3555 0.0000 117168.00 106097.00 7317.00
3556 0.0000 116289.00 106080.00 7300.00
3557 0.0000 107002.00 106064.00 7298.00
3558 0.0000 98306.00 106049.00 7294.00
3559 0.0000 98867.00 106034.00 7281.00
3560 0.0000 90840.00 106019.00 7279.00
3561 0.0000 98660.00 106005.00 7268.00
3562 0.0000 106692.00 105992.00 7266.00
3563 0.0000 111150.00 105979.00 7266.00
3564 0.0000 112603.00 105966.00 7257.00
3565 0.0000 114324.00 105954.00 7256.00
3566 0.0000 112458.00 105941.00 7249.00
3567 0.0000 106186.00 105930.00 7250.00
3568 0.0000 106449.00 105918.00 7251.00
3569 0.0000 106495.00 105907.00 7246.00
3570 0.0000 114539.00 105896.00 7249.00
3571 0.0000 106324.00 105886.00 7245.00
3572 0.0000 95693.00 105876.00 7249.00
3573 0.0000 86714.00 105935.00 7252.00
3574 0.0000 85494.00 105927.00 7251.00
3575 0.0000 92496.00 105808.00 7256.00
3576 0.0000 99193.00 105803.00 7257.00
3577 0.0000 103832.00 105798.00 7263.00
3578 0.0000 102937.00 105793.00 7267.00
3579 0.0000 101996.00 105789.00 7270.00
3580 0.0000 104020.00 105784.00 7276.00
3581 0.0000 95659.00 105780.00 7281.00
3582 0.0000 100540.00 105776.00 7288.00
3583 0.0000 94849.00 105773.00 7296.00
3584 0.0000 97703.00 105759.00 7303.00
3585 0.0000 102480.00 105756.00 7313.00
3586 0.0000 105485.00 105756.00 7321.00
3587 0.0000 107988.00 105754.00 7331.00
3588 0.0000 103889.00 105752.00 7341.00
3589 0.0000 110409.00 105750.00 7353.00
3590 0.0000 110639.00 105748.00 7363.00
3591 0.0000 111890.00 105747.00 7376.00
3592 0.0000 108260.00 105746.00 7386.00
3593 0.0000 106438.00 105745.00 7397.00
3594 0.0000 99553.00 105745.00 7412.00
3595 0.0000 101193.00 105746.00 7423.00
3596 0.0000 98750.00 105746.00 7439.00
3597 0.0000 100558.00 105747.00 7450.00
3598 0.0000 102282.00 105749.00 7462.00
3599 0.0000 108541.00 105752.00 7481.00
3600 0.0000 106036.00 105755.00 7493.00
3601 0.0000 107209.00 105737.00 7511.00
3602 0.0000 119153.00 105742.00 7525.00
3603 0.0000 121330.00 105748.00 7537.00
3604 0.0000 117940.00 105754.00 7557.00
3605 0.0000 119202.00 105762.00 7572.00
3606 0.0000 119031.00 105770.00 7593.00
3607 0.0000 113987.00 105780.00 7609.00
3608 0.0000 116158.00 105791.00 7623.00
3609 0.0000 113599.00 105804.00 7645.00
3610 0.0000 113886.00 105818.00 7661.00
3611 0.0000 106772.00 105834.00 7684.00
3612 0.0000 114058.00 105853.00 7700.00
3613 0.0000 110509.00 105873.00 7715.00
3614 0.0000 104827.00 105897.00 7738.00
3615 0.0000 99043.00 105925.00 7754.00
3616 0.0000 93690.00 105958.00 7777.00
3617 0.0000 94002.00 105998.00 7793.00
3618 0.0000 103916.00 106051.00 7808.00
3619 0.0000 105842.00 106124.00 7830.00
3620 0.0000 108399.00 106232.00 7844.00
3621 0.0000 111822.00 106400.00 7866.00
3622 0.0000 103490.00 106670.00 7881.00
3623 0.0000 112348.00 107107.00 7895.00
3624 0.0000 105629.00 107803.00 7917.00
3625 0.0000 112083.00 108883.00 7931.00
3626 0.0000 106364.00 110499.00 7952.00
3627 0.0000 117028.00 112817.00 7967.00
3628 0.0000 121955.00 115989.00 7980.00
3629 0.0000 126766.00 120114.00 8001.00
3630 0.0000 131901.00 125194.00 8016.00
3631 0.0000 131516.00 131091.00 8036.00
3632 0.0000 137745.00 137499.00 8050.00
3633 0.0000 142540.00 143951.00 8064.00
3634 0.0000 152464.00 149842.00 8082.00
3635 0.0000 165752.00 154519.00 8095.00
3636 0.0000 164023.00 157378.00 8112.00
3637 0.0000 163826.00 158015.00 8124.00
3638 0.0000 166455.00 156343.00 8136.00
3639 0.0000 150165.00 152627.00 8152.00
3640 0.0000 145594.00 147388.00 8163.00
3641 0.0000 144816.00 141275.00 8175.00
3642 0.0000 148251.00 134926.00 8186.00
3643 0.0000 144466.00 128891.00 8197.00
3644 0.0000 137928.00 123572.00 8208.00
3645 0.0000 128849.00 119222.00 8217.00
3646 0.0000 129651.00 115957.00 8227.00
3647 0.0000 127237.00 113817.00 8237.00
3648 0.0000 130207.00 112823.00 8245.00
3649 0.0000 127505.00 113050.00 8253.00
3650 0.0000 133499.00 114680.00 8260.00
3651 0.0000 142022.00 118032.00 8266.00
3652 0.0000 150882.00 123567.00 8273.00
3653 0.0000 164399.00 131833.00 8279.00
3654 0.0000 172125.00 143353.00 8283.00
3655 0.0000 182418.00 158497.00 8288.00
3656 0.0000 186146.00 177289.00 8290.00
3657 0.0000 187288.00 199246.00 8296.00
3658 0.0000 209526.00 223267.00 8300.00
3659 0.0000 233448.00 247630.00 8301.00
3660 0.0000 261412.00 270120.00 8306.00
3661 0.0000 284852.00 288243.00 8305.00
3662 0.0000 297610.00 299695.00 8308.00
3663 0.0000 291916.00 302837.00 8312.00
3664 0.0000 286567.00 297216.00 8309.00
3665 0.0000 290184.00 283726.00 8311.00
3666 0.0000 272286.00 264300.00 8306.00
3667 0.0000 253602.00 241408.00 8307.00
3668 0.0000 223346.00 217500.00 8308.00
3669 0.0000 204626.00 194676.00 8303.00
3670 0.0000 179554.00 174464.00 8304.00
3671 0.0000 156253.00 157725.00 8299.00
3672 0.0000 147470.00 144694.00 8299.00
3673 0.0000 138278.00 135106.00 8300.00
3674 0.0000 128821.00 128456.00 8292.00
3675 0.0000 121509.00 123889.00 8292.00
3676 0.0000 120102.00 120768.00 8284.00
3677 0.0000 116052.00 118509.00 8283.00
3678 0.0000 105278.00 116701.00 8282.00
3679 0.0000 103876.00 115102.00 8274.00
3680 0.0000 97653.00 113608.00 8271.00
3681 0.0000 90715.00 112196.00 8262.00
3682 0.0000 94724.00 110890.00 8260.00
3683 0.0000 95433.00 109724.00 8258.00
3684 0.0000 93872.00 108728.00 8247.00
3685 0.0000 93857.00 107914.00 8245.00
3686 0.0000 83591.00 107275.00 8234.00
3687 0.0000 94842.00 106793.00 8231.00
3688 0.0000 94441.00 106439.00 8230.00
3689 0.0000 95269.00 106186.00 8219.00
3690 0.0000 93392.00 106005.00 8216.00
3691 0.0000 97645.00 105875.00 8207.00
3692 0.0000 96636.00 105779.00 8205.00
3693 0.0000 95602.00 105705.00 8203.00
3694 0.0000 94970.00 105645.00 8193.00
3695 0.0000 94210.00 105596.00 8192.00
3696 0.0000 87258.00 105552.00 8183.00
3697 0.0000 98027.00 105513.00 8181.00
3698 0.0000 101144.00 105478.00 8180.00
3699 0.0000 103685.00 105447.00 8173.00
3700 0.0000 92847.00 105417.00 8173.00
3701 0.0000 103390.00 105390.00 8167.00
3702 0.0000 104409.00 105365.00 8167.00
3703 0.0000 101176.00 105342.00 8166.00
3704 0.0000 106918.00 105320.00 8163.00
3705 0.0000 109499.00 105300.00 8162.00
3706 0.0000 107328.00 105282.00 8159.00
3707 0.0000 110372.00 105265.00 8160.00
3708 0.0000 107817.00 105249.00 8160.00
3709 0.0000 100620.00 105235.00 8157.00
3710 0.0000 98663.00 105221.00 8158.00
3711 0.0000 91024.00 105209.00 8157.00
3712 0.0000 79618.00 105198.00 8159.00
3713 0.0000 81747.00 105188.00 8161.00
3714 0.0000 84979.00 105178.00 8162.00
3715 0.0000 82388.00 105170.00 8165.00
3716 0.0000 89590.00 105163.00 8169.00
3717 0.0000 80167.00 105157.00 8173.00
3718 0.0000 75210.00 105152.00 8177.00
3719 0.0000 78607.00 105148.00 8182.00
3720 0.0000 75719.00 105145.00 8186.00
3721 0.0000 84361.00 105143.00 8190.00
3722 0.0000 93234.00 105142.00 8196.00
3723 0.0000 90679.00 105142.00 8201.00
3724 0.0000 97734.00 105144.00 8208.00
3725 0.0000 92561.00 105147.00 8214.00
3726 0.0000 89656.00 105151.00 8221.00
3727 0.0000 89152.00 105140.00 8228.00
3728 0.0000 90504.00 105148.00 8234.00
3729 0.0000 107810.00 105156.00 8243.00
3730 0.0000 96915.00 105168.00 8251.00
3731 0.0000 100697.00 105181.00 8258.00
3732 0.0000 100027.00 105197.00 8265.00
3733 0.0000 103474.00 105216.00 8272.00
3734 0.0000 103562.00 105237.00 8281.00
3735 0.0000 96292.00 105262.00 8288.00
3736 0.0000 99992.00 105290.00 8298.00
3737 0.0000 112892.00 105322.00 8304.00
3738 0.0000 113718.00 105358.00 8310.00
3739 0.0000 116832.00 105400.00 8319.00
3740 0.0000 103027.00 105448.00 8325.00
3741 0.0000 99928.00 105503.00 8335.00
3742 0.0000 97772.00 105566.00 8342.00
3743 0.0000 95874.00 105640.00 8347.00
3744 0.0000 91277.00 105729.00 8355.00
3745 0.0000 91586.00 105840.00 8360.00
3746 0.0000 92754.00 105986.00 8367.00
3747 0.0000 103168.00 106190.00 8372.00
3748 0.0000 107709.00 106496.00 8377.00
3749 0.0000 106127.00 106980.00 8382.00
3750 0.0000 104876.00 107764.00 8385.00
3751 0.0000 111187.00 109044.00 8389.00
3752 0.0000 108393.00 111103.00 8394.00
3753 0.0000 104443.00 114332.00 8399.00
3754 0.0000 115374.00 119156.00 8402.00
3755 0.0000 129847.00 126272.00 8404.00
3756 0.0000 135442.00 136172.00 8407.00
3757 0.0000 143153.00 149302.00 8410.00
3758 0.0000 157741.00 165853.00 8412.00
3759 0.0000 176843.00 185578.00 8412.00
3760 0.0000 203721.00 207720.00 8415.00
3761 0.0000 233090.00 230939.00 8415.00
3762 0.0000 263673.00 253377.00 8416.00
3763 0.0000 275482.00 272833.00 8417.00
3764 0.0000 296203.00 287057.00 8415.00
3765 0.0000 301564.00 294168.00 8414.00
3766 0.0000 302896.00 293128.00 8410.00
3767 0.0000 292527.00 284093.00 8410.00
3768 0.0000 268440.00 268352.00 8410.00
3769 0.0000 241888.00 247922.00 8404.00
3770 0.0000 224819.00 225076.00 8403.00
3771 0.0000 200992.00 201941.00 8396.00
3772 0.0000 190278.00 180282.00 8396.00
3773 0.0000 180720.00 161285.00 8394.00
3774 0.0000 162773.00 145574.00 8386.00
3775 0.0000 156872.00 133263.00 8384.00
3776 0.0000 147208.00 124090.00 8373.00
3777 0.0000 137961.00 117567.00 8371.00
3778 0.0000 128013.00 113124.00 8368.00
3779 0.0000 124355.00 110213.00 8355.00
3780 0.0000 119184.00 108364.00 8351.00
3781 0.0000 111197.00 107215.00 8337.00
3782 0.0000 97361.00 106504.00 8332.00
3783 0.0000 94561.00 106057.00 8327.00
3784 0.0000 102289.00 105765.00 8311.00
3785 0.0000 100283.00 105562.00 8306.00
3786 0.0000 108428.00 105411.00 8291.00
3787 0.0000 102767.00 105290.00 8285.00
3788 0.0000 103300.00 105188.00 8279.00
3789 0.0000 99344.00 105100.00 8263.00
3790 0.0000 118324.00 105022.00 8256.00
3791 0.0000 105839.00 104951.00 8238.00
3792 0.0000 94742.00 104888.00 8232.00
3793 0.0000 91585.00 104830.00 8225.00
3794 0.0000 99531.00 104777.00 8205.00
3795 0.0000 105300.00 104729.00 8197.00
3796 0.0000 101037.00 104684.00 8176.00
3797 0.0000 96337.00 104642.00 8168.00
3798 0.0000 93713.00 104605.00 8161.00
3799 0.0000 102593.00 104570.00 8141.00
3800 0.0000 103588.00 104536.00 8134.00
3801 0.0000 100498.00 104504.00 8114.00
3802 0.0000 110100.00 104475.00 8105.00
3803 0.0000 104028.00 104447.00 8099.00
3804 0.0000 109943.00 104420.00 8079.00
3805 0.0000 100794.00 104395.00 8071.00
3806 0.0000 91005.00 104371.00 8049.00
3807 0.0000 90089.00 104348.00 8041.00
3808 0.0000 96722.00 104326.00 8033.00
3809 0.0000 100965.00 104306.00 8011.00
3810 0.0000 101370.00 104286.00 8003.00
3811 0.0000 101229.00 104266.00 7982.00
3812 0.0000 92226.00 104248.00 7974.00
3813 0.0000 88793.00 104230.00 7966.00
3814 0.0000 88518.00 104213.00 7946.00
3815 0.0000 85903.00 104196.00 7937.00
3816 0.0000 92429.00 104180.00 7917.00
3817 0.0000 91287.00 104164.00 7909.00
3818 0.0000 97941.00 104148.00 7901.00
3819 0.0000 95764.00 104134.00 7883.00
3820 0.0000 96808.00 104119.00 7876.00
3821 0.0000 103528.00 104105.00 7857.00
3822 0.0000 101376.00 104091.00 7851.00
3823 0.0000 89231.00 104077.00 7845.00
3824 0.0000 100704.00 104064.00 7830.00
3825 0.0000 103033.00 104051.00 7825.00
3826 0.0000 101445.00 104038.00 7810.00
3827 0.0000 93430.00 104026.00 7806.00
3828 0.0000 94792.00 104013.00 7802.00
3829 0.0000 91328.00 104001.00 7789.00
3830 0.0000 89082.00 103989.00 7784.00
3831 0.0000 91606.00 103977.00 7770.00
3832 0.0000 93495.00 103966.00 7766.00
3833 0.0000 86987.00 103954.00 7764.00
3834 0.0000 101966.00 103943.00 7754.00
3835 0.0000 100162.00 103932.00 7751.00
3836 0.0000 93409.00 103921.00 7741.00
3837 0.0000 100808.00 103910.00 7739.00
3838 0.0000 105598.00 103899.00 7737.00
3839 0.0000 98582.00 103888.00 7728.00
3840 0.0000 96082.00 103877.00 7727.00
3841 0.0000 98086.00 103867.00 7720.00
3842 0.0000 100486.00 103857.00 7718.00
3843 0.0000 99470.00 103846.00 7718.00
3844 0.0000 97313.00 103836.00 7715.00
3845 0.0000 104791.00 103826.00 7715.00
3846 0.0000 105443.00 103816.00 7712.00
3847 0.0000 103602.00 103806.00 7713.00
3848 0.0000 106885.00 103796.00 7714.00
3849 0.0000 94177.00 103786.00 7712.00
3850 0.0000 98067.00 103777.00 7714.00
3851 0.0000 105359.00 103767.00 7712.00
3852 0.0000 110382.00 103757.00 7715.00
3853 0.0000 96079.00 103748.00 7717.00
3854 0.0000 82837.00 103746.00 7718.00
3855 0.0000 77890.00 103737.00 7721.00
3856 0.0000 76276.00 103728.00 7723.00
3857 0.0000 81643.00 103719.00 7726.00
3858 0.0000 104964.00 103648.00 7729.00
3859 0.0000 108498.00 103640.00 7734.00
3860 0.0000 111062.00 103633.00 7738.00
3861 0.0000 106753.00 103626.00 7743.00
3862 0.0000 104485.00 103618.00 7747.00
3863 0.0000 98285.00 103611.00 7752.00
3864 0.0000 107260.00 103604.00 7755.00
3865 0.0000 103648.00 103597.00 7760.00
3866 0.0000 93096.00 103591.00 7767.00
3867 0.0000 96993.00 103584.00 7772.00
3868 0.0000 100330.00 103578.00 7778.00
3869 0.0000 105463.00 103572.00 7785.00
3870 0.0000 95627.00 103566.00 7791.00
3871 0.0000 96861.00 103561.00 7800.00
3872 0.0000 94756.00 103557.00 7806.00
3873 0.0000 106548.00 103554.00 7812.00
3874 0.0000 113201.00 103555.00 7819.00
3875 0.0000 106817.00 103561.00 7825.00
3876 0.0000 107636.00 103575.00 7834.00
3877 0.0000 102600.00 103603.00 7839.00
3878 0.0000 99359.00 103651.00 7845.00
3879 0.0000 102757.00 103731.00 7853.00
3880 0.0000 97279.00 103854.00 7859.00
3881 0.0000 88816.00 104033.00 7868.00
3882 0.0000 85246.00 104282.00 7875.00
3883 0.0000 95301.00 104611.00 7880.00
3884 0.0000 96536.00 105022.00 7892.00
3885 0.0000 98677.00 105509.00 7898.00
3886 0.0000 109313.00 106053.00 7909.00
3887 0.0000 108386.00 106620.00 7916.00
3888 0.0000 102595.00 107166.00 7924.00
3889 0.0000 107786.00 107639.00 7935.00
3890 0.0000 102985.00 107984.00 7942.00
3891 0.0000 104019.00 108158.00 7954.00
3892 0.0000 109103.00 108134.00 7961.00
3893 0.0000 110961.00 107916.00 7969.00
3894 0.0000 107220.00 107532.00 7981.00
3895 0.0000 103547.00 107028.00 7988.00
3896 0.0000 106016.00 106459.00 7999.00
3897 0.0000 102261.00 105877.00 8006.00
3898 0.0000 88957.00 105324.00 8012.00
3899 0.0000 98750.00 104831.00 8023.00
3900 0.0000 100705.00 104417.00 8030.00
3901 0.0000 106945.00 104085.00 8041.00
3902 0.0000 96865.00 103831.00 8048.00
3903 0.0000 107184.00 103646.00 8054.00
3904 0.0000 99534.00 103515.00 8065.00
3905 0.0000 101959.00 103425.00 8071.00
3906 0.0000 100637.00 103364.00 8081.00
3907 0.0000 96154.00 103324.00 8089.00
3908 0.0000 101917.00 103296.00 8095.00
3909 0.0000 100076.00 103276.00 8104.00
3910 0.0000 101889.00 103261.00 8110.00
3911 0.0000 109966.00 103248.00 8118.00
3912 0.0000 106674.00 103238.00 8124.00
3913 0.0000 105747.00 103231.00 8128.00
3914 0.0000 106130.00 103232.00 8135.00
3915 0.0000 100719.00 103263.00 8140.00
3916 0.0000 103656.00 103398.00 8146.00
3917 0.0000 124075.00 103847.00 8151.00
3918 0.0000 129872.00 105120.00 8155.00
3919 0.0000 133892.00 108244.00 8161.00
3920 0.0000 136555.00 114888.00 8165.00
3921 0.0000 128857.00 127096.00 8171.00
3922 0.0000 144203.00 146311.00 8174.00
3923 0.0000 170119.00 171852.00 8177.00
3924 0.0000 195747.00 199668.00 8181.00
3925 0.0000 221350.00 222846.00 8184.00
3926 0.0000 233298.00 234180.00 8187.00
3927 0.0000 224584.00 229763.00 8189.00
3928 0.0000 211100.00 211149.00 8192.00
3929 0.0000 188440.00 184462.00 8193.00
3930 0.0000 166657.00 157215.00 8196.00
3931 0.0000 140558.00 134922.00 8196.00
3932 0.0000 124812.00 119709.00 8198.00
3933 0.0000 113454.00 110911.00 8199.00
3934 0.0000 106532.00 106618.00 8199.00
3935 0.0000 115370.00 104955.00 8200.00
3936 0.0000 113825.00 104656.00 8199.00
3937 0.0000 105296.00 105063.00 8199.00
3938 0.0000 110812.00 105917.00 8200.00
3939 0.0000 115700.00 107159.00 8200.00
3940 0.0000 118885.00 108788.00 8200.00
3941 0.0000 115549.00 110805.00 8198.00
3942 0.0000 112176.00 113167.00 8198.00
3943 0.0000 111569.00 115774.00 8198.00
3944 0.0000 120566.00 118468.00 8194.00
3945 0.0000 125470.00 121036.00 8193.00
3946 0.0000 129397.00 123235.00 8189.00
3947 0.0000 113562.00 124822.00 8189.00
3948 0.0000 119968.00 125596.00 8187.00
3949 0.0000 129361.00 125449.00 8181.00
3950 0.0000 127009.00 124401.00 8180.00
3951 0.0000 131829.00 122591.00 8174.00
3952 0.0000 129601.00 120236.00 8173.00
3953 0.0000 131467.00 117585.00 8171.00
3954 0.0000 132458.00 114875.00 8164.00
3955 0.0000 114533.00 112305.00 8162.00
3956 0.0000 104239.00 110016.00 8155.00
3957 0.0000 103734.00 108090.00 8153.00
3958 0.0000 108907.00 106549.00 8151.00
3959 0.0000 110097.00 105375.00 8142.00
3960 0.0000 109279.00 104518.00 8141.00
3961 0.0000 112981.00 103917.00 8134.00
3962 0.0000 107543.00 103511.00 8131.00
3963 0.0000 118697.00 103243.00 8128.00
3964 0.0000 112988.00 103071.00 8120.00
3965 0.0000 95227.00 102959.00 8118.00
3966 0.0000 83329.00 102886.00 8108.00
3967 0.0000 93647.00 102835.00 8104.00
3968 0.0000 99736.00 102798.00 8101.00
3969 0.0000 104805.00 102769.00 8093.00
3970 0.0000 108096.00 102744.00 8090.00
3971 0.0000 117845.00 102722.00 8080.00
3972 0.0000 119072.00 102702.00 8079.00
3973 0.0000 107177.00 102683.00 8076.00
3974 0.0000 109167.00 102665.00 8069.00
3975 0.0000 110057.00 102649.00 8067.00
3976 0.0000 110741.00 102632.00 8057.00
3977 0.0000 110830.00 102617.00 8055.00
3978 0.0000 102141.00 102602.00 8052.00
3979 0.0000 102543.00 102587.00 8045.00
3980 0.0000 105963.00 102573.00 8043.00
3981 0.0000 108446.00 102559.00 8035.00
3982 0.0000 108841.00 102545.00 8032.00
3983 0.0000 104731.00 102532.00 8030.00
3984 0.0000 96326.00 102519.00 8022.00
3985 0.0000 96255.00 102506.00 8019.00
3986 0.0000 103541.00 102492.00 8011.00
3987 0.0000 105612.00 102479.00 8009.00
3988 0.0000 108364.00 102467.00 8007.00
3989 0.0000 104842.00 102455.00 8001.00
3990 0.0000 100637.00 102443.00 7999.00
3991 0.0000 99497.00 102431.00 7993.00
3992 0.0000 100989.00 102419.00 7992.00
3993 0.0000 92552.00 102407.00 7990.00
3994 0.0000 94579.00 102396.00 7985.00
3995 0.0000 102581.00 102384.00 7984.00
3996 0.0000 117221.00 102372.00 7980.00
3997 0.0000 116858.00 102361.00 7980.00
3998 0.0000 113818.00 102350.00 7980.00
3999 0.0000 109282.00 102338.00 7976.00
4000 0.0000 106966.00 102327.00 7976.00
4001 0.0000 110700.00 102316.00 7972.00
4002 0.0000 101589.00 102304.00 7971.00
4003 0.0000 106956.00 102293.00 7971.00
4004 0.0000 113204.00 102282.00 7967.00
4005 0.0000 112884.00 102271.00 7968.00
4006 0.0000 112281.00 102260.00 7964.00
4007 0.0000 98611.00 102248.00 7965.00
4008 0.0000 112196.00 102237.00 7965.00
4009 0.0000 108803.00 102226.00 7963.00
4010 0.0000 111389.00 102215.00 7964.00
4011 0.0000 115012.00 102204.00 7961.00
4012 0.0000 115030.00 102193.00 7961.00
4013 0.0000 107273.00 102182.00 7963.00
4014 0.0000 103788.00 102171.00 7961.00
4015 0.0000 98714.00 102160.00 7963.00
4016 0.0000 95223.00 102149.00 7962.00
4017 0.0000 107545.00 102138.00 7961.00
4018 0.0000 112993.00 102127.00 7962.00
4019 0.0000 108953.00 102116.00 7959.00
4020 0.0000 108849.00 102105.00 7961.00
4021 0.0000 115040.00 102094.00 7960.00
4022 0.0000 111896.00 102083.00 7962.00
4023 0.0000 110617.00 102072.00 7964.00
4024 0.0000 117543.00 102061.00 7964.00
4025 0.0000 117332.00 102050.00 7964.00
4026 0.0000 132581.00 102039.00 7963.00
4027 0.0000 126776.00 102028.00 7964.00
4028 0.0000 130144.00 102017.00 7965.00
4029 0.0000 121171.00 102006.00 7965.00
4030 0.0000 111379.00 101995.00 7967.00
4031 0.0000 112328.00 101984.00 7967.00
4032 0.0000 111016.00 101974.00 7968.00
4033 0.0000 115318.00 101963.00 7969.00
4034 0.0000 113369.00 101953.00 7967.00
4035 0.0000 110864.00 101944.00 7968.00
4036 0.0000 108902.00 101935.00 7968.00
4037 0.0000 113441.00 101927.00 7969.00
4038 0.0000 112377.00 101920.00 7972.00
4039 0.0000 105905.00 101913.00 7971.00
4040 0.0000 110059.00 101908.00 7971.00
4041 0.0000 102562.00 101903.00 7970.00
4042 0.0000 109759.00 101899.00 7971.00
4043 0.0000 111027.00 101887.00 7972.00
4044 0.0000 108901.00 101882.00 7970.00
4045 0.0000 110653.00 101876.00 7972.00
4046 0.0000 109797.00 101867.00 7973.00
4047 0.0000 105374.00 101857.00 7974.00
4048 0.0000 108975.00 101844.00 7976.00
4049 0.0000 102187.00 101829.00 7975.00
4050 0.0000 104321.00 101812.00 7976.00
4051 0.0000 105777.00 101794.00 7975.00
4052 0.0000 120180.00 101776.00 7976.00
4053 0.0000 108833.00 101758.00 7977.00
4054 0.0000 110954.00 101741.00 7976.00
4055 0.0000 107309.00 101725.00 7979.00
4056 0.0000 115705.00 101709.00 7978.00
4057 0.0000 115258.00 101694.00 7979.00
4058 0.0000 107934.00 101680.00 7981.00
4059 0.0000 102191.00 101667.00 7981.00
4060 0.0000 109123.00 101655.00 7982.00
4061 0.0000 108121.00 101643.00 7982.00
4062 0.0000 110446.00 101631.00 7983.00
4063 0.0000 113716.00 101619.00 7984.00
4064 0.0000 117335.00 101608.00 7983.00
4065 0.0000 110609.00 101596.00 7985.00
4066 0.0000 104354.00 101585.00 7985.00
4067 0.0000 104059.00 101573.00 7986.00
4068 0.0000 105722.00 101562.00 7987.00
4069 0.0000 115841.00 101550.00 7985.00
4070 0.0000 111528.00 101539.00 7986.00
4071 0.0000 108591.00 101527.00 7987.00
4072 0.0000 113843.00 101516.00 7988.00
4073 0.0000 114190.00 101504.00 7989.00
4074 0.0000 104770.00 101493.00 7989.00
4075 0.0000 110431.00 101481.00 7990.00
4076 0.0000 117357.00 101469.00 7988.00
4077 0.0000 118505.00 101458.00 7988.00
4078 0.0000 117312.00 101446.00 7990.00
4079 0.0000 109963.00 101435.00 7989.00
4080 0.0000 98549.00 101423.00 7989.00
4081 0.0000 99446.00 101411.00 7987.00
4082 0.0000 95227.00 101400.00 7988.00
4083 0.0000 102177.00 101388.00 7989.00
4084 0.0000 94607.00 101376.00 7989.00
4085 0.0000 98269.00 101365.00 7990.00
4086 0.0000 106456.00 101353.00 7989.00
4087 0.0000 102250.00 101341.00 7990.00
4088 0.0000 109359.00 101329.00 7990.00
4089 0.0000 108354.00 101318.00 7989.00
4090 0.0000 110593.00 101306.00 7991.00
4091 0.0000 107876.00 101294.00 7989.00
4092 0.0000 106113.00 101282.00 7992.00
4093 0.0000 105522.00 101270.00 7992.00
4094 0.0000 102298.00 101259.00 7990.00
4095 0.0000 105780.00 101247.00 7992.00
4096 0.0000 103046.00 101235.00 7991.00
4097 0.0000 104274.00 101223.00 7993.00
4098 0.0000 109573.00 101211.00 7994.00
4099 0.0000 110662.00 101199.00 7992.00
4100 0.0000 103899.00 101187.00 7995.00
4101 0.0000 107999.00 101175.00 7993.00
4102 0.0000 110875.00 101163.00 7995.00
4103 0.0000 107879.00 101151.00 7996.00
4104 0.0000 121886.00 101139.00 7996.00
4105 0.0000 117902.00 101127.00 7998.00
4106 0.0000 112220.00 101115.00 7997.00
4107 0.0000 109029.00 101103.00 7999.00
4108 0.0000 97574.00 101091.00 8002.00
4109 0.0000 96366.00 101079.00 8003.00
4110 0.0000 113331.00 101067.00 8004.00
4111 0.0000 112673.00 101055.00 8005.00
4112 0.0000 109217.00 101042.00 8008.00
4113 0.0000 115802.00 101030.00 8010.00
4114 0.0000 114103.00 101018.00 8013.00
4115 0.0000 104441.00 101006.00 8015.00
4116 0.0000 96952.00 100994.00 8017.00
4117 0.0000 89389.00 100982.00 8018.00
4118 0.0000 92774.00 100969.00 8020.00
4119 0.0000 100796.00 100957.00 8020.00
4120 0.0000 107139.00 100945.00 8022.00
4121 0.0000 107950.00 100932.00 8023.00
4122 0.0000 106519.00 100920.00 8025.00
4123 0.0000 114387.00 100908.00 8028.00
4124 0.0000 111183.00 100895.00 8029.00
4125 0.0000 107622.00 100883.00 8031.00
4126 0.0000 114204.00 100871.00 8032.00
4127 0.0000 101363.00 100858.00 8036.00
4128 0.0000 98100.00 100846.00 8038.00
4129 0.0000 89181.00 100834.00 8041.00
4130 0.0000 80159.00 100821.00 8044.00
4131 0.0000 89294.00 100809.00 8046.00
4132 0.0000 90409.00 100796.00 8049.00
4133 0.0000 98959.00 100784.00 8052.00
4134 0.0000 109203.00 100771.00 8053.00
4135 0.0000 113845.00 100759.00 8056.00
4136 0.0000 118743.00 100746.00 8057.00
4137 0.0000 114095.00 100734.00 8059.00
4138 0.0000 117154.00 100721.00 8061.00
4139 0.0000 114269.00 100708.00 8063.00
4140 0.0000 120826.00 100696.00 8066.00
4141 0.0000 112481.00 100683.00 8070.00
4142 0.0000 107598.00 100671.00 8075.00
4143 0.0000 106396.00 100658.00 8079.00
4144 0.0000 106053.00 100645.00 8082.00
4145 0.0000 103349.00 100633.00 8085.00
4146 0.0000 114412.00 100620.00 8089.00
4147 0.0000 101925.00 100607.00 8094.00
4148 0.0000 101415.00 100594.00 8097.00
4149 0.0000 107712.00 100582.00 8102.00
4150 0.0000 103761.00 100569.00 8106.00
4151 0.0000 97050.00 100556.00 8111.00
4152 0.0000 95557.00 100543.00 8116.00
4153 0.0000 102503.00 100531.00 8120.00
4154 0.0000 103975.00 100518.00 8125.00
4155 0.0000 98031.00 100505.00 8129.00
4156 0.0000 92130.00 100492.00 8134.00
4157 0.0000 97043.00 100479.00 8140.00
4158 0.0000 98817.00 100466.00 8145.00
4159 0.0000 92510.00 100453.00 8151.00
4160 0.0000 94546.00 100440.00 8156.00
4161 0.0000 93202.00 100428.00 8161.00
4162 0.0000 98292.00 100415.00 8166.00
4163 0.0000 91593.00 100402.00 8170.00
4164 0.0000 96853.00 100389.00 8176.00
4165 0.0000 105007.00 100376.00 8181.00
4166 0.0000 106780.00 100363.00 8187.00
4167 0.0000 106796.00 100350.00 8191.00
4168 0.0000 106939.00 100337.00 8197.00
4169 0.0000 108090.00 100323.00 8203.00
4170 0.0000 111238.00 100310.00 8207.00
4171 0.0000 107536.00 100297.00 8214.00
4172 0.0000 102744.00 100284.00 8219.00
4173 0.0000 100182.00 100271.00 8224.00
4174 0.0000 98656.00 100258.00 8231.00
4175 0.0000 99816.00 100245.00 8237.00
4176 0.0000 98397.00 100232.00 8243.00
4177 0.0000 100578.00 100218.00 8248.00
4178 0.0000 105039.00 100205.00 8253.00
4179 0.0000 102167.00 100192.00 8259.00
4180 0.0000 103173.00 100179.00 8264.00
4181 0.0000 104289.00 100165.00 8268.00
4182 0.0000 94596.00 100152.00 8272.00
4183 0.0000 101446.00 100139.00 8277.00
4184 0.0000 95238.00 100125.00 8281.00
4185 0.0000 93861.00 100112.00 8286.00
4186 0.0000 92847.00 100099.00 8291.00
4187 0.0000 97371.00 100085.00 8294.00
4188 0.0000 91387.00 100072.00 8298.00
4189 0.0000 96429.00 100059.00 8303.00
4190 0.0000 97200.00 100045.00 8307.00
4191 0.0000 108064.00 100032.00 8311.00
4192 0.0000 112151.00 100018.00 8314.00
4193 0.0000 109185.00 100005.00 8317.00
4194 0.0000 103685.00 99991.50 8319.00
4195 0.0000 102424.00 99978.00 8323.00
4196 0.0000 106496.00 99964.50 8327.00
4197 0.0000 101631.00 99951.00 8330.00
4198 0.0000 107915.00 99937.40 8334.00
4199 0.0000 106435.00 99923.90 8339.00
4200 0.0000 104003.00 99910.30 8342.00
4201 0.0000 104186.00 99896.70 8345.00
4202 0.0000 113290.00 99883.10 8347.00
4203 0.0000 115067.00 99869.50 8352.00
4204 0.0000 118334.00 99855.90 8355.00
4205 0.0000 122936.00 99842.20 8357.00
4206 0.0000 117900.00 99828.60 8359.00
4207 0.0000 125479.00 99814.90 8361.00
4208 0.0000 129463.00 99801.20 8364.00
4209 0.0000 131530.00 99787.50 8366.00
4210 0.0000 130551.00 99773.70 8368.00
4211 0.0000 131266.00 99760.00 8369.00
4212 0.0000 137502.00 99746.20 8372.00
4213 0.0000 136993.00 99732.50 8374.00
4214 0.0000 139667.00 99718.70 8375.00
4215 0.0000 130886.00 99704.90 8378.00
4216 0.0000 127658.00 99691.00 8379.00
4217 0.0000 125596.00 99677.20 8381.00
4218 0.0000 119505.00 99672.20 8383.00
4219 0.0000 125256.00 99658.50 8383.00
4220 0.0000 119739.00 99644.80 8385.00
4221 0.0000 119962.00 99631.10 8385.00
4222 0.0000 122016.00 99617.30 8387.00
4223 0.0000 113496.00 99603.60 8388.00
4224 0.0000 114588.00 99589.90 8388.00
4225 0.0000 101847.00 99576.10 8389.00
4226 0.0000 101631.00 99562.30 8390.00
4227 0.0000 104655.00 99548.60 8390.00
4228 0.0000 101378.00 99534.80 8392.00
4229 0.0000 91842.00 99521.00 8391.00
4230 0.0000 78761.00 99507.20 8391.00
4231 0.0000 82906.00 99493.40 8390.00
4232 0.0000 84300.00 99479.60 8390.00
4233 0.0000 93521.00 99465.80 8391.00
4234 0.0000 84212.00 99452.00 8390.00
4235 0.0000 73827.00 99438.20 8391.00
4236 0.0000 62174.00 99424.40 8388.00
4237 0.0000 74345.00 99410.50 8390.00
4238 0.0000 89995.00 99396.70 8390.00
4239 0.0000 100999.00 99382.80 8388.00
4240 0.0000 108521.00 99369.00 8388.00
4241 0.0000 106529.00 99355.20 8386.00
4242 0.0000 96920.00 99341.30 8388.00
4243 0.0000 106037.00 99327.50 8388.00
4244 0.0000 101291.00 99313.60 8386.00
4245 0.0000 93629.00 99299.80 8388.00
4246 0.0000 92628.00 99286.00 8387.00
4247 0.0000 87262.00 99272.10 8387.00
4248 0.0000 90086.00 99258.30 8387.00
4249 0.0000 93580.00 99244.50 8387.00
4250 0.0000 104042.00 99230.70 8388.00
4251 0.0000 105052.00 99216.90 8386.00
4252 0.0000 101506.00 99203.10 8386.00
4253 0.0000 104393.00 99189.30 8387.00
4254 0.0000 109751.00 99175.50 8384.00
4255 0.0000 107401.00 99161.80 8385.00
4256 0.0000 93869.00 99148.00 8384.00
4257 0.0000 89548.00 99134.30 8385.00
4258 0.0000 90981.00 99120.60 8385.00
4259 0.0000 90075.00 99107.00 8383.00
4260 0.0000 90165.00 99093.30 8386.00
4261 0.0000 85264.00 99079.70 8386.00
4262 0.0000 85149.00 99066.10 8388.00
4263 0.0000 80638.00 99052.60 8390.00
4264 0.0000 82673.00 99039.10 8390.00
4265 0.0000 88660.00 99025.60 8391.00
4266 0.0000 93600.00 99012.20 8389.00
4267 0.0000 101722.00 98998.90 8391.00
4268 0.0000 91752.00 98985.60 8394.00
4269 0.0000 94093.00 98972.40 8393.00
4270 0.0000 82944.00 98959.20 8395.00
4271 0.0000 83236.00 98946.10 8394.00
4272 0.0000 79454.00 98933.10 8398.00
4273 0.0000 86650.00 98920.30 8401.00
4274 0.0000 87642.00 98907.50 8401.00
4275 0.0000 91783.00 98894.80 8405.00
4276 0.0000 90552.00 98882.30 8406.00
4277 0.0000 91045.00 98869.90 8409.00
4278 0.0000 96293.00 98857.70 8412.00
4279 0.0000 103294.00 98845.60 8415.00
4280 0.0000 108113.00 98833.80 8419.00
4281 0.0000 111457.00 98822.20 8422.00
4282 0.0000 103422.00 98810.80 8427.00
4283 0.0000 101033.00 98799.70 8430.00
4284 0.0000 83163.00 98789.00 8434.00
4285 0.0000 87512.00 98778.50 8440.00
4286 0.0000 86512.00 98768.50 8444.00
4287 0.0000 94813.00 98758.90 8448.00
4288 0.0000 80377.00 98749.80 8453.00
4289 0.0000 78450.00 98741.30 8458.00
4290 0.0000 83782.00 98733.40 8462.00
4291 0.0000 79930.00 98726.30 8468.00
4292 0.0000 73692.00 98720.20 8474.00
4293 0.0000 74824.00 98715.20 8480.00
4294 0.0000 77067.00 98711.80 8486.00
4295 0.0000 78752.00 98710.60 8491.00
4296 0.0000 83731.00 98712.90 8498.00
4297 0.0000 88581.00 98720.70 8502.00
4298 0.0000 92294.00 98737.80 8508.00
4299 0.0000 99371.00 98770.30 8512.00
4300 0.0000 92541.00 98828.50 8517.00
4301 0.0000 87202.00 98928.30 8522.00
4302 0.0000 81012.00 99093.10 8526.00
4303 0.0000 66190.00 99356.30 8530.00
4304 0.0000 69903.00 99762.30 8535.00
4305 0.0000 74913.00 100365.00 8539.00
4306 0.0000 96140.00 101228.00 8542.00
4307 0.0000 92653.00 102414.00 8546.00
4308 0.0000 97328.00 103979.00 8551.00
4309 0.0000 90741.00 105956.00 8553.00
4310 0.0000 103018.00 108342.00 8555.00
4311 0.0000 105495.00 111088.00 8559.00
4312 0.0000 109923.00 114079.00 8563.00
4313 0.0000 109482.00 117149.00 8568.00
4314 0.0000 119465.00 120080.00 8570.00
4315 0.0000 120814.00 122625.00 8574.00
4316 0.0000 133062.00 124533.00 8577.00
4317 0.0000 127751.00 125594.00 8582.00
4318 0.0000 120029.00 125678.00 8586.00
4319 0.0000 122426.00 124774.00 8591.00
4320 0.0000 113957.00 122988.00 8597.00
4321 0.0000 119020.00 120520.00 8601.00
4322 0.0000 116049.00 117614.00 8607.00
4323 0.0000 118506.00 114522.00 8613.00
4324 0.0000 103038.00 111467.00 8618.00
4325 0.0000 95921.00 108633.00 8623.00
4326 0.0000 87750.00 106139.00 8629.00
4327 0.0000 81354.00 104048.00 8634.00
4328 0.0000 81277.00 102372.00 8639.00
4329 0.0000 89975.00 101084.00 8644.00
4330 0.0000 80062.00 100131.00 8649.00
4331 0.0000 77588.00 99451.00 8654.00
4332 0.0000 82226.00 98980.10 8659.00
4333 0.0000 87846.00 98661.70 8663.00
4334 0.0000 82866.00 98449.70 8668.00
4335 0.0000 94950.00 98308.50 8672.00
4336 0.0000 89692.00 98307.00 8680.00
4337 0.0000 98304.00 98241.40 8686.00
4338 0.0000 91979.00 98193.10 8691.00
4339 0.0000 93587.00 98155.10 8697.00
4340 0.0000 94558.00 98123.30 8705.00
4341 0.0000 99548.00 98095.30 8711.00
4342 0.0000 97432.00 98069.80 8717.00
4343 0.0000 92274.00 98046.10 8724.00
4344 0.0000 81773.00 98023.60 8732.00
4345 0.0000 93879.00 98002.20 8740.00
4346 0.0000 99758.00 97981.70 8751.00
4347 0.0000 101431.00 97961.90 8759.00
4348 0.0000 93457.00 97942.80 8767.00
4349 0.0000 87358.00 97924.30 8780.00
4350 0.0000 81125.00 97906.40 8788.00
4351 0.0000 79834.00 97889.00 8801.00
4352 0.0000 91466.00 97872.00 8811.00
4353 0.0000 107622.00 97855.40 8822.00
4354 0.0000 113786.00 97839.30 8838.00
4355 0.0000 115706.00 97823.50 8849.00
4356 0.0000 111380.00 97808.00 8867.00
4357 0.0000 107372.00 97792.90 8878.00
4358 0.0000 97428.00 97778.10 8890.00
4359 0.0000 87808.00 97763.60 8910.00
4360 0.0000 84364.00 97749.50 8924.00
4361 0.0000 86309.00 97735.60 8947.00
4362 0.0000 93759.00 97721.90 8962.00
4363 0.0000 95926.00 97708.60 8977.00
4364 0.0000 94095.00 97695.50 9003.00
4365 0.0000 87215.00 97823.60 9019.00
4366 0.0000 85551.00 97813.90 9047.00
4367 0.0000 84295.00 97804.60 9065.00
4368 0.0000 92002.00 97795.60 9081.00
4369 0.0000 95815.00 97787.10 9112.00
4370 0.0000 96475.00 97778.90 9130.00
4371 0.0000 83748.00 97771.20 9163.00
4372 0.0000 84760.00 97763.80 9183.00
4373 0.0000 75599.00 97757.00 9204.00
4374 0.0000 77551.00 97750.60 9243.00
4375 0.0000 85420.00 97744.70 9265.00
4376 0.0000 84723.00 97739.30 9307.00
4377 0.0000 88787.00 97734.40 9332.00
4378 0.0000 85649.00 97730.10 9357.00
4379 0.0000 81575.00 97726.40 9403.00
4380 0.0000 90065.00 97723.40 9429.00
4381 0.0000 98466.00 97721.00 9480.00
4382 0.0000 86967.00 97719.30 9509.00
4383 0.0000 72582.00 97718.40 9536.00
4384 0.0000 74707.00 97718.30 9593.00
4385 0.0000 76910.00 97719.00 9624.00
4386 0.0000 92176.00 97720.60 9680.00
4387 0.0000 98474.00 97723.20 9713.00
4388 0.0000 91779.00 97726.90 9747.00
4389 0.0000 88386.00 97731.70 9808.00
4390 0.0000 85840.00 97737.60 9841.00
4391 0.0000 89469.00 97744.90 9903.00
4392 0.0000 90346.00 97753.60 9939.00
4393 0.0000 86559.00 97763.80 9974.00
4394 0.0000 96055.00 97775.60 10042.00
4395 0.0000 104741.00 97789.10 10079.00
4396 0.0000 102194.00 97804.60 10148.00
4397 0.0000 97954.00 97822.20 10187.00
4398 0.0000 84004.00 97842.10 10224.00
4399 0.0000 80617.00 97864.50 10294.00
4400 0.0000 89867.00 97889.50 10331.00
4401 0.0000 97039.00 97917.60 10402.00
4402 0.0000 98210.00 97949.00 10443.00
4403 0.0000 83295.00 97984.10 10482.00
4404 0.0000 90135.00 98023.10 10555.00
4405 0.0000 94160.00 98066.70 10595.00
4406 0.0000 101247.00 98115.20 10667.00
4407 0.0000 84125.00 98169.30 10708.00
4408 0.0000 68106.00 98229.70 10750.00
4409 0.0000 76086.00 98297.10 10825.00
4410 0.0000 74940.00 98372.70 10868.00
4411 0.0000 96200.00 98457.60 10943.00
4412 0.0000 103488.00 98553.80 10986.00
4413 0.0000 101484.00 98664.20 11028.00
4414 0.0000 84497.00 98793.30 11102.00
4415 0.0000 78545.00 98949.10 11143.00
4416 0.0000 72407.00 99145.80 11217.00
4417 0.0000 83238.00 99407.60 11258.00
4418 0.0000 93192.00 99768.30 11298.00
4419 0.0000 87908.00 100315.00 11368.00
4420 0.0000 83329.00 101150.00 11407.00
4421 0.0000 83705.00 102449.00 11476.00
4422 0.0000 90528.00 104463.00 11515.00
4423 0.0000 93833.00 107550.00 11552.00
4424 0.0000 104000.00 112171.00 11618.00
4425 0.0000 101151.00 118901.00 11655.00
4426 0.0000 114627.00 128386.00 11719.00
4427 0.0000 140958.00 141290.00 11754.00
4428 0.0000 164028.00 158186.00 11790.00
4429 0.0000 190597.00 179441.00 11852.00
4430 0.0000 203054.00 205026.00 11888.00
4431 0.0000 237545.00 234443.00 11945.00
4432 0.0000 281908.00 266602.00 11976.00
4433 0.0000 325338.00 299814.00 12008.00
4434 0.0000 355655.00 331871.00 12061.00
4435 0.0000 376330.00 360230.00 12091.00
4436 0.0000 414103.00 382301.00 12141.00
4437 0.0000 421107.00 395777.00 12169.00
4438 0.0000 430136.00 399148.00 12196.00
4439 0.0000 431088.00 392024.00 12241.00
4440 0.0000 414613.00 375360.00 12266.00
4441 0.0000 387630.00 350818.00 12306.00
4442 0.0000 343002.00 320944.00 12329.00
4443 0.0000 304201.00 288396.00 12353.00
4444 0.0000 261257.00 255618.00 12389.00
4445 0.0000 217937.00 224662.00 12411.00
4446 0.0000 194926.00 197035.00 12444.00
4447 0.0000 161662.00 173673.00 12464.00
4448 0.0000 158273.00 154996.00 12482.00
4449 0.0000 154230.00 141038.00 12508.00
4450 0.0000 151160.00 131637.00 12525.00
4451 0.0000 135468.00 126571.00 12546.00
4452 0.0000 122591.00 125730.00 12560.00
4453 0.0000 111578.00 129212.00 12574.00
4454 0.0000 108982.00 137354.00 12588.00
4455 0.0000 139820.00 150699.00 12599.00
4456 0.0000 171695.00 169900.00 12610.00
4457 0.0000 186336.00 195507.00 12619.00
4458 0.0000 210024.00 227805.00 12628.00
4459 0.0000 242263.00 266546.00 12635.00
4460 0.0000 293139.00 310758.00 12640.00
4461 0.0000 344890.00 358624.00 12643.00
4462 0.0000 389105.00 407502.00 12645.00
4463 0.0000 421453.00 453975.00 12647.00
4464 0.0000 465670.00 494274.00 12643.00
4465 0.0000 508572.00 524621.00 12645.00
4466 0.0000 542226.00 541818.00 12638.00
4467 0.0000 540725.00 543890.00 12640.00
4468 0.0000 535131.00 530580.00 12641.00
4469 0.0000 506985.00 503402.00 12630.00
4470 0.0000 474274.00 465304.00 12630.00
4471 0.0000 427098.00 419955.00 12619.00
4472 0.0000 367260.00 371185.00 12618.00
4473 0.0000 314262.00 322508.00 12615.00
4474 0.0000 262740.00 276787.00 12598.00
4475 0.0000 219040.00 236032.00 12594.00
4476 0.0000 188364.00 201429.00 12575.00
4477 0.0000 181946.00 173305.00 12569.00
4478 0.0000 136133.00 151373.00 12563.00
4479 0.0000 123612.00 134925.00 12542.00
4480 0.0000 110916.00 123033.00 12534.00
4481 0.0000 98356.00 114719.00 12508.00
4482 0.0000 101319.00 109078.00 12499.00
4483 0.0000 83838.00 105348.00 12489.00
4484 0.0000 65947.00 102923.00 12464.00
4485 0.0000 72247.00 101358.00 12455.00
4486 0.0000 79017.00 100340.00 12427.00
4487 0.0000 88306.00 99661.40 12415.00
4488 0.0000 80770.00 99188.50 12402.00
4489 0.0000 63529.00 98840.90 12372.00
4490 0.0000 54512.00 98570.00 12361.00
4491 0.0000 57653.00 98348.20 12331.00
4492 0.0000 52159.00 98159.60 12318.00
4493 0.0000 48352.00 97995.10 12305.00
4494 0.0000 40296.00 97849.60 12274.00
4495 0.0000 44449.00 97719.50 12262.00
4496 0.0000 53299.00 97602.90 12230.00
4497 0.0000 60229.00 97498.10 12218.00
4498 0.0000 57129.00 97403.80 12204.00
4499 0.0000 78676.00 97319.20 12175.00
4500 0.0000 88923.00 97243.50 12163.00
4501 0.0000 93106.00 97175.90 12131.00
4502 0.0000 80254.00 97116.10 12118.00
4503 0.0000 70566.00 97063.50 12107.00
4504 0.0000 82040.00 97017.90 12076.00
4505 0.0000 89925.00 96979.10 12063.00
4506 0.0000 94733.00 96946.80 12032.00
4507 0.0000 82893.00 96921.10 12018.00
4508 0.0000 75395.00 96901.80 12005.00
4509 0.0000 83545.00 96889.20 11975.00
4510 0.0000 79878.00 96883.40 11963.00
4511 0.0000 106227.00 96884.60 11936.00
4512 0.0000 98188.00 96893.20 11924.00
4513 0.0000 108267.00 96909.60 11912.00
4514 0.0000 105954.00 96934.60 11884.00
4515 0.0000 96922.00 96968.80 11873.00
4516 0.0000 73118.00 97013.30 11849.00
4517 0.0000 77761.00 97069.70 11837.00
4518 0.0000 83171.00 97140.40 11826.00
4519 0.0000 91278.00 97229.40 11800.00
4520 0.0000 86168.00 97343.30 11789.00
4521 0.0000 87373.00 97494.10 11764.00
4522 0.0000 92441.00 97702.10 11753.00
4523 0.0000 88704.00 98003.00 11744.00
4524 0.0000 73150.00 98456.60 11719.00
4525 0.0000 71549.00 99159.80 11707.00
4526 0.0000 90408.00 100264.00 11683.00
4527 0.0000 103208.00 101995.00 11673.00
4528 0.0000 109564.00 104677.00 11663.00
4529 0.0000 111170.00 108742.00 11639.00
4530 0.0000 116399.00 114743.00 11627.00
4531 0.0000 128112.00 123333.00 11601.00
4532 0.0000 136418.00 135222.00 11590.00
4533 0.0000 154862.00 151091.00 11579.00
4534 0.0000 180593.00 171478.00 11556.00
4535 0.0000 214253.00 196640.00 11543.00
4536 0.0000 238235.00 226361.00 11517.00
4537 0.0000 257604.00 259891.00 11505.00
4538 0.0000 282634.00 295843.00 11492.00
4539 0.0000 311732.00 332215.00 11466.00
4540 0.0000 335273.00 366423.00 11453.00
4541 0.0000 361571.00 395894.00 11425.00
4542 0.0000 388499.00 417783.00 11412.00
4543 0.0000 423884.00 429840.00 11400.00
4544 0.0000 431541.00 430713.00 11372.00
4545 0.0000 410310.00 420299.00 11360.00
4546 0.0000 391050.00 399768.00 11331.00
4547 0.0000 368003.00 371271.00 11320.00
4548 0.0000 340249.00 337475.00 11308.00
4549 0.0000 304702.00 301199.00 11279.00
4550 0.0000 271733.00 264982.00 11266.00
4551 0.0000 241212.00 230911.00 11234.00
4552 0.0000 220762.00 200477.00 11220.00
4553 0.0000 192334.00 174533.00 11207.00
4554 0.0000 157536.00 153345.00 11174.00
4555 0.0000 140121.00 136747.00 11160.00
4556 0.0000 127436.00 124227.00 11124.00
4557 0.0000 116006.00 115116.00 11109.00
4558 0.0000 91626.00 108703.00 11092.00
4559 0.0000 81740.00 104322.00 11056.00
4560 0.0000 81172.00 101403.00 11039.00
4561 0.0000 80378.00 99491.70 11001.00
4562 0.0000 82664.00 98251.80 10983.00
4563 0.0000 92271.00 97442.10 10966.00
4564 0.0000 92313.00 96900.90 10926.00
4565 0.0000 83735.00 96523.70 10909.00
4566 0.0000 87657.00 96246.10 10868.00
4567 0.0000 87055.00 96029.20 10848.00
4568 0.0000 67278.00 95850.50 10830.00
4569 0.0000 71652.00 95697.20 10786.00
4570 0.0000 75242.00 95430.40 10768.00
4571 0.0000 93438.00 95310.80 10725.00
4572 0.0000 90021.00 95201.90 10706.00
4573 0.0000 88463.00 95102.00 10686.00
4574 0.0000 91622.00 95009.70 10643.00
4575 0.0000 79528.00 94924.00 10623.00
4576 0.0000 94983.00 94844.30 10579.00
4577 0.0000 90736.00 94769.70 10557.00
4578 0.0000 95490.00 94699.80 10536.00
4579 0.0000 72591.00 94634.00 10491.00
4580 0.0000 63773.00 94572.00 10471.00
4581 0.0000 61388.00 94513.30 10425.00
4582 0.0000 65768.00 94457.60 10404.00
4583 0.0000 89106.00 94404.60 10384.00
4584 0.0000 95142.00 94354.20 10339.00
4585 0.0000 84145.00 94305.90 10320.00
4586 0.0000 82723.00 94259.80 10274.00
4587 0.0000 82487.00 94215.40 10253.00
4588 0.0000 83836.00 94172.80 10233.00
4589 0.0000 97049.00 94131.80 10185.00
4590 0.0000 98859.00 94092.20 10164.00
4591 0.0000 103254.00 94053.90 10119.00
4592 0.0000 90525.00 94016.80 10099.00
4593 0.0000 82452.00 93980.80 10079.00
4594 0.0000 81795.00 93945.90 10034.00
4595 0.0000 91953.00 93911.90 10014.00
4596 0.0000 95618.00 93878.80 9973.00
4597 0.0000 88596.00 93846.50 9954.00
4598 0.0000 92408.00 93864.40 9937.00
4599 0.0000 85320.00 93834.50 9899.00
4600 0.0000 84541.00 93805.30 9881.00
4601 0.0000 79941.00 93776.70 9842.00
4602 0.0000 81475.00 93748.80 9824.00
4603 0.0000 74954.00 93721.40 9808.00
4604 0.0000 82037.00 93694.50 9774.00
4605 0.0000 79470.00 93668.20 9759.00
4606 0.0000 78181.00 93642.30 9727.00
4607 0.0000 83485.00 93616.80 9713.00
4608 0.0000 93769.00 93591.80 9699.00
4609 0.0000 76981.00 93567.20 9673.00
4610 0.0000 76114.00 93543.00 9661.00
4611 0.0000 84944.00 93519.10 9637.00
4612 0.0000 87321.00 93495.60 9625.00
4613 0.0000 87147.00 93472.40 9616.00
4614 0.0000 83268.00 93449.50 9596.00
4615 0.0000 83117.00 93426.90 9587.00
4616 0.0000 93909.00 93404.70 9568.00
4617 0.0000 85639.00 93382.70 9562.00
4618 0.0000 82104.00 93361.00 9555.00
4619 0.0000 91298.00 93339.50 9540.00
4620 0.0000 102516.00 93318.30 9536.00
4621 0.0000 95971.00 93297.40 9525.00
4622 0.0000 86831.00 93276.60 9522.00
4623 0.0000 79495.00 93256.20 9517.00
4624 0.0000 81348.00 93236.00 9507.00
4625 0.0000 90090.00 93215.90 9504.00
4626 0.0000 93556.00 93196.20 9495.00
4627 0.0000 96792.00 93176.60 9494.00
4628 0.0000 90516.00 93157.30 9492.00
4629 0.0000 86380.00 93138.10 9486.00
4630 0.0000 76424.00 93119.20 9486.00
4631 0.0000 67595.00 93100.60 9483.00
4632 0.0000 66142.00 93082.10 9484.00
4633 0.0000 66067.00 93063.90 9485.00
4634 0.0000 64881.00 93045.90 9485.00
4635 0.0000 70280.00 93028.10 9490.00
4636 0.0000 78535.00 93010.60 9493.00
4637 0.0000 78527.00 92993.30 9497.00
4638 0.0000 80956.00 92976.20 9503.00
4639 0.0000 83205.00 92959.40 9511.00
4640 0.0000 95875.00 92942.80 9518.00
4641 0.0000 85797.00 92926.50 9528.00
4642 0.0000 73166.00 92910.50 9537.00
4643 0.0000 81211.00 92894.80 9542.00
4644 0.0000 88749.00 92879.30 9553.00
4645 0.0000 100094.00 92864.20 9563.00
4646 0.0000 98191.00 92849.40 9576.00
4647 0.0000 95350.00 92834.90 9585.00
4648 0.0000 91140.00 92722.90 9594.00
4649 0.0000 96397.00 92711.10 9607.00
4650 0.0000 85257.00 92699.50 9617.00
4651 0.0000 92858.00 92688.40 9633.00
4652 0.0000 98961.00 92677.60 9642.00
4653 0.0000 89670.00 92667.30 9653.00
4654 0.0000 91505.00 92657.40 9670.00
4655 0.0000 91786.00 92648.10 9680.00
4656 0.0000 94118.00 92639.30 9697.00
4657 0.0000 90284.00 92631.10 9709.00
4658 0.0000 93260.00 92625.90 9719.00
4659 0.0000 92910.00 92619.00 9737.00
4660 0.0000 106804.00 92613.00 9748.00
4661 0.0000 95317.00 92607.80 9767.00
4662 0.0000 106757.00 92603.40 9778.00
4663 0.0000 90913.00 92600.10 9790.00
4664 0.0000 92272.00 92597.90 9808.00
4665 0.0000 85214.00 92596.90 9820.00
4666 0.0000 89672.00 92597.20 9840.00
4667 0.0000 90946.00 92599.00 9852.00
4668 0.0000 87553.00 92602.40 9864.00
4669 0.0000 96638.00 92607.60 9884.00
4670 0.0000 90425.00 92614.80 9895.00
4671 0.0000 88109.00 92624.30 9913.00
4672 0.0000 96882.00 92636.30 9925.00
4673 0.0000 92776.00 92651.10 9937.00
4674 0.0000 84050.00 92669.10 9957.00
4675 0.0000 81628.00 92690.90 9969.00
4676 0.0000 76689.00 92717.10 9985.00
4677 0.0000 80567.00 92748.50 9997.00
4678 0.0000 87589.00 92786.70 10008.00
4679 0.0000 85802.00 92834.00 10027.00
4680 0.0000 73458.00 92894.60 10039.00
4681 0.0000 68018.00 92975.40 10057.00
4682 0.0000 76034.00 93088.40 10067.00
4683 0.0000 81909.00 93254.10 10076.00
4684 0.0000 79090.00 93505.60 10092.00
4685 0.0000 91938.00 93895.60 10101.00
4686 0.0000 86280.00 94504.50 10115.00
4687 0.0000 88603.00 95448.30 10123.00
4688 0.0000 90263.00 96889.10 10132.00
4689 0.0000 100030.00 99040.00 10144.00
4690 0.0000 108963.00 102165.00 10151.00
4691 0.0000 114882.00 106570.00 10161.00
4692 0.0000 126196.00 112581.00 10166.00
4693 0.0000 134419.00 120492.00 10173.00
4694 0.0000 129861.00 130530.00 10180.00
4695 0.0000 139282.00 142777.00 10185.00
4696 0.0000 152125.00 157113.00 10193.00
4697 0.0000 168969.00 173160.00 10196.00
4698 0.0000 196740.00 190262.00 10199.00
4699 0.0000 202783.00 207500.00 10204.00
4700 0.0000 214497.00 223721.00 10205.00
4701 0.0000 222657.00 237677.00 10207.00
4702 0.0000 238316.00 248137.00 10209.00
4703 0.0000 257001.00 254071.00 10210.00
4704 0.0000 258744.00 254846.00 10211.00
4705 0.0000 258374.00 250376.00 10213.00
4706 0.0000 236914.00 241134.00 10213.00
4707 0.0000 217976.00 228060.00 10214.00
4708 0.0000 204507.00 212344.00 10215.00
4709 0.0000 204497.00 195251.00 10211.00
4710 0.0000 195313.00 177965.00 10211.00
4711 0.0000 173270.00 161484.00 10206.00
4712 0.0000 169582.00 146541.00 10203.00
4713 0.0000 149441.00 133612.00 10203.00
4714 0.0000 134827.00 122879.00 10196.00
4715 0.0000 116286.00 114316.00 10193.00
4716 0.0000 103441.00 107733.00 10186.00
4717 0.0000 94111.00 102847.00 10184.00
4718 0.0000 105976.00 99336.80 10180.00
4719 0.0000 103673.00 96888.00 10170.00
4720 0.0000 82121.00 95224.50 10166.00
4721 0.0000 87603.00 94116.10 10156.00
4722 0.0000 83364.00 93386.10 10152.00
4723 0.0000 87435.00 92905.30 10146.00
4724 0.0000 87352.00 92583.60 10135.00
4725 0.0000 90441.00 92361.10 10129.00
4726 0.0000 86719.00 92199.80 10119.00
4727 0.0000 72888.00 92075.80 10114.00
4728 0.0000 74736.00 91975.00 10110.00
4729 0.0000 87471.00 91889.20 10097.00
4730 0.0000 97518.00 91813.70 10091.00
4731 0.0000 105658.00 91745.50 10075.00
4732 0.0000 107203.00 91683.10 10069.00
4733 0.0000 87596.00 91625.50 10062.00
4734 0.0000 73554.00 91571.90 10047.00
4735 0.0000 65732.00 91521.80 10039.00
4736 0.0000 81699.00 91474.80 10021.00
4737 0.0000 86814.00 91430.70 10012.00
4738 0.0000 86437.00 91389.10 10004.00
4739 0.0000 86276.00 91349.90 9986.00
4740 0.0000 81405.00 91312.90 9977.00
4741 0.0000 93889.00 91278.30 9957.00
4742 0.0000 95114.00 91246.10 9949.00
4743 0.0000 85045.00 91216.80 9942.00
4744 0.0000 84172.00 91191.20 9922.00
4745 0.0000 94341.00 91170.60 9912.00
4746 0.0000 93761.00 91157.40 9890.00
4747 0.0000 86989.00 91155.10 9880.00
4748 0.0000 88467.00 91168.90 9870.00
4749 0.0000 91916.00 91206.20 9853.00
4750 0.0000 98113.00 91276.70 9844.00
4751 0.0000 100114.00 91392.50 9823.00
4752 0.0000 99126.00 91567.90 9813.00
4753 0.0000 88303.00 91817.80 9804.00
4754 0.0000 91233.00 92156.70 9783.00
4755 0.0000 84936.00 92596.00 9775.00
4756 0.0000 86899.00 93140.80 9753.00
4757 0.0000 80179.00 93787.30 9744.00
4758 0.0000 84231.00 94520.30 9735.00
4759 0.0000 88398.00 95310.80 9717.00
4760 0.0000 80770.00 96117.70 9710.00
4761 0.0000 78784.00 96889.10 9691.00
4762 0.0000 83016.00 97566.60 9683.00
4763 0.0000 69560.00 98091.10 9673.00
4764 0.0000 78661.00 98411.10 9658.00
4765 0.0000 86770.00 98491.20 9649.00
4766 0.0000 94015.00 98320.40 9633.00
4767 0.0000 99758.00 97914.50 9625.00
4768 0.0000 101548.00 97312.60 9617.00
4769 0.0000 99997.00 96568.20 9604.00
4770 0.0000 100422.00 95740.70 9595.00
4771 0.0000 98513.00 94887.50 9580.00
4772 0.0000 95173.00 94059.60 9574.00
4773 0.0000 93862.00 93295.50 9568.00
4774 0.0000 85772.00 92621.10 9555.00
4775 0.0000 86145.00 92049.80 9549.00
4776 0.0000 78281.00 91583.30 9538.00
4777 0.0000 75805.00 91215.00 9532.00
4778 0.0000 68435.00 90932.80 9527.00
4779 0.0000 74248.00 90722.20 9515.00
4780 0.0000 82199.00 90567.70 9511.00
4781 0.0000 87686.00 90455.70 9501.00
4782 0.0000 91872.00 90374.20 9496.00
4783 0.0000 90573.00 90314.00 9492.00
4784 0.0000 89017.00 90268.10 9480.00
4785 0.0000 78426.00 90231.60 9477.00
4786 0.0000 82435.00 90201.00 9467.00
4787 0.0000 85178.00 90174.20 9466.00
4788 0.0000 90049.00 90149.70 9463.00
4789 0.0000 91041.00 90126.80 9456.00
4790 0.0000 88754.00 90104.90 9454.00
4791 0.0000 91593.00 90083.80 9449.00
4792 0.0000 107424.00 90063.20 9448.00
4793 0.0000 108463.00 90043.30 9448.00
4794 0.0000 91448.00 90023.90 9442.00
4795 0.0000 89324.00 90005.00 9440.00
4796 0.0000 80715.00 89986.90 9431.00
4797 0.0000 74527.00 89969.60 9428.00
4798 0.0000 79936.00 89953.70 9426.00
4799 0.0000 81531.00 89939.90 9417.00
4800 0.0000 73939.00 89929.10 9415.00
4801 0.0000 80661.00 89923.40 9409.00
4802 0.0000 68066.00 89925.30 9407.00
4803 0.0000 67629.00 89938.90 9404.00
4804 0.0000 65289.00 89969.70 9399.00
4805 0.0000 85189.00 90024.80 9395.00
4806 0.0000 96979.00 90113.10 9387.00
4807 0.0000 109680.00 90245.10 9383.00
4808 0.0000 103805.00 90431.70 9381.00
4809 0.0000 93212.00 90683.40 9375.00
4810 0.0000 93470.00 90961.60 9371.00
4811 0.0000 101224.00 91364.60 9365.00
4812 0.0000 96263.00 91841.60 9364.00
4813 0.0000 96202.00 92381.40 9361.00
4814 0.0000 91035.00 92963.40 9358.00
4815 0.0000 94564.00 93557.90 9357.00
4816 0.0000 105737.00 94127.20 9354.00
4817 0.0000 107908.00 94629.30 9354.00
4818 0.0000 111574.00 95020.80 9352.00
4819 0.0000 94113.00 95264.20 9349.00
4820 0.0000 81407.00 95333.00 9349.00
4821 0.0000 86655.00 95218.20 9345.00
4822 0.0000 97256.00 94929.80 9346.00
4823 0.0000 110172.00 94495.10 9347.00
4824 0.0000 98745.00 93952.00 9346.00
4825 0.0000 88639.00 93344.10 9346.00
4826 0.0000 84103.00 92713.20 9346.00
4827 0.0000 76322.00 92096.60 9345.00
4828 0.0000 71442.00 91523.70 9345.00
4829 0.0000 75822.00 91014.40 9343.00
4830 0.0000 78900.00 90579.50 9343.00
4831 0.0000 90294.00 90221.40 9342.00
4832 0.0000 99135.00 89936.30 9342.00
4833 0.0000 81497.00 89715.80 9343.00
4834 0.0000 87688.00 89549.20 9342.00
4835 0.0000 85610.00 89425.60 9344.00
4836 0.0000 85991.00 89334.70 9341.00
4837 0.0000 70008.00 89267.50 9340.00
4838 0.0000 81220.00 89217.00 9341.00
4839 0.0000 89081.00 89177.90 9338.00
4840 0.0000 93303.00 89146.10 9341.00
4841 0.0000 89172.00 89119.10 9339.00
4842 0.0000 91762.00 89095.00 9341.00
4843 0.0000 85693.00 89072.80 9342.00
4844 0.0000 68788.00 89051.70 9339.00
4845 0.0000 70892.00 89031.30 9341.00
4846 0.0000 87425.00 89011.40 9340.00
4847 0.0000 88419.00 88991.80 9340.00
4848 0.0000 80154.00 88972.40 9341.00
4849 0.0000 84008.00 88953.30 9339.00
4850 0.0000 76399.00 88934.30 9341.00
4851 0.0000 81075.00 88915.50 9338.00
4852 0.0000 83189.00 88896.70 9338.00
4853 0.0000 85095.00 88878.10 9339.00
4854 0.0000 87393.00 88859.60 9337.00
4855 0.0000 81259.00 88841.20 9339.00
4856 0.0000 82566.00 88822.90 9337.00
4857 0.0000 84448.00 88804.60 9338.00
4858 0.0000 77211.00 88786.40 9340.00
4859 0.0000 81689.00 88768.30 9337.00
4860 0.0000 79707.00 88750.20 9337.00
4861 0.0000 74540.00 88732.20 9336.00
4862 0.0000 79372.00 88714.20 9336.00
4863 0.0000 73693.00 88696.30 9337.00
4864 0.0000 78880.00 88678.40 9334.00
4865 0.0000 90040.00 88660.50 9336.00
4866 0.0000 92397.00 88642.70 9333.00
4867 0.0000 97122.00 88625.00 9334.00
4868 0.0000 87780.00 88607.20 9334.00
4869 0.0000 97031.00 88589.50 9332.00
4870 0.0000 94514.00 88571.80 9333.00
4871 0.0000 87585.00 88554.20 9328.00
4872 0.0000 78375.00 88534.30 9327.00
4873 0.0000 79818.00 88516.80 9329.00
4874 0.0000 80017.00 88499.20 9327.00
4875 0.0000 75225.00 88481.70 9328.00
4876 0.0000 76982.00 88464.20 9327.00
4877 0.0000 79580.00 88446.80 9326.00
4878 0.0000 83333.00 88429.30 9328.00
4879 0.0000 82418.00 88411.90 9327.00
4880 0.0000 87565.00 88394.50 9327.00
4881 0.0000 93934.00 88377.10 9325.00
4882 0.0000 95478.00 88359.70 9326.00
4883 0.0000 82499.00 88342.40 9325.00
4884 0.0000 91042.00 88325.10 9324.00
4885 0.0000 88146.00 88307.70 9326.00
4886 0.0000 95752.00 88290.40 9325.00
4887 0.0000 92475.00 88273.20 9327.00
4888 0.0000 95708.00 88255.90 9328.00
4889 0.0000 83043.00 88238.60 9329.00
4890 0.0000 92661.00 88221.40 9330.00
4891 0.0000 90825.00 88204.20 9329.00
4892 0.0000 83071.00 88187.00 9331.00
4893 0.0000 85896.00 88169.80 9331.00
4894 0.0000 82631.00 88152.60 9328.00
4895 0.0000 83294.00 88135.40 9327.00
4896 0.0000 83152.00 88118.30 9326.00
4897 0.0000 91785.00 88101.20 9327.00
4898 0.0000 85336.00 88084.00 9328.00
4899 0.0000 89801.00 88066.90 9324.00
4900 0.0000 81659.00 88049.90 9324.00
4901 0.0000 79113.00 88032.80 9321.00
4902 0.0000 83330.00 88015.70 9323.00
4903 0.0000 85159.00 87998.60 9324.00
4904 0.0000 88575.00 87981.60 9323.00
4905 0.0000 89548.00 87964.60 9324.00
4906 0.0000 91117.00 87947.60 9325.00
4907 0.0000 91881.00 87930.60 9327.00
4908 0.0000 94604.00 87913.60 9329.00
4909 0.0000 98522.00 87896.60 9328.00
4910 0.0000 89746.00 87879.70 9329.00
4911 0.0000 80115.00 87862.70 9329.00
4912 0.0000 72877.00 87845.80 9331.00
4913 0.0000 75518.00 87828.90 9333.00
4914 0.0000 82488.00 87812.00 9332.00
4915 0.0000 82943.00 87795.10 9334.00
4916 0.0000 81208.00 87778.20 9334.00
4917 0.0000 78063.00 87761.30 9334.00
4918 0.0000 90692.00 87744.50 9334.00
4919 0.0000 78960.00 87727.60 9334.00
4920 0.0000 91387.00 87710.80 9336.00
4921 0.0000 79620.00 87694.00 9335.00
4922 0.0000 86986.00 87677.20 9335.00
4923 0.0000 85968.00 87660.40 9339.00
4924 0.0000 100220.00 87643.60 9338.00
4925 0.0000 89650.00 87626.90 9340.00
4926 0.0000 91659.00 87610.10 9342.00
4927 0.0000 82983.00 87593.40 9347.00
4928 0.0000 76328.00 87575.00 9350.00
4929 0.0000 81633.00 87558.30 9350.00
4930 0.0000 100534.00 87541.60 9354.00
4931 0.0000 114200.00 87525.00 9354.00
4932 0.0000 98627.00 87508.30 9359.00
4933 0.0000 101575.00 87491.70 9361.00
4934 0.0000 87318.00 87475.10 9362.00
4935 0.0000 83175.00 87458.50 9367.00
4936 0.0000 78732.00 87441.90 9369.00
4937 0.0000 72350.00 87425.30 9374.00
4938 0.0000 74890.00 87408.70 9380.00
4939 0.0000 86896.00 87392.20 9381.00
4940 0.0000 89437.00 87375.60 9385.00
4941 0.0000 88953.00 87359.10 9386.00
4942 0.0000 100376.00 87342.60 9391.00
4943 0.0000 101799.00 87326.10 9397.00
4944 0.0000 97666.00 87309.60 9399.00
4945 0.0000 93729.00 87293.10 9403.00
4946 0.0000 84385.00 87276.60 9408.00
4947 0.0000 84893.00 87260.20 9410.00
4948 0.0000 78682.00 87243.70 9414.00
4949 0.0000 75805.00 87227.30 9416.00
4950 0.0000 88396.00 87211.30 9420.00
4951 0.0000 90478.00 87194.90 9422.00
4952 0.0000 96668.00 87178.50 9426.00
4953 0.0000 80130.00 87162.10 9430.00
4954 0.0000 78386.00 87145.80 9433.00
4955 0.0000 86020.00 87129.40 9437.00
4956 0.0000 83857.00 87113.10 9440.00
4957 0.0000 102839.00 87096.80 9443.00
4958 0.0000 106805.00 87080.50 9446.00
4959 0.0000 88335.00 87064.20 9448.00
4960 0.0000 90608.00 87047.90 9453.00
4961 0.0000 86602.00 87031.70 9458.00
4962 0.0000 76331.00 87015.40 9463.00
4963 0.0000 77659.00 86999.20 9466.00
4964 0.0000 80927.00 86983.00 9469.00
4965 0.0000 81289.00 86966.70 9472.00
4966 0.0000 86382.00 86950.60 9474.00
4967 0.0000 93179.00 86934.40 9479.00
4968 0.0000 99888.00 86918.20 9484.00
4969 0.0000 110759.00 86902.10 9489.00
4970 0.0000 98779.00 86885.90 9495.00
4971 0.0000 106305.00 86869.80 9497.00
4972 0.0000 98439.00 86853.70 9503.00
4973 0.0000 98394.00 86837.60 9509.00
4974 0.0000 92230.00 86821.50 9516.00
4975 0.0000 97962.00 86805.50 9522.00
4976 0.0000 101941.00 86789.40 9527.00
4977 0.0000 90400.00 86773.40 9535.00
4978 0.0000 99058.00 86757.40 9542.00
4979 0.0000 97633.00 86741.40 9547.00
4980 0.0000 80886.00 86725.40 9554.00
4981 0.0000 83082.00 86709.40 9558.00
4982 0.0000 91540.00 86693.40 9563.00
4983 0.0000 88286.00 86677.50 9571.00
4984 0.0000 98994.00 86661.60 9574.00
4985 0.0000 105596.00 86645.70 9580.00
4986 0.0000 92594.00 86629.80 9585.00
4987 0.0000 85717.00 86613.90 9594.00
4988 0.0000 88680.00 86598.00 9600.00
4989 0.0000 90631.00 86582.20 9606.00
4990 0.0000 92655.00 86566.30 9615.00
4991 0.0000 91279.00 86550.50 9621.00
4992 0.0000 88267.00 86534.70 9626.00
4993 0.0000 82079.00 86518.90 9632.00
4994 0.0000 74161.00 86503.20 9636.00
4995 0.0000 83723.00 86487.40 9644.00
4996 0.0000 89589.00 86471.70 9652.00
4997 0.0000 96180.00 86455.90 9659.00
4998 0.0000 87658.00 86440.20 9663.00
4999 0.0000 83980.00 86424.50 9669.00
5000 0.0000 92311.00 86408.90 9675.00
5001 0.0000 95256.00 86393.20 9681.00
5002 0.0000 84832.00 86377.60 9688.00
5003 0.0000 86450.00 86362.00 9694.00
5004 0.0000 88536.00 86346.40 9699.00
5005 0.0000 79266.00 86330.80 9704.00
5006 0.0000 81180.00 86315.20 9707.00
5007 0.0000 80977.00 86299.70 9713.00
5008 0.0000 87872.00 86284.10 9719.00
5009 0.0000 88847.00 86268.60 9723.00
5010 0.0000 88307.00 86253.10 9727.00
5011 0.0000 92202.00 86237.70 9728.00
5012 0.0000 91435.00 86222.20 9733.00
5013 0.0000 95378.00 86206.80 9737.00
5014 0.0000 89629.00 86191.40 9742.00
5015 0.0000 85564.00 86176.00 9746.00
5016 0.0000 81921.00 86160.60 9748.00
5017 0.0000 97031.00 86145.30 9754.00
5018 0.0000 99311.00 86130.00 9759.00
5019 0.0000 93735.00 86114.70 9764.00
5020 0.0000 97087.00 86099.40 9769.00
5021 0.0000 100957.00 86084.10 9772.00
5022 0.0000 107375.00 86068.90 9778.00
5023 0.0000 104906.00 86053.70 9784.00
5024 0.0000 118059.00 86038.50 9788.00
5025 0.0000 105967.00 86023.40 9794.00
5026 0.0000 96990.00 86008.30 9800.00
5027 0.0000 101758.00 85993.20 9808.00
5028 0.0000 94656.00 85978.20 9815.00
5029 0.0000 98439.00 85963.20 9820.00
5030 0.0000 88879.00 85948.20 9827.00
5031 0.0000 86278.00 85933.30 9832.00
5032 0.0000 83139.00 85918.40 9838.00
5033 0.0000 92168.00 85903.60 9843.00
5034 0.0000 94709.00 85888.90 9848.00
5035 0.0000 95985.00 85874.20 9854.00
5036 0.0000 102417.00 85859.60 9860.00
5037 0.0000 100029.00 85845.20 9867.00
5038 0.0000 102440.00 85831.10 9874.00
5039 0.0000 105824.00 85817.30 9877.00
5040 0.0000 100275.00 85804.10 9883.00
5041 0.0000 84323.00 85791.80 9887.00
5042 0.0000 86729.00 85780.90 9892.00
5043 0.0000 85784.00 85772.20 9897.00
5044 0.0000 84038.00 85766.70 9901.00
5045 0.0000 82202.00 85765.60 9907.00
5046 0.0000 90494.00 85770.80 9912.00
5047 0.0000 84990.00 85784.30 9917.00
5048 0.0000 94361.00 85808.30 9922.00
5049 0.0000 94425.00 85845.20 9927.00
5050 0.0000 95335.00 85896.90 9933.00
5051 0.0000 93148.00 85965.00 9937.00
5052 0.0000 110833.00 86049.80 9943.00
5053 0.0000 113704.00 86150.30 9948.00
5054 0.0000 104788.00 86263.50 9951.00
5055 0.0000 87429.00 86384.60 9957.00
5056 0.0000 81619.00 86507.00 9957.00
5057 0.0000 86896.00 86622.70 9963.00
5058 0.0000 97425.00 86722.70 9967.00
5059 0.0000 97443.00 86798.00 9969.00
5060 0.0000 94975.00 86840.80 9973.00
5061 0.0000 85911.00 86845.70 9975.00
5062 0.0000 93269.00 86810.80 9979.00
5063 0.0000 110095.00 86738.10 9982.00
5064 0.0000 87414.00 86632.90 9985.00
5065 0.0000 69722.00 86503.20 9990.00
5066 0.0000 74652.00 86358.00 9988.00
5067 0.0000 75541.00 86206.00 9991.00
5068 0.0000 88285.00 86055.50 9995.00
5069 0.0000 84614.00 85913.00 9995.00
5070 0.0000 86266.00 85783.40 9999.00
5071 0.0000 99737.00 85669.40 10002.00
5072 0.0000 108558.00 85572.10 10007.00
5073 0.0000 100250.00 85491.20 10011.00
5074 0.0000 88281.00 85425.10 10012.00
5075 0.0000 78109.00 85371.80 10014.00
5076 0.0000 81560.00 85329.10 10017.00
5077 0.0000 86888.00 85294.50 10021.00
5078 0.0000 87761.00 85266.20 10025.00
5079 0.0000 87668.00 85242.40 10026.00
5080 0.0000 88587.00 85221.80 10030.00
5081 0.0000 92443.00 85203.20 10030.00
5082 0.0000 91146.00 85186.10 10034.00
5083 0.0000 97620.00 85169.90 10037.00
5084 0.0000 97863.00 85154.30 10039.00
5085 0.0000 108087.00 85139.10 10042.00
5086 0.0000 99579.00 85124.10 10047.00
5087 0.0000 99691.00 85109.20 10052.00
5088 0.0000 109015.00 85094.50 10057.00
5089 0.0000 110336.00 85079.80 10062.00
5090 0.0000 95519.00 85065.30 10070.00
5091 0.0000 94970.00 85050.70 10075.00
5092 0.0000 84503.00 85036.30 10079.00
5093 0.0000 69825.00 85021.80 10084.00
5094 0.0000 72834.00 85007.40 10087.00
5095 0.0000 86749.00 84993.10 10092.00
5096 0.0000 91340.00 84978.80 10093.00
5097 0.0000 91218.00 84964.50 10096.00
5098 0.0000 82632.00 84950.30 10100.00
5099 0.0000 73704.00 84936.00 10104.00
5100 0.0000 83870.00 84921.90 10106.00
5101 0.0000 99079.00 84907.70 10106.00
5102 0.0000 95920.00 84893.60 10109.00
5103 0.0000 92243.00 84879.50 10112.00
5104 0.0000 83689.00 84865.40 10116.00
5105 0.0000 99006.00 84851.40 10118.00
5106 0.0000 89643.00 84837.40 10119.00
5107 0.0000 102781.00 84823.40 10123.00
5108 0.0000 110869.00 84809.40 10125.00
5109 0.0000 122349.00 84795.50 10125.00
5110 0.0000 124170.00 84781.60 10129.00
5111 0.0000 116088.00 84767.70 10131.00
5112 0.0000 109031.00 84753.80 10135.00
5113 0.0000 105783.00 84739.90 10138.00
5114 0.0000 95713.00 84726.10 10139.00
5115 0.0000 98043.00 84712.30 10142.00
5116 0.0000 95758.00 84698.50 10142.00
5117 0.0000 99278.00 84684.80 10144.00
5118 0.0000 96960.00 84671.00 10148.00
5119 0.0000 109229.00 84657.30 10147.00
5120 0.0000 103447.00 84643.60 10151.00
5121 0.0000 100973.00 84629.90 10154.00
5122 0.0000 90534.00 84616.30 10156.00
5123 0.0000 92593.00 84602.60 10159.00
5124 0.0000 89851.00 84589.00 10158.00
5125 0.0000 95692.00 84575.40 10159.00
5126 0.0000 99594.00 84561.90 10159.00
5127 0.0000 105569.00 84548.30 10161.00
5128 0.0000 102919.00 84534.80 10165.00
5129 0.0000 102292.00 84521.30 10166.00
5130 0.0000 76269.00 84507.80 10171.00
5131 0.0000 66355.00 84494.30 10173.00
5132 0.0000 84509.00 84484.70 10176.00
5133 0.0000 103589.00 84471.30 10179.00
5134 0.0000 117170.00 84458.00 10184.00
5135 0.0000 118242.00 84444.70 10189.00
5136 0.0000 120377.00 84431.40 10191.00
5137 0.0000 101630.00 84418.10 10195.00
5138 0.0000 109894.00 84404.90 10199.00
5139 0.0000 102777.00 84391.60 10203.00
5140 0.0000 86673.00 84378.40 10207.00
5141 0.0000 64483.00 84365.20 10208.00
5142 0.0000 65623.00 84352.10 10210.00
5143 0.0000 72158.00 84338.90 10215.00
5144 0.0000 73474.00 84325.80 10218.00
5145 0.0000 69453.00 84312.70 10221.00
5146 0.0000 74608.00 84299.70 10223.00
5147 0.0000 76407.00 84286.60 10226.00
5148 0.0000 67066.00 84273.60 10227.00
5149 0.0000 67685.00 84260.60 10226.00
5150 0.0000 73686.00 84247.60 10229.00
5151 0.0000 77086.00 84234.70 10230.00
5152 0.0000 78579.00 84221.80 10231.00
5153 0.0000 86750.00 84208.80 10235.00
5154 0.0000 90407.00 84196.00 10237.00
5155 0.0000 102972.00 84183.10 10238.00
5156 0.0000 89600.00 84170.30 10241.00
5157 0.0000 84787.00 84157.50 10246.00
5158 0.0000 76313.00 84144.70 10249.00
5159 0.0000 86840.00 84131.90 10250.00
5160 0.0000 83810.00 84119.20 10257.00
5161 0.0000 89753.00 84106.50 10259.00
5162 0.0000 83153.00 84093.80 10262.00
5163 0.0000 81303.00 84081.20 10266.00
5164 0.0000 92385.00 84068.50 10268.00
5165 0.0000 90147.00 84055.90 10271.00
5166 0.0000 97214.00 84043.40 10272.00
5167 0.0000 99349.00 84030.80 10277.00
5168 0.0000 98314.00 84018.30 10279.00
5169 0.0000 99499.00 84005.80 10278.00
5170 0.0000 94194.00 83993.30 10281.00
5171 0.0000 92484.00 83980.90 10285.00
5172 0.0000 96096.00 83968.50 10288.00
5173 0.0000 108202.00 83955.70 10291.00
5174 0.0000 101014.00 83943.40 10296.00
5175 0.0000 85695.00 83931.10 10301.00
5176 0.0000 80353.00 83918.80 10305.00
5177 0.0000 81663.00 83906.60 10310.00
5178 0.0000 81999.00 83894.40 10316.00
5179 0.0000 83736.00 83882.20 10322.00
5180 0.0000 93510.00 83870.10 10326.00
5181 0.0000 96010.00 83857.90 10330.00
5182 0.0000 97740.00 83845.90 10333.00
5183 0.0000 101126.00 83833.80 10336.00
5184 0.0000 101695.00 83821.90 10340.00
5185 0.0000 97485.00 83809.90 10345.00
5186 0.0000 95417.00 83798.00 10349.00
5187 0.0000 97246.00 83786.10 10354.00
5188 0.0000 94228.00 83774.30 10360.00
5189 0.0000 84427.00 83762.50 10365.00
5190 0.0000 67626.00 83750.80 10371.00
5191 0.0000 58623.00 83739.10 10375.00
5192 0.0000 81063.00 83727.40 10381.00
5193 0.0000 85964.00 83715.90 10388.00
5194 0.0000 87289.00 83704.40 10394.00
5195 0.0000 93343.00 83692.90 10399.00
5196 0.0000 100373.00 83681.50 10405.00
5197 0.0000 98537.00 83670.10 10413.00
5198 0.0000 81934.00 83658.90 10423.00
5199 0.0000 90469.00 83647.70 10430.00
5200 0.0000 97983.00 83636.60 10437.00
5201 0.0000 89977.00 83625.50 10448.00
5202 0.0000 86502.00 83614.60 10458.00
5203 0.0000 88877.00 83603.80 10465.00
5204 0.0000 79454.00 83593.00 10476.00
5205 0.0000 86750.00 83582.40 10484.00
5206 0.0000 95321.00 83571.90 10489.00
5207 0.0000 90602.00 83561.50 10498.00
5208 0.0000 93533.00 83551.20 10504.00
5209 0.0000 98599.00 83541.10 10510.00
5210 0.0000 102388.00 83531.20 10516.00
5211 0.0000 88733.00 83521.40 10521.00
5212 0.0000 88408.00 83511.90 10526.00
5213 0.0000 92325.00 83502.50 10529.00
5214 0.0000 88833.00 83493.40 10535.00
5215 0.0000 96841.00 83484.60 10540.00
5216 0.0000 93653.00 83476.20 10547.00
5217 0.0000 93328.00 83468.10 10553.00
5218 0.0000 95661.00 83460.50 10557.00
5219 0.0000 94901.00 83453.70 10564.00
5220 0.0000 91267.00 83447.70 10569.00
5221 0.0000 96944.00 83443.20 10573.00
5222 0.0000 93583.00 83440.90 10578.00
5223 0.0000 103518.00 83442.10 10583.00
5224 0.0000 112640.00 83448.80 10586.00
5225 0.0000 96940.00 83464.10 10594.00
5226 0.0000 91954.00 83492.70 10600.00
5227 0.0000 75623.00 83541.30 10606.00
5228 0.0000 81576.00 83619.10 10613.00
5229 0.0000 84553.00 83738.40 10620.00
5230 0.0000 91624.00 83914.60 10628.00
5231 0.0000 85369.00 84185.50 10634.00
5232 0.0000 86713.00 84533.80 10641.00
5233 0.0000 87701.00 84999.20 10647.00
5234 0.0000 91881.00 85601.50 10654.00
5235 0.0000 89095.00 86355.30 10661.00
5236 0.0000 98237.00 87266.30 10666.00
5237 0.0000 95044.00 88328.20 10674.00
5238 0.0000 101183.00 89519.90 10683.00
5239 0.0000 86715.00 90801.50 10689.00
5240 0.0000 93397.00 92117.80 10695.00
5241 0.0000 97519.00 93398.70 10701.00
5242 0.0000 91973.00 94564.10 10708.00
5243 0.0000 91251.00 95531.00 10715.00
5244 0.0000 103987.00 96222.20 10721.00
5245 0.0000 115788.00 96577.10 10728.00
5246 0.0000 114375.00 96561.70 10734.00
5247 0.0000 106291.00 96176.90 10742.00
5248 0.0000 107153.00 95456.80 10747.00
5249 0.0000 114463.00 94462.70 10752.00
5250 0.0000 107414.00 93272.00 10759.00
5251 0.0000 107947.00 91967.90 10764.00
5252 0.0000 96237.00 90629.60 10770.00
5253 0.0000 88091.00 89328.40 10774.00
5254 0.0000 96547.00 88118.90 10781.00
5255 0.0000 83490.00 87039.20 10788.00
5256 0.0000 83267.00 86110.90 10793.00
5257 0.0000 85307.00 85339.90 10800.00
5258 0.0000 80158.00 84719.80 10808.00
5259 0.0000 67077.00 84236.40 10814.00
5260 0.0000 71976.00 83869.90 10821.00
5261 0.0000 83591.00 83599.00 10828.00
5262 0.0000 64900.00 83403.00 10834.00
5263 0.0000 76774.00 83263.60 10842.00
5264 0.0000 87238.00 83165.40 10852.00
5265 0.0000 74375.00 83096.10 10860.00
5266 0.0000 77320.00 83046.70 10868.00
5267 0.0000 95407.00 83010.40 10875.00
5268 0.0000 97687.00 82982.70 10884.00
5269 0.0000 92259.00 82960.50 10894.00
5270 0.0000 84256.00 82941.70 10902.00
5271 0.0000 87417.00 82925.20 10910.00
5272 0.0000 84724.00 82910.20 10916.00
5273 0.0000 90058.00 82896.10 10923.00
5274 0.0000 90118.00 82956.00 10935.00
5275 0.0000 98101.00 82944.40 10943.00
5276 0.0000 92313.00 82933.40 10954.00
5277 0.0000 89246.00 82922.80 10962.00
5278 0.0000 87565.00 82912.60 10972.00
5279 0.0000 85833.00 82902.70 10983.00
5280 0.0000 83260.00 82893.10 10989.00
5281 0.0000 86418.00 82883.90 11001.00
5282 0.0000 94459.00 82875.00 11008.00
5283 0.0000 93916.00 82866.30 11015.00
5284 0.0000 87851.00 82858.00 11028.00
5285 0.0000 98673.00 82849.90 11036.00
5286 0.0000 88941.00 82842.10 11049.00
5287 0.0000 82209.00 82834.60 11057.00
5288 0.0000 81104.00 82827.30 11065.00
5289 0.0000 93572.00 82820.40 11081.00
5290 0.0000 97064.00 82813.70 11091.00
5291 0.0000 88709.00 82807.30 11110.00
5292 0.0000 85821.00 82801.20 11121.00
5293 0.0000 86671.00 82795.40 11132.00
5294 0.0000 84184.00 82789.90 11149.00
5295 0.0000 83635.00 82784.70 11162.00
5296 0.0000 88537.00 82779.90 11184.00
5297 0.0000 84732.00 82775.50 11199.00
5298 0.0000 94270.00 82771.40 11212.00
5299 0.0000 100658.00 82767.70 11235.00
5300 0.0000 84151.00 82764.40 11253.00
5301 0.0000 85650.00 82761.60 11278.00
5302 0.0000 90505.00 82759.20 11294.00
5303 0.0000 91451.00 82757.40 11310.00
5304 0.0000 89684.00 82756.00 11335.00
5305 0.0000 91429.00 82755.30 11353.00
5306 0.0000 84310.00 82755.20 11382.00
5307 0.0000 92105.00 82755.70 11402.00
5308 0.0000 95573.00 82757.00 11422.00
5309 0.0000 93600.00 82759.00 11452.00
5310 0.0000 88167.00 82762.00 11472.00
5311 0.0000 103469.00 82765.80 11507.00
5312 0.0000 107825.00 82770.70 11528.00
5313 0.0000 95648.00 82776.80 11551.00
5314 0.0000 80601.00 82784.10 11588.00
5315 0.0000 68404.00 82792.80 11612.00
5316 0.0000 56890.00 82803.20 11646.00
5317 0.0000 56590.00 82815.50 11669.00
5318 0.0000 81284.00 82830.10 11691.00
5319 0.0000 86180.00 82847.90 11734.00
5320 0.0000 112927.00 82869.80 11758.00
5321 0.0000 113837.00 82897.60 11798.00
5322 0.0000 106894.00 82934.50 11825.00
5323 0.0000 91100.00 82985.40 11850.00
5324 0.0000 90273.00 83058.20 11893.00
5325 0.0000 81400.00 83165.20 11917.00
5326 0.0000 83220.00 83325.10 11967.00
5327 0.0000 94344.00 83565.00 11995.00
5328 0.0000 107696.00 83923.30 12023.00
5329 0.0000 91100.00 84452.00 12068.00
5330 0.0000 100614.00 85218.00 12099.00
5331 0.0000 93940.00 86304.90 12149.00
5332 0.0000 89541.00 87808.10 12175.00
5333 0.0000 78337.00 89832.80 12204.00
5334 0.0000 93825.00 92483.40 12251.00
5335 0.0000 100844.00 95850.50 12277.00
5336 0.0000 120701.00 99994.70 12323.00
5337 0.0000 121417.00 104931.00 12352.00
5338 0.0000 111706.00 110603.00 12382.00
5339 0.0000 108914.00 116881.00 12430.00
5340 0.0000 135211.00 123551.00 12458.00
5341 0.0000 161979.00 130317.00 12506.00
5342 0.0000 176598.00 136816.00 12533.00
5343 0.0000 185138.00 142644.00 12559.00
5344 0.0000 165900.00 147393.00 12605.00
5345 0.0000 153754.00 150688.00 12630.00
5346 0.0000 170520.00 152251.00 12676.00
5347 0.0000 168377.00 151943.00 12703.00
5348 0.0000 149374.00 149794.00 12729.00
5349 0.0000 159277.00 145994.00 12777.00
5350 0.0000 159227.00 140858.00 12801.00
5351 0.0000 143781.00 134782.00 12848.00
5352 0.0000 122782.00 128176.00 12874.00
5353 0.0000 119455.00 121434.00 12900.00
5354 0.0000 123739.00 114898.00 12943.00
5355 0.0000 123505.00 108838.00 12967.00
5356 0.0000 121456.00 103442.00 13006.00
5357 0.0000 117678.00 98809.70 13029.00
5358 0.0000 104468.00 94975.50 13052.00
5359 0.0000 99725.00 91906.30 13092.00
5360 0.0000 80530.00 89526.50 13115.00
5361 0.0000 88602.00 87747.50 13155.00
5362 0.0000 83667.00 86461.30 13176.00
5363 0.0000 78975.00 85567.20 13197.00
5364 0.0000 83276.00 84977.70 13233.00
5365 0.0000 88007.00 84620.90 13256.00
5366 0.0000 91805.00 84445.60 13291.00
5367 0.0000 89286.00 84421.80 13310.00
5368 0.0000 86251.00 84542.50 13329.00
5369 0.0000 86616.00 84826.80 13359.00
5370 0.0000 91791.00 85323.50 13376.00
5371 0.0000 98039.00 86117.10 13401.00
5372 0.0000 85069.00 87336.30 13420.00
5373 0.0000 99376.00 89161.20 13438.00
5374 0.0000 92154.00 91829.90 13461.00
5375 0.0000 106413.00 95640.60 13475.00
5376 0.0000 111088.00 100946.00 13496.00
5377 0.0000 133150.00 108141.00 13510.00
5378 0.0000 141307.00 117618.00 13524.00
5379 0.0000 145653.00 129738.00 13538.00
5380 0.0000 176206.00 144768.00 13550.00
5381 0.0000 183971.00 162809.00 13564.00
5382 0.0000 200077.00 183733.00 13572.00
5383 0.0000 208722.00 207143.00 13581.00
5384 0.0000 213098.00 232292.00 13589.00
5385 0.0000 235229.00 258155.00 13596.00
5386 0.0000 270413.00 283427.00 13596.00
5387 0.0000 292058.00 306615.00 13601.00
5388 0.0000 331667.00 326159.00 13605.00
5389 0.0000 343421.00 340593.00 13604.00
5390 0.0000 353224.00 348731.00 13604.00
5391 0.0000 349466.00 349851.00 13599.00
5392 0.0000 339657.00 343856.00 13600.00
5393 0.0000 330606.00 331276.00 13599.00
5394 0.0000 321359.00 313168.00 13588.00
5395 0.0000 307003.00 290934.00 13587.00
5396 0.0000 270406.00 266110.00 13577.00
5397 0.0000 256170.00 240251.00 13570.00
5398 0.0000 231667.00 214719.00 13565.00
5399 0.0000 186798.00 190644.00 13545.00
5400 0.0000 152773.00 168847.00 13537.00
5401 0.0000 132687.00 149838.00 13517.00
5402 0.0000 124929.00 133826.00 13508.00
5403 0.0000 125574.00 120770.00 13497.00
5404 0.0000 131923.00 110462.00 13475.00
5405 0.0000 109807.00 102556.00 13461.00
5406 0.0000 87806.00 96661.70 13433.00
5407 0.0000 79593.00 92380.30 13420.00
5408 0.0000 91989.00 89344.10 13407.00
5409 0.0000 82707.00 87235.30 13375.00
5410 0.0000 80216.00 85793.90 13358.00
5411 0.0000 81014.00 84819.70 13326.00
5412 0.0000 85376.00 84162.00 13310.00
5413 0.0000 71233.00 83714.00 13298.00
5414 0.0000 69605.00 83401.90 13263.00
5415 0.0000 65966.00 83176.70 13247.00
5416 0.0000 70112.00 83006.70 13210.00
5417 0.0000 63735.00 82872.10 13192.00
5418 0.0000 60761.00 82760.70 13175.00
5419 0.0000 59924.00 82665.00 13136.00
5420 0.0000 72179.00 82580.50 13118.00
5421 0.0000 62910.00 82504.60 13078.00
5422 0.0000 52797.00 82435.40 13060.00
5423 0.0000 43874.00 82371.80 13045.00
5424 0.0000 62937.00 82313.10 13006.00
5425 0.0000 68749.00 82258.50 12988.00
5426 0.0000 62602.00 82207.80 12947.00
5427 0.0000 62234.00 82160.30 12929.00
5428 0.0000 63995.00 82115.90 12911.00
5429 0.0000 68838.00 82074.20 12872.00
5430 0.0000 61035.00 82034.90 12856.00
5431 0.0000 57143.00 81997.90 12813.00
5432 0.0000 50820.00 81963.00 12795.00
5433 0.0000 60707.00 81929.90 12776.00
5434 0.0000 44089.00 81898.50 12736.00
5435 0.0000 45189.00 81868.60 12717.00
5436 0.0000 65137.00 81840.20 12676.00
5437 0.0000 76925.00 81813.10 12658.00
5438 0.0000 96750.00 81787.20 12639.00
5439 0.0000 86959.00 81762.40 12596.00
5440 0.0000 73324.00 81738.60 12579.00
5441 0.0000 57289.00 81715.90 12539.00
5442 0.0000 50690.00 81694.00 12522.00
5443 0.0000 69840.00 81672.90 12503.00
5444 0.0000 74344.00 81652.60 12461.00
5445 0.0000 93090.00 81633.00 12444.00
5446 0.0000 100484.00 81614.10 12406.00
5447 0.0000 96801.00 81595.80 12390.00
5448 0.0000 104041.00 81578.10 12374.00
5449 0.0000 80460.00 81560.90 12339.00
5450 0.0000 91793.00 81544.20 12323.00
5451 0.0000 84292.00 81528.10 12285.00
5452 0.0000 76322.00 81512.30 12269.00
5453 0.0000 79225.00 81497.00 12254.00
5454 0.0000 71688.00 81482.10 12217.00
5455 0.0000 75868.00 81467.60 12202.00
5456 0.0000 79053.00 81453.50 12166.00
5457 0.0000 82037.00 81439.60 12150.00
5458 0.0000 85246.00 81426.10 12136.00
5459 0.0000 86161.00 81412.90 12105.00
5460 0.0000 84000.00 81400.00 12092.00
5461 0.0000 74661.00 81387.30 12062.00
5462 0.0000 65925.00 81374.90 12050.00
5463 0.0000 61728.00 81344.70 12038.00
5464 0.0000 65197.00 81333.10 12014.00
5465 0.0000 64804.00 81321.70 12004.00
5466 0.0000 71997.00 81310.50 11977.00
5467 0.0000 80091.00 81299.50 11969.00
5468 0.0000 90298.00 81288.70 11962.00
5469 0.0000 98394.00 81278.10 11941.00
5470 0.0000 84284.00 81267.60 11932.00
5471 0.0000 96527.00 81257.30 11908.00
5472 0.0000 103728.00 81247.10 11900.00
5473 0.0000 94711.00 81237.10 11893.00
5474 0.0000 74343.00 81227.30 11871.00
5475 0.0000 75056.00 81217.60 11864.00
5476 0.0000 85180.00 81208.00 11846.00
5477 0.0000 87754.00 81198.50 11844.00
5478 0.0000 78849.00 81189.20 11836.00
5479 0.0000 73663.00 81179.90 11822.00
5480 0.0000 72840.00 81170.80 11819.00
5481 0.0000 75169.00 81161.80 11804.00
5482 0.0000 79584.00 81152.90 11797.00
5483 0.0000 79815.00 81144.10 11793.00
5484 0.0000 73054.00 81135.40 11779.00
5485 0.0000 69031.00 81126.80 11774.00
5486 0.0000 83446.00 81118.20 11762.00
5487 0.0000 84490.00 81109.80 11760.00
5488 0.0000 96971.00 81101.40 11758.00
5489 0.0000 97270.00 81093.10 11750.00
5490 0.0000 97438.00 81084.90 11748.00
5491 0.0000 95246.00 81076.80 11737.00
5492 0.0000 86479.00 81068.80 11739.00
5493 0.0000 72524.00 81060.80 11737.00
5494 0.0000 71239.00 81052.90 11729.00
5495 0.0000 65242.00 81045.00 11727.00
5496 0.0000 83397.00 81037.30 11718.00
5497 0.0000 97273.00 81029.60 11718.00
5498 0.0000 78978.00 81021.90 11719.00
5499 0.0000 79116.00 81014.30 11712.00
5500 0.0000 74054.00 81006.80 11710.00
5501 0.0000 65035.00 80999.30 11704.00
5502 0.0000 76566.00 80991.90 11702.00
5503 0.0000 81132.00 80984.60 11702.00
5504 0.0000 61547.00 80977.20 11696.00
5505 0.0000 65349.00 80970.00 11694.00
5506 0.0000 61235.00 80962.80 11685.00
5507 0.0000 64678.00 80955.60 11686.00
5508 0.0000 69078.00 80879.20 11684.00
5509 0.0000 71537.00 80873.40 11676.00
5510 0.0000 79683.00 80867.50 11675.00
5511 0.0000 79002.00 80861.60 11672.00
5512 0.0000 77957.00 80855.80 11672.00
5513 0.0000 82796.00 80850.00 11670.00
5514 0.0000 79018.00 80844.20 11667.00
5515 0.0000 86083.00 80838.40 11666.00
5516 0.0000 82072.00 80832.60 11661.00
5517 0.0000 88056.00 80826.90 11662.00
5518 0.0000 74785.00 80821.10 11662.00
5519 0.0000 69015.00 80815.40 11653.00
5520 0.0000 72699.00 80809.70 11654.00
5521 0.0000 62045.00 80804.00 11650.00
5522 0.0000 60966.00 80798.30 11650.00
5523 0.0000 55196.00 80792.70 11651.00
5524 0.0000 55996.00 80787.00 11645.00
5525 0.0000 59164.00 80781.40 11646.00
5526 0.0000 73150.00 80775.80 11639.00
5527 0.0000 89673.00 80770.20 11639.00
5528 0.0000 87063.00 80764.60 11639.00
5529 0.0000 81868.00 80759.10 11635.00
5530 0.0000 74045.00 80753.50 11637.00
5531 0.0000 55771.00 80748.00 11636.00
5532 0.0000 56998.00 80742.50 11638.00
5533 0.0000 68159.00 80737.00 11642.00
5534 0.0000 79316.00 80731.50 11639.00
5535 0.0000 83077.00 80726.00 11642.00
5536 0.0000 83764.00 80720.60 11641.00
5537 0.0000 81139.00 80715.10 11644.00
5538 0.0000 71295.00 80709.70 11646.00
5539 0.0000 63571.00 80704.30 11647.00
5540 0.0000 71413.00 80698.90 11650.00
5541 0.0000 72580.00 80693.60 11650.00
5542 0.0000 63578.00 80688.20 11655.00
5543 0.0000 64509.00 80682.90 11653.00
5544 0.0000 72137.00 80677.50 11651.00
5545 0.0000 78216.00 80672.20 11652.00
5546 0.0000 68690.00 80666.90 11651.00
5547 0.0000 77522.00 80661.60 11653.00
5548 0.0000 88158.00 80656.40 11655.00
5549 0.0000 86976.00 80651.10 11654.00
5550 0.0000 78979.00 80645.90 11657.00
5551 0.0000 84962.00 80640.70 11657.00
5552 0.0000 91557.00 80635.50 11660.00
5553 0.0000 98062.00 80630.30 11663.00
5554 0.0000 99291.00 80625.10 11664.00
5555 0.0000 84153.00 80619.90 11667.00
5556 0.0000 97797.00 80614.80 11670.00
5557 0.0000 95951.00 80609.60 11673.00
5558 0.0000 98713.00 80604.50 11677.00
5559 0.0000 94531.00 80599.40 11676.00
5560 0.0000 76596.00 80594.30 11679.00
5561 0.0000 82398.00 80589.20 11679.00
5562 0.0000 72003.00 80584.20 11684.00
5563 0.0000 78716.00 80579.10 11690.00
5564 0.0000 80947.00 80574.10 11694.00
5565 0.0000 68638.00 80569.10 11697.00
5566 0.0000 61932.00 80564.10 11700.00
5567 0.0000 57743.00 80559.10 11704.00
5568 0.0000 69267.00 80554.10 11708.00
5569 0.0000 70492.00 80549.20 11711.00
5570 0.0000 78541.00 80544.20 11715.00
5571 0.0000 83296.00 80539.30 11717.00
5572 0.0000 92077.00 80534.40 11721.00
5573 0.0000 87098.00 80529.40 11726.00
5574 0.0000 73389.00 80524.60 11731.00
5575 0.0000 72677.00 80519.70 11736.00
5576 0.0000 59974.00 80514.80 11736.00
5577 0.0000 69860.00 80510.00 11742.00
5578 0.0000 71211.00 80505.10 11744.00
5579 0.0000 77018.00 80500.30 11744.00
5580 0.0000 75769.00 80495.50 11746.00
5581 0.0000 73821.00 80490.70 11746.00
5582 0.0000 72150.00 80485.90 11749.00
5583 0.0000 83630.00 80481.10 11753.00
5584 0.0000 78114.00 80476.40 11755.00
5585 0.0000 78378.00 80471.60 11758.00
5586 0.0000 64611.00 80466.90 11759.00
5587 0.0000 71957.00 80462.20 11764.00
5588 0.0000 84286.00 80457.50 11766.00
5589 0.0000 83354.00 80452.80 11766.00
5590 0.0000 73340.00 80448.10 11769.00
5591 0.0000 72301.00 80443.50 11773.00
5592 0.0000 72323.00 80438.80 11777.00
5593 0.0000 67696.00 80434.20 11779.00
5594 0.0000 60900.00 80429.50 11784.00
5595 0.0000 53694.00 80424.90 11788.00
5596 0.0000 74395.00 80420.30 11792.00
5597 0.0000 86366.00 80415.70 11797.00
5598 0.0000 85531.00 80411.20 11801.00
5599 0.0000 81540.00 80406.60 11804.00
5600 0.0000 70665.00 80402.00 11808.00
5601 0.0000 85781.00 80397.50 11809.00
5602 0.0000 88811.00 80393.00 11815.00
5603 0.0000 87170.00 80388.50 11821.00
5604 0.0000 86152.00 80384.00 11824.00
5605 0.0000 73350.00 80379.50 11827.00
5606 0.0000 72121.00 80375.00 11833.00
5607 0.0000 70850.00 80370.50 11838.00
5608 0.0000 79762.00 80366.10 11840.00
5609 0.0000 82193.00 80361.60 11844.00
5610 0.0000 74796.00 80357.20 11846.00
5611 0.0000 86514.00 80352.80 11845.00
5612 0.0000 79557.00 80348.40 11847.00
5613 0.0000 85029.00 80344.00 11850.00
5614 0.0000 99238.00 80339.60 11850.00
5615 0.0000 94203.00 80335.30 11852.00
5616 0.0000 98572.00 80330.90 11854.00
5617 0.0000 104202.00 80326.60 11857.00
5618 0.0000 80494.00 80322.20 11860.00
5619 0.0000 67140.00 80317.90 11857.00
5620 0.0000 87246.00 80313.60 11857.00
5621 0.0000 86461.00 80309.30 11858.00
5622 0.0000 83094.00 80305.00 11861.00
5623 0.0000 76043.00 80300.70 11863.00
5624 0.0000 62230.00 80296.40 11863.00
5625 0.0000 53676.00 80292.20 11867.00
5626 0.0000 73995.00 80287.90 11866.00
5627 0.0000 78215.00 80283.70 11868.00
5628 0.0000 66802.00 80279.50 11873.00
5629 0.0000 73613.00 80275.30 11873.00
5630 0.0000 72717.00 80271.10 11876.00
5631 0.0000 81966.00 80266.90 11875.00
5632 0.0000 88566.00 80262.70 11877.00
5633 0.0000 86673.00 80258.50 11879.00
5634 0.0000 77646.00 80254.40 11877.00
5635 0.0000 62705.00 80250.20 11879.00
5636 0.0000 67182.00 80246.10 11876.00
5637 0.0000 72888.00 80242.00 11878.00
5638 0.0000 89875.00 80237.90 11880.00
5639 0.0000 78541.00 80233.70 11883.00
5640 0.0000 72339.00 80229.60 11886.00
5641 0.0000 87275.00 80225.60 11886.00
5642 0.0000 95501.00 80221.50 11887.00
5643 0.0000 87268.00 80217.40 11887.00
5644 0.0000 88444.00 80213.40 11888.00
5645 0.0000 75668.00 80209.30 11889.00
5646 0.0000 68588.00 80205.30 11887.00
5647 0.0000 61318.00 80201.20 11890.00
5648 0.0000 63862.00 80197.20 11891.00
5649 0.0000 69326.00 80193.20 11892.00
5650 0.0000 80202.00 80189.20 11895.00
5651 0.0000 84834.00 80185.20 11892.00
5652 0.0000 106716.00 80181.30 11895.00
5653 0.0000 101298.00 80177.30 11898.00
5654 0.0000 90500.00 80173.30 11898.00
5655 0.0000 81814.00 80169.40 11904.00
5656 0.0000 60231.00 80165.40 11906.00
5657 0.0000 71099.00 80161.50 11911.00
5658 0.0000 64658.00 80157.60 11915.00
5659 0.0000 69592.00 80153.70 11923.00
5660 0.0000 75525.00 80149.80 11930.00
5661 0.0000 91335.00 80145.90 11932.00
5662 0.0000 88473.00 80142.00 11938.00
5663 0.0000 97977.00 80138.10 11946.00
5664 0.0000 97024.00 80134.20 11950.00
5665 0.0000 100159.00 80130.40 11957.00
5666 0.0000 84938.00 80126.50 11960.00
5667 0.0000 84555.00 80122.70 11968.00
5668 0.0000 92095.00 80118.90 11976.00
5669 0.0000 97169.00 80115.00 11979.00
5670 0.0000 100270.00 80111.20 11985.00
5671 0.0000 100707.00 80107.40 11991.00
5672 0.0000 104856.00 80103.60 11995.00
5673 0.0000 100057.00 80099.80 12001.00
5674 0.0000 93267.00 80096.00 12004.00
5675 0.0000 85216.00 80092.20 12008.00
5676 0.0000 69986.00 80088.50 12013.00
5677 0.0000 62687.00 80084.70 12016.00
5678 0.0000 56385.00 80081.00 12022.00
5679 0.0000 62638.00 80077.20 12027.00
5680 0.0000 69735.00 80073.50 12031.00
5681 0.0000 71831.00 80069.80 12032.00
5682 0.0000 71245.00 80066.00 12037.00
5683 0.0000 69525.00 80062.30 12040.00
5684 0.0000 68307.00 80058.60 12046.00
5685 0.0000 66752.00 80054.90 12049.00
5686 0.0000 64290.00 80051.20 12052.00
5687 0.0000 77833.00 80047.50 12054.00
5688 0.0000 87436.00 80043.90 12059.00
5689 0.0000 85299.00 80040.20 12064.00
5690 0.0000 83686.00 80036.50 12072.00
5691 0.0000 67541.00 80032.90 12078.00
5692 0.0000 71993.00 80029.20 12084.00
5693 0.0000 67454.00 80025.60 12091.00
5694 0.0000 70009.00 80021.90 12095.00
5695 0.0000 74789.00 80018.30 12103.00
5696 0.0000 83195.00 80014.70 12108.00
5697 0.0000 91425.00 80011.10 12117.00
5698 0.0000 92566.00 80007.50 12126.00
5699 0.0000 87429.00 80003.90 12134.00
5700 0.0000 81859.00 80000.30 12141.00
5701 0.0000 80360.00 79996.70 12146.00
5702 0.0000 82665.00 79993.10 12156.00
5703 0.0000 80908.00 79989.50 12162.00
5704 0.0000 86775.00 79985.90 12166.00
5705 0.0000 99045.00 79982.40 12173.00
5706 0.0000 101242.00 79978.80 12177.00
5707 0.0000 102909.00 79975.30 12182.00
5708 0.0000 89089.00 79971.70 12190.00
5709 0.0000 87264.00 79968.20 12195.00
5710 0.0000 83874.00 79964.60 12203.00
5711 0.0000 78832.00 79961.10 12206.00
5712 0.0000 87921.00 79957.60 12212.00
5713 0.0000 78115.00 79954.10 12219.00
5714 0.0000 74066.00 79950.60 12229.00
5715 0.0000 72932.00 79947.10 12235.00
5716 0.0000 81463.00 79943.50 12238.00
5717 0.0000 79364.00 79940.10 12246.00
5718 0.0000 79198.00 79936.60 12252.00
5719 0.0000 93239.00 79933.10 12253.00
5720 0.0000 79361.00 79929.60 12259.00
5721 0.0000 70875.00 79926.10 12263.00
5722 0.0000 85476.00 79922.60 12270.00
5723 0.0000 76098.00 79919.20 12280.00
5724 0.0000 89058.00 79915.70 12287.00
5725 0.0000 89826.00 79912.30 12292.00
5726 0.0000 89104.00 79908.80 12296.00
5727 0.0000 90695.00 79905.40 12301.00
5728 0.0000 78737.00 79901.90 12307.00
5729 0.0000 87016.00 79898.50 12312.00
5730 0.0000 86397.00 79895.00 12318.00
5731 0.0000 93734.00 79891.60 12319.00
5732 0.0000 85004.00 79888.20 12325.00
5733 0.0000 72965.00 79884.80 12328.00
5734 0.0000 65562.00 79881.40 12331.00
5735 0.0000 63388.00 79877.90 12335.00
5736 0.0000 77186.00 79874.50 12338.00
5737 0.0000 97304.00 79871.10 12340.00
5738 0.0000 98230.00 79867.70 12342.00
5739 0.0000 103096.00 79864.30 12345.00
5740 0.0000 110948.00 79860.90 12347.00
5741 0.0000 105889.00 79857.50 12347.00
5742 0.0000 94180.00 79854.20 12351.00
5743 0.0000 88783.00 79850.80 12355.00
5744 0.0000 76055.00 79847.40 12356.00
5745 0.0000 63732.00 79844.00 12359.00
5746 0.0000 76365.00 79840.60 12358.00
5747 0.0000 87306.00 79837.30 12364.00
5748 0.0000 86309.00 79833.90 12366.00
5749 0.0000 83870.00 79830.50 12366.00
5750 0.0000 82018.00 79827.20 12370.00
5751 0.0000 85766.00 79823.80 12372.00
5752 0.0000 93129.00 79820.50 12377.00
5753 0.0000 103567.00 79817.10 12382.00
5754 0.0000 98700.00 79813.80 12382.00
5755 0.0000 82645.00 79810.40 12386.00
5756 0.0000 75939.00 79807.10 12389.00
5757 0.0000 66394.00 79803.70 12391.00
5758 0.0000 70675.00 79800.40 12397.00
5759 0.0000 81114.00 79797.10 12400.00
5760 0.0000 82242.00 79793.70 12404.00
5761 0.0000 87067.00 79790.40 12407.00
5762 0.0000 82608.00 79787.10 12411.00
5763 0.0000 97108.00 79783.70 12415.00
5764 0.0000 86126.00 79780.40 12419.00
5765 0.0000 76896.00 79777.10 12425.00
5766 0.0000 60993.00 79773.80 12426.00
5767 0.0000 72069.00 79770.40 12429.00
5768 0.0000 79269.00 79767.10 12436.00
5769 0.0000 100461.00 79763.80 12436.00
5770 0.0000 93579.00 79760.50 12438.00
5771 0.0000 92373.00 79757.20 12440.00
5772 0.0000 89927.00 79753.90 12444.00
5773 0.0000 95179.00 79750.50 12445.00
5774 0.0000 93372.00 79747.20 12443.00
5775 0.0000 81267.00 79743.90 12446.00
5776 0.0000 87539.00 79740.60 12445.00
5777 0.0000 83688.00 79737.30 12445.00
5778 0.0000 87459.00 79734.00 12445.00
5779 0.0000 82764.00 79730.70 12444.00
5780 0.0000 74984.00 79727.40 12444.00
5781 0.0000 67312.00 79724.10 12443.00
5782 0.0000 78159.00 79720.80 12445.00
5783 0.0000 86861.00 79717.50 12448.00
5784 0.0000 106469.00 79714.20 12449.00
5785 0.0000 91426.00 79710.90 12451.00
5786 0.0000 79549.00 79707.60 12453.00
5787 0.0000 81821.00 79704.30 12455.00
5788 0.0000 92081.00 79701.00 12459.00
5789 0.0000 100816.00 79697.70 12459.00
5790 0.0000 94666.00 79694.40 12466.00
5791 0.0000 102478.00 79691.10 12466.00
5792 0.0000 79849.00 79687.80 12470.00
5793 0.0000 67230.00 79684.50 12474.00
5794 0.0000 62632.00 79681.20 12477.00
5795 0.0000 60842.00 79677.90 12480.00
5796 0.0000 60390.00 79674.60 12480.00
5797 0.0000 63604.00 79671.30 12486.00
5798 0.0000 75073.00 79668.00 12490.00
5799 0.0000 89576.00 79664.70 12495.00
5800 0.0000 88915.00 79661.40 12500.00
5801 0.0000 74925.00 79658.10 12500.00
5802 0.0000 79769.00 79654.80 12506.00
5803 0.0000 63741.00 79651.50 12507.00
5804 0.0000 78164.00 79648.10 12508.00
5805 0.0000 71793.00 79644.80 12515.00
5806 0.0000 68066.00 79641.50 12517.00
5807 0.0000 62560.00 79638.20 12522.00
5808 0.0000 67007.00 79634.90 12528.00
5809 0.0000 77488.00 79631.60 12530.00
5810 0.0000 69322.00 79628.30 12538.00
5811 0.0000 71552.00 79625.00 12541.00
5812 0.0000 60284.00 79621.60 12545.00
5813 0.0000 66277.00 79618.30 12551.00
5814 0.0000 74263.00 79615.00 12556.00
5815 0.0000 87227.00 79611.70 12561.00
5816 0.0000 97971.00 79608.40 12566.00
5817 0.0000 89511.00 79605.00 12570.00
5818 0.0000 86514.00 79601.70 12575.00
5819 0.0000 74209.00 79598.40 12580.00
5820 0.0000 76386.00 79595.00 12588.00
5821 0.0000 79360.00 79591.70 12589.00
5822 0.0000 77143.00 79588.40 12598.00
5823 0.0000 86157.00 79585.00 12604.00
5824 0.0000 93865.00 79581.70 12609.00
5825 0.0000 98606.00 79578.30 12615.00
5826 0.0000 91962.00 79575.00 12619.00
5827 0.0000 92702.00 79571.60 12624.00
5828 0.0000 77556.00 79568.30 12633.00
5829 0.0000 91202.00 79564.90 12636.00
5830 0.0000 83375.00 79561.60 12641.00
5831 0.0000 78321.00 79558.20 12644.00
5832 0.0000 76090.00 79554.90 12651.00
5833 0.0000 89443.00 79551.50 12655.00
5834 0.0000 101874.00 79548.10 12658.00
5835 0.0000 104289.00 79544.70 12662.00
5836 0.0000 96399.00 79541.40 12669.00
5837 0.0000 86465.00 79538.00 12675.00
5838 0.0000 87640.00 79534.60 12682.00
5839 0.0000 91815.00 79531.20 12686.00
5840 0.0000 100300.00 79527.80 12690.00
5841 0.0000 78639.00 79524.40 12693.00
5842 0.0000 85245.00 79521.00 12697.00
5843 0.0000 95070.00 79517.60 12703.00
5844 0.0000 106236.00 79514.20 12708.00
5845 0.0000 81757.00 79510.80 12716.00
5846 0.0000 78593.00 79507.40 12717.00
5847 0.0000 84115.00 79504.00 12723.00
5848 0.0000 89828.00 79500.50 12726.00
5849 0.0000 75525.00 79497.10 12732.00
5850 0.0000 71982.00 79493.70 12739.00
5851 0.0000 62443.00 79490.20 12746.00
5852 0.0000 64514.00 79486.80 12753.00
5853 0.0000 72701.00 79483.40 12759.00
5854 0.0000 87152.00 79479.90 12759.00
5855 0.0000 86515.00 79476.40 12766.00
5856 0.0000 91053.00 79473.00 12774.00
5857 0.0000 70094.00 79469.50 12780.00
5858 0.0000 57372.00 79466.00 12786.00
5859 0.0000 66415.00 79462.60 12794.00
5860 0.0000 58679.00 79459.10 12799.00
5861 0.0000 65647.00 79455.60 12802.00
5862 0.0000 55677.00 79452.10 12809.00
5863 0.0000 79697.00 79520.70 12815.00
5864 0.0000 63830.00 79518.30 12825.00
5865 0.0000 68099.00 79516.00 12831.00
5866 0.0000 78018.00 79513.60 12840.00
5867 0.0000 70723.00 79511.40 12849.00
5868 0.0000 81725.00 79509.10 12855.00
5869 0.0000 86013.00 79506.80 12866.00
5870 0.0000 88118.00 79504.60 12874.00
5871 0.0000 94116.00 79502.40 12880.00
5872 0.0000 87300.00 79500.30 12886.00
5873 0.0000 91905.00 79498.20 12894.00
5874 0.0000 75324.00 79496.10 12903.00
5875 0.0000 84084.00 79494.00 12911.00
5876 0.0000 92574.00 79492.00 12921.00
5877 0.0000 79588.00 79490.00 12926.00
5878 0.0000 73887.00 79488.00 12937.00
5879 0.0000 67078.00 79486.10 12946.00
5880 0.0000 73633.00 79484.20 12955.00
5881 0.0000 67146.00 79482.30 12964.00
5882 0.0000 62948.00 79480.50 12973.00
5883 0.0000 79925.00 79478.80 12982.00
5884 0.0000 80751.00 79477.10 12987.00
5885 0.0000 95453.00 79475.40 12993.00
5886 0.0000 84168.00 79473.80 13001.00
5887 0.0000 88899.00 79472.20 13012.00
5888 0.0000 87968.00 79470.70 13023.00
5889 0.0000 70358.00 79469.30 13037.00
5890 0.0000 60284.00 79467.90 13051.00
5891 0.0000 65955.00 79466.60 13066.00
5892 0.0000 64563.00 79465.30 13078.00
5893 0.0000 64819.00 79464.10 13090.00
5894 0.0000 65548.00 79463.00 13105.00
5895 0.0000 70123.00 79461.90 13116.00
5896 0.0000 59429.00 79460.90 13135.00
5897 0.0000 51725.00 79460.00 13147.00
5898 0.0000 82836.00 79459.20 13157.00
5899 0.0000 99460.00 79458.50 13175.00
5900 0.0000 116027.00 79457.90 13185.00
5901 0.0000 105730.00 79457.40 13201.00
5902 0.0000 107495.00 79457.00 13214.00
5903 0.0000 91860.00 79456.60 13227.00
5904 0.0000 78722.00 79456.40 13248.00
5905 0.0000 60551.00 79456.40 13265.00
5906 0.0000 71571.00 79456.40 13287.00
5907 0.0000 78853.00 79456.60 13303.00
5908 0.0000 94141.00 79456.90 13319.00
5909 0.0000 96386.00 79457.30 13346.00
5910 0.0000 103647.00 79457.90 13361.00
5911 0.0000 98699.00 79458.70 13394.00
5912 0.0000 101048.00 79459.70 13412.00
5913 0.0000 85025.00 79460.80 13434.00
5914 0.0000 90893.00 79462.10 13466.00
5915 0.0000 75178.00 79463.60 13486.00
5916 0.0000 76684.00 79465.30 13521.00
5917 0.0000 63446.00 79467.30 13542.00
5918 0.0000 71081.00 79469.40 13564.00
5919 0.0000 66257.00 79471.90 13604.00
5920 0.0000 73281.00 79474.60 13626.00
5921 0.0000 79691.00 79477.50 13663.00
5922 0.0000 86920.00 79480.80 13687.00
5923 0.0000 80418.00 79484.40 13710.00
5924 0.0000 84231.00 79488.30 13751.00
5925 0.0000 84022.00 79492.60 13776.00
5926 0.0000 74921.00 79497.30 13823.00
5927 0.0000 85498.00 79502.30 13848.00
5928 0.0000 70248.00 79507.80 13875.00
5929 0.0000 78170.00 79513.80 13925.00
5930 0.0000 67654.00 79520.20 13953.00
5931 0.0000 60250.00 79527.20 14000.00
5932 0.0000 71524.00 79534.70 14031.00
5933 0.0000 84088.00 79542.90 14062.00
5934 0.0000 74536.00 79551.70 14114.00
5935 0.0000 64248.00 79561.10 14147.00
5936 0.0000 64485.00 79571.40 14199.00
5937 0.0000 78964.00 79582.40 14233.00
5938 0.0000 80783.00 79594.30 14268.00
5939 0.0000 76125.00 79607.10 14329.00
5940 0.0000 62655.00 79621.00 14365.00
5941 0.0000 64005.00 79635.90 14426.00
5942 0.0000 82632.00 79652.00 14458.00
5943 0.0000 96969.00 79669.40 14490.00
5944 0.0000 94828.00 79688.20 14549.00
5945 0.0000 82633.00 79708.50 14584.00
5946 0.0000 57962.00 79730.50 14642.00
5947 0.0000 52414.00 79754.30 14672.00
5948 0.0000 67262.00 79780.10 14703.00
5949 0.0000 85558.00 79808.00 14760.00
5950 0.0000 91798.00 79838.30 14794.00
5951 0.0000 111148.00 79871.30 14851.00
5952 0.0000 86898.00 79907.20 14884.00
5953 0.0000 70645.00 79946.30 14919.00
5954 0.0000 61473.00 79989.10 14970.00
5955 0.0000 58613.00 80036.10 15001.00
5956 0.0000 55140.00 80088.00 15058.00
5957 0.0000 58968.00 80145.80 15089.00
5958 0.0000 73678.00 80210.90 15118.00
5959 0.0000 79233.00 80285.60 15172.00
5960 0.0000 85480.00 80373.50 15204.00
5961 0.0000 68738.00 80480.60 15257.00
5962 0.0000 60553.00 80616.10 15291.00
5963 0.0000 90166.00 80794.60 15320.00
5964 0.0000 85762.00 81038.90 15372.00
5965 0.0000 82212.00 81383.70 15401.00
5966 0.0000 71265.00 81880.00 15446.00
5967 0.0000 52490.00 82601.20 15474.00
5968 0.0000 54424.00 83650.10 15501.00
5969 0.0000 77958.00 85165.90 15541.00
5970 0.0000 73064.00 87327.80 15568.00
5971 0.0000 66147.00 90362.80 15604.00
5972 0.0000 59272.00 94542.50 15628.00
5973 0.0000 79255.00 100178.00 15652.00
5974 0.0000 95460.00 107604.00 15686.00
5975 0.0000 106081.00 117159.00 15708.00
5976 0.0000 119997.00 129133.00 15745.00
5977 0.0000 112690.00 143750.00 15765.00
5978 0.0000 153833.00 161105.00 15782.00
5979 0.0000 179768.00 181114.00 15813.00
5980 0.0000 197495.00 203480.00 15829.00
5981 0.0000 216233.00 227664.00 15852.00
5982 0.0000 247201.00 252888.00 15867.00
5983 0.0000 278499.00 278115.00 15881.00
5984 0.0000 319148.00 302164.00 15896.00
5985 0.0000 347829.00 323741.00 15907.00
5986 0.0000 360574.00 341549.00 15920.00
5987 0.0000 379387.00 354412.00 15927.00
5988 0.0000 382908.00 361412.00 15934.00
5989 0.0000 402413.00 362017.00 15941.00
5990 0.0000 388813.00 356184.00 15948.00
5991 0.0000 371495.00 344354.00 15956.00
5992 0.0000 331887.00 327381.00 15961.00
5993 0.0000 292072.00 306402.00 15968.00
5994 0.0000 270182.00 282704.00 15967.00
5995 0.0000 235510.00 257579.00 15970.00
5996 0.0000 227364.00 232268.00 15968.00
5997 0.0000 205641.00 207812.00 15968.00
5998 0.0000 185720.00 185045.00 15970.00
5999 0.0000 157436.00 164552.00 15962.00
6000 0.0000 125747.00 146676.00 15965.00
6001 0.0000 123405.00 131537.00 15951.00
6002 0.0000 104595.00 119065.00 15949.00
6003 0.0000 98457.00 109072.00 15946.00
6004 0.0000 80086.00 101262.00 15925.00
6005 0.0000 86533.00 95307.20 15919.00
6006 0.0000 69038.00 90869.40 15900.00
6007 0.0000 104263.00 87632.10 15889.00
6008 0.0000 99710.00 85314.70 15882.00
6009 0.0000 87368.00 83684.10 15854.00
6010 0.0000 82828.00 82550.10 15850.00
6011 0.0000 57977.00 81766.80 15823.00
6012 0.0000 42559.00 81225.30 15810.00
6013 0.0000 63048.00 80847.30 15799.00
6014 0.0000 57508.00 80577.80 15768.00
6015 0.0000 60926.00 80379.60 15754.00
6016 0.0000 70193.00 80228.00 15713.00
6017 0.0000 71504.00 80107.10 15696.00
6018 0.0000 61493.00 80006.70 15680.00
6019 0.0000 70168.00 79920.50 15637.00
6020 0.0000 81048.00 79844.40 15617.00
6021 0.0000 92746.00 79775.90 15577.00
6022 0.0000 99022.00 79713.60 15556.00
6023 0.0000 96761.00 79656.40 15539.00
6024 0.0000 70750.00 79603.40 15493.00
6025 0.0000 81682.00 79554.10 15475.00
6026 0.0000 80042.00 79508.20 15427.00
6027 0.0000 85240.00 79465.20 15405.00
6028 0.0000 83829.00 79424.90 15384.00
6029 0.0000 83227.00 79387.00 15336.00
6030 0.0000 81433.00 79351.30 15314.00
6031 0.0000 77531.00 79317.70 15264.00
6032 0.0000 76849.00 79285.80 15243.00
6033 0.0000 76421.00 79255.70 15223.00
6034 0.0000 63255.00 79227.00 15172.00
6035 0.0000 50660.00 79199.80 15151.00
6036 0.0000 43168.00 79173.80 15099.00
6037 0.0000 65206.00 79149.10 15073.00
6038 0.0000 74935.00 79125.50 15050.00
6039 0.0000 71624.00 79102.80 14996.00
6040 0.0000 50129.00 79081.10 14974.00
6041 0.0000 37211.00 79060.30 14919.00
6042 0.0000 49727.00 79040.20 14899.00
6043 0.0000 55846.00 79020.90 14878.00
6044 0.0000 65956.00 79002.30 14825.00
6045 0.0000 57646.00 78984.40 14805.00
6046 0.0000 56565.00 78967.00 14752.00
6047 0.0000 46191.00 78950.30 14730.00
6048 0.0000 43539.00 78934.00 14709.00
6049 0.0000 71762.00 78918.20 14659.00
6050 0.0000 73609.00 78902.90 14640.00
6051 0.0000 72944.00 78887.90 14593.00
6052 0.0000 89864.00 78873.40 14573.00
6053 0.0000 94807.00 78859.30 14553.00
6054 0.0000 74132.00 78845.50 14506.00
6055 0.0000 67217.00 78832.10 14488.00
6056 0.0000 61324.00 78818.90 14446.00
6057 0.0000 74370.00 78806.00 14426.00
6058 0.0000 77824.00 78793.50 14410.00
6059 0.0000 67263.00 78781.10 14374.00
6060 0.0000 67365.00 78769.00 14360.00
6061 0.0000 77502.00 78757.20 14326.00
6062 0.0000 71518.00 78745.50 14314.00
6063 0.0000 86682.00 78734.10 14301.00
6064 0.0000 73769.00 78722.80 14265.00
6065 0.0000 71987.00 78711.70 14252.00
6066 0.0000 51567.00 78700.80 14228.00
6067 0.0000 55363.00 78690.10 14217.00
6068 0.0000 57660.00 78679.40 14209.00
6069 0.0000 74404.00 78669.00 14179.00
6070 0.0000 54349.00 78658.70 14167.00
6071 0.0000 52029.00 78648.50 14141.00
6072 0.0000 81479.00 78638.40 14131.00
6073 0.0000 73323.00 78628.40 14122.00
6074 0.0000 79386.00 78618.50 14101.00
6075 0.0000 75253.00 78608.80 14089.00
6076 0.0000 76975.00 78599.10 14064.00
6077 0.0000 81954.00 78589.50 14056.00
6078 0.0000 78233.00 78580.10 14047.00
6079 0.0000 76830.00 78570.60 14024.00
6080 0.0000 73859.00 78561.30 14019.00
6081 0.0000 73600.00 78552.10 14002.00
6082 0.0000 74360.00 78542.90 13999.00
6083 0.0000 69134.00 78533.70 13995.00
6084 0.0000 60841.00 78524.70 13981.00
6085 0.0000 67851.00 78515.70 13977.00
6086 0.0000 54071.00 78506.70 13962.00
6087 0.0000 39039.00 78497.80 13960.00
6088 0.0000 36054.00 78489.00 13962.00
6089 0.0000 47424.00 78480.10 13945.00
6090 0.0000 52636.00 78471.40 13945.00
6091 0.0000 57146.00 78462.60 13936.00
6092 0.0000 78176.00 78454.00 13936.00
6093 0.0000 81338.00 78445.30 13931.00
6094 0.0000 80265.00 78436.70 13925.00
6095 0.0000 83615.00 78428.10 13925.00
6096 0.0000 95402.00 78419.50 13914.00
6097 0.0000 86213.00 78411.00 13911.00
6098 0.0000 90337.00 78402.50 13911.00
6099 0.0000 94280.00 78394.00 13902.00
6100 0.0000 84205.00 78385.50 13903.00
6101 0.0000 67039.00 78377.10 13895.00
6102 0.0000 55275.00 78368.70 13897.00
6103 0.0000 50984.00 78360.30 13895.00
6104 0.0000 60500.00 78351.90 13889.00
6105 0.0000 61554.00 78343.50 13889.00
6106 0.0000 73627.00 78335.20 13882.00
6107 0.0000 72463.00 78326.80 13882.00
6108 0.0000 74214.00 78318.50 13886.00
6109 0.0000 59814.00 78310.10 13879.00
6110 0.0000 71034.00 78301.80 13880.00
6111 0.0000 80329.00 78293.50 13880.00
6112 0.0000 95959.00 78285.20 13883.00
6113 0.0000 92120.00 78276.90 13885.00
6114 0.0000 88277.00 78268.60 13885.00
6115 0.0000 98325.00 78192.40 13889.00
6116 0.0000 94935.00 78185.20 13890.00
6117 0.0000 80103.00 78177.90 13894.00
6118 0.0000 78056.00 78170.60 13903.00
6119 0.0000 93278.00 78163.40 13903.00
6120 0.0000 102696.00 78156.00 13907.00
6121 0.0000 104321.00 78148.70 13904.00
6122 0.0000 103513.00 78141.40 13908.00
6123 0.0000 73426.00 78134.00 13911.00
6124 0.0000 59504.00 78126.60 13909.00
6125 0.0000 67000.00 78119.10 13915.00
6126 0.0000 87588.00 78111.70 13920.00
6127 0.0000 108014.00 78104.20 13924.00
6128 0.0000 109595.00 78096.70 13930.00
6129 0.0000 86521.00 78089.20 13931.00
6130 0.0000 97526.00 78126.40 13938.00
6131 0.0000 89314.00 78119.50 13945.00
6132 0.0000 84967.00 78112.70 13950.00
6133 0.0000 83982.00 78105.80 13955.00
6134 0.0000 83506.00 78098.90 13954.00
6135 0.0000 91230.00 78092.00 13962.00
6136 0.0000 90029.00 78085.00 13962.00
6137 0.0000 85855.00 78078.10 13972.00
6138 0.0000 51816.00 78071.20 13977.00
6139 0.0000 69272.00 78064.30 13975.00
6140 0.0000 79930.00 78057.40 13976.00
6141 0.0000 83507.00 78050.40 13973.00
6142 0.0000 83270.00 78043.50 13979.00
6143 0.0000 82464.00 78036.60 13986.00
6144 0.0000 75342.00 78029.60 13991.00
6145 0.0000 71630.00 78022.70 13996.00
6146 0.0000 81153.00 78015.80 13999.00
6147 0.0000 83331.00 78008.80 14006.00
6148 0.0000 81302.00 78001.90 14014.00
6149 0.0000 54350.00 77995.00 14019.00
6150 0.0000 50697.00 77988.10 14025.00
6151 0.0000 46114.00 77981.20 14034.00
6152 0.0000 50972.00 77974.30 14039.00
6153 0.0000 53820.00 77967.40 14046.00
6154 0.0000 64878.00 77960.50 14057.00
6155 0.0000 82364.00 77953.60 14067.00
6156 0.0000 100123.00 77946.70 14081.00
6157 0.0000 88423.00 77939.90 14092.00
6158 0.0000 80971.00 77933.10 14104.00
6159 0.0000 97485.00 77926.20 14116.00
6160 0.0000 83782.00 77919.40 14127.00
6161 0.0000 81271.00 77912.60 14143.00
6162 0.0000 79358.00 77905.90 14155.00
6163 0.0000 78431.00 77899.20 14163.00
6164 0.0000 67725.00 77892.40 14177.00
6165 0.0000 79404.00 77885.80 14188.00
6166 0.0000 74570.00 77879.10 14200.00
6167 0.0000 77296.00 77872.50 14209.00
6168 0.0000 86493.00 77865.90 14217.00
6169 0.0000 76009.00 77859.40 14228.00
6170 0.0000 91248.00 77852.80 14237.00
6171 0.0000 92939.00 77846.40 14251.00
6172 0.0000 100727.00 77839.90 14263.00
6173 0.0000 111307.00 77833.60 14270.00
6174 0.0000 101251.00 77827.20 14287.00
6175 0.0000 78318.00 77821.00 14298.00
6176 0.0000 74040.00 77814.80 14317.00
6177 0.0000 66164.00 77808.60 14328.00
6178 0.0000 79133.00 77802.60 14340.00
6179 0.0000 81573.00 77796.50 14358.00
6180 0.0000 79088.00 77790.60 14372.00
6181 0.0000 69508.00 77784.80 14393.00
6182 0.0000 69397.00 77779.00 14410.00
6183 0.0000 79658.00 77773.40 14422.00
6184 0.0000 86267.00 77767.80 14445.00
6185 0.0000 88664.00 77762.40 14463.00
6186 0.0000 82062.00 77757.00 14488.00
6187 0.0000 82180.00 77751.80 14505.00
6188 0.0000 78154.00 77746.70 14522.00
6189 0.0000 88119.00 77741.70 14547.00
6190 0.0000 86765.00 77736.90 14564.00
6191 0.0000 97053.00 77732.30 14588.00
6192 0.0000 91133.00 77727.80 14606.00
6193 0.0000 61669.00 77723.50 14627.00
6194 0.0000 57953.00 77719.40 14658.00
6195 0.0000 51970.00 77715.50 14679.00
6196 0.0000 54055.00 77711.80 14714.00
6197 0.0000 61621.00 77708.40 14736.00
6198 0.0000 73728.00 77705.20 14759.00
6199 0.0000 84086.00 77702.30 14795.00
6200 0.0000 73593.00 77699.60 14815.00
6201 0.0000 71521.00 77697.30 14857.00
6202 0.0000 69588.00 77695.30 14883.00
6203 0.0000 75899.00 77693.70 14904.00
6204 0.0000 83789.00 77692.40 14940.00
6205 0.0000 65571.00 77691.60 14963.00
6206 0.0000 71161.00 77691.20 15001.00
6207 0.0000 75209.00 77691.30 15024.00
6208 0.0000 80781.00 77691.90 15044.00
6209 0.0000 84388.00 77693.10 15079.00
6210 0.0000 93798.00 77694.90 15104.00
6211 0.0000 89697.00 77697.30 15145.00
6212 0.0000 81506.00 77700.50 15168.00
6213 0.0000 74971.00 77704.40 15192.00
6214 0.0000 63804.00 77709.20 15234.00
6215 0.0000 64620.00 77714.90 15258.00
6216 0.0000 74809.00 77721.60 15296.00
6217 0.0000 93338.00 77729.40 15320.00
6218 0.0000 86906.00 77738.40 15350.00
6219 0.0000 66533.00 77748.70 15396.00
6220 0.0000 77109.00 77760.50 15423.00
6221 0.0000 76122.00 77773.90 15470.00
6222 0.0000 78900.00 77789.00 15493.00
6223 0.0000 72871.00 77806.10 15518.00
6224 0.0000 75396.00 77825.50 15558.00
6225 0.0000 76874.00 77847.50 15587.00
6226 0.0000 67825.00 77872.50 15626.00
6227 0.0000 74525.00 77901.20 15652.00
6228 0.0000 86546.00 77934.60 15678.00
6229 0.0000 93321.00 77974.30 15722.00
6230 0.0000 90688.00 78022.70 15749.00
6231 0.0000 95850.00 78083.70 15789.00
6232 0.0000 93329.00 78163.40 15815.00
6233 0.0000 90092.00 78271.30 15838.00
6234 0.0000 77876.00 78421.70 15873.00
6235 0.0000 72520.00 78636.10 15895.00
6236 0.0000 82102.00 78945.80 15931.00
6237 0.0000 113427.00 79395.00 15949.00
6238 0.0000 104596.00 80045.00 15967.00
6239 0.0000 102382.00 80976.30 15997.00
6240 0.0000 79006.00 82294.20 16014.00
6241 0.0000 88095.00 84129.20 16045.00
6242 0.0000 91132.00 86637.10 16061.00
6243 0.0000 102093.00 89996.20 16078.00
6244 0.0000 113496.00 94398.90 16105.00
6245 0.0000 126916.00 100042.00 16123.00
6246 0.0000 126807.00 107099.00 16153.00
6247 0.0000 133146.00 115709.00 16174.00
6248 0.0000 137115.00 125947.00 16193.00
6249 0.0000 146915.00 137794.00 16223.00
6250 0.0000 158079.00 151118.00 16240.00
6251 0.0000 184518.00 165654.00 16264.00
6252 0.0000 186983.00 181004.00 16281.00
6253 0.0000 205247.00 196617.00 16298.00
6254 0.0000 215386.00 211852.00 16311.00
6255 0.0000 208335.00 225981.00 16329.00
6256 0.0000 221826.00 238250.00 16348.00
6257 0.0000 250705.00 247935.00 16356.00
6258 0.0000 258832.00 254418.00 16366.00
6259 0.0000 271095.00 257248.00 16377.00
6260 0.0000 263551.00 256228.00 16388.00
6261 0.0000 232725.00 251429.00 16396.00
6262 0.0000 242540.00 243186.00 16400.00
6263 0.0000 235667.00 232043.00 16408.00
6264 0.0000 223025.00 218686.00 16411.00
6265 0.0000 207789.00 203855.00 16418.00
6266 0.0000 191084.00 188313.00 16421.00
6267 0.0000 162896.00 172743.00 16430.00
6268 0.0000 162197.00 157739.00 16431.00
6269 0.0000 155103.00 143772.00 16432.00
6270 0.0000 134484.00 131172.00 16436.00
6271 0.0000 125678.00 120128.00 16432.00
6272 0.0000 131556.00 110722.00 16435.00
6273 0.0000 124398.00 102916.00 16434.00
6274 0.0000 135292.00 96597.40 16424.00
6275 0.0000 125390.00 91604.90 16423.00
6276 0.0000 116996.00 87749.60 16410.00
6277 0.0000 86736.00 84836.40 16411.00
6278 0.0000 83710.00 82678.10 16411.00
6279 0.0000 96810.00 81109.50 16398.00
6280 0.0000 91040.00 79986.50 16400.00
6281 0.0000 86052.00 79192.20 16387.00
6282 0.0000 84834.00 78634.30 16384.00
6283 0.0000 94664.00 78242.70 16384.00
6284 0.0000 92015.00 77965.70 16368.00
6285 0.0000 82698.00 77766.20 16365.00
6286 0.0000 84001.00 77618.50 16350.00
6287 0.0000 61136.00 77505.20 16349.00
6288 0.0000 69928.00 77414.50 16348.00
6289 0.0000 76732.00 77339.00 16326.00
6290 0.0000 67777.00 77273.90 16322.00
6291 0.0000 53289.00 77216.00 16303.00
6292 0.0000 54544.00 77163.50 16297.00
6293 0.0000 75041.00 77115.10 16291.00
6294 0.0000 75785.00 77070.10 16266.00
6295 0.0000 74043.00 77027.90 16258.00
6296 0.0000 83080.00 76988.00 16226.00
6297 0.0000 90173.00 76950.20 16215.00
6298 0.0000 92498.00 76914.30 16199.00
6299 0.0000 80849.00 76880.10 16169.00
6300 0.0000 89314.00 76847.40 16153.00
6301 0.0000 80472.00 76816.10 16121.00
6302 0.0000 81634.00 76786.00 16109.00
6303 0.0000 81252.00 76757.00 16091.00
6304 0.0000 73913.00 76729.10 16054.00
6305 0.0000 59104.00 76702.20 16039.00
6306 0.0000 56482.00 76676.10 16000.00
6307 0.0000 63888.00 76650.80 15981.00
6308 0.0000 51290.00 76626.30 15968.00
6309 0.0000 49227.00 76602.40 15932.00
6310 0.0000 59648.00 76579.20 15920.00
6311 0.0000 77682.00 76556.60 15880.00
6312 0.0000 60353.00 76534.50 15868.00
6313 0.0000 73989.00 76512.90 15855.00
6314 0.0000 81816.00 76491.70 15818.00
6315 0.0000 87022.00 76471.00 15805.00
6316 0.0000 88526.00 76450.70 15772.00
6317 0.0000 82404.00 76430.70 15758.00
6318 0.0000 81063.00 76411.10 15745.00
6319 0.0000 61516.00 76391.80 15711.00
6320 0.0000 61332.00 76372.80 15700.00
6321 0.0000 67922.00 76354.00 15666.00
6322 0.0000 68281.00 76335.60 15653.00
6323 0.0000 61621.00 76317.40 15640.00
6324 0.0000 51445.00 76299.30 15606.00
6325 0.0000 65247.00 76281.50 15593.00
6326 0.0000 78850.00 76263.90 15557.00
6327 0.0000 91834.00 76246.50 15542.00
6328 0.0000 67345.00 76229.30 15530.00
6329 0.0000 78802.00 76212.20 15503.00
6330 0.0000 82476.00 76195.20 15489.00
6331 0.0000 72007.00 76178.40 15459.00
6332 0.0000 87306.00 76161.80 15452.00
6333 0.0000 72341.00 76145.20 15444.00
6334 0.0000 76381.00 76128.80 15419.00
6335 0.0000 69569.00 76112.50 15412.00
6336 0.0000 84777.00 76096.30 15392.00
6337 0.0000 85571.00 76080.10 15386.00
6338 0.0000 91594.00 76064.10 15381.00
6339 0.0000 91245.00 76048.10 15365.00
6340 0.0000 71080.00 76032.30 15362.00
6341 0.0000 66389.00 76016.50 15351.00
6342 0.0000 78261.00 76000.70 15346.00
6343 0.0000 87267.00 75985.00 15341.00
6344 0.0000 94555.00 75969.40 15324.00
6345 0.0000 83979.00 75953.90 15321.00
6346 0.0000 91697.00 75938.40 15302.00
6347 0.0000 78587.00 75922.90 15298.00
6348 0.0000 65313.00 75907.50 15294.00
6349 0.0000 72728.00 75892.10 15278.00
6350 0.0000 56703.00 75876.80 15274.00
6351 0.0000 63573.00 75861.50 15264.00
6352 0.0000 51945.00 75846.20 15264.00
6353 0.0000 58363.00 75831.00 15259.00
6354 0.0000 71911.00 75815.80 15249.00
6355 0.0000 76268.00 75800.60 15245.00
6356 0.0000 93704.00 75785.40 15233.00
6357 0.0000 74566.00 75770.30 15232.00
6358 0.0000 84266.00 75755.20 15230.00
6359 0.0000 81128.00 75878.10 15216.00
6360 0.0000 78873.00 75865.10 15215.00
6361 0.0000 77685.00 75852.20 15209.00
6362 0.0000 75977.00 75839.30 15210.00
6363 0.0000 75581.00 75826.50 15206.00
6364 0.0000 75583.00 75813.70 15200.00
6365 0.0000 78028.00 75801.00 15198.00
6366 0.0000 72193.00 75788.30 15190.00
6367 0.0000 74027.00 75775.80 15187.00
6368 0.0000 64887.00 75763.30 15189.00
6369 0.0000 65437.00 75750.80 15186.00
6370 0.0000 70024.00 75738.40 15188.00
6371 0.0000 72502.00 75726.10 15187.00
6372 0.0000 82204.00 75713.90 15186.00
6373 0.0000 81076.00 75701.70 15190.00
6374 0.0000 85950.00 75689.60 15194.00
6375 0.0000 85773.00 75677.50 15199.00
6376 0.0000 69503.00 75665.60 15216.00
6377 0.0000 61988.00 75653.70 15223.00
6378 0.0000 75088.00 75641.90 15228.00
6379 0.0000 65203.00 75630.10 15235.00
6380 0.0000 58256.00 75618.50 15242.00
6381 0.0000 46566.00 75606.90 15258.00
6382 0.0000 57011.00 75595.40 15266.00
6383 0.0000 63222.00 75584.00 15274.00
6384 0.0000 87765.00 75572.70 15290.00
6385 0.0000 83461.00 75561.50 15303.00
6386 0.0000 71320.00 75550.40 15319.00
6387 0.0000 56081.00 75539.40 15332.00
6388 0.0000 42000.00 75528.50 15341.00
6389 0.0000 51867.00 75517.80 15358.00
6390 0.0000 80253.00 75465.40 15371.00
6391 0.0000 83690.00 75455.50 15393.00
6392 0.0000 68015.00 75445.70 15410.00
6393 0.0000 75349.00 75436.00 15426.00
6394 0.0000 77118.00 75426.40 15452.00
6395 0.0000 71203.00 75417.00 15475.00
6396 0.0000 62646.00 75407.70 15504.00
6397 0.0000 63604.00 75398.50 15529.00
6398 0.0000 63848.00 75389.50 15548.00
6399 0.0000 60396.00 75380.60 15575.00
6400 0.0000 67509.00 75371.90 15601.00
6401 0.0000 67974.00 75363.40 15644.00
6402 0.0000 74820.00 75355.10 15671.00
6403 0.0000 99549.00 75346.90 15697.00
6404 0.0000 81961.00 75338.90 15740.00
6405 0.0000 70370.00 75331.20 15772.00
6406 0.0000 69497.00 75323.70 15815.00
6407 0.0000 75520.00 75316.40 15842.00
6408 0.0000 79896.00 75309.30 15874.00
6409 0.0000 68809.00 75302.50 15927.00
6410 0.0000 69121.00 75295.90 15961.00
6411 0.0000 81856.00 75289.70 16019.00
6412 0.0000 96425.00 75283.70 16056.00
6413 0.0000 98669.00 75278.10 16091.00
6414 0.0000 80941.00 75272.80 16158.00
6415 0.0000 84934.00 75267.80 16200.00
6416 0.0000 77942.00 75263.20 16274.00
6417 0.0000 86307.00 75259.00 16317.00
6418 0.0000 100595.00 75255.20 16360.00
6419 0.0000 89256.00 75251.80 16440.00
6420 0.0000 78909.00 75249.00 16485.00
6421 0.0000 70376.00 75246.50 16571.00
6422 0.0000 72899.00 75244.60 16620.00
6423 0.0000 74984.00 75243.30 16670.00
6424 0.0000 72335.00 75242.50 16760.00
6425 0.0000 76950.00 75242.40 16814.00
6426 0.0000 83660.00 75242.90 16906.00
6427 0.0000 72403.00 75244.10 16957.00
6428 0.0000 88492.00 75246.00 17012.00
6429 0.0000 75068.00 75248.70 17109.00
6430 0.0000 70189.00 75252.30 17159.00
6431 0.0000 86052.00 75256.70 17260.00
6432 0.0000 73935.00 75262.10 17315.00
6433 0.0000 80576.00 75268.50 17370.00
6434 0.0000 78135.00 75276.00 17477.00
6435 0.0000 73433.00 75284.60 17536.00
6436 0.0000 61568.00 75294.50 17648.00
6437 0.0000 78022.00 75305.80 17713.00
6438 0.0000 67801.00 75318.40 17772.00
6439 0.0000 75290.00 75332.60 17883.00
6440 0.0000 90124.00 75348.40 17944.00
6441 0.0000 50787.00 75366.00 18060.00
6442 0.0000 66870.00 75385.60 18123.00
6443 0.0000 75145.00 75407.20 18187.00
6444 0.0000 65715.00 75431.00 18309.00
6445 0.0000 71632.00 75457.20 18377.00
6446 0.0000 79671.00 75486.10 18503.00
6447 0.0000 69680.00 75517.80 18570.00
6448 0.0000 85776.00 75552.60 18636.00
6449 0.0000 80332.00 75590.80 18760.00
6450 0.0000 86986.00 75632.60 18833.00
6451 0.0000 85680.00 75678.50 18966.00
6452 0.0000 97523.00 75728.70 19033.00
6453 0.0000 99055.00 75783.80 19106.00
6454 0.0000 92669.00 75844.30 19233.00
6455 0.0000 86176.00 75910.80 19302.00
6456 0.0000 58490.00 75984.10 19430.00
6457 0.0000 82780.00 76065.20 19500.00
6458 0.0000 87632.00 76155.40 19568.00
6459 0.0000 90779.00 76256.80 19687.00
6460 0.0000 98975.00 76372.30 19754.00
6461 0.0000 93494.00 76506.50 19876.00
6462 0.0000 101346.00 76666.70 19941.00
6463 0.0000 49459.00 76863.80 20010.00
6464 0.0000 68997.00 77115.40 20126.00
6465 0.0000 76069.00 77448.20 20188.00
6466 0.0000 64808.00 77902.50 20302.00
6467 0.0000 76207.00 78538.00 20360.00
6468 0.0000 89180.00 79441.00 20421.00
6469 0.0000 125585.00 80733.80 20528.00
6470 0.0000 132940.00 82582.30 20582.00
6471 0.0000 131381.00 85209.90 20682.00
6472 0.0000 125845.00 88904.40 20736.00
6473 0.0000 137843.00 94026.20 20791.00
6474 0.0000 147898.00 101009.00 20877.00
6475 0.0000 145922.00 110359.00 20931.00
6476 0.0000 146851.00 122621.00 21020.00
6477 0.0000 162750.00 138371.00 21074.00
6478 0.0000 168336.00 158158.00 21121.00
6479 0.0000 207473.00 182451.00 21192.00
6480 0.0000 246892.00 211568.00 21235.00
6481 0.0000 263985.00 245604.00 21303.00
6482 0.0000 318744.00 284376.00 21340.00
6483 0.0000 355033.00 327295.00 21382.00
6484 0.0000 383350.00 373434.00 21437.00
6485 0.0000 394776.00 421456.00 21470.00
6486 0.0000 451664.00 469659.00 21523.00
6487 0.0000 477618.00 516055.00 21553.00
6488 0.0000 541815.00 558493.00 21582.00
6489 0.0000 564936.00 594724.00 21615.00
6490 0.0000 603838.00 622707.00 21637.00
6491 0.0000 605205.00 640719.00 21664.00
6492 0.0000 613217.00 647587.00 21681.00
6493 0.0000 622934.00 642845.00 21693.00
6494 0.0000 597332.00 626812.00 21710.00
6495 0.0000 573225.00 600525.00 21721.00
6496 0.0000 533847.00 565644.00 21723.00
6497 0.0000 497272.00 524176.00 21725.00
6498 0.0000 470443.00 478315.00 21727.00
6499 0.0000 442995.00 430252.00 21722.00
6500 0.0000 400427.00 382019.00 21718.00
6501 0.0000 361405.00 335378.00 21707.00
6502 0.0000 308059.00 291718.00 21700.00
6503 0.0000 256478.00 252098.00 21694.00
6504 0.0000 236918.00 217122.00 21671.00
6505 0.0000 195030.00 187052.00 21661.00
6506 0.0000 147000.00 161842.00 21633.00
6507 0.0000 103637.00 141212.00 21623.00
6508 0.0000 90374.00 124709.00 21612.00
6509 0.0000 86408.00 111808.00 21575.00
6510 0.0000 66292.00 101928.00 21565.00
6511 0.0000 91804.00 94511.40 21525.00
6512 0.0000 71168.00 89042.20 21510.00
6513 0.0000 46121.00 85080.20 21493.00
6514 0.0000 65618.00 82243.40 21437.00
6515 0.0000 75162.00 80236.50 21412.00
6516 0.0000 66512.00 78821.20 21353.00
6517 0.0000 58884.00 77823.60 21329.00
6518 0.0000 44251.00 77112.50 21303.00
6519 0.0000 50505.00 76596.50 21234.00
6520 0.0000 64837.00 76212.00 21202.00
6521 0.0000 78983.00 75914.70 21128.00
6522 0.0000 56152.00 75676.20 21091.00
6523 0.0000 82733.00 75477.30 21057.00
6524 0.0000 79865.00 75306.10 20968.00
6525 0.0000 82544.00 75154.60 20929.00
6526 0.0000 52448.00 75017.90 20835.00
6527 0.0000 42236.00 74893.00 20788.00
6528 0.0000 43899.00 74777.40 20748.00
6529 0.0000 31433.00 74669.90 20642.00
6530 0.0000 29711.00 74569.30 20593.00
6531 0.0000 28590.00 74474.80 20488.00
6532 0.0000 61761.00 74385.80 20433.00
6533 0.0000 82951.00 74301.80 20383.00
6534 0.0000 87652.00 74222.20 20273.00
6535 0.0000 85476.00 74146.70 20219.00
6536 0.0000 91355.00 74075.00 20107.00
6537 0.0000 73265.00 74006.60 20060.00
6538 0.0000 60738.00 73941.40 20007.00
6539 0.0000 66715.00 73879.20 19892.00
6540 0.0000 59555.00 73819.50 19837.00
6541 0.0000 55954.00 73762.30 19718.00
6542 0.0000 32774.00 73707.40 19662.00
6543 0.0000 39725.00 73654.60 19605.00
6544 0.0000 51192.00 73762.80 19492.00
6545 0.0000 57919.00 73716.00 19438.00
6546 0.0000 53535.00 73671.00 19324.00
6547 0.0000 77625.00 73627.60 19269.00
6548 0.0000 91857.00 73585.70 19215.00
6549 0.0000 91462.00 73545.20 19101.00
6550 0.0000 91977.00 73506.00 19050.00
6551 0.0000 65958.00 73468.00 18937.00
6552 0.0000 47449.00 73431.20 18888.00
6553 0.0000 68894.00 73395.60 18840.00
6554 0.0000 79574.00 73360.90 18730.00
6555 0.0000 64126.00 73327.20 18677.00
6556 0.0000 66289.00 73294.50 18569.00
6557 0.0000 53802.00 73262.60 18517.00
6558 0.0000 48281.00 73231.50 18472.00
6559 0.0000 66184.00 73201.20 18374.00
6560 0.0000 74243.00 73171.70 18324.00
6561 0.0000 90674.00 73142.90 18226.00
6562 0.0000 87224.00 73114.80 18181.00
6563 0.0000 67637.00 73087.30 18141.00
6564 0.0000 67331.00 73060.40 18051.00
6565 0.0000 43382.00 73034.20 18012.00
6566 0.0000 63562.00 73008.50 17927.00
6567 0.0000 75849.00 72983.30 17892.00
6568 0.0000 96364.00 72958.70 17860.00
6569 0.0000 106941.00 72934.60 17789.00
6570 0.0000 90982.00 72911.00 17757.00
6571 0.0000 85516.00 72887.90 17686.00
6572 0.0000 64499.00 72865.30 17658.00
6573 0.0000 46423.00 72843.10 17631.00
6574 0.0000 54346.00 72821.30 17571.00
6575 0.0000 74337.00 72800.00 17550.00
6576 0.0000 72771.00 72779.10 17504.00
6577 0.0000 63258.00 72758.60 17486.00
6578 0.0000 77414.00 72738.50 17463.00
6579 0.0000 81992.00 72718.90 17428.00
6580 0.0000 91766.00 72699.60 17414.00
6581 0.0000 65945.00 72680.70 17384.00
6582 0.0000 79173.00 72662.20 17376.00
6583 0.0000 86396.00 72644.10 17369.00
6584 0.0000 57280.00 72626.40 17346.00
6585 0.0000 60527.00 72609.10 17339.00
6586 0.0000 55522.00 72592.20 17331.00
6587 0.0000 67990.00 72575.60 17325.00
6588 0.0000 65178.00 72559.50 17327.00
6589 0.0000 53720.00 72543.70 17318.00
6590 0.0000 33950.00 72528.30 17326.00
6591 0.0000 44438.00 72513.30 17330.00
6592 0.0000 57786.00 72498.80 17337.00
6593 0.0000 91108.00 72484.60 17341.00
6594 0.0000 92939.00 72470.90 17362.00
6595 0.0000 89236.00 72457.60 17374.00
6596 0.0000 86698.00 72444.70 17394.00
6597 0.0000 93830.00 72432.30 17409.00
6598 0.0000 71906.00 72420.30 17431.00
6599 0.0000 36117.00 72408.90 17465.00
6600 0.0000 26387.00 72397.90 17486.00
6601 0.0000 34780.00 72387.40 17528.00
6602 0.0000 45319.00 72377.40 17554.00
6603 0.0000 50241.00 72368.00 17583.00
6604 0.0000 51682.00 72359.10 17637.00
6605 0.0000 65177.00 72350.90 17675.00
6606 0.0000 68492.00 72343.20 17743.00
6607 0.0000 66106.00 72336.10 17783.00
6608 0.0000 60119.00 72329.80 17818.00
6609 0.0000 48309.00 72324.00 17895.00
6610 0.0000 46599.00 72319.10 17940.00
6611 0.0000 57052.00 72314.80 18022.00
6612 0.0000 70950.00 72311.40 18072.00
6613 0.0000 80737.00 72308.80 18120.00
6614 0.0000 79529.00 72307.00 18216.00
6615 0.0000 71022.00 72306.20 18271.00
6616 0.0000 29845.00 72306.40 18369.00
6617 0.0000 52089.00 72307.60 18431.00
6618 0.0000 68412.00 72309.80 18488.00
6619 0.0000 76986.00 72313.20 18601.00
6620 0.0000 63491.00 72317.90 18664.00
6621 0.0000 64813.00 72323.80 18782.00
6622 0.0000 43636.00 72331.10 18847.00
6623 0.0000 67358.00 72339.80 18912.00
6624 0.0000 73583.00 72350.10 19032.00
6625 0.0000 83458.00 72362.10 19100.00
6626 0.0000 77617.00 72246.00 19223.00
6627 0.0000 52350.00 72263.60 19292.00
6628 0.0000 33996.00 72283.20 19361.00
6629 0.0000 36711.00 72305.00 19494.00
6630 0.0000 47155.00 72329.00 19567.00
6631 0.0000 34386.00 72355.60 19697.00
6632 0.0000 56936.00 72384.90 19770.00
6633 0.0000 62557.00 72417.00 19845.00
6634 0.0000 42099.00 72452.40 19988.00
6635 0.0000 42715.00 72491.10 20067.00
6636 0.0000 60111.00 72533.60 20210.00
6637 0.0000 85993.00 72580.10 20285.00
6638 0.0000 70122.00 72631.00 20359.00
6639 0.0000 69028.00 72686.80 20508.00
6640 0.0000 47194.00 72747.80 20585.00
6641 0.0000 26609.00 72814.80 20730.00
6642 0.0000 64747.00 72888.10 20806.00
6643 0.0000 52642.00 72968.90 20883.00
6644 0.0000 47925.00 73057.90 21022.00
6645 0.0000 66758.00 73156.60 21096.00
6646 0.0000 75085.00 73267.00 21232.00
6647 0.0000 63351.00 73391.80 21306.00
6648 0.0000 73849.00 73535.50 21383.00
6649 0.0000 67852.00 73704.60 21523.00
6650 0.0000 87565.00 73909.90 21601.00
6651 0.0000 98629.00 74167.20 21739.00
6652 0.0000 104870.00 74500.90 21815.00
6653 0.0000 115211.00 74948.80 21890.00
6654 0.0000 103312.00 75565.00 22027.00
6655 0.0000 76860.00 76430.70 22100.00
6656 0.0000 93302.00 77658.80 22235.00
6657 0.0000 109517.00 79404.10 22300.00
6658 0.0000 103688.00 81881.00 22371.00
6659 0.0000 111001.00 85360.60 22486.00
6660 0.0000 103164.00 90200.10 22555.00
6661 0.0000 141258.00 96819.80 22666.00
6662 0.0000 144711.00 105741.00 22731.00
6663 0.0000 141505.00 117537.00 22799.00
6664 0.0000 155901.00 132814.00 22902.00
6665 0.0000 178429.00 152235.00 22956.00
6666 0.0000 193159.00 176353.00 23056.00
6667 0.0000 240899.00 205698.00 23113.00
6668 0.0000 267806.00 240515.00 23167.00
6669 0.0000 318528.00 280914.00 23249.00
6670 0.0000 366132.00 326571.00 23295.00
6671 0.0000 413605.00 376752.00 23373.00
6672 0.0000 439564.00 430441.00 23414.00
6673 0.0000 462018.00 486004.00 23449.00
6674 0.0000 490522.00 541626.00 23515.00
6675 0.0000 554485.00 594978.00 23547.00
6676 0.0000 625220.00 643753.00 23599.00
6677 0.0000 693303.00 685458.00 23629.00
6678 0.0000 688674.00 717789.00 23660.00
6679 0.0000 688751.00 738904.00 23703.00
6680 0.0000 682351.00 747449.00 23730.00
6681 0.0000 699754.00 742889.00 23765.00
6682 0.0000 686674.00 725524.00 23786.00
6683 0.0000 642324.00 696415.00 23810.00
6684 0.0000 594571.00 657319.00 23827.00
6685 0.0000 546390.00 610470.00 23838.00
6686 0.0000 495850.00 558190.00 23848.00
6687 0.0000 452375.00 503014.00 23859.00
6688 0.0000 400437.00 447134.00 23868.00
6689 0.0000 334266.00 392628.00 23860.00
6690 0.0000 324941.00 341204.00 23867.00
6691 0.0000 301381.00 294008.00 23851.00
6692 0.0000 238973.00 251942.00 23849.00
6693 0.0000 195735.00 215333.00 23843.00
6694 0.0000 190687.00 184305.00 23813.00
6695 0.0000 172480.00 158568.00 23803.00
6696 0.0000 158018.00 137717.00 23766.00
6697 0.0000 133741.00 121201.00 23750.00
6698 0.0000 115293.00 108360.00 23733.00
6699 0.0000 113341.00 98591.20 23684.00
6700 0.0000 89771.00 91279.60 23665.00
6701 0.0000 101477.00 85908.80 23602.00
6702 0.0000 84623.00 82013.30 23578.00
6703 0.0000 73694.00 79224.10 23556.00
6704 0.0000 66902.00 77244.40 23488.00
6705 0.0000 61571.00 75840.40 23459.00
6706 0.0000 44615.00 74842.80 23383.00
6707 0.0000 45704.00 74123.90 23345.00
6708 0.0000 43077.00 73596.20 23304.00
6709 0.0000 67262.00 73196.60 23212.00
6710 0.0000 33871.00 72883.70 23173.00
6711 0.0000 15562.00 72629.60 23075.00
6712 0.0000 11032.00 72415.40 23029.00
6713 0.0000 39607.00 72229.60 22982.00
6714 0.0000 68178.00 72064.40 22871.00
6715 0.0000 72427.00 71914.70 22823.00
6716 0.0000 48503.00 71777.60 22712.00
6717 0.0000 29099.00 71650.60 22664.00
6718 0.0000 25109.00 71532.40 22611.00
6719 0.0000 28784.00 71421.70 22490.00
6720 0.0000 61052.00 71317.80 22434.00
6721 0.0000 52289.00 71219.80 22309.00
6722 0.0000 68540.00 71127.30 22256.00
6723 0.0000 70472.00 71039.80 22197.00
6724 0.0000 61808.00 70956.80 22062.00
6725 0.0000 57785.00 70878.10 22007.00
6726 0.0000 56511.00 70803.10 21871.00
6727 0.0000 55162.00 70731.60 21807.00
6728 0.0000 32900.00 70663.40 21742.00
6729 0.0000 55742.00 70598.10 21591.00
6730 0.0000 73310.00 70535.70 21524.00
6731 0.0000 72491.00 70475.80 21373.00
6732 0.0000 62033.00 70418.30 21304.00
6733 0.0000 57881.00 70362.90 21232.00
6734 0.0000 41947.00 70309.70 21085.00
6735 0.0000 43766.00 70258.40 21012.00
6736 0.0000 36267.00 70208.80 20867.00
6737 0.0000 31231.00 70160.90 20802.00
6738 0.0000 73100.00 70114.50 20737.00
6739 0.0000 48171.00 70069.70 20589.00
6740 0.0000 54985.00 70026.10 20522.00
6741 0.0000 37898.00 69983.90 20378.00
6742 0.0000 41860.00 69942.90 20315.00
6743 0.0000 42521.00 69903.00 20249.00
6744 0.0000 65215.00 69864.20 20111.00
6745 0.0000 63595.00 69826.30 20051.00
6746 0.0000 45525.00 69789.40 19906.00
6747 0.0000 67882.00 69753.40 19842.00
6748 0.0000 65582.00 69718.20 19780.00
6749 0.0000 74553.00 69683.90 19648.00
6750 0.0000 58184.00 69650.30 19588.00
6751 0.0000 73275.00 69617.40 19464.00
6752 0.0000 83323.00 69585.10 19406.00
6753 0.0000 103400.00 69553.60 19346.00
6754 0.0000 89921.00 69522.60 19229.00
6755 0.0000 77484.00 69492.20 19178.00
6756 0.0000 68818.00 69462.40 19061.00
6757 0.0000 46121.00 69433.00 19011.00
6758 0.0000 44439.00 69404.20 18959.00
6759 0.0000 58574.00 69375.90 18850.00
6760 0.0000 82630.00 69348.00 18796.00
6761 0.0000 82825.00 69320.50 18686.00
6762 0.0000 61445.00 69293.50 18640.00
6763 0.0000 63570.00 69266.90 18594.00
6764 0.0000 45473.00 69240.60 18498.00
6765 0.0000 64440.00 69214.70 18452.00
6766 0.0000 65047.00 69189.10 18351.00
6767 0.0000 67062.00 69163.90 18307.00
6768 0.0000 60818.00 69139.00 18266.00
6769 0.0000 60739.00 69114.40 18176.00
6770 0.0000 46221.00 69090.10 18135.00
6771 0.0000 59436.00 69066.10 18053.00
6772 0.0000 87493.00 69042.40 18016.00
6773 0.0000 97380.00 69018.90 17984.00
6774 0.0000 96134.00 68995.60 17910.00
6775 0.0000 74154.00 68972.70 17879.00
6776 0.0000 76868.00 68949.90 17809.00
6777 0.0000 48592.00 68927.40 17777.00
6778 0.0000 46557.00 68905.10 17749.00
6779 0.0000 40886.00 68883.00 17689.00
6780 0.0000 54381.00 68861.10 17664.00
6781 0.0000 56633.00 68839.40 17603.00
6782 0.0000 80984.00 68817.90 17578.00
6783 0.0000 74208.00 68796.60 17552.00
6784 0.0000 83791.00 68775.50 17499.00
6785 0.0000 76780.00 68754.50 17479.00
6786 0.0000 68114.00 68733.80 17438.00
6787 0.0000 77170.00 68713.10 17422.00
6788 0.0000 83086.00 68692.70 17407.00
6789 0.0000 71530.00 68672.40 17369.00
6790 0.0000 70993.00 68652.20 17348.00
6791 0.0000 60382.00 68632.20 17312.00
6792 0.0000 48147.00 68612.30 17299.00
6793 0.0000 43789.00 68592.60 17288.00
6794 0.0000 47511.00 68573.00 17253.00
6795 0.0000 48002.00 68553.60 17242.00
6796 0.0000 36240.00 68534.20 17203.00
6797 0.0000 58776.00 68515.00 17192.00
6798 0.0000 74121.00 68496.00 17180.00
6799 0.0000 69840.00 68477.00 17150.00
6800 0.0000 78835.00 68458.20 17143.00
6801 0.0000 96064.00 68439.50 17115.00
6802 0.0000 92637.00 68420.90 17108.00
6803 0.0000 75329.00 68402.40 17103.00
6804 0.0000 72972.00 68384.00 17078.00
6805 0.0000 51191.00 68365.70 17071.00
6806 0.0000 73014.00 68347.50 17052.00
6807 0.0000 91798.00 68329.50 17052.00
6808 0.0000 87547.00 68311.50 17046.00
6809 0.0000 90037.00 68293.60 17034.00
6810 0.0000 67823.00 68275.80 17030.00
6811 0.0000 55481.00 68258.10 17016.00
6812 0.0000 69529.00 68240.60 17014.00
6813 0.0000 77843.00 68223.10 17007.00
6814 0.0000 66147.00 68205.60 16991.00
6815 0.0000 56966.00 68188.30 16986.00
6816 0.0000 73186.00 68171.10 16969.00
6817 0.0000 67271.00 68004.10 16967.00
6818 0.0000 75604.00 67989.20 16963.00
6819 0.0000 65827.00 67974.40 16951.00
6820 0.0000 77674.00 67959.60 16942.00
6821 0.0000 55258.00 67944.80 16925.00
6822 0.0000 87236.00 67930.10 16920.00
6823 0.0000 72376.00 67915.40 16915.00
6824 0.0000 71167.00 67900.80 16899.00
6825 0.0000 69410.00 67886.20 16894.00
6826 0.0000 64684.00 67871.60 16880.00
6827 0.0000 62572.00 67857.10 16882.00
6828 0.0000 72811.00 67842.60 16880.00
6829 0.0000 66594.00 67828.20 16865.00
6830 0.0000 66554.00 67813.80 16864.00
6831 0.0000 61660.00 67799.40 16853.00
6832 0.0000 66121.00 67785.10 16853.00
6833 0.0000 78652.00 67770.80 16855.00
6834 0.0000 71917.00 67756.60 16847.00
6835 0.0000 74230.00 67742.40 16846.00
6836 0.0000 58078.00 67728.20 16837.00
6837 0.0000 64976.00 67714.10 16838.00
6838 0.0000 67760.00 67700.10 16839.00
6839 0.0000 71921.00 67686.00 16829.00
6840 0.0000 63556.00 67672.00 16831.00
6841 0.0000 59309.00 67658.10 16830.00
6842 0.0000 48924.00 67644.20 16835.00
6843 0.0000 55835.00 67630.40 16842.00
6844 0.0000 64408.00 67616.50 16838.00
6845 0.0000 77993.00 67602.80 16842.00
6846 0.0000 87339.00 67589.00 16839.00
6847 0.0000 100364.00 67575.40 16841.00
6848 0.0000 81915.00 67561.70 16847.00
6849 0.0000 74184.00 67548.10 16851.00
6850 0.0000 46093.00 67534.60 16854.00
6851 0.0000 49478.00 67521.10 16855.00
6852 0.0000 53777.00 67507.60 16858.00
6853 0.0000 72572.00 67494.20 16860.00
6854 0.0000 84023.00 67480.80 16866.00
6855 0.0000 82289.00 67467.50 16872.00
6856 0.0000 53969.00 67454.20 16876.00
6857 0.0000 68252.00 67441.00 16883.00
6858 0.0000 80451.00 67427.80 16890.00
6859 0.0000 84397.00 67414.70 16890.00
6860 0.0000 76767.00 67401.60 16903.00
6861 0.0000 79681.00 67388.60 16906.00
6862 0.0000 61347.00 67375.60 16916.00
6863 0.0000 62976.00 67362.70 16923.00
6864 0.0000 72556.00 67349.80 16931.00
6865 0.0000 78115.00 67336.90 16938.00
6866 0.0000 71320.00 67324.10 16942.00
6867 0.0000 61672.00 67311.40 16950.00
6868 0.0000 34096.00 67298.70 16958.00
6869 0.0000 41968.00 67286.00 16966.00
6870 0.0000 56675.00 67273.40 16974.00
6871 0.0000 62529.00 67260.90 16972.00
6872 0.0000 69760.00 67248.40 16980.00
6873 0.0000 81751.00 67235.90 16988.00
6874 0.0000 76888.00 67223.50 16992.00
6875 0.0000 86729.00 67211.20 17000.00
6876 0.0000 74479.00 67198.90 17008.00
6877 0.0000 72343.00 67186.60 17016.00
6878 0.0000 79054.00 67174.40 17026.00
6879 0.0000 73318.00 67162.30 17029.00
6880 0.0000 56401.00 67150.20 17038.00
6881 0.0000 55944.00 67138.20 17048.00
6882 0.0000 60758.00 67126.20 17054.00
6883 0.0000 85624.00 67114.30 17061.00
6884 0.0000 88356.00 67102.40 17067.00
6885 0.0000 93204.00 67090.50 17071.00
6886 0.0000 95212.00 67078.80 17072.00
6887 0.0000 105601.00 67067.00 17078.00
6888 0.0000 100613.00 67055.40 17087.00
6889 0.0000 100179.00 67043.80 17088.00
6890 0.0000 106670.00 67032.20 17089.00
6891 0.0000 98126.00 67020.70 17091.00
6892 0.0000 100786.00 67009.30 17090.00
6893 0.0000 94067.00 66997.90 17090.00
6894 0.0000 100480.00 66986.50 17088.00
6895 0.0000 96286.00 66975.30 17092.00
6896 0.0000 75066.00 66964.00 17095.00
6897 0.0000 67104.00 66952.90 17099.00
6898 0.0000 76500.00 66941.70 17102.00
6899 0.0000 86885.00 66930.70 17111.00
6900 0.0000 80800.00 66919.70 17118.00
6901 0.0000 72827.00 66908.70 17125.00
6902 0.0000 77209.00 66897.90 17132.00
6903 0.0000 79547.00 66887.00 17137.00
6904 0.0000 63774.00 66876.30 17146.00
6905 0.0000 55938.00 66865.50 17156.00
6906 0.0000 63726.00 66854.90 17156.00
6907 0.0000 55058.00 66844.30 17163.00
6908 0.0000 80728.00 66833.80 17175.00
6909 0.0000 73952.00 66823.30 17176.00
6910 0.0000 77657.00 66812.90 17183.00
6911 0.0000 65888.00 66802.50 17189.00
6912 0.0000 47509.00 66792.20 17202.00
6913 0.0000 59739.00 66781.90 17206.00
6914 0.0000 65302.00 66771.80 17206.00
6915 0.0000 69345.00 66761.60 17216.00
6916 0.0000 83640.00 66751.60 17218.00
6917 0.0000 93531.00 66741.60 17228.00
6918 0.0000 92058.00 66731.60 17238.00
6919 0.0000 83627.00 66721.80 17245.00
6920 0.0000 54303.00 66711.90 17253.00
6921 0.0000 65238.00 66702.20 17254.00
6922 0.0000 56398.00 66692.50 17260.00
6923 0.0000 67059.00 66682.90 17269.00
6924 0.0000 70131.00 66673.30 17273.00
6925 0.0000 65101.00 66663.80 17276.00
6926 0.0000 63310.00 66654.40 17282.00
6927 0.0000 75916.00 66645.00 17283.00
6928 0.0000 91615.00 66635.70 17292.00
6929 0.0000 94666.00 66626.40 17285.00
6930 0.0000 82967.00 66617.20 17288.00
6931 0.0000 59084.00 66608.10 17293.00
6932 0.0000 64794.00 66599.00 17293.00
6933 0.0000 77892.00 66590.00 17294.00
6934 0.0000 71843.00 66581.10 17295.00
6935 0.0000 63912.00 66572.20 17294.00
6936 0.0000 52469.00 66563.40 17292.00
6937 0.0000 70258.00 66554.70 17291.00
6938 0.0000 97749.00 66546.00 17291.00
6939 0.0000 93829.00 66537.40 17288.00
6940 0.0000 93627.00 66528.90 17290.00
6941 0.0000 109651.00 66520.40 17292.00
6942 0.0000 84356.00 66512.00 17294.00
6943 0.0000 65404.00 66503.60 17297.00
6944 0.0000 58915.00 66495.40 17286.00
6945 0.0000 69631.00 66487.20 17289.00
6946 0.0000 85630.00 66479.00 17283.00
6947 0.0000 98160.00 66470.90 17284.00
6948 0.0000 83459.00 66462.90 17288.00
6949 0.0000 81869.00 66475.00 17290.00
6950 0.0000 92143.00 66467.40 17291.00
6951 0.0000 89129.00 66459.90 17286.00
6952 0.0000 96766.00 66452.40 17289.00
6953 0.0000 75126.00 66445.10 17290.00
6954 0.0000 85575.00 66437.80 17285.00
6955 0.0000 90153.00 66430.60 17288.00
6956 0.0000 89612.00 66423.40 17291.00
6957 0.0000 72527.00 66416.40 17299.00
6958 0.0000 56778.00 66409.40 17304.00
6959 0.0000 66941.00 66402.50 17298.00
6960 0.0000 64965.00 66395.60 17298.00
6961 0.0000 58740.00 66388.90 17308.00
6962 0.0000 56884.00 66382.20 17314.00
6963 0.0000 77626.00 66375.60 17321.00
6964 0.0000 80705.00 66369.10 17322.00
6965 0.0000 82230.00 66362.70 17334.00
6966 0.0000 90673.00 66356.40 17335.00
6967 0.0000 83471.00 66350.10 17347.00
6968 0.0000 83524.00 66343.90 17360.00
6969 0.0000 94185.00 66337.80 17363.00
6970 0.0000 90017.00 66331.80 17373.00
6971 0.0000 72803.00 66325.90 17391.00
6972 0.0000 83650.00 66320.00 17403.00
6973 0.0000 93242.00 66314.20 17417.00
6974 0.0000 77943.00 66308.60 17415.00
6975 0.0000 63259.00 66303.00 17426.00
6976 0.0000 50975.00 66297.40 17427.00
6977 0.0000 73369.00 66292.00 17436.00
6978 0.0000 74776.00 66286.70 17447.00
6979 0.0000 52723.00 66281.50 17454.00
6980 0.0000 52627.00 66276.30 17457.00
6981 0.0000 70607.00 66271.20 17464.00
6982 0.0000 64721.00 66266.30 17480.00
6983 0.0000 62413.00 66261.40 17483.00
6984 0.0000 70950.00 66256.60 17490.00
6985 0.0000 88086.00 66251.90 17497.00
6986 0.0000 78006.00 66247.30 17505.00
6987 0.0000 58419.00 66242.80 17514.00
6988 0.0000 71381.00 66238.40 17526.00
6989 0.0000 52883.00 66234.10 17532.00
6990 0.0000 60543.00 66229.90 17539.00
6991 0.0000 67740.00 66225.70 17545.00
6992 0.0000 68382.00 66221.70 17556.00
6993 0.0000 79795.00 66217.80 17565.00
6994 0.0000 94524.00 66214.00 17574.00
6995 0.0000 88523.00 66210.30 17583.00
6996 0.0000 90809.00 66206.70 17590.00
6997 0.0000 77793.00 66203.20 17597.00
6998 0.0000 80549.00 66199.80 17600.00
6999 0.0000 75175.00 66196.50 17606.00
7000 0.0000 95623.00 66193.40 17608.00
7001 0.0000 99208.00 66190.30 17623.00
7002 0.0000 107534.00 66187.40 17628.00
7003 0.0000 105352.00 66184.50 17645.00
7004 0.0000 90923.00 66181.80 17659.00
7005 0.0000 82565.00 66179.20 17670.00
7006 0.0000 53700.00 66176.80 17686.00
7007 0.0000 58053.00 66174.40 17699.00
7008 0.0000 60509.00 66172.20 17713.00
7009 0.0000 75200.00 66170.10 17738.00
7010 0.0000 74597.00 66168.10 17746.00
7011 0.0000 47943.00 66166.30 17767.00
7012 0.0000 42430.00 66164.60 17783.00
7013 0.0000 46095.00 66163.10 17797.00
7014 0.0000 35804.00 66161.70 17815.00
7015 0.0000 43548.00 66160.40 17835.00
7016 0.0000 61244.00 66159.30 17862.00
7017 0.0000 49770.00 66158.30 17876.00
7018 0.0000 34805.00 66157.50 17892.00
7019 0.0000 55966.00 66156.90 17913.00
7020 0.0000 52607.00 66156.40 17926.00
7021 0.0000 34442.00 66156.10 17951.00
7022 0.0000 49540.00 66155.90 17966.00
7023 0.0000 84049.00 66156.00 17978.00
7024 0.0000 109783.00 66156.20 18004.00
7025 0.0000 97456.00 66156.60 18022.00
7026 0.0000 58491.00 66157.30 18038.00
7027 0.0000 74163.00 66158.10 18053.00
7028 0.0000 81986.00 66159.10 18068.00
7029 0.0000 98077.00 66160.40 18090.00
7030 0.0000 81123.00 66161.90 18104.00
7031 0.0000 67434.00 66163.60 18129.00
7032 0.0000 58983.00 66165.60 18148.00
7033 0.0000 59458.00 66167.90 18169.00
7034 0.0000 91800.00 66170.40 18195.00
7035 0.0000 100762.00 66173.20 18217.00
7036 0.0000 87703.00 66176.30 18246.00
7037 0.0000 83675.00 66179.80 18268.00
7038 0.0000 70148.00 66183.50 18290.00
7039 0.0000 58799.00 66187.60 18328.00
7040 0.0000 55578.00 66192.10 18348.00
7041 0.0000 41824.00 66197.00 18380.00
7042 0.0000 54808.00 66202.30 18403.00
7043 0.0000 64414.00 66208.10 18427.00
7044 0.0000 55097.00 66214.30 18457.00
7045 0.0000 40776.00 66221.00 18485.00
7046 0.0000 46061.00 66228.30 18517.00
7047 0.0000 62498.00 66236.20 18538.00
7048 0.0000 62537.00 66244.60 18563.00
7049 0.0000 77148.00 66253.80 18596.00
7050 0.0000 80034.00 66263.70 18618.00
7051 0.0000 93701.00 66274.30 18649.00
7052 0.0000 103438.00 66285.90 18673.00
7053 0.0000 92003.00 66298.40 18702.00
7054 0.0000 61795.00 66312.10 18746.00
7055 0.0000 66949.00 66327.00 18773.00
7056 0.0000 69929.00 66343.40 18805.00
7057 0.0000 75941.00 66361.80 18826.00
7058 0.0000 56738.00 66382.50 18844.00
7059 0.0000 73051.00 66406.60 18880.00
7060 0.0000 85724.00 66435.30 18903.00
7061 0.0000 96047.00 66470.40 18939.00
7062 0.0000 78730.00 66515.00 18964.00
7063 0.0000 73639.00 66573.40 18986.00
7064 0.0000 67783.00 66651.80 19016.00
7065 0.0000 74225.00 66759.20 19034.00
7066 0.0000 89715.00 66908.30 19068.00
7067 0.0000 85693.00 67116.00 19085.00
7068 0.0000 75798.00 67405.80 19104.00
7069 0.0000 98076.00 67806.70 19135.00
7070 0.0000 82932.00 68357.50 19154.00
7071 0.0000 66207.00 69104.10 19180.00
7072 0.0000 58576.00 70100.70 19199.00
7073 0.0000 58257.00 71412.30 19213.00
7074 0.0000 81923.00 73105.80 19234.00
7075 0.0000 69930.00 75257.10 19251.00
7076 0.0000 92815.00 77932.90 19273.00
7077 0.0000 53691.00 81201.80 19290.00
7078 0.0000 15382.00 85110.30 19309.00
7079 0.0000 57952.00 89679.40 19331.00
7080 0.0000 79257.00 94912.20 19343.00
7081 0.0000 124522.00 100755.00 19364.00
7082 0.0000 110796.00 107131.00 19381.00
7083 0.0000 110638.00 113893.00 19397.00
7084 0.0000 101539.00 120874.00 19409.00
7085 0.0000 111089.00 127844.00 19423.00
7086 0.0000 151383.00 134542.00 19439.00
7087 0.0000 157029.00 140706.00 19444.00
7088 0.0000 156252.00 146045.00 19453.00
7089 0.0000 136372.00 150307.00 19465.00
7090 0.0000 115479.00 153260.00 19470.00
7091 0.0000 115269.00 154738.00 19479.00
7092 0.0000 129330.00 154659.00 19487.00
7093 0.0000 144763.00 153027.00 19496.00
7094 0.0000 150323.00 149934.00 19497.00
7095 0.0000 121234.00 145559.00 19503.00
7096 0.0000 117307.00 140122.00 19503.00
7097 0.0000 107158.00 133895.00 19513.00
7098 0.0000 90596.00 127163.00 19519.00
7099 0.0000 96377.00 120187.00 19527.00
7100 0.0000 84979.00 113232.00 19530.00
7101 0.0000 90537.00 106504.00 19537.00
7102 0.0000 87408.00 100192.00 19545.00
7103 0.0000 88649.00 94412.10 19550.00
7104 0.0000 75992.00 89255.20 19554.00
7105 0.0000 94922.00 84764.40 19563.00
7106 0.0000 89875.00 80932.90 19563.00
7107 0.0000 67693.00 77739.60 19566.00
7108 0.0000 64355.00 75127.70 19579.00
7109 0.0000 60417.00 73037.70 19587.00
7110 0.0000 70206.00 71394.20 19593.00
7111 0.0000 56050.00 70126.80 19589.00
7112 0.0000 58515.00 69167.40 19593.00
7113 0.0000 89937.00 68451.80 19597.00
7114 0.0000 91192.00 67927.10 19589.00
7115 0.0000 102787.00 67547.00 19594.00
7116 0.0000 97522.00 67275.20 19587.00
7117 0.0000 88384.00 67082.30 19582.00
7118 0.0000 83377.00 66946.10 19587.00
7119 0.0000 78732.00 66850.20 19569.00
7120 0.0000 57809.00 66782.10 19571.00
7121 0.0000 37926.00 66733.30 19560.00
7122 0.0000 23702.00 66697.80 19553.00
7123 0.0000 36332.00 66671.20 19545.00
7124 0.0000 64946.00 66651.00 19525.00
7125 0.0000 68270.00 66635.20 19516.00
7126 0.0000 57276.00 66622.60 19494.00
7127 0.0000 66652.00 66612.40 19483.00
7128 0.0000 68639.00 66604.00 19477.00
7129 0.0000 64802.00 66597.10 19450.00
7130 0.0000 69239.00 66591.50 19437.00
7131 0.0000 81260.00 66587.00 19408.00
7132 0.0000 83019.00 66583.40 19393.00
7133 0.0000 34874.00 66580.70 19380.00
7134 0.0000 55499.00 66578.90 19346.00
7135 0.0000 47677.00 66577.70 19333.00
7136 0.0000 72848.00 66577.20 19311.00
7137 0.0000 84560.00 66577.40 19301.00
7138 0.0000 78868.00 66578.10 19289.00
7139 0.0000 52844.00 66579.40 19251.00
7140 0.0000 37969.00 66581.20 19242.00
7141 0.0000 47181.00 66583.50 19213.00
7142 0.0000 63861.00 66586.20 19201.00
7143 0.0000 76146.00 66589.40 19187.00
7144 0.0000 70257.00 66592.90 19157.00
7145 0.0000 83017.00 66596.90 19144.00
7146 0.0000 87616.00 66601.20 19117.00
7147 0.0000 81958.00 66605.80 19103.00
7148 0.0000 65613.00 66610.80 19091.00
7149 0.0000 71187.00 66616.10 19064.00
7150 0.0000 42278.00 66621.70 19055.00
7151 0.0000 40547.00 66627.50 19021.00
7152 0.0000 46163.00 66633.70 19015.00
7153 0.0000 68025.00 66640.10 19009.00
7154 0.0000 81014.00 66646.70 18995.00
7155 0.0000 81904.00 66653.60 18989.00
7156 0.0000 76038.00 66660.80 18967.00
7157 0.0000 73570.00 66668.10 18962.00
7158 0.0000 77490.00 66675.70 18956.00
7159 0.0000 79688.00 66683.50 18930.00
7160 0.0000 71568.00 66691.50 18925.00
7161 0.0000 49191.00 66699.60 18896.00
7162 0.0000 44459.00 66708.00 18895.00
7163 0.0000 45615.00 66716.60 18889.00
7164 0.0000 65067.00 66725.40 18872.00
7165 0.0000 49612.00 66734.30 18873.00
7166 0.0000 59579.00 66743.40 18860.00
7167 0.0000 63557.00 66752.70 18857.00
7168 0.0000 77113.00 66762.10 18858.00
7169 0.0000 69699.00 66771.80 18853.00
7170 0.0000 65705.00 66781.50 18848.00
7171 0.0000 85593.00 66791.50 18835.00
7172 0.0000 95909.00 66801.60 18837.00
7173 0.0000 85002.00 66811.80 18836.00
7174 0.0000 55423.00 66822.20 18827.00
7175 0.0000 44147.00 66832.70 18827.00
7176 0.0000 53803.00 66843.40 18810.00
7177 0.0000 71020.00 66854.20 18806.00
7178 0.0000 61483.00 66865.20 18801.00
7179 0.0000 72722.00 66876.30 18795.00
7180 0.0000 53062.00 66887.50 18793.00
7181 0.0000 39721.00 66898.90 18780.00
7182 0.0000 59670.00 66910.40 18780.00
7183 0.0000 75849.00 66922.10 18774.00
7184 0.0000 66858.00 66933.90 18752.00
7185 0.0000 62879.00 66945.80 18750.00
7186 0.0000 66003.00 66957.80 18736.00
7187 0.0000 59795.00 66969.90 18733.00
7188 0.0000 67470.00 66982.20 18729.00
7189 0.0000 77473.00 66994.60 18717.00
7190 0.0000 71927.00 67007.10 18711.00
7191 0.0000 61729.00 67019.80 18707.00
7192 0.0000 70409.00 67032.50 18702.00
7193 0.0000 57834.00 67045.40 18696.00
7194 0.0000 76770.00 67058.40 18678.00
7195 0.0000 83987.00 67071.60 18674.00
7196 0.0000 85271.00 67084.80 18664.00
7197 0.0000 89120.00 67098.20 18663.00
7198 0.0000 72737.00 67111.60 18657.00
7199 0.0000 76634.00 67125.20 18648.00
7200 0.0000 45224.00 67138.90 18647.00
7201 0.0000 47687.00 67152.70 18635.00
7202 0.0000 29558.00 67166.70 18638.00
7203 0.0000 63512.00 67180.70 18637.00
7204 0.0000 73077.00 67194.80 18641.00
7205 0.0000 52883.00 67209.10 18649.00
7206 0.0000 68220.00 67223.50 18647.00
7207 0.0000 77327.00 67238.00 18653.00
7208 0.0000 66070.00 67252.50 18657.00
7209 0.0000 50789.00 67267.20 18665.00
7210 0.0000 44616.00 67282.00 18670.00
7211 0.0000 69410.00 67297.00 18673.00
7212 0.0000 71323.00 67312.00 18682.00
7213 0.0000 77735.00 67327.10 18683.00
7214 0.0000 71707.00 67342.30 18685.00
7215 0.0000 110935.00 67357.70 18690.00
7216 0.0000 95046.00 67373.10 18686.00
7217 0.0000 96162.00 67388.60 18696.00
7218 0.0000 77659.00 67404.30 18706.00
7219 0.0000 80448.00 67420.10 18708.00
7220 0.0000 79061.00 67435.90 18708.00
7221 0.0000 89928.00 67451.90 18711.00
7222 0.0000 83882.00 67467.90 18720.00
7223 0.0000 58724.00 67484.10 18727.00
7224 0.0000 28138.00 67500.40 18742.00
7225 0.0000 46952.00 67516.70 18752.00
7226 0.0000 63427.00 67533.20 18755.00
7227 0.0000 65112.00 67549.70 18767.00
7228 0.0000 71047.00 67566.40 18770.00
7229 0.0000 51968.00 67583.20 18780.00
7230 0.0000 60464.00 67600.10 18790.00
7231 0.0000 57413.00 67617.00 18798.00
7232 0.0000 67421.00 67634.10 18800.00
7233 0.0000 84169.00 67651.30 18799.00
7234 0.0000 84613.00 67668.50 18803.00
7235 0.0000 86124.00 67667.20 18806.00
7236 0.0000 59996.00 67684.90 18812.00
7237 0.0000 59748.00 67702.70 18818.00
7238 0.0000 64402.00 67720.60 18827.00
7239 0.0000 88541.00 67738.60 18834.00
7240 0.0000 86315.00 67756.70 18844.00
7241 0.0000 66631.00 67774.90 18853.00
7242 0.0000 69840.00 67793.10 18855.00
7243 0.0000 62785.00 67811.50 18858.00
7244 0.0000 72128.00 67829.90 18858.00
7245 0.0000 85809.00 67848.50 18859.00
7246 0.0000 112502.00 67867.10 18859.00
7247 0.0000 114609.00 67885.80 18862.00
7248 0.0000 89429.00 67904.60 18862.00
7249 0.0000 62772.00 67923.50 18866.00
7250 0.0000 68280.00 67942.50 18870.00
7251 0.0000 46576.00 67961.60 18875.00
7252 0.0000 54960.00 67980.80 18881.00
7253 0.0000 59006.00 68000.00 18887.00
7254 0.0000 68961.00 68019.40 18894.00
7255 0.0000 44739.00 68038.80 18896.00
7256 0.0000 48442.00 68058.30 18898.00
7257 0.0000 47017.00 68077.90 18903.00
7258 0.0000 48084.00 68097.60 18902.00
7259 0.0000 95371.00 68117.40 18904.00
7260 0.0000 83247.00 68137.20 18913.00
7261 0.0000 73364.00 68157.20 18922.00
7262 0.0000 73954.00 68180.40 18933.00
7263 0.0000 76944.00 68200.60 18940.00
7264 0.0000 76360.00 68220.90 18948.00
7265 0.0000 61256.00 68241.20 18951.00
7266 0.0000 76367.00 68261.60 18952.00
7267 0.0000 61197.00 68282.10 18959.00
7268 0.0000 43307.00 68302.70 18973.00
7269 0.0000 33950.00 68323.40 18974.00
7270 0.0000 60543.00 68344.20 18977.00
7271 0.0000 70234.00 68365.00 18982.00
7272 0.0000 93775.00 68386.00 18987.00
7273 0.0000 93295.00 68407.00 18997.00
7274 0.0000 92717.00 68428.10 19003.00
7275 0.0000 98009.00 68449.30 19012.00
7276 0.0000 95804.00 68470.60 19025.00
7277 0.0000 106587.00 68491.90 19031.00
7278 0.0000 107103.00 68513.40 19039.00
7279 0.0000 91844.00 68534.90 19052.00
7280 0.0000 85128.00 68556.50 19067.00
7281 0.0000 70236.00 68578.20 19073.00
7282 0.0000 53398.00 68600.00 19078.00
7283 0.0000 52548.00 68621.80 19080.00
7284 0.0000 44560.00 68643.80 19082.00
7285 0.0000 61211.00 68665.80 19088.00
7286 0.0000 79316.00 68687.90 19088.00
7287 0.0000 76987.00 68710.10 19092.00
7288 0.0000 70684.00 68732.30 19097.00
7289 0.0000 64028.00 68754.70 19102.00
7290 0.0000 63180.00 68777.10 19105.00
7291 0.0000 76006.00 68799.60 19112.00
7292 0.0000 121389.00 68822.20 19118.00
7293 0.0000 93390.00 68844.80 19129.00
7294 0.0000 92010.00 68867.50 19134.00
7295 0.0000 87687.00 68890.40 19148.00
7296 0.0000 51632.00 68913.30 19149.00
7297 0.0000 68293.00 68936.20 19152.00
7298 0.0000 71338.00 68959.30 19158.00
7299 0.0000 72689.00 68982.40 19163.00
7300 0.0000 54590.00 69005.60 19177.00
7301 0.0000 43526.00 69028.90 19186.00
7302 0.0000 38507.00 69052.20 19187.00
7303 0.0000 49158.00 69075.70 19188.00
7304 0.0000 24148.00 69099.20 19190.00
7305 0.0000 45328.00 69122.80 19196.00
7306 0.0000 77563.00 69146.40 19197.00
7307 0.0000 85245.00 69170.10 19203.00
7308 0.0000 55431.00 69194.00 19212.00
7309 0.0000 51857.00 69217.90 19219.00
7310 0.0000 55265.00 69241.80 19220.00
7311 0.0000 63454.00 69265.80 19225.00
7312 0.0000 63199.00 69289.90 19235.00
7313 0.0000 63347.00 69314.10 19244.00
7314 0.0000 58510.00 69338.40 19245.00
7315 0.0000 70243.00 69362.70 19248.00
7316 0.0000 97915.00 69387.10 19252.00
7317 0.0000 87793.00 69411.50 19259.00
7318 0.0000 87752.00 69436.10 19267.00
7319 0.0000 60652.00 69460.70 19269.00
7320 0.0000 68022.00 69485.40 19276.00
7321 0.0000 54173.00 69510.20 19283.00
7322 0.0000 57755.00 69535.00 19292.00
7323 0.0000 42268.00 69559.90 19299.00
7324 0.0000 79761.00 69584.80 19305.00
7325 0.0000 83259.00 69609.90 19312.00
7326 0.0000 72728.00 69635.00 19317.00
7327 0.0000 96857.00 69660.20 19324.00
7328 0.0000 73745.00 69685.40 19334.00
7329 0.0000 73696.00 69710.70 19340.00
7330 0.0000 79131.00 69736.10 19347.00
7331 0.0000 71821.00 69761.60 19349.00
7332 0.0000 70450.00 69787.10 19363.00
7333 0.0000 67907.00 69812.70 19373.00
7334 0.0000 45965.00 69838.40 19386.00
7335 0.0000 53845.00 69864.20 19396.00
7336 0.0000 54089.00 69890.00 19399.00
7337 0.0000 39592.00 69915.90 19410.00
7338 0.0000 54885.00 69941.80 19420.00
7339 0.0000 55437.00 69967.90 19425.00
7340 0.0000 86756.00 69994.00 19432.00
7341 0.0000 89732.00 70020.10 19438.00
7342 0.0000 117937.00 70046.40 19447.00
7343 0.0000 133119.00 70072.70 19457.00
7344 0.0000 123422.00 70099.10 19478.00
7345 0.0000 108947.00 70125.50 19486.00
7346 0.0000 90712.00 70152.10 19489.00
7347 0.0000 87593.00 70178.70 19505.00
7348 0.0000 87141.00 70205.40 19517.00
7349 0.0000 82733.00 70232.20 19527.00
7350 0.0000 84436.00 70259.00 19539.00
7351 0.0000 88351.00 70285.90 19545.00
7352 0.0000 74882.00 70312.90 19554.00
7353 0.0000 51568.00 70340.00 19564.00
7354 0.0000 36419.00 70367.20 19570.00
7355 0.0000 25379.00 70394.50 19578.00
7356 0.0000 71232.00 70421.80 19581.00
7357 0.0000 95418.00 70449.20 19589.00
7358 0.0000 76651.00 70476.80 19596.00
7359 0.0000 57708.00 70504.40 19592.00
7360 0.0000 50264.00 70532.20 19598.00
7361 0.0000 68393.00 70560.00 19606.00
7362 0.0000 85508.00 70587.90 19612.00
7363 0.0000 88673.00 70616.00 19622.00
7364 0.0000 99193.00 70644.20 19630.00
7365 0.0000 111177.00 70672.50 19644.00
7366 0.0000 131261.00 70700.90 19652.00
7367 0.0000 121498.00 70729.50 19662.00
7368 0.0000 116859.00 70758.30 19672.00
7369 0.0000 99855.00 70787.20 19679.00
7370 0.0000 77582.00 70816.30 19693.00
7371 0.0000 45614.00 70845.60 19708.00
7372 0.0000 53715.00 70875.10 19718.00
7373 0.0000 88211.00 70904.90 19723.00
7374 0.0000 85930.00 70935.00 19731.00
7375 0.0000 78957.00 70965.60 19736.00
7376 0.0000 52640.00 70996.80 19748.00
7377 0.0000 44287.00 71028.80 19757.00
7378 0.0000 46831.00 71062.00 19763.00
7379 0.0000 46767.00 71096.80 19772.00
7380 0.0000 58349.00 71134.00 19780.00
7381 0.0000 51550.00 71174.60 19794.00
7382 0.0000 69160.00 71220.10 19799.00
7383 0.0000 88464.00 71272.40 19807.00
7384 0.0000 91668.00 71334.40 19820.00
7385 0.0000 82410.00 71409.50 19836.00
7386 0.0000 108254.00 71502.40 19837.00
7387 0.0000 92546.00 71618.70 19849.00
7388 0.0000 82276.00 71765.40 19859.00
7389 0.0000 91787.00 71951.00 19877.00
7390 0.0000 64429.00 72184.50 19889.00
7391 0.0000 62743.00 72476.70 19893.00
7392 0.0000 38803.00 72837.90 19906.00
7393 0.0000 49522.00 73279.50 19917.00
7394 0.0000 94541.00 73810.90 19927.00
7395 0.0000 112736.00 74439.20 19935.00
7396 0.0000 131478.00 75170.50 19935.00
7397 0.0000 109406.00 76003.90 19946.00
7398 0.0000 78232.00 76936.10 19958.00
7399 0.0000 66091.00 77954.40 19961.00
7400 0.0000 68678.00 79043.10 19966.00
7401 0.0000 66721.00 80177.00 19967.00
7402 0.0000 91838.00 81324.00 19974.00
7403 0.0000 84018.00 82450.40 19981.00
7404 0.0000 85347.00 83514.00 19978.00
7405 0.0000 67299.00 84475.30 19981.00
7406 0.0000 58930.00 85292.00 19981.00
7407 0.0000 62158.00 85926.40 19980.00
7408 0.0000 55957.00 86349.00 19980.00
7409 0.0000 53993.00 86538.10 19972.00
7410 0.0000 60988.00 86485.30 19973.00
7411 0.0000 65334.00 86195.10 19965.00
7412 0.0000 75672.00 85683.90 19959.00
7413 0.0000 78590.00 84979.70 19956.00
7414 0.0000 84372.00 84118.80 19953.00
7415 0.0000 103739.00 83139.80 19955.00
7416 0.0000 79604.00 82086.20 19948.00
7417 0.0000 83906.00 80996.80 19950.00
7418 0.0000 106052.00 79911.30 19950.00
7419 0.0000 107870.00 78860.10 19954.00
7420 0.0000 87107.00 77871.10 19953.00
7421 0.0000 54215.00 76964.90 19954.00
7422 0.0000 66172.00 76153.00 19955.00
7423 0.0000 63513.00 75443.60 19951.00
7424 0.0000 71435.00 74836.60 19944.00
7425 0.0000 95160.00 74329.50 19943.00
7426 0.0000 95006.00 73914.60 19931.00
7427 0.0000 93681.00 73583.20 19923.00
7428 0.0000 90867.00 73324.90 19933.00
7429 0.0000 85017.00 73128.50 19925.00
7430 0.0000 77458.00 72983.60 19929.00
7431 0.0000 74210.00 72880.40 19931.00
7432 0.0000 92395.00 72810.20 19924.00
7433 0.0000 68506.00 72765.60 19927.00
7434 0.0000 57883.00 72740.50 19931.00
7435 0.0000 81964.00 72730.00 19940.00
7436 0.0000 91962.00 72730.00 19936.00
7437 0.0000 85932.00 72737.70 19944.00
7438 0.0000 66256.00 72750.90 19953.00
7439 0.0000 56945.00 72767.80 19947.00
7440 0.0000 60847.00 72787.40 19948.00
7441 0.0000 56078.00 72808.70 19953.00
7442 0.0000 56020.00 72831.30 19956.00
7443 0.0000 35922.00 72854.80 19960.00
7444 0.0000 38162.00 72878.90 19954.00
7445 0.0000 65336.00 72903.40 19951.00
7446 0.0000 73755.00 72928.20 19945.00
7447 0.0000 86794.00 72953.20 19944.00
7448 0.0000 93080.00 72978.40 19949.00
7449 0.0000 86645.00 73003.70 19942.00
7450 0.0000 71935.00 73029.20 19945.00
7451 0.0000 81608.00 73054.80 19947.00
7452 0.0000 53497.00 73080.40 19954.00
7453 0.0000 63009.00 73106.10 19956.00
7454 0.0000 67580.00 73131.90 19959.00
7455 0.0000 90463.00 73157.70 19963.00
7456 0.0000 76952.00 73183.50 19961.00
7457 0.0000 34580.00 73209.40 19970.00
7458 0.0000 46103.00 73235.30 19972.00
7459 0.0000 53591.00 73261.20 19971.00
7460 0.0000 54931.00 73287.10 19976.00
7461 0.0000 78002.00 73313.00 19990.00
7462 0.0000 87148.00 73339.00 20000.00
7463 0.0000 66972.00 73364.90 20004.00
7464 0.0000 85382.00 73390.80 19994.00
7465 0.0000 83819.00 73416.70 20007.00
7466 0.0000 73418.00 73442.60 20002.00
7467 0.0000 61921.00 73468.40 20002.00
7468 0.0000 51442.00 73494.30 20005.00
7469 0.0000 69731.00 73520.10 20000.00
7470 0.0000 65331.00 73545.90 20002.00
7471 0.0000 73590.00 73571.60 20001.00
7472 0.0000 85607.00 73597.30 20007.00
7473 0.0000 60756.00 73623.00 20010.00
7474 0.0000 78711.00 73648.60 20009.00
7475 0.0000 70929.00 73674.20 20010.00
7476 0.0000 61069.00 73699.70 20004.00
7477 0.0000 73765.00 73725.20 20000.00
7478 0.0000 67931.00 73750.60 20011.00
7479 0.0000 40861.00 73776.00 20018.00
7480 0.0000 50891.00 73801.30 20031.00
7481 0.0000 50661.00 73826.50 20024.00
7482 0.0000 39221.00 73851.70 20032.00
7483 0.0000 90684.00 73876.80 20046.00
7484 0.0000 102740.00 73901.90 20051.00
7485 0.0000 113223.00 73926.90 20066.00
7486 0.0000 136162.00 73951.80 20069.00
7487 0.0000 105272.00 73976.60 20078.00
7488 0.0000 102607.00 74001.40 20089.00
7489 0.0000 116363.00 74026.10 20089.00
7490 0.0000 102655.00 74050.70 20102.00
7491 0.0000 87608.00 74075.30 20107.00
7492 0.0000 74464.00 74099.70 20118.00
7493 0.0000 53533.00 74124.10 20127.00
7494 0.0000 54899.00 74148.40 20130.00
7495 0.0000 55164.00 74172.60 20139.00
7496 0.0000 80330.00 74196.70 20134.00
7497 0.0000 69287.00 74220.70 20136.00
7498 0.0000 83166.00 74244.60 20145.00
7499 0.0000 97841.00 74268.40 20162.00
7500 0.0000 72775.00 74292.20 20167.00
7501 0.0000 70505.00 74315.80 20170.00
7502 0.0000 48039.00 74339.30 20190.00
7503 0.0000 60236.00 74362.80 20203.00
7504 0.0000 52283.00 74386.10 20207.00
7505 0.0000 85854.00 74409.30 20222.00
7506 0.0000 87035.00 74432.40 20220.00
7507 0.0000 68336.00 74455.40 20230.00
7508 0.0000 79202.00 74478.30 20242.00
7509 0.0000 41010.00 74501.10 20248.00
7510 0.0000 47632.00 74523.70 20251.00
7511 0.0000 41869.00 74546.30 20259.00
7512 0.0000 46881.00 74568.70 20263.00
7513 0.0000 55477.00 74591.00 20262.00
7514 0.0000 39198.00 74613.20 20261.00
7515 0.0000 57477.00 74635.30 20267.00
7516 0.0000 81314.00 74657.20 20260.00
7517 0.0000 56065.00 74679.00 20270.00
7518 0.0000 46424.00 74700.70 20277.00
7519 0.0000 59472.00 74722.30 20275.00
7520 0.0000 55823.00 74743.70 20277.00
7521 0.0000 65577.00 74765.00 20275.00
7522 0.0000 76237.00 74786.10 20280.00
7523 0.0000 81967.00 74807.20 20275.00
7524 0.0000 80288.00 74828.00 20267.00
7525 0.0000 94624.00 74848.80 20274.00
7526 0.0000 94412.00 74869.40 20272.00
7527 0.0000 74285.00 74889.80 20277.00
7528 0.0000 61453.00 74910.10 20286.00
7529 0.0000 57168.00 74930.30 20281.00
7530 0.0000 76940.00 74950.30 20277.00
7531 0.0000 101015.00 74970.10 20275.00
7532 0.0000 81853.00 74989.80 20279.00
7533 0.0000 79882.00 75009.40 20278.00
7534 0.0000 74242.00 75028.70 20284.00
7535 0.0000 72493.00 75048.00 20285.00
7536 0.0000 72607.00 75067.00 20283.00
7537 0.0000 74473.00 75085.90 20286.00
7538 0.0000 98041.00 75104.60 20289.00
7539 0.0000 76907.00 75123.20 20286.00
7540 0.0000 63901.00 75141.60 20285.00
7541 0.0000 42622.00 75159.80 20285.00
7542 0.0000 40119.00 75177.90 20290.00
7543 0.0000 78845.00 75195.80 20293.00
7544 0.0000 71030.00 75213.50 20297.00
7545 0.0000 78173.00 75231.00 20300.00
7546 0.0000 101540.00 75248.30 20301.00
7547 0.0000 105807.00 75265.50 20304.00
7548 0.0000 70635.00 75282.50 20317.00
7549 0.0000 71430.00 75299.30 20318.00
7550 0.0000 69215.00 75315.90 20319.00
7551 0.0000 87737.00 75332.30 20315.00
7552 0.0000 101837.00 75348.50 20313.00
7553 0.0000 114409.00 75364.50 20314.00
7554 0.0000 103274.00 75380.40 20318.00
7555 0.0000 91906.00 75396.00 20318.00
7556 0.0000 89010.00 75411.40 20320.00
7557 0.0000 79114.00 75426.60 20313.00
7558 0.0000 78434.00 75438.70 20314.00
7559 0.0000 70295.00 75453.60 20319.00
7560 0.0000 68530.00 75468.20 20324.00
7561 0.0000 64542.00 75482.70 20314.00
7562 0.0000 95603.00 75496.90 20321.00
7563 0.0000 87917.00 75510.90 20318.00
7564 0.0000 93403.00 75524.70 20313.00
7565 0.0000 71895.00 75538.30 20315.00
7566 0.0000 67042.00 75551.60 20318.00
7567 0.0000 55841.00 75564.70 20324.00
7568 0.0000 65895.00 75577.60 20330.00
7569 0.0000 72185.00 75590.30 20321.00
7570 0.0000 59255.00 75602.80 20333.00
7571 0.0000 69497.00 75615.00 20330.00
7572 0.0000 70699.00 75626.90 20335.00
7573 0.0000 51622.00 75638.70 20337.00
7574 0.0000 90987.00 75650.20 20343.00
7575 0.0000 87840.00 75661.40 20345.00
7576 0.0000 88132.00 75672.50 20340.00
7577 0.0000 88940.00 75683.20 20340.00
7578 0.0000 66742.00 75693.80 20336.00
7579 0.0000 58477.00 75704.00 20343.00
7580 0.0000 79771.00 75714.00 20346.00
7581 0.0000 86838.00 75723.80 20347.00
7582 0.0000 98506.00 75733.30 20357.00
7583 0.0000 88058.00 75742.60 20367.00
7584 0.0000 76395.00 75751.60 20368.00
7585 0.0000 83071.00 75760.30 20378.00
7586 0.0000 85955.00 75768.80 20375.00
7587 0.0000 71683.00 75777.00 20377.00
7588 0.0000 77042.00 75784.90 20387.00
7589 0.0000 103157.00 75792.50 20388.00
7590 0.0000 70590.00 75799.90 20397.00
7591 0.0000 63262.00 75807.00 20400.00
7592 0.0000 47035.00 75813.80 20412.00
7593 0.0000 73190.00 75820.40 20415.00
7594 0.0000 97180.00 75826.60 20422.00
7595 0.0000 90604.00 75832.60 20426.00
7596 0.0000 76033.00 75838.20 20430.00
7597 0.0000 86405.00 75843.60 20437.00
7598 0.0000 91228.00 75848.70 20442.00
7599 0.0000 95652.00 75853.50 20449.00
7600 0.0000 100257.00 75858.00 20458.00
7601 0.0000 91449.00 75862.20 20474.00
7602 0.0000 94255.00 75866.10 20488.00
7603 0.0000 77169.00 75869.70 20497.00
7604 0.0000 36140.00 75873.00 20502.00
7605 0.0000 43809.00 75875.90 20516.00
7606 0.0000 69665.00 75878.60 20514.00
7607 0.0000 39822.00 75880.90 20526.00
7608 0.0000 49840.00 75882.90 20532.00
7609 0.0000 63890.00 75884.60 20537.00
7610 0.0000 83203.00 75886.00 20538.00
7611 0.0000 73926.00 75887.00 20541.00
7612 0.0000 90744.00 75887.70 20545.00
7613 0.0000 103777.00 75888.10 20547.00
7614 0.0000 125175.00 75888.10 20548.00
7615 0.0000 108303.00 75887.90 20549.00
7616 0.0000 85102.00 75887.20 20545.00
7617 0.0000 65277.00 75886.30 20549.00
7618 0.0000 69840.00 75884.90 20553.00
7619 0.0000 66503.00 75883.30 20556.00
7620 0.0000 95315.00 75881.30 20556.00
7621 0.0000 77925.00 75878.90 20564.00
7622 0.0000 88361.00 75876.20 20556.00
7623 0.0000 102265.00 75873.10 20554.00
7624 0.0000 105153.00 75869.60 20562.00
7625 0.0000 92434.00 75865.80 20564.00
7626 0.0000 90801.00 75861.70 20564.00
7627 0.0000 77183.00 75857.10 20567.00
7628 0.0000 60848.00 75852.20 20572.00
7629 0.0000 58314.00 75846.90 20575.00
7630 0.0000 80313.00 75841.30 20580.00
7631 0.0000 75256.00 75835.20 20585.00
7632 0.0000 84979.00 75828.80 20593.00
7633 0.0000 101140.00 75822.00 20605.00
7634 0.0000 67835.00 75814.80 20606.00
7635 0.0000 48829.00 75807.20 20618.00
7636 0.0000 49641.00 75799.20 20630.00
7637 0.0000 46732.00 75790.80 20636.00
7638 0.0000 79007.00 75782.00 20643.00
7639 0.0000 82268.00 75772.80 20652.00
7640 0.0000 32176.00 75763.20 20667.00
7641 0.0000 40150.00 75753.20 20676.00
7642 0.0000 27854.00 75742.80 20694.00
7643 0.0000 42601.00 75732.00 20700.00
7644 0.0000 54459.00 75720.70 20708.00
7645 0.0000 65026.00 75709.00 20721.00
7646 0.0000 62109.00 75697.00 20729.00
7647 0.0000 53833.00 75684.40 20736.00
7648 0.0000 49715.00 75671.50 20742.00
7649 0.0000 66802.00 75658.10 20741.00
7650 0.0000 56072.00 75644.30 20754.00
7651 0.0000 37641.00 75630.00 20755.00
7652 0.0000 70377.00 75615.30 20751.00
7653 0.0000 90486.00 75600.20 20759.00
7654 0.0000 96103.00 75584.60 20767.00
7655 0.0000 68527.00 75568.50 20773.00
7656 0.0000 86024.00 75552.00 20770.00
7657 0.0000 83817.00 75535.10 20764.00
7658 0.0000 95052.00 75517.70 20765.00
7659 0.0000 58367.00 75499.80 20747.00
7660 0.0000 78446.00 75481.50 20748.00
7661 0.0000 63803.00 75462.60 20736.00
7662 0.0000 52801.00 75443.40 20728.00
7663 0.0000 15786.00 75423.60 20730.00
7664 0.0000 21639.00 75403.30 20728.00
7665 0.0000 20198.00 75382.60 20730.00
7666 0.0000 32693.00 75361.40 20725.00
7667 0.0000 64336.00 75339.70 20723.00
7668 0.0000 54522.00 75340.50 20723.00
7669 0.0000 70798.00 75318.10 20723.00
7670 0.0000 61939.00 75295.30 20722.00
7671 0.0000 79539.00 75271.90 20718.00
7672 0.0000 56007.00 75248.00 20707.00
7673 0.0000 45763.00 75223.60 20703.00
7674 0.0000 52527.00 75198.70 20702.00
7675 0.0000 48808.00 75173.30 20707.00
7676 0.0000 51739.00 75147.40 20715.00
7677 0.0000 54792.00 75121.00 20714.00
7678 0.0000 66662.00 75094.00 20713.00
7679 0.0000 72300.00 75066.60 20708.00
7680 0.0000 65219.00 75038.60 20707.00
7681 0.0000 68579.00 75010.10 20718.00
7682 0.0000 81493.00 74981.00 20721.00
7683 0.0000 57941.00 74951.40 20734.00
7684 0.0000 48193.00 74921.30 20731.00
7685 0.0000 55220.00 74890.60 20749.00
7686 0.0000 58281.00 74859.40 20745.00
7687 0.0000 40685.00 74827.70 20751.00
7688 0.0000 47719.00 74795.40 20764.00
7689 0.0000 52471.00 74762.50 20765.00
7690 0.0000 56564.00 74729.10 20776.00
7691 0.0000 64889.00 74695.10 20779.00
7692 0.0000 56489.00 74660.60 20797.00
7693 0.0000 76549.00 74625.40 20804.00
7694 0.0000 101711.00 74589.80 20809.00
7695 0.0000 112077.00 74553.50 20819.00
7696 0.0000 104170.00 74516.70 20830.00
7697 0.0000 67962.00 74479.30 20836.00
7698 0.0000 37709.00 74441.30 20847.00
7699 0.0000 24826.00 74402.70 20858.00
7700 0.0000 64376.00 74363.50 20863.00
7701 0.0000 71116.00 74323.80 20883.00
7702 0.0000 97319.00 74283.40 20894.00
7703 0.0000 79635.00 74242.40 20906.00
7704 0.0000 75989.00 74200.90 20916.00
7705 0.0000 79404.00 74158.70 20927.00
7706 0.0000 55638.00 74115.90 20943.00
7707 0.0000 61789.00 74072.50 20950.00
7708 0.0000 55743.00 74028.50 20969.00
7709 0.0000 67947.00 73983.90 20981.00
7710 0.0000 85114.00 73938.60 21000.00
7711 0.0000 111470.00 73892.80 21002.00
7712 0.0000 96630.00 73846.20 21013.00
7713 0.0000 72288.00 73799.10 21027.00
7714 0.0000 67146.00 73751.30 21025.00
7715 0.0000 70759.00 73702.90 21031.00
7716 0.0000 58258.00 73653.90 21040.00
7717 0.0000 71986.00 73604.10 21047.00
7718 0.0000 91671.00 73553.80 21058.00
7719 0.0000 86831.00 73502.80 21061.00
7720 0.0000 85609.00 73451.20 21067.00
7721 0.0000 103596.00 73398.90 21065.00
7722 0.0000 116251.00 73345.90 21075.00
7723 0.0000 106132.00 73292.30 21081.00
7724 0.0000 98527.00 73238.00 21092.00
7725 0.0000 79303.00 73183.00 21101.00
7726 0.0000 76110.00 73127.40 21125.00
7727 0.0000 88719.00 73071.10 21136.00
7728 0.0000 54705.00 73014.10 21153.00
7729 0.0000 48665.00 72956.50 21172.00
7730 0.0000 70333.00 72898.10 21185.00
7731 0.0000 82289.00 72839.10 21205.00
7732 0.0000 90314.00 72779.40 21218.00
7733 0.0000 78356.00 72719.00 21239.00
7734 0.0000 68914.00 72658.00 21263.00
7735 0.0000 71509.00 72596.20 21287.00
7736 0.0000 81345.00 72533.70 21311.00
7737 0.0000 79559.00 72470.60 21335.00
7738 0.0000 60981.00 72406.70 21365.00
7739 0.0000 55827.00 72342.20 21397.00
7740 0.0000 64256.00 72276.90 21419.00
7741 0.0000 64748.00 72211.00 21450.00
7742 0.0000 61079.00 72144.30 21472.00
7743 0.0000 67602.00 72076.90 21497.00
7744 0.0000 37675.00 72008.90 21526.00
7745 0.0000 74135.00 71940.10 21546.00
7746 0.0000 76256.00 71870.70 21576.00
7747 0.0000 83303.00 71800.50 21592.00
7748 0.0000 71898.00 71729.60 21623.00
7749 0.0000 64036.00 71658.00 21657.00
7750 0.0000 31994.00 71585.70 21682.00
7751 0.0000 32654.00 71512.80 21730.00
7752 0.0000 50139.00 71439.10 21761.00
7753 0.0000 76725.00 71364.80 21779.00
7754 0.0000 74350.00 71289.60 21809.00
7755 0.0000 94534.00 71213.90 21824.00
7756 0.0000 81757.00 71137.50 21872.00
7757 0.0000 71535.00 71060.30 21896.00
7758 0.0000 69024.00 70982.60 21926.00
7759 0.0000 56204.00 70904.00 21959.00
7760 0.0000 36327.00 70824.90 21987.00
7761 0.0000 53799.00 70745.10 22011.00
7762 0.0000 70092.00 70664.60 22033.00
7763 0.0000 70407.00 70583.60 22057.00
7764 0.0000 62532.00 70501.80 22097.00
7765 0.0000 57360.00 70419.50 22119.00
7766 0.0000 56913.00 70336.60 22163.00
7767 0.0000 60756.00 70253.10 22182.00
7768 0.0000 43081.00 70168.90 22218.00
7769 0.0000 45722.00 70084.20 22256.00
7770 0.0000 53102.00 69999.00 22278.00
7771 0.0000 90817.00 69913.30 22313.00
7772 0.0000 89434.00 69827.10 22339.00
7773 0.0000 69777.00 69740.40 22361.00
7774 0.0000 45997.00 69653.40 22401.00
7775 0.0000 27394.00 69565.80 22427.00
7776 0.0000 48835.00 69477.90 22462.00
7777 0.0000 45289.00 69389.80 22479.00
7778 0.0000 46425.00 69301.40 22497.00
7779 0.0000 16422.00 69212.80 22535.00
7780 0.0000 53319.00 69124.00 22561.00
7781 0.0000 43693.00 69035.30 22592.00
7782 0.0000 55402.00 68946.70 22610.00
7783 0.0000 51788.00 68858.40 22637.00
7784 0.0000 47665.00 68770.70 22672.00
7785 0.0000 47214.00 68684.00 22701.00
7786 0.0000 19307.00 68598.90 22743.00
7787 0.0000 58042.00 68516.10 22764.00
7788 0.0000 68317.00 68437.00 22788.00
7789 0.0000 55302.00 68363.50 22829.00
7790 0.0000 67363.00 68298.30 22855.00
7791 0.0000 72827.00 68245.50 22908.00
7792 0.0000 77915.00 68210.80 22939.00
7793 0.0000 61697.00 68201.90 22971.00
7794 0.0000 88873.00 68230.00 23017.00
7795 0.0000 90157.00 68309.80 23050.00
7796 0.0000 96986.00 68460.70 23086.00
7797 0.0000 122949.00 68708.20 23121.00
7798 0.0000 96886.00 69083.80 23143.00
7799 0.0000 97473.00 69627.60 23185.00
7800 0.0000 110702.00 70386.20 23216.00
7801 0.0000 120175.00 71416.40 23258.00
7802 0.0000 91121.00 72780.50 23277.00
7803 0.0000 92666.00 74545.50 23299.00
7804 0.0000 106303.00 76786.60 23330.00
7805 0.0000 90513.00 79570.90 23353.00
7806 0.0000 78101.00 82969.60 23379.00
7807 0.0000 93291.00 87030.50 23403.00
7808 0.0000 110807.00 91797.60 23433.00
7809 0.0000 109740.00 97278.50 23471.00
7810 0.0000 133896.00 103446.00 23496.00
7811 0.0000 109335.00 110253.00 23525.00
7812 0.0000 126190.00 117586.00 23537.00
7813 0.0000 111432.00 125316.00 23557.00
7814 0.0000 115117.00 133250.00 23580.00
7815 0.0000 129805.00 141158.00 23598.00
7816 0.0000 142572.00 148801.00 23614.00
7817 0.0000 167711.00 155893.00 23624.00
7818 0.0000 156732.00 162172.00 23640.00
7819 0.0000 164558.00 167361.00 23649.00
7820 0.0000 167620.00 171232.00 23658.00
7821 0.0000 181840.00 173593.00 23664.00
7822 0.0000 161626.00 174320.00 23669.00
7823 0.0000 110297.00 173372.00 23684.00
7824 0.0000 120380.00 170790.00 23699.00
7825 0.0000 150550.00 166688.00 23703.00
7826 0.0000 132231.00 161260.00 23706.00
7827 0.0000 128630.00 154729.00 23709.00
7828 0.0000 115722.00 147365.00 23714.00
7829 0.0000 119483.00 139453.00 23708.00
7830 0.0000 122792.00 131250.00 23710.00
7831 0.0000 90922.00 123024.00 23719.00
7832 0.0000 91510.00 114986.00 23717.00
7833 0.0000 98892.00 107338.00 23719.00
7834 0.0000 108349.00 100210.00 23713.00
7835 0.0000 89068.00 93713.20 23708.00
7836 0.0000 108955.00 87912.20 23702.00
7837 0.0000 98926.00 82818.80 23702.00
7838 0.0000 82670.00 78432.80 23704.00
7839 0.0000 81053.00 74710.70 23696.00
7840 0.0000 97976.00 71603.10 23692.00
7841 0.0000 85856.00 69046.60 23676.00
7842 0.0000 79115.00 66965.10 23675.00
7843 0.0000 54659.00 65290.60 23668.00
7844 0.0000 72760.00 63950.90 23644.00
7845 0.0000 66919.00 62885.60 23637.00
7846 0.0000 82504.00 62036.70 23611.00
7847 0.0000 92970.00 61357.40 23606.00
7848 0.0000 87262.00 60808.30 23593.00
7849 0.0000 88898.00 60356.10 23573.00
7850 0.0000 78106.00 59976.30 23566.00
7851 0.0000 87490.00 59648.10 23541.00
7852 0.0000 53677.00 59357.40 23536.00
7853 0.0000 50664.00 59092.40 23537.00
7854 0.0000 20100.00 58845.40 23520.00
7855 0.0000 3.00 58610.80 23532.00
7856 0.0000 3479.00 58384.00 23514.00
7857 0.0000 43144.00 58162.80 23510.00
7858 0.0000 24529.00 57944.70 23511.00
7859 0.0000 39045.00 57728.90 23479.00
7860 0.0000 55352.00 57514.00 23469.00
7861 0.0000 61772.00 57299.60 23434.00
7862 0.0000 63541.00 57085.60 23420.00
7863 0.0000 49820.00 56871.30 23405.00
7864 0.0000 68658.00 56656.80 23360.00
7865 0.0000 50663.00 56441.60 23341.00
7866 0.0000 65242.00 56226.00 23301.00
7867 0.0000 46056.00 56009.50 23275.00
7868 0.0000 31463.00 55792.20 23251.00
7869 0.0000 33823.00 55574.30 23204.00
7870 0.0000 49001.00 55355.30 23185.00
7871 0.0000 68722.00 55135.50 23140.00
7872 0.0000 74181.00 54914.50 23122.00
7873 0.0000 70959.00 54692.40 23104.00
7874 0.0000 61415.00 54469.60 23061.00
7875 0.0000 70564.00 54245.30 23046.00
7876 0.0000 87234.00 54020.10 23012.00
7877 0.0000 125414.00 53793.50 22992.00
7878 0.0000 95566.00 53565.90 22992.00
7879 0.0000 86539.00 53336.80 22947.00
7880 0.0000 49499.00 53106.50 22941.00
7881 0.0000 85567.00 52875.10 22911.00
7882 0.0000 87295.00 52642.10 22902.00
7883 0.0000 61505.00 52408.00 22895.00
7884 0.0000 62958.00 52172.40 22848.00
7885 0.0000 69906.00 51935.60 22833.00
7886 0.0000 59310.00 51697.10 22777.00
7887 0.0000 63414.00 51457.20 22758.00
7888 0.0000 47173.00 51216.10 22742.00
7889 0.0000 24887.00 50973.40 22697.00
7890 0.0000 30639.00 50729.30 22686.00
7891 0.0000 28630.00 50483.60 22657.00
7892 0.0000 29871.00 50236.60 22647.00
7893 0.0000 7660.00 49987.80 22640.00
7894 0.0000 40792.00 49737.60 22610.00
7895 0.0000 52613.00 49486.00 22604.00
7896 0.0000 61720.00 49232.60 22569.00
7897 0.0000 35002.00 48977.90 22561.00
7898 0.0000 74240.00 48721.30 22561.00
7899 0.0000 83051.00 48463.40 22544.00
7900 0.0000 80124.00 48203.60 22538.00
7901 0.0000 97379.00 47942.30 22516.00
7902 0.0000 79474.00 47679.50 22511.00
7903 0.0000 76537.00 47414.80 22511.00
7904 0.0000 57909.00 47148.80 22494.00
7905 0.0000 50183.00 46880.80 22500.00
7906 0.0000 77226.00 46611.10 22484.00
7907 0.0000 83280.00 46340.00 22490.00
7908 0.0000 115438.00 46067.00 22499.00
7909 0.0000 106791.00 45792.50 22475.00
7910 0.0000 68358.00 45516.10 22468.00
loop_
_refln_index_h
_refln_index_k
_refln_index_l
_refln_F_squared_calc
_refln_F_squared_meas
_refln_observed_status
_refln_d_spacing
2 1 0 750.44 606.19 o 3.594478
0 2 1 106.19 57.35 < 3.435107
2 0 1 677.31 511.58 o 3.312460
1 2 1 2788.70 2610.49 o 3.153693
2 1 1 2453.84 2372.86 o 3.081097
0 0 2 3240.89 3280.21 o 2.991210
2 2 0 2705.91 2790.51 o 2.886735
1 1 2 1487.15 1488.01 o 2.655919
1 3 0 782.58 954.00 o 2.638808
2 2 1 77.85 102.12 < 2.599880
3 1 0 16.61 17.97 < 2.528662
0 2 2 76.97 71.96 < 2.435623
1 3 1 52.70 36.16 < 2.414366
2 0 2 2220.20 2203.95 o 2.390719
3 1 1 6.13 5.94 o 2.329144
1 2 2 2404.43 2328.53 o 2.328928
2 1 2 3287.84 3194.72 o 2.299228
2 3 0 4469.31 4887.35 o 2.288100
3 2 0 426.32 360.46 o 2.241696
2 3 1 0.50 6.33 < 2.137120
3 2 1 202.38 206.33 o 2.099163
0 4 0 2.93 3.00 o 2.097865
2 2 2 43.76 27.66 < 2.077183
1 4 0 3647.50 3741.41 o 2.028526
0 0 3 350.44 371.14 o 1.994140
4 0 0 7899.42 7806.63 o 1.988948
0 4 1 47.01 52.24 o 1.979673
1 3 2 505.28 561.75 o 1.978841
4 1 0 77.56 77.51 o 1.935328
3 1 2 638.88 557.12 o 1.931097
3 3 0 642.71 675.96 o 1.924490
1 4 1 3445.79 3716.10 o 1.921090
4 0 1 77.68 67.94 o 1.887372
1 1 3 249.47 225.14 o 1.884875
2 4 0 2405.66 2589.95 o 1.855624
4 1 1 2200.20 2293.56 o 1.841372
3 3 1 39.52 132.71 < 1.832030
2 3 2 98.85 82.87 < 1.817364
0 2 3 5.21 5.67 o 1.801067
4 2 0 5040.85 5474.31 o 1.797239
3 2 2 2283.93 2468.70 o 1.793849
2 0 3 413.88 368.77 o 1.782681
2 4 1 87.01 48.94 < 1.772323
1 2 3 2178.72 2093.54 o 1.756617
2 1 3 3285.52 3226.34 o 1.743767
4 2 1 447.22 428.81 o 1.721244
0 4 2 7252.47 6910.36 o 1.717554
1 4 2 2.22 3.38 < 1.678875
4 0 2 2812.32 3017.49 o 1.656230
3 4 0 614.01 568.87 o 1.645299
1 5 0 0.06 0.05 o 1.642151
2 2 3 33.66 25.57 < 1.640728
4 1 2 628.00 420.34 o 1.624884
4 3 0 247.88 252.99 o 1.620942
3 3 2 15607.37 15844.27 o 1.618453
1 3 3 205.70 187.12 o 1.590951
3 4 1 34.75 30.11 o 1.586397
1 5 1 241.61 203.89 o 1.583575
2 4 2 10.86 3.52 < 1.576846
3 1 3 45.43 18.93 < 1.565820
4 3 1 43.94 17.02 < 1.564529
5 1 0 165.30 64.66 < 1.563302
2 5 0 616.85 236.49 o 1.546302
4 2 2 2193.18 2061.66 o 1.540549
5 1 1 25.89 0.00 < 1.512513
2 3 3 22.23 5.26 < 1.503328
2 5 1 1534.17 1518.90 o 1.497100
0 0 4 33636.01 33179.71 o 1.495605
3 2 3 110.42 104.35 o 1.489937
5 2 0 695.93 514.01 o 1.487767
1 1 4 719.15 593.89 o 1.447815
0 4 3 38.75 38.33 o 1.445349
5 2 1 2412.70 2401.07 o 1.443790
4 4 0 3326.55 3279.83 o 1.443368
3 4 2 402.60 393.04 o 1.441610
1 5 2 10268.84 9999.58 o 1.439491
4 3 2 21.18 21.20 o 1.425141
1 4 3 2574.38 2610.21 o 1.422071
3 5 0 1968.22 2269.78 o 1.418159
0 2 4 186.32 322.63 o 1.408779
4 0 3 426.81 678.27 o 1.408231
4 4 1 1121.07 1344.92 o 1.403108
2 0 4 41.30 46.18 o 1.399927
0 6 0 4396.11 4934.91 o 1.398577
4 1 3 2215.65 2200.40 o 1.388810
1 2 4 185.32 184.33 o 1.387198
5 1 2 2267.62 2304.09 o 1.385493
3 3 3 12.95 13.37 o 1.384789
5 3 0 2528.17 2703.13 o 1.383046
2 1 4 565.85 684.17 o 1.380844
3 5 1 125.65 158.70 o 1.379916
1 6 0 1490.58 2074.97 o 1.377455
2 5 2 1222.74 1581.41 o 1.373617
0 6 1 280.48 526.60 < 1.361857
2 4 3 26.53 42.31 < 1.358456
5 3 1 953.11 1236.87 o 1.347505
1 6 1 56.31 87.49 < 1.342332
4 2 3 608.28 619.49 o 1.335040
5 2 2 4068.44 4156.96 o 1.332093
2 2 4 2169.80 2173.01 o 1.327960
6 0 0 14611.08 14636.51 o 1.325965
2 6 0 133.53 346.46 < 1.319404
6 1 0 2171.47 2319.93 o 1.309715
1 3 4 771.77 891.47 o 1.301150
4 4 2 1746.42 2021.23 o 1.299940
6 0 1 23.02 41.92 < 1.294548
2 6 1 189.79 199.56 o 1.288441
3 1 4 24.52 21.07 o 1.287295
4 5 0 5.70 5.61 o 1.282667
3 5 2 3739.55 3671.99 o 1.281433
6 1 1 28.77 28.61 o 1.279413
3 4 3 1.48 1.63 o 1.269098
5 4 0 2938.92 3252.77 o 1.267757
1 5 3 132.50 146.60 o 1.267652
0 6 2 44.04 48.76 o 1.266932
6 2 0 21.22 22.66 o 1.264331
4 3 3 28.78 25.54 o 1.257818
5 3 2 710.02 701.27 o 1.255352
4 5 1 996.90 998.06 o 1.254164
2 3 4 3571.64 3539.03 o 1.251891
1 6 2 399.96 398.89 o 1.251166
3 2 4 388.94 318.00 o 1.244126
5 4 1 3550.77 3280.77 o 1.240215
3 6 0 656.55 590.04 o 1.237083
6 2 1 46.01 41.35 o 1.237007
5 1 3 74.69 84.91 < 1.230308
2 5 3 1338.35 1250.93 o 1.221970
0 4 4 13.73 15.25 o 1.217811
6 0 2 2441.84 2376.09 o 1.212202
3 6 1 72.35 70.43 o 1.211452
2 6 2 1083.49 1019.72 o 1.207183
1 4 4 2867.87 2575.92 o 1.203790
6 1 2 629.70 564.74 o 1.199749
6 3 0 3161.40 3069.76 o 1.198159
0 0 5 22.72 22.68 o 1.196484
4 0 4 6573.66 6623.76 o 1.195360
5 2 3 1844.25 1862.87 o 1.192460
1 7 0 2084.75 2003.17 o 1.185399
4 1 4 68.29 60.57 o 1.183413
3 3 4 648.97 427.68 o 1.180922
4 5 2 20.32 12.46 o 1.178854
6 3 1 0.68 1.11 < 1.174829
1 1 5 145.88 114.60 o 1.171590
4 4 3 639.14 488.81 o 1.169229
5 4 2 59.40 55.84 o 1.167248
6 2 2 438.17 418.50 o 1.164572
2 4 4 1959.77 1870.73 o 1.164464
1 7 1 96.72 91.92 o 1.162791
3 5 3 422.18 124.20 < 1.155708
5 5 0 35.05 9.48 < 1.154694
0 2 5 279.85 260.04 o 1.150614
4 2 4 3937.90 3611.83 o 1.149614
2 7 0 1440.96 1327.95 o 1.147792
2 0 5 663.23 522.53 o 1.145777
0 6 3 226.12 170.31 o 1.145036
4 6 0 458.62 323.13 o 1.144050
3 6 2 374.73 262.33 o 1.143174
1 2 5 2470.54 2232.11 o 1.138766
5 3 3 844.91 741.78 o 1.136466
2 1 5 1420.92 1230.00 o 1.135243
5 5 1 266.82 236.04 o 1.133768
1 6 3 180.56 158.26 o 1.133357
2 7 1 3807.91 3756.31 o 1.127233
7 1 0 1245.53 1231.34 o 1.126258
4 6 1 81.07 84.35 o 1.123687
6 4 0 10.88 7.13 < 1.120848
6 3 2 70.37 54.40 < 1.112248
7 1 1 792.37 754.87 o 1.106815
3 4 4 452.12 430.72 o 1.106699
1 5 4 1.01 0.97 o 1.105739
2 2 5 86.60 84.27 o 1.105304
6 0 3 27.43 28.06 o 1.104153
1 7 2 1875.07 2134.19 o 1.102018
6 4 1 49.49 56.42 o 1.101679
2 6 3 93.48 109.14 o 1.100356
4 3 4 204.94 263.26 o 1.099195
7 2 0 226.38 145.63 o 1.097007
6 1 3 176.33 147.99 o 1.094718
3 7 0 8896.93 7590.28 o 1.092358
1 3 5 5.33 4.56 o 1.089701
3 1 5 27.38 29.03 o 1.081523
5 1 4 122.27 130.13 o 1.080693
7 2 1 323.43 347.05 o 1.079016
4 5 3 910.60 981.49 o 1.078775
5 5 2 149.64 167.36 o 1.077218
2 5 4 575.56 643.97 o 1.075029
3 7 1 99.23 112.20 o 1.074591
2 7 2 28.31 29.52 o 1.071607
5 4 3 2635.22 2694.47 o 1.069859
4 6 2 131.34 134.30 o 1.068560
6 2 3 0.89 0.91 o 1.067798
2 3 5 55.77 26.30 < 1.060272
3 2 5 216.60 203.35 o 1.055543
5 2 4 666.22 628.21 o 1.054770
7 1 2 770.28 738.24 o 1.054020
7 3 0 650.86 610.13 o 1.052942
3 6 3 167.00 155.14 o 1.051231
5 6 0 1474.25 1378.15 o 1.050468
6 4 2 2429.15 2262.47 o 1.049581
0 8 0 1932.33 1796.54 o 1.048933
6 5 0 1218.00 1244.57 o 1.040426
1 8 0 21.81 22.17 o 1.039933
0 4 5 50.25 51.22 o 1.039329
4 4 4 2798.91 2857.34 o 1.038592
7 3 1 209.45 213.40 o 1.037002
5 6 1 110.81 111.12 o 1.034639
0 8 1 1326.12 1330.06 o 1.033172
1 4 5 3481.13 3320.68 o 1.030572
7 2 2 959.99 914.46 o 1.029928
3 5 4 1832.62 1732.80 o 1.029080
6 3 3 28.76 27.12 o 1.027032
4 7 0 25.25 23.97 o 1.026711
3 7 2 9.44 9.09 o 1.026078
4 0 5 6.04 6.00 o 1.025267
6 5 1 43.16 42.90 o 1.025040
1 8 1 1384.35 1403.63 o 1.024568
0 6 4 3673.02 3575.60 o 1.021524
1 7 3 281.49 268.73 o 1.018961
4 1 5 1653.72 1663.20 o 1.017699
3 3 5 59.88 61.75 o 1.016114
5 3 4 2071.17 2130.69 o 1.015425
2 8 0 2714.72 2805.21 o 1.014263
1 6 4 1138.73 1180.84 o 1.013206
4 7 1 1677.64 1731.03 o 1.011917
2 4 5 110.78 79.70 < 1.005573
2 8 1 17.60 6.31 o 0.999993
7 4 0 14.06 7.11 o 0.999312
5 5 3 80.10 40.53 o 0.999261
0 0 6 2830.32 2512.21 o 0.997070
4 2 5 233.90 211.70 o 0.995963
2 7 3 3925.94 3654.92 o 0.994778
8 0 0 6323.68 5931.59 o 0.994474
7 3 2 1064.86 1019.91 o 0.993203
4 6 3 188.99 182.83 o 0.992339
6 0 4 12185.77 11857.76 o 0.992178
5 6 2 545.32 539.66 o 0.991126
0 8 2 1424.11 1476.26 o 0.989836
2 6 4 90.31 94.78 o 0.989420
8 1 0 176.59 179.89 o 0.987563
7 4 1 1634.55 1525.59 o 0.985656
6 1 4 1732.85 1606.74 o 0.985315
6 5 2 1855.74 1648.80 o 0.982679
1 1 6 932.57 827.31 o 0.982526
1 8 2 1180.60 1048.12 o 0.982263
8 0 1 2595.88 2317.81 o 0.981012
7 1 3 787.36 702.50 o 0.980661
6 4 3 21.11 18.01 o 0.977083
3 8 0 194.50 160.27 o 0.975404
8 1 1 2036.86 1683.37 o 0.974376
4 5 4 7.56 6.18 o 0.973642
4 7 2 123.09 101.48 o 0.971098
0 2 6 8.65 8.96 o 0.970055
3 4 5 106.02 114.49 o 0.967667
8 2 0 386.93 418.19 o 0.967664
2 0 6 1703.38 1840.89 o 0.967151
5 4 4 2278.70 2462.49 o 0.967072
1 5 5 211.89 228.98 o 0.967025
6 2 4 13.17 14.21 o 0.965549
1 2 6 1645.80 1834.10 o 0.962924
3 8 1 0.00 0.00 < 0.962692
4 3 5 54.23 60.88 o 0.962639
6 6 0 4102.44 4630.25 o 0.962245
7 2 3 369.37 422.54 o 0.961168
2 1 6 1861.62 2134.95 o 0.960791
2 8 2 19.86 22.81 o 0.960545
3 7 3 41.49 58.98 o 0.958036
5 7 0 1011.31 1516.43 o 0.957459
8 2 1 60.07 81.38 o 0.955248
3 6 4 493.19 679.04 o 0.953248
5 1 5 0.55 0.60 o 0.950138
6 6 1 302.44 332.64 o 0.950034
7 4 2 898.66 911.58 o 0.947818
2 5 5 1291.41 1277.85 o 0.946282
5 7 1 3.67 3.54 o 0.945427
8 0 2 742.63 744.15 o 0.943686
2 2 6 29.98 35.61 o 0.942438
7 5 0 0.43 0.39 < 0.941059
8 1 2 180.03 170.02 o 0.937775
8 3 0 779.27 704.20 o 0.937015
6 3 4 2518.45 2417.69 o 0.935094
1 3 6 405.48 422.26 o 0.932709
5 2 5 2179.05 2320.12 o 0.932377
7 3 3 41.58 41.75 o 0.931113
7 5 1 407.05 392.66 o 0.929628
5 6 3 278.67 268.82 o 0.929401
1 7 4 1679.38 1619.34 o 0.928990
0 8 3 718.37 688.29 o 0.928338
4 8 0 6510.24 6212.46 o 0.927812
3 1 6 381.75 364.29 o 0.927566
3 8 2 265.66 254.20 o 0.927345
1 9 0 3219.08 3144.53 o 0.926047
8 3 1 168.69 165.88 o 0.925729
6 5 3 29.34 26.75 o 0.922425
1 8 3 1642.46 1497.59 o 0.922081
4 4 5 1160.62 1052.79 o 0.921146
8 2 2 952.42 861.09 o 0.920686
4 8 1 13.49 12.67 o 0.916851
6 6 2 350.18 365.57 o 0.916015
1 9 1 146.84 171.89 o 0.915147
3 5 5 1.31 1.50 o 0.914490
2 3 6 111.04 126.76 o 0.914055
5 5 4 21.30 24.31 o 0.913988
4 7 3 1607.23 1873.23 o 0.912827
5 7 2 1623.35 1896.42 o 0.911883
3 2 6 1536.19 1788.12 o 0.911019
2 7 4 1167.25 1354.46 o 0.910554
0 6 5 321.62 383.66 o 0.909176
4 6 4 332.76 397.91 o 0.908682
2 9 0 165.83 191.99 o 0.907781
5 3 5 717.99 727.57 o 0.904868
2 8 3 41.91 42.06 o 0.904045
1 6 5 1.47 1.42 o 0.903296
0 4 6 5046.57 5275.78 o 0.900534
7 1 4 1004.08 1035.90 o 0.899690
8 4 0 719.12 734.34 o 0.898620
7 5 2 10341.58 10515.45 o 0.897682
2 9 1 10.53 10.71 o 0.897507
6 4 4 2.33 2.36 o 0.896925
1 4 6 9.36 9.76 o 0.894820
8 3 2 98.73 108.39 o 0.894169
7 4 3 1733.58 1963.41 o 0.893410
4 0 6 2482.89 2570.15 o 0.891341
8 0 3 2768.80 2727.94 o 0.889947
6 7 0 2863.19 2758.26 o 0.889239
8 4 1 286.93 281.00 o 0.888650
6 0 5 20.36 20.01 o 0.888301
4 1 6 397.70 367.63 o 0.886354
2 6 5 184.88 170.90 o 0.886320
4 8 2 23.44 21.67 o 0.886161
3 3 6 10656.15 9936.35 o 0.885306
8 1 3 2171.03 2026.25 o 0.884984
1 9 2 56.64 53.27 o 0.884623
7 2 4 191.39 179.99 o 0.884567
6 1 5 0.38 0.36 o 0.883365
3 7 4 7412.41 7522.13 o 0.882124
7 6 0 144.20 146.33 o 0.882025
3 9 0 3024.17 3216.41 o 0.879603
6 7 1 415.23 441.62 o 0.879576
9 1 0 1098.91 1204.46 o 0.879112
2 4 6 6.65 7.52 o 0.878308
3 8 3 12.86 15.30 o 0.876202
5 8 0 165.71 186.55 o 0.875761
4 5 5 804.59 836.48 o 0.874924
7 6 1 38.72 37.36 o 0.872592
4 2 6 1309.98 1261.23 o 0.871883
8 2 3 264.32 255.12 o 0.870579
3 9 1 702.62 678.01 o 0.870246
5 4 5 3637.24 3530.06 o 0.870148
9 1 1 9.84 9.61 o 0.869772
6 2 5 79.45 78.47 o 0.869038
2 9 2 4707.30 4669.95 o 0.868660
6 6 3 213.60 221.80 o 0.866627
5 8 1 1501.29 1606.62 o 0.866525
9 2 0 1991.17 2270.35 o 0.864988
5 7 3 7.45 9.22 o 0.863125
7 3 4 666.28 777.40 o 0.860973
8 4 2 1410.14 1661.31 o 0.860622
3 6 5 10.57 12.61 o 0.860037
5 6 4 1118.96 1335.63 o 0.859619
0 8 4 1661.22 1963.12 o 0.858777
9 2 1 236.89 257.94 o 0.856085
8 5 0 631.41 651.64 o 0.855553
0 0 7 290.91 299.17 o 0.854631
6 5 4 1082.36 1112.69 o 0.854090
1 8 4 16.00 16.37 o 0.853817
3 4 6 242.57 249.79 o 0.852711
6 7 2 656.06 676.57 o 0.852371
1 5 6 6622.29 6838.72 o 0.852272
7 5 3 221.46 229.69 o 0.851053
4 3 6 21.36 23.83 o 0.849264
8 3 3 117.80 190.60 o 0.848059
8 5 1 709.07 897.62 o 0.846936
6 3 5 24.13 29.18 o 0.846634
4 7 4 20.71 25.07 o 0.846454
7 6 2 213.88 250.20 o 0.846011
1 1 7 214.83 233.79 o 0.845419
4 9 0 232.56 247.39 o 0.844225
3 9 2 4300.26 4548.98 o 0.843873
9 1 2 148.35 156.06 o 0.843440
9 3 0 1373.79 1435.73 o 0.842887
1 7 5 0.64 0.66 o 0.842095
4 8 3 2.70 2.79 o 0.841218
5 1 6 1484.16 1589.84 o 0.840643
5 8 2 808.57 866.15 o 0.840479
1 9 3 143.21 156.81 o 0.839901
2 8 4 2218.73 2449.59 o 0.839438
0 10 0 2198.97 2447.26 o 0.839146
2 5 6 943.11 1068.38 o 0.837969
0 2 7 169.54 198.49 o 0.837435
4 9 1 131.09 134.25 o 0.835943
2 0 7 143.63 120.87 o 0.835565
9 3 1 6.42 5.69 o 0.834644
1 10 0 454.59 400.29 o 0.834517
1 2 7 1223.32 1207.11 o 0.832834
2 1 7 3072.26 3036.72 o 0.831453
0 10 1 41.84 41.65 o 0.831011
9 2 2 5901.81 5874.51 o 0.830942
7 4 4 18.68 18.60 o 0.830903
5 5 5 429.97 427.98 o 0.830873
2 7 5 2657.44 2736.33 o 0.828291
5 2 6 2836.96 2921.18 o 0.828267
8 0 4 4972.44 5120.05 o 0.828115
4 6 5 52.59 55.55 o 0.826881
1 10 1 914.49 966.80 o 0.826514
2 9 3 90.59 95.96 o 0.826202
7 7 0 3503.22 3813.60 o 0.824782
8 1 4 143.50 170.95 o 0.824112
6 8 0 334.37 378.31 o 0.822650
8 5 2 789.31 880.69 o 0.822568
2 10 0 931.86 916.99 o 0.821076
4 4 6 1137.68 1091.84 o 0.820364
7 1 5 626.61 589.88 o 0.820088
2 2 7 3.65 3.31 o 0.819473
8 4 3 264.74 239.93 o 0.819277
6 4 5 48.32 52.95 o 0.817992
7 7 1 108.92 136.35 o 0.817053
3 8 4 156.89 196.41 o 0.817006
3 5 6 2589.61 3167.26 o 0.815652
6 8 1 822.83 976.63 o 0.814980
9 4 0 414.90 481.18 o 0.814612
2 10 1 87.62 93.23 o 0.813450
1 3 7 221.99 231.41 o 0.813053
4 9 2 672.83 678.37 o 0.812485
8 2 4 339.36 342.15 o 0.812442
6 7 3 500.96 500.64 o 0.812150
0 6 6 58.41 58.37 o 0.811874
9 3 2 3499.00 3575.02 o 0.811292
8 6 0 2.14 2.23 o 0.810471
3 1 7 30.16 31.78 o 0.809639
6 6 4 3405.91 3615.71 o 0.809227
5 3 6 383.79 408.44 o 0.808802
7 2 5 221.48 237.15 o 0.808586
0 10 2 2780.58 3024.99 o 0.807955
1 6 6 215.65 238.26 o 0.807680
9 4 1 409.20 451.44 o 0.807163
3 7 5 117.35 129.05 o 0.806719
7 6 3 76.50 84.12 o 0.806643
5 7 4 809.25 896.19 o 0.806374
3 9 3 956.21 1131.04 o 0.804789
5 9 0 208.18 249.82 o 0.804446
9 1 3 2.04 2.44 o 0.804413
1 10 2 84.43 101.57 o 0.803820
8 6 1 1189.35 1396.84 o 0.803134
5 8 3 1789.68 2092.48 o 0.801843
2 3 7 29.58 32.57 o 0.800608
3 10 0 711.38 769.08 o 0.800048
3 2 7 35.46 29.87 o 0.798565
5 9 1 958.15 874.53 o 0.797271
6 0 6 1950.97 1780.81 o 0.796906
7 5 4 5.00 4.55 o 0.796504
10 0 0 1970.49 1883.08 o 0.795579
2 6 6 809.99 774.06 o 0.795475
7 7 2 2008.52 1957.42 o 0.795109
8 3 4 645.10 655.35 o 0.794047
9 2 3 122.98 124.92 o 0.793549
6 1 6 282.78 287.24 o 0.793337
6 8 2 1851.91 1887.22 o 0.793199
3 10 1 0.36 0.37 o 0.792988
10 1 0 1785.55 1937.20 o 0.792027
2 10 2 2.13 2.31 o 0.791787
0 4 7 34.29 35.87 o 0.791475
7 3 5 468.84 455.42 o 0.790446
5 6 5 13.19 12.57 o 0.789398
0 8 5 1479.72 1401.24 o 0.788745
10 0 1 68.93 65.20 o 0.788636
4 8 4 5294.78 5008.15 o 0.788423
1 4 7 1577.50 1495.74 o 0.787587
1 9 4 2681.00 2553.57 o 0.787339
4 5 6 21.51 20.49 o 0.787206
8 5 3 642.12 609.83 o 0.786246
9 4 2 1098.32 1043.10 o 0.785986
4 0 7 656.09 625.34 o 0.785212
10 1 1 694.43 670.95 o 0.785176
6 5 5 46.13 44.57 o 0.785110
1 8 5 951.69 919.52 o 0.784898
5 4 6 21.74 19.91 o 0.783721
6 2 6 365.48 324.25 o 0.782910
8 6 2 1974.57 1728.39 o 0.782265
9 5 0 1693.31 1473.20 o 0.782119
4 1 7 1651.16 1440.11 o 0.781797
10 2 0 1550.52 1348.11 o 0.781651
3 3 7 3.61 3.12 o 0.781077
4 7 5 1290.48 1179.90 o 0.779166
4 9 3 150.46 113.67 o 0.777427
5 9 2 45.53 32.37 o 0.776843
9 3 3 2.38 1.52 o 0.776382
3 6 6 214.97 130.71 o 0.776309
2 4 7 0.19 0.11 o 0.776259
2 9 4 178.88 104.16 o 0.776021
9 5 1 735.51 420.04 o 0.775520
10 2 1 840.75 475.48 o 0.775063
2 8 5 6.20 3.01 o 0.773683
0 10 3 92.22 39.15 o 0.773455
4 10 0 1.32 0.51 < 0.773151
3 10 2 291.44 112.92 < 0.772880
4 2 7 532.50 338.41 o 0.771812
7 8 0 216.62 181.36 o 0.770821
8 4 4 545.26 455.28 o 0.770274
1 10 3 917.45 743.08 o 0.769825
10 0 2 2595.31 2182.14 o 0.768849
7 4 5 1107.36 989.69 o 0.766986
4 10 1 81.53 72.87 o 0.766774
6 3 6 76.31 70.88 o 0.766409
10 1 2 70.23 68.69 o 0.765642
8 7 0 325.29 319.05 o 0.765390
10 3 0 1313.51 1288.29 o 0.765228
8 0 5 1612.08 1566.78 o 0.764791
7 8 1 1079.00 1030.81 o 0.764501
6 7 4 2351.56 2272.79 o 0.764342
1 7 6 1420.18 1347.26 o 0.763038
6 9 0 0.72 0.67 o 0.762700
7 7 3 308.91 280.30 o 0.762163
8 1 5 1485.95 1259.14 o 0.761635
6 8 3 554.71 530.15 o 0.760480
7 6 4 104.87 106.41 o 0.759746
1 11 0 138.31 138.93 o 0.759377
2 10 3 33.14 33.08 o 0.759236
8 7 1 1401.35 1398.82 o 0.759202
10 3 1 38.53 38.46 o 0.759044
3 4 7 0.66 0.64 o 0.758418
3 9 4 2502.68 2435.27 o 0.758196
1 5 7 31.64 30.57 o 0.758109
9 1 4 916.50 885.53 o 0.757882
9 5 2 202.69 192.45 o 0.756681
6 9 1 54.36 50.01 o 0.756576
10 2 2 487.59 427.61 o 0.756257
3 8 5 3.55 3.09 o 0.756015
4 3 7 18.58 16.22 o 0.755990
5 8 4 133.79 107.60 o 0.755731
5 5 6 119.56 73.05 o 0.754659
9 4 3 203.19 115.78 < 0.754117
1 11 1 5.75 2.57 < 0.753332
2 7 6 38.18 13.24 < 0.752723
8 2 5 0.81 0.27 < 0.752394
4 6 6 141.67 81.17 o 0.751664
8 6 3 1016.49 754.40 o 0.750828
5 1 7 67.07 55.51 o 0.749889
6 6 5 324.68 268.71 o 0.749838
2 11 0 721.54 601.12 o 0.749207
9 2 4 1793.40 1501.65 o 0.748776
4 10 2 427.99 360.26 o 0.748550
2 5 7 873.63 738.55 o 0.747989
0 0 8 18760.25 15859.65 o 0.747803
5 7 5 2.59 2.21 o 0.747567
9 6 0 770.04 664.73 o 0.747232
7 1 6 470.87 413.60 o 0.746550
7 8 2 11.57 10.26 o 0.746435
5 9 3 1124.34 1001.13 o 0.746031
6 4 6 1774.04 1633.55 o 0.744968
10 4 0 1926.81 1824.18 o 0.743884
2 11 1 3652.36 3437.90 o 0.743400
8 5 4 575.63 531.22 o 0.742631
3 10 3 2.33 2.15 o 0.742519
5 10 0 1139.04 1040.41 o 0.742250
1 1 8 376.16 343.26 o 0.741608
8 7 2 59.83 54.67 o 0.741500
9 6 1 200.59 183.27 o 0.741471
10 3 2 6.97 6.36 o 0.741353
5 2 7 1016.28 945.42 o 0.741065
7 5 5 393.64 385.45 o 0.739682
6 9 2 2133.73 2122.20 o 0.739054
10 0 3 190.19 188.12 o 0.738942
10 4 1 472.87 476.64 o 0.738199
7 2 6 608.94 606.57 o 0.737842
8 3 5 192.61 195.32 o 0.737714
5 10 1 640.75 531.26 o 0.736602
3 7 6 6.54 5.18 o 0.736422
0 2 8 95.67 71.56 o 0.736201
10 1 3 388.43 281.59 o 0.736093
1 11 2 627.32 454.76 o 0.736029
4 4 7 207.98 133.74 o 0.735388
4 9 4 210.68 131.97 o 0.735186
2 0 8 60.63 33.36 o 0.734929
9 3 4 1152.80 485.75 o 0.734302
4 8 5 33.27 12.82 o 0.733197
3 11 0 442.61 178.84 o 0.733130
1 2 8 186.52 75.37 o 0.733069
1 9 5 143.06 60.39 o 0.732325
2 1 8 246.78 103.64 o 0.732127
3 5 7 548.20 231.71 o 0.731988
0 10 4 1585.19 673.91 o 0.731824
0 6 7 179.17 83.50 o 0.729254
1 10 4 395.41 231.44 o 0.728748
9 5 3 677.26 427.58 o 0.728119
10 2 3 795.66 507.34 o 0.727742
3 11 1 368.62 235.04 o 0.727686
5 3 7 521.50 326.41 o 0.727025
2 11 2 918.17 587.05 o 0.726758
1 6 7 228.13 165.50 o 0.726210
9 6 2 678.44 640.49 o 0.724954
7 3 6 815.38 768.50 o 0.723981
2 2 8 1127.18 1072.06 o 0.723908
2 9 5 2.01 1.99 o 0.723191
5 6 6 302.97 300.49 o 0.723176
0 8 6 1266.32 1301.08 o 0.722674
7 7 4 2872.18 2931.65 o 0.722238
10 4 2 374.43 383.31 o 0.721895
8 8 0 82.92 84.35 o 0.721684
4 10 3 0.30 0.29 o 0.720867
7 9 0 3074.34 3009.36 o 0.720852
6 8 4 314.14 306.28 o 0.720805
11 1 0 333.85 319.61 o 0.720582
5 10 2 430.70 414.39 o 0.720401
6 5 6 1375.60 1313.31 o 0.719875
2 10 4 763.93 722.84 o 0.719746
1 8 6 673.04 636.85 o 0.719711
1 3 8 677.46 631.70 o 0.719471
7 8 3 873.18 796.23 o 0.718977
10 5 0 562.82 494.68 o 0.718896
8 4 5 232.40 205.02 o 0.718533
6 0 7 32.47 27.92 o 0.718349
2 6 7 13.42 8.92 o 0.717300
3 1 8 39.90 26.09 o 0.717102
8 8 1 11.17 7.43 o 0.716489
6 1 7 317.27 217.50 o 0.715731
7 9 1 1131.30 775.54 o 0.715675
11 1 1 279.03 188.96 o 0.715411
9 4 4 284.46 192.64 o 0.715380
4 7 6 74.99 50.78 o 0.715284
8 7 3 1381.35 878.37 o 0.714564
10 3 3 85.27 52.97 o 0.714432
10 5 1 213.40 121.34 o 0.713761
6 7 5 234.93 133.59 o 0.713711
11 2 0 273.37 178.45 o 0.712742
8 6 4 0.73 0.46 o 0.712570
6 9 3 2.94 1.73 o 0.712373
4 11 0 163.97 94.90 o 0.712266
3 11 2 153.88 85.39 o 0.712055
9 7 0 491.97 278.66 o 0.711462
4 5 7 616.15 347.77 o 0.711219
2 8 6 17.31 9.94 o 0.711036
2 3 8 1844.34 1076.52 o 0.710804
7 6 5 7.99 4.85 o 0.709964
1 11 3 0.00 0.00 < 0.709664
3 2 8 288.78 181.30 o 0.709374
6 10 0 232.86 141.05 o 0.709079
3 9 5 352.02 213.91 o 0.708699
5 4 7 1626.07 1038.13 o 0.708646
5 9 4 193.98 128.78 o 0.708466
9 1 5 28.20 18.73 o 0.708443
6 2 7 25.18 17.92 o 0.708046
11 2 1 169.93 124.28 o 0.707737
4 11 1 1439.02 1126.17 o 0.707271
5 8 5 1037.18 847.68 o 0.706685
9 7 1 178.28 156.77 o 0.706484
7 4 6 598.53 539.98 o 0.705826
3 10 4 601.34 557.69 o 0.705456
0 4 8 57.36 58.60 o 0.704389
6 10 1 0.44 0.44 o 0.704150
8 0 6 415.64 417.05 o 0.704115
3 6 7 184.32 183.93 o 0.703153
10 0 4 1737.63 1765.92 o 0.702386
8 1 6 86.38 86.36 o 0.701650
1 4 8 1397.12 1396.88 o 0.701645
8 8 2 70.54 70.53 o 0.701554
2 11 3 2732.72 2735.43 o 0.701342
9 2 5 269.03 265.23 o 0.700988
7 9 2 31.43 30.65 o 0.700790
11 1 2 1336.48 1302.39 o 0.700542
11 3 0 1027.30 986.84 o 0.700225
4 0 8 3845.25 3633.49 o 0.699964
10 1 4 1434.59 1355.59 o 0.699938
9 6 3 374.07 353.13 o 0.699721
0 12 0 4757.04 4453.94 o 0.699288
10 5 2 865.01 796.74 o 0.698992
4 1 8 44.79 34.31 o 0.697541
3 8 6 132.84 96.35 o 0.697249
3 3 8 614.31 451.96 o 0.697030
10 4 3 297.60 218.95 o 0.696969
1 12 0 439.34 330.15 o 0.696603
8 5 5 587.29 488.20 o 0.695938
6 3 7 34.48 29.37 o 0.695771
5 10 3 657.27 558.85 o 0.695625
11 3 1 1772.36 1535.75 o 0.695477
0 12 1 94.65 81.59 o 0.694559
8 2 6 536.51 462.49 o 0.694405
2 4 8 1069.44 955.75 o 0.693599
11 2 2 99.15 93.77 o 0.693331
1 7 7 309.03 292.25 o 0.693245
9 5 4 1437.19 1382.93 o 0.693072
4 11 2 2.09 2.04 o 0.692893
10 2 4 1223.70 1222.71 o 0.692746
6 6 6 273.02 274.97 o 0.692394
9 7 2 13.68 13.57 o 0.692153
1 12 1 400.32 400.26 o 0.691928
10 6 0 146.82 146.74 o 0.691523
5 7 6 982.13 1076.93 o 0.690605
4 2 8 1889.55 2081.99 o 0.690422
6 10 2 1204.39 1437.85 o 0.689958
4 9 5 87.51 104.47 o 0.689800
9 3 5 37.86 45.22 o 0.689070
2 12 0 0.30 0.36 o 0.688727
3 11 3 410.17 471.07 o 0.688101
5 11 0 86.97 101.38 o 0.687887
0 10 5 0.15 0.19 o 0.687021
10 6 1 1077.96 1383.70 o 0.686949
5 5 7 8.00 10.27 o 0.686944
4 10 4 6.81 8.74 o 0.686808
2 7 7 2846.88 3377.40 o 0.685482
7 8 4 175.11 207.28 o 0.685174
4 6 7 336.65 401.40 o 0.684682
1 10 5 654.79 780.87 o 0.684474
7 5 6 6730.42 8026.38 o 0.684374
2 12 1 183.80 219.50 o 0.684208
11 4 0 16.38 19.62 o 0.683759
5 11 1 2.70 3.20 o 0.683384
8 3 6 91.36 103.79 o 0.682814
11 3 2 1716.49 1965.26 o 0.681793
8 7 4 279.37 322.78 o 0.681351
10 3 4 1031.78 1192.07 o 0.681237
0 12 2 7209.48 8345.31 o 0.680928
7 1 7 623.71 726.13 o 0.680811
3 4 8 176.16 205.09 o 0.680784
1 5 8 12.87 14.83 o 0.680560
8 9 0 245.94 282.80 o 0.680187
6 4 7 0.91 1.04 o 0.679610
6 9 4 0.16 0.18 o 0.679451
11 4 1 1674.70 1901.63 o 0.679337
4 8 6 1.51 1.72 o 0.679228
7 7 5 1.92 2.28 o 0.679071
4 3 8 117.83 140.03 o 0.679026
8 8 3 85.49 107.24 o 0.678611
1 9 6 13.21 16.57 o 0.678535
1 12 2 70.74 89.12 o 0.678448
7 9 3 1112.86 1457.25 o 0.677919
6 8 5 793.43 1038.96 o 0.677880
11 1 3 163.87 215.13 o 0.677695
1 11 4 110.38 140.41 o 0.677099
2 10 5 112.80 143.49 o 0.676999
10 5 3 216.38 262.27 o 0.676291
3 12 0 11.74 13.78 o 0.676175
9 8 0 788.96 952.24 o 0.675952
8 9 1 100.80 121.66 o 0.675833
7 10 0 380.57 442.07 o 0.675078
5 1 8 50.05 55.86 o 0.674595
7 2 7 308.82 337.65 o 0.674187
10 6 2 293.79 334.44 o 0.673753
9 4 5 596.01 711.75 o 0.673362
2 5 8 458.56 547.61 o 0.673211
3 7 7 8.68 10.36 o 0.673103
3 12 1 47.44 61.41 o 0.671897
9 8 1 144.75 187.79 o 0.671678
2 9 6 3090.27 4050.60 o 0.671250
2 12 2 1405.60 1842.40 o 0.671166
11 2 3 179.19 236.00 o 0.671160
8 6 5 1053.64 1394.99 o 0.671017
7 10 1 460.75 610.03 o 0.670821
4 11 3 1256.63 1665.69 o 0.670763
5 11 2 1677.06 2225.83 o 0.670388
9 7 3 269.15 360.43 o 0.670091
2 11 4 532.79 713.29 o 0.669860
9 6 4 570.82 821.28 o 0.668447
5 2 8 560.16 826.36 o 0.668149
6 10 3 2.18 3.22 o 0.668099
5 9 5 528.86 748.88 o 0.667586
8 4 6 933.21 1321.46 o 0.667520
11 4 2 40.33 53.39 o 0.666566
10 4 4 1626.73 2061.86 o 0.666046
3 10 5 0.18 0.19 o 0.665066
5 10 4 988.68 1040.75 o 0.664873
0 0 9 1.51 1.59 o 0.664713
11 5 0 3.87 4.04 o 0.664203
4 4 8 1678.95 1725.62 o 0.663980
6 7 6 524.72 539.65 o 0.663648
7 3 7 4.63 4.76 o 0.663564
8 9 2 1092.33 1149.36 o 0.663255
12 0 0 166.63 178.38 o 0.662983
5 6 7 325.72 348.69 o 0.662943
10 7 0 2025.33 2168.19 o 0.662881
0 8 7 237.48 265.80 o 0.662557
10 0 5 10.06 11.26 o 0.662492
3 5 8 1414.91 1586.31 o 0.661474
6 11 0 111.48 127.02 o 0.661236
12 1 0 1468.99 1649.10 o 0.660923
11 3 3 1469.06 1648.52 o 0.660678
7 6 6 128.78 144.51 o 0.660633
10 1 5 752.83 844.80 o 0.660437
6 5 7 16.32 18.31 o 0.660398
1 1 9 75.95 85.23 o 0.660351
1 8 7 1460.23 1644.57 o 0.660271
11 5 1 411.46 463.40 o 0.660146
0 12 3 2.40 2.73 o 0.659891
4 12 0 13.48 15.31 o 0.659702
3 9 6 3115.10 3536.62 o 0.659614
3 12 2 35.83 41.07 o 0.659534
0 6 8 2162.89 2460.87 o 0.659454
9 1 6 79.33 90.26 o 0.659407
9 8 2 69.44 79.01 o 0.659327
12 0 1 417.98 478.23 o 0.658948
10 7 1 84.12 96.25 o 0.658849
7 10 2 186.18 209.45 o 0.658516
3 11 4 394.27 436.53 o 0.658294
5 8 6 428.05 474.54 o 0.657989
5 3 8 1137.96 1261.53 o 0.657805
1 12 3 316.54 349.29 o 0.657633
6 11 1 788.40 877.28 o 0.657233
1 6 8 506.17 586.41 o 0.657201
12 1 1 266.60 308.87 o 0.656926
4 7 7 1125.75 1256.88 o 0.656848
0 2 9 207.67 233.33 o 0.656525
4 12 1 78.36 79.57 o 0.655727
2 0 9 405.91 396.83 o 0.655623
12 2 0 530.28 497.95 o 0.654858
9 5 5 515.56 484.13 o 0.654660
10 2 5 660.73 616.63 o 0.654385
1 2 9 1490.85 1391.34 o 0.654301
2 1 9 744.51 697.13 o 0.653631
2 8 7 64.05 59.97 o 0.653554
9 2 6 4134.25 3851.93 o 0.653383
10 6 3 1211.05 1141.20 o 0.653354
6 0 8 7143.13 6573.36 o 0.651357
2 12 3 126.09 115.19 o 0.650994
12 2 1 66.92 61.13 o 0.650969
2 6 8 24.56 22.23 o 0.650575
5 11 3 0.09 0.08 o 0.650284
8 8 4 69.76 63.19 o 0.649970
7 4 7 1282.56 1175.88 o 0.649501
6 1 8 894.70 820.28 o 0.649404
4 10 5 249.11 228.39 o 0.649373
7 9 4 2559.10 2346.24 o 0.649362
8 5 6 628.73 576.43 o 0.649288
11 1 4 257.59 236.16 o 0.649165
11 5 2 356.72 336.66 o 0.648409
8 0 7 1897.90 1794.40 o 0.648167
7 8 5 936.10 885.05 o 0.647991
10 5 4 487.51 465.82 o 0.647931
2 2 9 58.13 55.54 o 0.647762
12 0 2 478.63 465.68 o 0.647274
10 7 2 634.38 644.79 o 0.647180
11 4 3 1650.40 1792.60 o 0.646794
8 1 7 1726.95 1968.17 o 0.646242
4 5 8 12.14 14.45 o 0.646028
6 11 2 1384.59 1688.37 o 0.645648
12 1 2 99.34 121.13 o 0.645357
12 3 0 940.79 1162.96 o 0.645109
8 7 5 1062.12 1324.46 o 0.644754
10 3 5 2.88 3.59 o 0.644658
1 3 9 73.67 91.87 o 0.644578
4 9 6 475.60 602.81 o 0.644295
4 12 2 6656.64 8437.08 o 0.644220
5 4 8 1060.40 1359.96 o 0.644098
8 9 3 136.58 175.17 o 0.643768
9 3 6 2501.67 3226.84 o 0.643699
6 2 8 2.22 2.86 o 0.643647
11 2 4 248.83 320.96 o 0.643415
1 13 0 0.01 0.00 < 0.643383
6 9 5 103.39 133.78 o 0.643144
4 11 4 129.36 167.39 o 0.643065
3 1 9 126.92 160.68 o 0.642873
3 8 7 41.84 52.97 o 0.642799
9 7 4 454.46 555.75 o 0.642473
11 6 0 45.77 55.97 o 0.642434
0 10 6 1904.79 2187.14 o 0.642028
9 9 0 104.00 106.32 o 0.641497
12 3 1 212.67 191.45 o 0.641391
8 10 0 2411.89 2171.19 o 0.641333
1 11 5 15.14 13.63 o 0.641147
6 10 4 157.12 125.14 o 0.640717
8 2 7 438.60 316.53 o 0.640569
3 12 3 30.31 21.88 o 0.640363
5 12 0 468.45 312.51 o 0.640191
9 8 3 255.19 170.24 o 0.640174
3 6 8 207.01 138.10 o 0.639965
1 10 6 88.47 59.02 o 0.639948
12 2 2 1805.51 1139.12 o 0.639707
1 13 1 536.38 338.41 o 0.639694
7 10 3 402.94 239.09 o 0.639432
6 6 7 123.16 71.97 o 0.638990
11 6 1 4.03 2.36 o 0.638762
2 3 9 124.32 67.67 o 0.638323
9 9 1 0.53 0.34 o 0.637840
8 10 1 27.89 18.29 o 0.637680
5 7 7 9.39 6.16 o 0.637582
3 2 9 137.74 98.80 o 0.637287
2 13 0 736.47 562.75 o 0.637163
5 12 1 354.72 323.49 o 0.636556
7 7 6 1598.40 1716.49 o 0.635526
2 11 5 3578.53 3876.88 o 0.634991
6 8 6 1441.14 1558.92 o 0.634549
6 3 8 1286.35 1367.26 o 0.634384
11 3 4 780.32 829.40 o 0.634162
10 8 0 2730.68 2861.27 o 0.633878
2 10 6 1.77 1.86 o 0.633826
9 6 5 56.97 59.69 o 0.633787
0 4 9 37.59 39.63 o 0.633666
2 13 1 492.60 519.40 o 0.633579
0 12 4 4196.92 4425.29 o 0.633466
7 11 0 263.27 277.59 o 0.633406
7 5 7 61.12 62.93 o 0.632669
1 7 8 900.39 892.00 o 0.632468
12 4 0 120.65 119.52 o 0.632165
10 4 5 481.38 414.78 o 0.631740
1 4 9 2516.09 2194.87 o 0.631665
1 12 4 379.88 331.39 o 0.631467
8 3 7 75.86 66.18 o 0.631436
9 4 6 698.85 574.18 o 0.630838
5 10 5 449.13 369.01 o 0.630739
12 3 2 141.18 117.21 o 0.630610
4 0 9 53.74 45.97 o 0.630438
10 8 1 0.84 0.72 o 0.630350
11 5 3 147.52 134.59 o 0.630166
7 11 1 43.98 40.12 o 0.629885
12 0 3 677.75 726.60 o 0.629124
10 7 3 47.73 53.81 o 0.629037
1 13 2 147.70 166.93 o 0.628997
8 6 6 1325.99 1498.57 o 0.628909
4 1 9 963.56 1107.54 o 0.628666
12 4 1 347.04 398.89 o 0.628665
4 8 7 1.36 1.56 o 0.628597
3 3 9 50.01 57.16 o 0.628292
11 6 2 13.97 15.92 o 0.628111
1 9 7 122.30 139.44 o 0.628047
10 6 4 103.93 116.10 o 0.627676
5 5 8 3.78 4.22 o 0.627672
6 11 3 486.02 542.95 o 0.627631
12 1 3 362.77 396.59 o 0.627363
9 9 2 2355.86 2575.46 o 0.627235
3 13 0 583.76 638.18 o 0.627185
8 10 2 641.35 695.39 o 0.627082
2 7 8 633.51 677.28 o 0.626557
4 12 3 32.29 33.37 o 0.626319
5 9 6 23.50 24.29 o 0.626082
5 12 2 71.03 73.41 o 0.626014
4 6 8 120.30 120.40 o 0.625946
2 4 9 76.15 74.48 o 0.625776
2 12 4 0.27 0.26 o 0.625583
3 11 5 178.50 148.40 o 0.625114
5 11 4 68.99 57.36 o 0.624953
3 10 6 233.86 173.30 < 0.624002
3 13 1 589.53 436.86 < 0.623766
4 2 9 112.15 83.30 < 0.623439
2 13 2 160.02 116.68 < 0.623181
7 1 8 524.38 382.37 < 0.622983
2 9 7 173.53 127.40 < 0.622257
12 2 3 87.52 64.25 < 0.622169
6 4 8 4.64 3.72 o 0.622063
10 0 6 2135.27 1712.23 o 0.621874
11 4 4 11.96 9.59 o 0.621853
10 1 6 17.76 20.15 o 0.620174
10 8 2 28.67 34.19 o 0.620107
7 11 2 243.00 297.18 o 0.619665
8 4 7 190.52 238.90 o 0.619283
11 7 0 3029.52 3798.70 o 0.619275
8 9 4 230.39 288.88 o 0.619162
6 12 0 3858.34 4533.58 o 0.618541
12 4 2 15.53 18.24 o 0.618504
8 8 5 2.84 3.17 o 0.617973
7 2 8 114.00 127.28 o 0.617896
7 9 5 934.56 1000.52 o 0.617450
11 1 5 393.83 421.04 o 0.617281
3 7 8 4324.86 4564.19 o 0.617062
12 5 0 1908.90 1989.92 o 0.616614
3 4 9 133.53 136.02 o 0.616315
10 5 5 153.85 157.62 o 0.616219
6 7 7 397.64 407.40 o 0.616187
1 5 9 89.09 91.28 o 0.616150
3 12 4 10.37 10.62 o 0.616132
11 7 1 22.04 22.58 o 0.615983
9 8 4 654.21 654.83 o 0.615963
9 5 6 81.83 76.29 o 0.615382
7 10 4 309.76 288.78 o 0.615302
6 12 1 0.60 0.56 o 0.615261
10 2 6 302.90 268.48 o 0.615154
4 3 9 48.03 40.70 o 0.615010
4 13 0 171.74 137.93 o 0.613972
3 13 2 761.65 615.53 o 0.613837
12 3 3 151.21 122.20 o 0.613791
7 6 7 76.09 61.49 o 0.613772
12 5 1 16.07 12.83 o 0.613365
3 9 7 862.24 676.84 o 0.612954
9 1 7 0.71 0.56 o 0.612788
11 2 5 130.37 101.45 o 0.612330
1 13 3 690.36 537.22 o 0.612303
4 11 5 1241.69 961.94 o 0.612029
5 1 9 26.38 20.81 o 0.611713
5 8 7 1608.43 1268.97 o 0.611649
9 7 5 59.43 47.22 o 0.611518
11 6 3 0.81 0.64 o 0.611485
4 10 6 266.16 216.65 o 0.610985
4 13 1 721.92 608.44 o 0.610764
2 5 9 791.37 666.97 o 0.610680
9 9 3 0.24 0.20 o 0.610677
8 10 3 52.90 45.06 o 0.610536
13 1 0 61.58 53.69 o 0.610363
6 10 5 1.34 1.18 o 0.610003
7 8 6 3.12 2.76 o 0.609833
7 3 8 636.35 563.04 o 0.609687
5 12 3 275.49 243.75 o 0.609550
5 6 8 486.46 431.84 o 0.609206
0 8 8 1065.60 965.98 o 0.608906
9 10 0 2496.51 2301.25 o 0.608598
9 2 7 39.17 38.11 o 0.607944
6 5 8 756.33 735.78 o 0.607228
13 1 1 1033.50 1005.43 o 0.607211
8 7 6 59.77 58.15 o 0.607133
1 8 8 6.92 6.73 o 0.607130
10 3 6 9.83 9.51 o 0.607053
11 5 4 9.74 9.43 o 0.607033
2 13 3 304.62 285.97 o 0.606934
5 2 9 1335.44 1253.68 o 0.606894
11 7 2 251.42 228.97 o 0.606415
12 0 4 164.92 149.21 o 0.606101
10 7 4 1655.86 1498.13 o 0.606024
6 9 6 1356.20 1225.91 o 0.605788
6 12 2 1998.26 1806.28 o 0.605726
13 2 0 1067.70 965.12 o 0.605576
9 10 1 6.11 5.55 o 0.605473
8 11 0 43.66 39.83 o 0.605284
10 9 0 132.18 120.61 o 0.605204
6 11 4 70.31 63.17 o 0.604765
8 5 7 440.34 401.26 o 0.604641
12 1 4 1224.15 1115.52 o 0.604526
4 7 8 10.82 9.86 o 0.604466
11 3 5 1532.41 1372.12 o 0.604338
1 11 6 420.47 382.05 o 0.604119
10 8 3 0.18 0.16 o 0.604093
12 5 2 2153.54 1941.63 o 0.603916
4 4 9 740.49 675.62 o 0.603764
0 12 5 218.56 199.41 o 0.603736
7 11 3 69.68 63.58 o 0.603684
4 12 4 32.57 29.84 o 0.603592
12 4 3 194.04 191.42 o 0.602610
13 2 1 4.74 4.68 o 0.602497
8 11 1 1980.98 2031.09 o 0.602210
10 9 1 184.05 188.70 o 0.602131
1 12 5 346.21 374.01 o 0.602005
2 8 8 1222.50 1304.18 o 0.601895
3 5 9 17.56 18.73 o 0.601879
4 13 2 26.29 27.98 o 0.601433
4 9 7 124.53 116.02 o 0.600603
0 6 9 314.44 272.23 o 0.600356
9 3 7 14.89 12.30 o 0.600120
12 2 4 391.10 337.25 o 0.599874
0 14 0 369.93 317.82 o 0.599390
5 3 9 356.43 319.57 o 0.599110
12 6 0 1972.41 1768.41 o 0.599080
2 11 6 541.78 486.17 o 0.598961
0 10 7 58.18 54.14 o 0.598766
7 4 8 27.17 25.28 o 0.598725
10 6 5 825.14 767.80 o 0.598718
1 6 9 3.66 3.41 o 0.598654
3 13 3 586.19 558.80 o 0.598291
0 0 10 2038.14 1942.92 o 0.598242
5 13 0 205.30 196.92 o 0.598151
13 1 2 389.77 381.67 o 0.598039
9 6 6 399.61 391.31 o 0.597950
13 3 0 1247.40 1239.47 o 0.597842
1 14 0 1130.58 1140.02 o 0.597696
8 0 8 2442.79 2463.18 o 0.597680
1 10 7 649.25 666.86 o 0.597077
2 12 5 164.46 167.90 o 0.596901
0 14 1 35.97 36.58 o 0.596404
9 10 2 1458.03 1483.08 o 0.596379
5 11 5 18.45 18.77 o 0.596353
10 4 6 270.13 275.30 o 0.596230
8 1 8 79.94 78.52 o 0.596170
12 6 1 6.52 6.40 o 0.596098
7 12 0 151.00 143.85 o 0.595583
11 8 0 23.62 21.68 o 0.595431
5 10 6 379.59 342.54 o 0.595388
5 13 1 1.66 1.50 o 0.595183
1 1 10 372.43 322.49 o 0.595056
13 3 1 378.39 323.59 o 0.594879
1 14 1 1091.10 903.49 o 0.594735
6 0 9 13.79 11.01 o 0.594227
11 4 5 1286.63 1010.54 o 0.593658
2 6 9 97.53 76.60 o 0.593633
13 2 2 3151.53 2465.97 o 0.593535
7 7 7 343.54 268.81 o 0.593481
3 8 8 84.33 67.44 o 0.593463
8 11 2 129.49 103.55 o 0.593260
10 9 2 473.51 386.40 o 0.593185
6 1 9 2.99 2.54 o 0.592743
2 14 0 649.92 566.32 o 0.592699
6 8 7 246.50 214.80 o 0.592685
7 12 1 18.32 15.96 o 0.592654
11 8 1 1148.10 1000.43 o 0.592503
12 3 4 777.97 684.36 o 0.592354
0 2 10 11.09 10.03 o 0.592252
2 10 7 3.56 3.22 o 0.592096
8 2 8 224.78 210.60 o 0.591707
2 0 10 980.05 936.32 o 0.591589
11 7 3 49.47 48.23 o 0.591413
8 9 5 58.21 56.75 o 0.591315
1 13 4 0.27 0.27 o 0.591017
6 12 3 17.22 17.71 o 0.590774
3 11 6 74.33 75.16 o 0.590650
1 2 10 803.34 812.37 o 0.590618
6 6 8 1964.98 2052.20 o 0.590461
11 6 4 35.05 35.89 o 0.590281
4 5 9 478.20 489.67 o 0.590172
2 1 10 575.21 598.45 o 0.590125
2 14 1 2.16 2.28 o 0.589812
9 4 7 102.37 107.03 o 0.589658
9 9 4 97.99 103.42 o 0.589554
8 10 4 1844.59 1946.94 o 0.589427
5 7 8 414.63 431.69 o 0.589350
12 5 3 12.94 13.21 o 0.589094
5 4 9 2675.16 2671.28 o 0.588700
3 12 5 45.45 45.38 o 0.588674
5 12 4 406.29 397.62 o 0.588540
9 8 5 76.28 74.66 o 0.588527
6 2 9 47.67 46.77 o 0.588356
8 6 7 663.98 641.82 o 0.588082
7 10 5 385.66 373.28 o 0.587950
0 14 2 1374.35 1296.86 o 0.587707
13 4 0 40.94 38.38 o 0.587497
12 6 2 424.92 406.23 o 0.587414
4 13 3 629.21 569.65 o 0.586789
5 13 2 717.31 652.00 o 0.586538
13 3 2 6.80 5.69 o 0.586248
2 13 4 533.13 445.92 o 0.586184
1 14 2 59.31 50.56 o 0.586110
2 2 10 12.74 10.24 o 0.585795
5 9 7 855.44 687.96 o 0.585768
3 6 9 0.01 0.00 < 0.585539
7 5 8 29.65 26.39 o 0.585464
13 4 1 37.38 37.84 o 0.584684
3 14 0 760.62 769.99 o 0.584643
8 8 6 25.45 25.77 o 0.584615
8 3 8 371.65 375.26 o 0.584486
7 9 6 3.77 3.79 o 0.584172
7 12 2 310.24 312.13 o 0.584117
3 10 7 3.11 3.13 o 0.584063
11 1 6 895.35 900.80 o 0.584029
11 8 2 139.35 140.20 o 0.583973
13 1 3 1085.00 1079.12 o 0.583636
10 8 4 2264.24 2251.97 o 0.583624
1 3 10 260.69 264.18 o 0.583436
7 11 4 211.75 209.95 o 0.583255
10 5 6 614.02 625.45 o 0.583130
10 0 7 262.16 258.70 o 0.582318
12 4 4 92.76 91.54 o 0.582286
4 8 8 2885.84 2844.62 o 0.582232
3 1 10 135.08 133.15 o 0.582171
9 10 3 1.46 1.44 o 0.582092
3 14 1 121.51 117.28 o 0.581871
1 9 8 1554.99 1500.87 o 0.581795
2 14 2 0.14 0.13 o 0.581396
6 3 9 66.37 56.36 o 0.581256
10 1 7 136.73 116.12 o 0.580921
11 5 5 588.01 473.56 o 0.580723
6 13 0 47.78 35.21 o 0.580379
12 7 0 1742.61 1284.19 o 0.580168
0 0 1 42376.69 43244.62 o 5.982420
1 1 0 565.73 495.56 o 5.773471
0 2 0 17246.20 16891.39 o 4.195730
1 1 1 696.41 675.15 o 4.154366
2 0 0 13661.96 14161.77 o 3.977895
1 2 0 20750.28 20754.50 o 3.711248
2 1 0 13620.94 13851.40 o 3.594478
0 2 1 18381.84 17714.33 o 3.435107
2 0 1 27829.47 28760.46 o 3.312460
1 2 1 75828.66 74404.77 o 3.153693
2 1 1 72981.09 72297.69 o 3.081097
0 0 2 91635.09 98483.23 o 2.991210
2 2 0 37165.55 38722.91 o 2.886735
1 1 2 23929.17 24543.11 o 2.655919
1 3 0 46108.20 44952.77 o 2.638808
2 2 1 3967.54 3845.19 o 2.599880
3 1 0 34758.02 33667.20 o 2.528662
0 2 2 37652.38 34412.02 o 2.435623
1 3 1 7778.94 7141.66 o 2.414366
2 0 2 59433.08 57670.30 o 2.390719
3 1 1 8132.30 7822.76 o 2.329144
1 2 2 9842.73 9469.32 o 2.328928
2 1 2 34968.13 35519.00 o 2.299228
2 3 0 1551.72 1563.55 o 2.288100
3 2 0 3630.52 3679.08 o 2.241696
2 3 1 275.07 273.11 < 2.137120
3 2 1 10.24 8.84 o 2.099163
0 4 0 4132.96 3563.81 o 2.097865
2 2 2 780.84 617.92 o 2.077183
1 4 0 44352.54 43501.40 o 2.028526
0 0 3 30316.36 31991.11 o 1.994140
4 0 0 17979.54 19583.38 o 1.988948
0 4 1 3353.69 3303.59 o 1.979673
1 3 2 9929.21 9746.35 o 1.978841
4 1 0 30741.73 33663.51 o 1.935328
3 1 2 3368.50 3865.95 o 1.931097
3 3 0 54094.25 53618.11 o 1.924490
1 4 1 66313.15 64588.23 o 1.921090
4 0 1 1001.92 853.77 o 1.887372
1 1 3 333.07 286.97 o 1.884875
2 4 0 18749.00 17879.74 o 1.855624
4 1 1 56808.11 56406.34 o 1.841372
3 3 1 30659.86 31745.55 o 1.832030
2 3 2 161.77 103.14 o 1.817364
0 2 3 9415.88 9627.00 o 1.801067
4 2 0 22977.64 23810.24 o 1.797239
3 2 2 5621.25 5929.54 o 1.793849
2 0 3 15981.70 14347.24 o 1.782681
2 4 1 1084.68 840.93 o 1.772323
1 2 3 49071.98 48199.68 o 1.756617
2 1 3 52248.86 51944.08 o 1.743767
4 2 1 37.05 33.72 o 1.721244
0 4 2 42576.12 39324.54 o 1.717554
1 4 2 22541.23 20484.92 o 1.678875
4 0 2 31767.04 32147.59 o 1.656230
3 4 0 513.01 490.17 o 1.645299
1 5 0 875.12 841.22 o 1.642151
2 2 3 4016.26 3819.12 o 1.640728
4 1 2 30405.93 31454.48 o 1.624884
4 3 0 114.00 116.52 o 1.620942
3 3 2 134800.28 134893.56 o 1.618453
1 3 3 7245.96 6696.83 o 1.590951
3 4 1 181.58 166.87 o 1.586397
1 5 1 1752.98 1402.28 o 1.583575
2 4 2 173.35 126.25 < 1.576846
3 1 3 7379.27 7064.89 o 1.565820
4 3 1 213.30 203.30 o 1.564529
5 1 0 1175.90 1116.93 o 1.563302
2 5 0 6207.52 5750.66 o 1.546302
4 2 2 361.17 246.49 o 1.540549
5 1 1 4310.34 4263.68 o 1.512513
2 3 3 324.10 389.11 o 1.503328
2 5 1 33177.23 34105.55 o 1.497100
0 0 4 153778.41 157557.27 o 1.495605
3 2 3 45.38 48.12 o 1.489937
5 2 0 4980.30 5366.76 o 1.487767
1 1 4 0.22 0.25 o 1.447815
0 4 3 2179.67 2392.94 o 1.445349
5 2 1 32082.87 33230.30 o 1.443790
4 4 0 12938.42 13317.53 o 1.443368
3 4 2 2467.63 2515.42 o 1.441610
1 5 2 27561.27 26812.34 o 1.439491
4 3 2 303.71 283.82 o 1.425141
1 4 3 46487.55 44167.29 o 1.422071
3 5 0 40827.86 40566.64 o 1.418159
0 2 4 9354.93 8528.67 o 1.408779
4 0 3 274.43 251.04 o 1.408231
4 4 1 202.51 168.69 o 1.403108
2 0 4 8163.70 7537.50 o 1.399927
0 6 0 90803.20 84082.24 o 1.398577
4 1 3 42284.11 42644.61 o 1.388810
1 2 4 12095.80 12321.10 o 1.387198
5 1 2 15976.82 16335.82 o 1.385493
3 3 3 22945.87 23357.49 o 1.384789
5 3 0 38917.30 39916.74 o 1.383046
2 1 4 9163.92 9396.05 o 1.380844
3 5 1 12922.17 13068.94 o 1.379916
1 6 0 3650.99 3619.68 o 1.377455
2 5 2 4816.59 4290.28 o 1.373617
0 6 1 20178.51 16846.71 o 1.361857
2 4 3 1382.06 1219.90 o 1.358456
5 3 1 22695.21 22560.50 o 1.347505
1 6 1 756.56 582.92 o 1.342332
4 2 3 100.74 103.07 o 1.335040
5 2 2 2185.47 2150.95 o 1.332093
2 2 4 16141.30 16442.68 o 1.327960
6 0 0 95229.29 96532.73 o 1.325965
2 6 0 5648.56 4382.11 o 1.319404
6 1 0 8628.99 6599.61 o 1.309715
1 3 4 23898.45 23149.74 o 1.301150
4 4 2 684.11 664.88 o 1.299940
6 0 1 23643.21 24473.03 o 1.294548
2 6 1 11015.28 11267.59 o 1.288441
3 1 4 19392.18 19850.19 o 1.287295
4 5 0 13640.67 13983.39 o 1.282667
3 5 2 16513.43 16581.77 o 1.281433
6 1 1 680.06 679.49 o 1.279413
3 4 3 222.42 218.54 o 1.269098
5 4 0 15139.32 14665.93 o 1.267757
1 5 3 1285.44 1244.77 o 1.267652
0 6 2 33125.25 32119.92 o 1.266932
6 2 0 5341.82 5229.00 o 1.264331
4 3 3 198.51 187.65 o 1.257818
5 3 2 5845.17 5895.56 o 1.255352
4 5 1 27272.62 27321.29 o 1.254164
2 3 4 198.61 205.64 o 1.251891
1 6 2 656.35 669.01 o 1.251166
3 2 4 1810.21 1730.21 o 1.244126
5 4 1 31627.45 32720.04 o 1.240215
3 6 0 78.20 78.93 o 1.237083
6 2 1 8012.81 8088.19 o 1.237007
5 1 3 2753.56 2416.91 o 1.230308
2 5 3 25080.39 23404.27 o 1.221970
0 4 4 2984.36 2787.25 o 1.217811
6 0 2 34893.12 36590.63 o 1.212202
3 6 1 117.71 120.18 o 1.211452
2 6 2 25408.93 24678.38 o 1.207183
1 4 4 23015.58 22150.48 o 1.203790
6 1 2 2625.80 2333.81 o 1.199749
6 3 0 1023.43 931.45 o 1.198159
0 0 5 18848.61 16606.91 o 1.196484
4 0 4 8301.28 7737.73 o 1.195360
5 2 3 23691.48 22856.69 o 1.192460
1 7 0 575.40 590.68 o 1.185399
4 1 4 18544.37 17506.28 o 1.183413
3 3 4 33298.68 31376.86 o 1.180922
4 5 2 12034.56 11425.22 o 1.178854
6 3 1 35.48 30.83 o 1.174829
1 1 5 737.76 781.62 o 1.171590
4 4 3 7.49 8.90 o 1.169229
