#------------------------------------------------------------------------------
#$Date: 2016-03-05 12:19:26 +0200 (Sat, 05 Mar 2016) $
#$Revision: 177864 $
#$URL: svn://www.crystallography.net/cod/cif/7/03/81/7038101.cif $
#------------------------------------------------------------------------------
#
# This file is available in the Crystallography Open Database (COD),
# http://www.crystallography.net/
#
# All data on this site have been placed in the public domain by the
# contributors.
#
data_7038101
loop_
_publ_author_name
'Nielsen, Morten B.'
'Xie, Weiwei'
'Cava, Robert J.'
_publ_section_title
;
 Ternary rare earth silicides RE2M3Si4 (RE = Sc, Y, Lu; M = Mo, W):
 crystal structure, coloring and electronic properties.
;
_journal_issue                   9
_journal_name_full
'Dalton transactions (Cambridge, England : 2003)'
_journal_page_first              3771
_journal_page_last               3777
_journal_paper_doi               10.1039/c5dt03976b
_journal_volume                  45
_journal_year                    2016
_chemical_formula_sum            'Lu2 Mo3 Si4'
_chemical_formula_weight         750.12
_chemical_name_systematic
; 
 ? 
;
_space_group_crystal_system      orthorhombic
_space_group_IT_number           62
_space_group_name_Hall           '-P 2ac 2n'
_space_group_name_H-M_alt        'P n m a'
_symmetry_space_group_name_Hall  '-P 2ac 2n'
_symmetry_space_group_name_H-M   'P n m a'
_audit_creation_method           SHELXL-2013
_cell_angle_alpha                90
_cell_angle_beta                 90
_cell_angle_gamma                90
_cell_formula_units_Z            4
_cell_length_a                   6.6451(3)
_cell_length_b                   12.7818(6)
_cell_length_c                   6.8725(3)
_cell_measurement_reflns_used    1537
_cell_measurement_temperature    300(2)
_cell_measurement_theta_max      29.58
_cell_measurement_theta_min      4.27
_cell_volume                     583.72(5)
_computing_cell_refinement       'Bruker SAINT'
_computing_data_collection       'Bruker APEX2'
_computing_data_reduction        'Bruker SAINT'
_computing_molecular_graphics    'Bruker SHELXTL'
_computing_publication_material  'Bruker SHELXTL'
_computing_structure_refinement  'SHELXL-2013 (Sheldrick, 2013)'
_computing_structure_solution    'SHELXS-97 (Sheldrick 2008)'
_diffrn_ambient_temperature      300(2)
_diffrn_measured_fraction_theta_full 1.000
_diffrn_measured_fraction_theta_max 1.000
_diffrn_measurement_device_type  'Bruker APEX-II CCD'
_diffrn_measurement_method       '\f and \w scans'
_diffrn_radiation_type           MoK\a
_diffrn_radiation_wavelength     0.71073
_diffrn_reflns_av_R_equivalents  0.0297
_diffrn_reflns_av_unetI/netI     0.0230
_diffrn_reflns_laue_measured_fraction_full 1.000
_diffrn_reflns_laue_measured_fraction_max 1.000
_diffrn_reflns_limit_h_max       8
_diffrn_reflns_limit_h_min       -9
_diffrn_reflns_limit_k_max       15
_diffrn_reflns_limit_k_min       -17
_diffrn_reflns_limit_l_max       9
_diffrn_reflns_limit_l_min       -9
_diffrn_reflns_number            5052
_diffrn_reflns_point_group_measured_fraction_full 1.000
_diffrn_reflns_point_group_measured_fraction_max 1.000
_diffrn_reflns_theta_full        25.242
_diffrn_reflns_theta_max         29.584
_diffrn_reflns_theta_min         3.188
_exptl_absorpt_coefficient_mu    40.457
_exptl_absorpt_correction_T_max  0.7459
_exptl_absorpt_correction_T_min  0.5869
_exptl_absorpt_correction_type   multi-scan
_exptl_crystal_colour            Metallic
_exptl_crystal_density_diffrn    8.536
_exptl_crystal_density_meas      ?
_exptl_crystal_density_method    'Not measured'
_exptl_crystal_description       Irregular
_exptl_crystal_F_000             1296
_exptl_crystal_size_max          0.020
_exptl_crystal_size_mid          0.010
_exptl_crystal_size_min          0.005
_refine_diff_density_max         1.345
_refine_diff_density_min         -1.689
_refine_diff_density_rms         0.453
_refine_ls_extinction_method     none
_refine_ls_goodness_of_fit_ref   0.999
_refine_ls_hydrogen_treatment    undef
_refine_ls_matrix_type           full
_refine_ls_number_parameters     46
_refine_ls_number_reflns         853
_refine_ls_number_restraints     0
_refine_ls_restrained_S_all      0.999
_refine_ls_R_factor_all          0.0300
_refine_ls_R_factor_gt           0.0196
_refine_ls_shift/su_max          0.000
_refine_ls_shift/su_mean         0.000
_refine_ls_structure_factor_coef Fsqd
_refine_ls_weighting_details
'w=1/[\s^2^(Fo^2^)+(0.0230P)^2^] where P=(Fo^2^+2Fc^2^)/3'
_refine_ls_weighting_scheme      calc
_refine_ls_wR_factor_gt          0.0411
_refine_ls_wR_factor_ref         0.0428
_reflns_Friedel_coverage         0.000
_reflns_number_gt                647
_reflns_number_total             853
_reflns_threshold_expression     'I > 2\s(I)'
_cod_data_source_file            c5dt03976b2.cif
_cod_data_source_block           Lu2Mo3Si4
_cod_depositor_comments
;
The following automatic conversions were performed:

'_exptl_crystal_density_meas' value 'None' was changed to '?' - the
value is perceived as not measured.

Automatic conversion script
Id: cif_fix_values 4268 2015-11-12 08:31:59Z antanas 

 Adding full bibliography for 7038099--7038101.cif.
;
_cod_original_cell_volume        583.73(5)
_cod_database_code               7038101
_shelx_space_group_comment
; 
The symmetry employed for this shelxl refinement is uniquely defined 
by the following loop, which should always be used as a source of 
symmetry information in preference to the above space-group names. 
They are only intended as comments. 
;
_shelxl_version_number           2013-4
_shelx_res_file
; 
TITL MBN085Lu in Pnma 
CELL 0.71073   6.64510  12.78180   6.87250  90.0000  90.0000  90.0000 
ZERR    4.00   0.00030   0.00060   0.00030   0.0000   0.0000   0.0000 
LATT  1 
SYMM 0.5-X, -Y, 0.5+Z 
SYMM -X, 0.5+Y, -Z 
SYMM 0.5+X, 0.5-Y, 0.5-Z 
SFAC SI MO LU 
UNIT 16 12 8 
TEMP 26.620 
  
L.S. 10 
ACTA 
  
WGHT    0.023000 
FVAR       0.05096 
MOLE   1 
LU1   3   -0.002581    0.406752    0.331294    11.00000    0.00345    0.00510 = 
         0.00544    0.00010   -0.00026   -0.00014 
MO2   2    0.170226    0.375960    0.833320    11.00000    0.00299    0.00368 = 
         0.00465    0.00015    0.00009    0.00044 
MO3   2   -0.165749    0.250000    0.003783    10.50000    0.00172    0.00420 = 
         0.00452    0.00000    0.00001    0.00000 
SI4   1    0.161602    0.545713    0.040126    11.00000    0.00445    0.00469 = 
         0.00533   -0.00069    0.00058    0.00064 
SI5   1   -0.301058    0.250000    0.366865    10.50000    0.00424    0.00475 = 
         0.00615    0.00000    0.00001    0.00000 
SI6   1   -0.033391    0.250000    0.630255    10.50000    0.00411    0.00620 = 
         0.00625    0.00000    0.00113    0.00000 
  
HKLF 4 
  
REM  MBN085Lu in Pnma 
REM R1 =  0.0196 for     647 Fo > 4sig(Fo)  and  0.0300 for all     853 data 
REM     46 parameters refined using      0 restraints 
  
END 
  
WGHT      0.0230      0.0000 
  
REM Highest difference peak  1.345,  deepest hole -1.689,  1-sigma level  0.453 
Q1    1  -0.2573  0.2500 -0.1657  10.50000  0.05    1.35 
Q2    1   0.2616  0.4684  0.2077  11.00000  0.05    1.33 
Q3    1  -0.5010  0.2500  0.1625  10.50000  0.05    1.22 
Q4    1  -0.2113  0.3385  0.3914  11.00000  0.05    1.20 
Q5    1  -0.3812  0.2500  0.1091  10.50000  0.05    1.20 
Q6    1   0.2309  0.5121 -0.1383  11.00000  0.05    1.17 
Q7    1   0.1214  0.3702  0.6207  11.00000  0.05    1.14 
Q8    1  -0.0248  0.4113  0.8146  11.00000  0.05    1.13 
Q9    1   0.0006  0.2994 -0.0774  11.00000  0.05    1.11 
Q10   1  -0.2892  0.3172  0.1091  11.00000  0.05    1.08 
Q11   1   0.2186  0.3936  0.3293  11.00000  0.05    1.07 
Q12   1  -0.2750  0.3209 -0.1141  11.00000  0.05    1.05 
Q13   1  -0.0318  0.3334  0.7841  11.00000  0.05    1.04 
Q14   1  -0.1557  0.3520  0.0819  11.00000  0.05    1.02 
Q15   1  -0.0450  0.5369  0.3217  11.00000  0.05    1.01 
Q16   1   0.1109  0.5060  0.3869  11.00000  0.05    1.01 
Q17   1  -0.0649  0.3773  0.5950  11.00000  0.05    1.00 
Q18   1   0.0990  0.3103  0.3685  11.00000  0.05    0.99 
Q19   1   0.2880  0.3197  0.9045  11.00000  0.05    0.97 
Q20   1   0.1616  0.2877  0.7441  11.00000  0.05    0.96 
;
_shelx_res_checksum              56597
_shelx_hkl_file
; 
   1   0   0    0.27    0.24 
  -1   0   0   -0.15    0.22 
  -2   0   0  163.77    3.72 
   2   0   0  171.39    3.75 
  -2   0   0  173.99    3.75 
  -3   0   0   -0.80    0.52 
   3   0   0   -0.95    0.39 
  -3   0   0   -1.23    0.45 
   3   0   0   -1.11    0.45 
  -3   0   0   -1.27    0.39 
   4   0   0  177.27    4.01 
  -4   0   0  178.98    4.35 
   4   0   0  176.43    4.38 
  -4   0   0  183.29    4.05 
  -5   0   0   -0.21    0.82 
   5   0   0   -0.09    0.90 
  -5   0   0    0.15    0.66 
  -6   0   0 1000.00   20.89 
  -7   0   0    0.04    1.31 
  -8   0   0   40.68    2.78 
  -9   0   0    0.33    1.95 
  -1   0   1   20.33    0.63 
  -1   0  -1   20.48    0.71 
   1   0   1   21.66    0.72 
   1   0  -1   21.58    0.66 
   2   0  -1   67.15    1.76 
  -2   0  -1   69.25    1.87 
  -2   0  -1   67.14    1.81 
   2   0  -1   70.14    1.71 
   2   0   1   68.25    1.81 
  -2   0   1   67.01    1.70 
  -2   0   1   64.99    1.72 
   3   0  -1  732.25   14.45 
  -3   0   1  709.62   14.54 
   3   0  -1  715.43   14.58 
  -3   0   1  735.14   14.46 
   3   0   1  707.47   14.62 
  -3   0  -1  683.58   14.65 
  -3   0   1  721.98   14.55 
  -4   0  -1   40.45    1.69 
  -4   0   1   38.08    1.54 
   4   0   1   41.24    1.74 
   4   0  -1   36.04    1.67 
  -4   0   1   41.23    1.70 
  -4   0   1   40.46    1.45 
   4   0  -1   40.23    1.44 
  -4   0  -1   40.67    1.34 
  -5   0   1    6.35    1.05 
  -5   0   1   10.02    0.96 
  -5   0  -1    7.48    1.09 
   5   0   1    9.33    1.26 
   5   0  -1    8.62    0.92 
   6   0   1    0.70    1.14 
  -6   0   1   -0.34    0.86 
  -6   0   1    0.15    1.05 
   6   0  -1    1.20    0.87 
  -6   0  -1    0.70    1.16 
  -7   0  -1   10.42    1.62 
  -7   0   1    9.99    1.60 
  -8   0   1   22.29    2.27 
  -8   0  -1   26.61    2.44 
  -9   0   1  186.85    6.15 
  -9   0  -1  189.77    6.24 
   0   0  -2  101.54    2.27 
   0   0  -2   97.48    2.23 
   1   0  -2   47.70    1.14 
   1   0  -2   46.65    1.25 
  -1   0  -2   47.30    1.37 
   1   0   2   45.63    1.19 
   2   0  -2  184.40    4.01 
  -2   0  -2  182.69    4.22 
   2   0  -2  186.00    4.09 
  -2   0   2  181.42    3.94 
  -2   0   2  182.27    4.02 
   2   0   2  186.36    4.10 
  -2   0   2  186.08    4.09 
  -3   0   2   -0.29    0.48 
  -3   0  -2   -0.08    0.64 
  -3   0   2    0.18    0.44 
   3   0  -2    0.13    0.50 
  -3   0   2    0.34    0.42 
   3   0  -2    0.03    0.49 
   3   0   2    0.30    0.53 
  -4   0   2  156.23    3.85 
  -4   0   2  162.45    3.92 
   4   0   2  162.85    4.11 
  -4   0  -2  153.75    4.16 
   4   0  -2  160.87    3.86 
   5   0  -2   26.19    1.48 
  -5   0   2   28.80    1.68 
   5   0   2   24.75    1.61 
  -5   0  -2   27.07    1.82 
  -5   0   2   27.27    1.52 
  -6   0   2   42.85    2.26 
   6   0  -2   39.66    1.96 
  -6   0   2   42.91    2.03 
  -6   0  -2   41.33    2.46 
   6   0   2   35.97    2.24 
  -7   0  -2   18.96    2.06 
  -7   0   2   15.37    1.77 
   7   0  -2   16.12    1.71 
  -8   0  -2   44.48    3.00 
  -8   0   2   45.68    2.94 
  -9   0  -2    2.65    2.08 
  -9   0   2    2.89    2.10 
   0   0  -3   -1.45    0.36 
   0   0  -3   -1.40    0.37 
   1   0  -3  483.59    9.95 
   1   0  -3  487.40    9.64 
  -1   0   3  488.26    9.90 
   1   0   3  478.30    9.59 
   1   0  -3  482.02    9.87 
  -1   0  -3  484.30   10.02 
  -1   0  -3  480.06    9.78 
   2   0  -3    7.10    0.74 
  -2   0   3    7.77    0.75 
  -2   0  -3    8.24    0.88 
   2   0  -3    8.16    0.63 
   2   0  -3    8.65    0.62 
  -2   0   3    9.76    0.69 
   2   0   3    9.20    0.64 
  -2   0  -3    8.31    0.52 
  -3   0  -3  591.00   12.68 
   3   0  -3  600.87   12.48 
   3   0   3  603.58   12.47 
  -3   0   3  601.38   12.39 
  -3   0   3  604.43   12.49 
   4   0   3    1.09    0.74 
   4   0  -3    2.33    0.77 
  -4   0   3    1.83    0.72 
  -4   0  -3    1.69    0.85 
  -4   0   3    1.65    0.74 
   5   0  -3  205.04    5.05 
  -5   0   3  208.24    5.08 
  -5   0   3  206.65    5.12 
   5   0   3  201.02    5.27 
  -5   0  -3  203.23    5.45 
   6   0   3    0.09    1.24 
   6   0  -3    2.12    1.04 
  -6   0   3    0.97    1.04 
  -6   0  -3    0.44    1.32 
  -6   0   3    1.86    1.14 
   7   0  -3  226.91    5.94 
  -7   0  -3  236.49    6.55 
  -7   0   3  232.81    5.99 
  -7   0   3  216.24    6.08 
  -8   0  -3    2.81    1.97 
  -8   0   3    2.05    1.76 
   0   0  -4  130.64    3.14 
   0   0  -4  126.80    3.10 
   1   0  -4   90.62    2.45 
  -1   0  -4   88.29    2.48 
  -1   0   4   90.31    2.38 
  -1   0  -4   89.15    2.28 
   1   0  -4   90.64    2.35 
   2   0   4   94.74    2.25 
  -2   0   4   86.22    2.62 
  -2   0  -4   94.47    2.77 
   2   0  -4   96.68    2.64 
  -2   0   4   92.40    2.51 
  -2   0  -4   95.76    2.31 
   2   0  -4   99.52    2.50 
  -3   0   4    0.91    0.63 
  -3   0   4    1.52    0.79 
   3   0   4    1.04    0.57 
  -3   0  -4    0.87    0.86 
   3   0  -4    0.59    0.72 
  -4   0   4  108.46    3.13 
   4   0   4  114.16    3.18 
   4   0  -4  114.71    3.25 
  -4   0   4  111.28    3.27 
  -4   0  -4  110.86    3.53 
  -5   0   4   70.98    2.62 
  -5   0   4   66.90    2.59 
  -5   0  -4   66.50    2.79 
   5   0   4   66.81    2.61 
   5   0  -4   60.49    2.46 
  -6   0  -4   35.63    2.33 
   6   0  -4   39.18    2.25 
  -6   0   4   30.96    1.99 
  -6   0   4   34.43    2.14 
  -7   0   4   24.86    2.19 
  -7   0   4   24.39    2.11 
  -7   0  -4   26.01    2.48 
   7   0  -4   23.09    2.00 
  -8   0  -4   23.83    2.68 
   8   0  -4   17.94    2.18 
  -8   0   4   14.98    2.18 
   0   0   5   -0.35    0.59 
   0   0  -5   -0.32    0.59 
   0   0  -5    0.42    0.60 
  -1   0  -5   24.05    1.25 
  -1   0   5   21.29    1.31 
  -1   0  -5   23.33    1.38 
   1   0  -5   20.32    1.24 
   1   0  -5   19.55    1.24 
   2   0  -5   60.30    2.00 
  -2   0   5   62.87    2.06 
  -2   0  -5   62.71    2.29 
  -2   0   5   63.41    2.24 
   2   0  -5   61.16    2.13 
  -3   0   5  318.62    7.28 
  -3   0  -5  310.58    7.38 
  -3   0   5  313.29    7.01 
   3   0   5  308.36    6.68 
   3   0  -5  314.77    7.22 
  -4   0  -5   39.17    2.35 
   4   0   5   42.55    1.84 
  -4   0   5   39.28    2.07 
  -4   0   5   39.92    1.95 
   4   0  -5   43.07    2.08 
  -5   0  -5   17.88    1.87 
  -5   0   5   19.31    1.75 
  -5   0   5   21.56    1.66 
   5   0  -5   18.31    1.66 
  -6   0   5    0.26    1.35 
  -6   0   5    1.65    1.36 
   6   0  -5    0.04    1.32 
  -6   0  -5   -0.18    1.33 
   7   0  -5    9.30    1.82 
  -7   0   5   12.63    1.96 
  -7   0  -5    9.76    2.10 
   0   0  -6  863.66   17.79 
   0   0  -6  864.81   17.81 
   0   0   6  858.42   17.87 
   1   0  -6    0.81    0.87 
  -1   0   6    1.03    0.91 
  -1   0   6    0.09    0.80 
  -1   0  -6    0.63    0.86 
   1   0  -6    0.09    0.77 
  -1   0  -6    0.41    0.81 
  -2   0   6   98.84    2.95 
  -2   0   6   92.76    3.05 
   2   0  -6   94.80    3.11 
   2   0  -6  100.86    2.88 
  -2   0  -6   97.59    3.17 
   3   0  -6    1.98    1.04 
  -3   0   6    0.92    0.96 
  -3   0  -6    1.29    1.09 
   3   0   6    1.98    0.40 
  -3   0   6    1.77    1.04 
   4   0  -6   97.47    3.28 
  -4   0   6   93.68    3.41 
  -4   0   6   99.23    3.26 
  -4   0  -6   97.90    3.62 
  -5   0  -6   -0.43    1.46 
  -5   0   6    0.23    1.17 
   5   0  -6   -0.21    1.19 
   6   0  -6  495.01   11.40 
  -6   0  -6  485.11   11.83 
  -6   0   6  499.05   11.56 
  -7   0   6    0.51    1.89 
  -7   0  -6    0.86    1.94 
   7   0  -6    2.84    1.85 
   0   0  -7   -0.82    0.90 
   0   0  -7    0.32    1.04 
   0   0   7   -0.36    1.01 
   0   0   7    0.17    1.05 
   1   0  -7   12.56    1.41 
   1   0  -7   12.03    1.30 
  -1   0   7   11.09    1.43 
   1   0   7   13.01    1.46 
  -1   0  -7   13.20    1.42 
  -1   0   7   12.86    1.41 
   2   0  -7   23.90    1.83 
  -2   0   7   21.71    1.80 
   2   0  -7   22.02    1.55 
  -2   0  -7   21.75    1.81 
  -2   0   7   22.09    1.65 
  -3   0   7  198.36    5.48 
  -3   0   7  197.60    5.51 
  -3   0  -7  195.31    5.49 
   3   0  -7  193.75    5.40 
   4   0  -7   12.28    1.69 
  -4   0  -7    7.87    1.67 
  -4   0   7    9.54    1.71 
  -5   0   7    4.81    1.74 
  -5   0  -7    4.04    1.76 
   5   0  -7    1.93    1.53 
  -6   0   7    9.03    2.05 
   6   0  -7    6.89    1.81 
  -6   0  -7    5.91    2.06 
   0   0  -8   50.86    2.49 
   0   0   8   45.89    2.71 
   1   0   8   14.43    1.78 
  -1   0   8    9.78    1.65 
   1   0  -8   11.70    1.90 
  -1   0  -8   12.12    1.62 
  -1   0   8    9.94    1.59 
   1   0  -8   13.47    1.75 
   2   0  -8   45.30    2.66 
  -2   0  -8   48.13    2.75 
  -2   0   8   47.42    2.76 
  -3   0  -8    0.01    1.62 
   3   0  -8    1.84    1.43 
  -3   0   8    1.12    1.49 
  -4   0  -8   37.16    2.89 
  -4   0   8   39.32    2.88 
   4   0  -8   46.71    2.91 
  -5   0  -8   16.59    2.51 
   5   0  -8   11.56    2.13 
  -5   0   8   10.50    2.26 
  -1   0   9   84.55    3.82 
  -1   0  -9   82.90    3.89 
   1   0   9   78.77    3.82 
   2   0   9    2.23    1.77 
  -2   0   9    1.81    1.75 
  -2   0  -9    2.05    1.69 
   2   0  -9    2.81    1.75 
  -3   0  -9  217.63    6.54 
   3   0  -9  216.16    6.56 
  -3   0   9  226.25    6.71 
   0   1   0    0.12    0.09 
   0  -1   0   -0.07    0.08 
   1  -1   0    0.77    0.22 
  -1  -1   0    0.44    0.33 
   1   1   0   -0.12    0.31 
   2   1   0    1.68    0.47 
  -2   1   0    0.59    0.34 
   2  -1   0    0.65    0.37 
  -2  -1   0    0.74    0.41 
  -2  -1   0    1.39    0.38 
  -2   1   0    1.46    0.46 
  -2  -1   0    0.75    0.44 
  -3   1   0    0.36    0.46 
  -3  -1   0   -0.23    0.41 
  -3   1   0    0.35    0.35 
  -3   1   0   -0.15    0.54 
  -3  -1   0    0.04    0.52 
   3   1   0    0.14    0.58 
   3  -1   0    0.02    0.33 
   3  -1   0   -0.06    0.45 
  -3  -1   0    0.23    0.53 
   4  -1   0   24.95    1.36 
  -4   1   0   25.43    1.06 
   4   1   0   25.31    1.50 
  -4  -1   0   23.29    1.27 
   4  -1   0   25.66    1.07 
  -4  -1   0   25.13    1.21 
  -4   1   0   25.91    1.41 
  -5  -1   0   -0.01    0.69 
  -5   1   0    0.35    0.71 
   5  -1   0    0.17    0.59 
   5   1   0    0.42    0.94 
   5  -1   0    0.24    0.78 
  -5  -1   0    0.13    0.80 
  -5   1   0   -0.10    0.84 
  -6  -1   0   -0.58    1.04 
  -6   1   0    0.18    0.98 
  -7  -1   0    0.17    1.29 
  -7   1   0   -0.19    1.35 
  -8  -1   0    6.53    1.76 
  -8   1   0    5.31    1.75 
  -9   1   0   -0.15    1.92 
  -9  -1   0    1.08    1.93 
   0  -1   1   15.27    0.40 
   0   1  -1   15.35    0.40 
   0   1   1   15.21    0.43 
  -1  -1   1    1.47    0.29 
  -1   1  -1    1.10    0.23 
   1   1   1    1.92    0.34 
  -1  -1  -1    1.15    0.33 
   1  -1   1    0.93    0.23 
   1   1  -1    0.67    0.32 
  -2   1  -1  180.45    4.04 
  -2   1  -1  183.00    4.16 
   2  -1  -1  187.51    3.98 
  -2  -1   1  182.78    3.98 
   2   1   1  185.89    4.18 
   2  -1  -1  191.97    4.04 
  -2  -1   1  190.42    4.06 
  -2  -1   1  189.05    4.09 
   2   1  -1  188.23    4.14 
  -2  -1  -1  187.78    4.17 
  -2   1   1  189.11    4.08 
   2  -1   1  186.23    4.06 
   2   1  -1  185.70    4.05 
   3  -1  -1    0.19    0.39 
   3  -1  -1    0.11    0.45 
   3   1   1    0.66    0.53 
  -3  -1   1   -0.47    0.44 
  -3   1  -1   -0.11    0.57 
  -3  -1   1   -0.43    0.44 
  -3  -1   1   -0.04    0.47 
   3   1  -1    0.03    0.46 
  -3   1   1    0.42    0.50 
  -3  -1  -1   -0.16    0.45 
  -3   1   1    0.31    0.39 
   3  -1   1    0.06    0.46 
  -3  -1  -1    0.44    0.58 
  -3   1   1    0.23    0.45 
   3   1  -1    1.12    0.55 
   4  -1  -1  157.99    3.82 
  -4  -1   1  148.26    3.63 
  -4   1  -1  147.81    3.86 
  -4  -1   1  145.88    3.80 
  -4  -1   1  154.84    3.75 
  -4   1  -1  149.58    3.35 
   4   1   1  152.66    3.95 
   4  -1  -1  151.19    3.53 
  -4   1   1  153.13    3.55 
   4   1  -1  143.30    3.61 
  -4   1   1  151.85    3.72 
  -4  -1  -1  149.83    3.86 
  -4  -1  -1  152.40    3.51 
   4   1  -1  154.61    3.95 
   4  -1   1  154.77    3.81 
  -4   1   1  150.67    3.81 
  -5  -1   1   13.17    1.08 
  -5   1  -1   11.73    1.31 
  -5  -1   1   12.53    1.18 
   5   1   1   13.50    1.37 
   5  -1  -1   13.22    1.01 
  -5  -1  -1   14.23    1.33 
   5   1  -1   10.68    0.99 
   5  -1   1   13.58    1.24 
  -5   1   1   13.19    1.01 
  -5   1   1   10.22    1.09 
  -6  -1   1   10.11    1.22 
   6   1   1    9.88    1.74 
   6  -1  -1    9.99    1.33 
  -6  -1   1    9.27    1.34 
  -6   1  -1   10.12    1.47 
  -6  -1  -1    6.04    1.29 
   6  -1   1   10.63    1.50 
  -6   1   1   10.19    1.35 
  -7   1  -1    1.18    1.24 
  -7  -1   1    0.45    1.26 
  -7  -1  -1   -0.90    1.32 
  -7   1   1   -0.51    1.32 
  -8   1  -1   66.96    3.57 
  -8  -1   1   75.41    3.65 
  -8  -1  -1   70.93    3.58 
  -8   1   1   71.11    3.50 
  -9   1  -1    0.26    1.89 
  -9  -1   1    0.27    1.88 
  -9   1   1   -0.08    1.99 
  -9  -1  -1   -0.96    1.90 
   0  -1  -2    0.00    0.15 
   0   1  -2    0.52    0.32 
   0  -1   2    0.18    0.29 
   0   1  -2    0.07    0.11 
   0  -1  -2   -0.05    0.32 
   0  -1  -2   -0.83    0.27 
   1  -1  -2  180.23    3.76 
   1   1   2  173.11    3.66 
   1  -1  -2  174.45    3.77 
  -1   1  -2  171.51    3.82 
  -1  -1   2  175.62    3.57 
  -1  -1   2  172.40    3.78 
  -1  -1  -2  171.31    3.86 
   1   1  -2  170.99    3.65 
  -1   1   2  173.83    3.77 
   1  -1   2  175.62    3.61 
   1   1  -2  167.97    3.76 
  -2  -1   2   99.82    2.42 
   2   1   2   88.99    2.37 
   2  -1  -2   93.16    2.27 
   2  -1  -2   94.57    2.32 
  -2  -1   2   96.90    2.26 
  -2  -1   2   96.04    2.27 
  -2   1  -2   99.53    2.54 
  -2   1   2   96.64    2.36 
   2   1  -2   94.96    2.39 
  -2  -1  -2   94.97    2.50 
   2   1  -2   95.49    2.38 
   2  -1   2   98.31    2.32 
  -3  -1   2   12.05    0.78 
   3  -1  -2   11.57    0.80 
  -3  -1   2   11.77    0.80 
  -3  -1   2   12.60    0.89 
   3   1   2    9.93    0.88 
   3  -1  -2   12.86    0.83 
  -3   1  -2   11.07    0.94 
   3  -1   2   11.39    0.84 
  -3  -1  -2    9.04    0.89 
   3   1  -2   11.67    0.87 
  -3   1   2   11.07    0.80 
   3   1  -2   11.61    0.84 
  -3   1   2   12.66    0.81 
  -3  -1  -2   12.34    0.69 
  -4  -1   2   72.86    2.28 
   4   1   2   77.78    2.52 
  -4  -1   2   74.85    2.29 
   4  -1  -2   74.59    2.20 
  -4   1  -2   73.16    2.53 
  -4   1   2   78.92    2.36 
   4  -1   2   75.53    2.41 
   4   1  -2   78.45    2.31 
  -4   1   2   74.98    2.23 
  -4  -1  -2   75.06    2.55 
   5   1   2   98.11    3.20 
  -5  -1   2   91.48    2.86 
   5  -1  -2   89.12    2.71 
  -5   1  -2   97.21    3.22 
  -5  -1   2   92.56    2.88 
   5  -1   2   86.50    3.02 
   5   1  -2   94.42    2.81 
  -5   1   2   92.52    2.74 
  -5  -1  -2  108.16    3.27 
  -5   1   2   97.88    2.99 
  -6   1  -2   -0.30    1.21 
  -6  -1   2    0.76    1.08 
   6   1   2    0.59    1.21 
   6  -1  -2   -0.36    0.87 
  -6  -1   2   -0.40    0.96 
   6  -1   2    0.30    1.19 
  -6   1   2    0.15    0.90 
   6   1  -2    0.84    0.93 
  -6  -1  -2    0.51    1.17 
  -6   1   2    1.34    1.05 
  -7  -1   2   86.12    3.46 
  -7  -1   2   92.01    3.30 
  -7   1  -2   90.49    3.67 
  -7   1   2   87.96    3.43 
   7   1  -2   85.36    3.20 
  -7  -1  -2   80.16    3.39 
  -8  -1   2   18.20    2.15 
  -8   1  -2   19.53    2.18 
  -8   1   2   18.08    2.17 
  -8  -1  -2   20.70    2.27 
  -9  -1   2    5.56    2.16 
  -9   1  -2    2.11    2.10 
  -9   1   2    3.49    2.06 
  -9  -1  -2    3.23    2.13 
   0  -1   3    1.06    0.40 
   0  -1  -3    0.95    0.42 
   0   1  -3    0.63    0.40 
   0  -1  -3    0.92    0.44 
   0   1  -3    0.56    0.39 
   1   1   3  221.60    4.53 
   1  -1  -3  224.26    4.84 
  -1   1  -3  221.57    4.64 
  -1  -1   3  219.68    4.86 
   1  -1  -3  222.23    4.81 
  -1  -1   3  217.42    4.72 
  -1   1  -3  224.63    4.89 
   1   1  -3  224.41    4.85 
   1   1  -3  223.37    4.70 
   1  -1   3  218.03    4.48 
  -1  -1  -3  224.98    4.92 
  -1   1   3  220.41    4.84 
   1   1  -3  212.29    4.57 
  -1  -1  -3  222.41    4.72 
  -2  -1   3    4.64    0.52 
   2  -1  -3    4.29    0.54 
  -2  -1   3    4.57    0.66 
  -2  -1   3    5.47    0.44 
   2   1   3    4.33    0.54 
   2  -1  -3    4.49    0.49 
  -2   1  -3    7.12    0.80 
   2  -1  -3    4.34    0.59 
   2  -1   3    4.74    0.52 
   2   1  -3    6.30    0.71 
  -2  -1  -3    5.13    0.75 
   2   1  -3    5.27    0.60 
  -2   1   3    3.50    0.53 
  -2  -1  -3    4.67    0.51 
  -3   1  -3   -0.13    0.75 
   3   1   3    0.07    0.54 
  -3  -1   3   -0.30    0.47 
   3  -1  -3    0.69    0.57 
  -3  -1   3    0.23    0.60 
  -3  -1   3   -0.09    0.41 
  -3   1   3    0.24    0.59 
   3   1  -3    0.29    0.60 
  -3  -1  -3    0.28    0.75 
  -3   1   3   -0.33    0.52 
  -3  -1  -3    0.03    0.42 
   3  -1   3    0.84    0.55 
   4  -1  -3    0.46    0.68 
   4   1   3    0.57    0.76 
  -4  -1   3    0.76    0.64 
  -4   1  -3    1.14    0.96 
  -4  -1   3    0.17    0.67 
   4   1  -3    0.63    0.71 
  -4   1   3    0.52    0.66 
   4  -1   3    0.20    0.70 
  -4  -1  -3    0.54    0.78 
  -4   1   3    0.65    0.69 
   5   1   3   56.05    2.45 
   5  -1  -3   54.50    2.15 
  -5   1  -3   55.65    2.57 
  -5  -1   3   59.18    2.22 
  -5  -1   3   54.49    2.22 
  -5   1   3   48.51    2.11 
  -5  -1  -3   55.04    2.44 
  -5   1   3   59.23    2.30 
   5  -1   3   55.42    2.41 
   5   1  -3   56.43    2.22 
  -6  -1   3    0.62    1.09 
  -6  -1   3   -0.29    1.07 
   6  -1  -3    0.67    0.98 
  -6   1  -3   -1.29    1.27 
   6   1   3    0.41    1.19 
  -6   1   3   -0.54    0.95 
  -6  -1  -3   -0.18    1.15 
   6   1  -3   -0.26    1.00 
   6  -1   3    1.10    1.25 
  -6   1   3   -0.22    1.06 
  -7  -1   3   99.16    3.57 
  -7   1  -3  102.32    4.08 
   7  -1  -3   97.52    3.43 
  -7  -1   3  102.64    3.76 
  -7   1   3   97.77    3.75 
  -7   1   3  104.84    3.53 
  -7  -1  -3   97.40    3.98 
   7   1  -3  100.42    3.54 
  -8   1  -3    1.39    1.88 
  -8  -1  -3    2.03    1.86 
  -8   1   3    1.67    1.69 
   0   1   4   -0.25    0.49 
   0   1  -4    0.17    0.47 
   0   1  -4   -0.19    0.48 
   0  -1  -4    0.42    0.51 
   0  -1   4   -0.25    0.48 
   0  -1  -4   -0.55    0.47 
  -1  -1   4  169.07    3.81 
  -1   1  -4  162.08    3.91 
  -1  -1   4  168.88    3.96 
   1  -1  -4  167.69    3.88 
  -1   1  -4  167.89    3.75 
   1  -1  -4  163.62    3.91 
  -1   1   4  167.99    3.93 
  -1  -1  -4  163.21    3.98 
  -1  -1  -4  166.97    3.79 
   1   1  -4  168.59    3.94 
   1   1  -4  161.75    3.77 
  -2  -1   4   62.07    1.85 
  -2   1  -4   61.84    2.14 
  -2   1  -4   66.68    1.86 
   2   1   4   64.21    1.67 
   2  -1  -4   61.47    1.90 
  -2  -1   4   62.52    2.02 
   2  -1  -4   66.05    2.01 
  -2   1   4   62.17    1.96 
  -2  -1  -4   63.51    1.78 
  -2  -1  -4   59.90    2.15 
   2   1  -4   61.86    1.80 
   2  -1   4   64.53    1.66 
   2   1  -4   62.18    2.00 
   3   1   4   14.08    0.97 
   3  -1  -4   16.32    1.18 
  -3  -1   4   14.50    1.01 
  -3   1  -4   15.04    1.28 
  -3  -1   4   11.38    1.01 
  -3   1   4   16.62    1.22 
  -3  -1  -4   16.35    1.26 
   3   1  -4   12.04    1.02 
   3  -1   4   14.50    0.95 
  -3   1   4   15.17    1.08 
  -4   1  -4   90.64    3.15 
   4   1   4   87.87    2.79 
  -4  -1   4   92.37    2.74 
   4  -1  -4   88.86    2.84 
  -4  -1   4   90.99    2.91 
   4   1  -4   95.08    2.90 
   4  -1   4   91.46    2.81 
  -4   1   4   89.27    2.86 
  -4   1   4   93.64    2.84 
  -4  -1  -4   97.46    3.21 
  -5  -1   4  107.18    3.31 
  -5  -1   4  110.95    3.44 
  -5   1  -4  107.80    3.63 
   5   1   4  112.86    3.46 
   5  -1  -4  114.57    3.39 
  -5   1   4  108.33    3.38 
   5  -1   4  106.24    3.42 
  -5  -1  -4  106.82    3.74 
   5   1  -4  104.02    3.38 
  -5   1   4  114.66    3.41 
  -6   1  -4    0.00    1.41 
   6  -1  -4    0.16    1.09 
  -6  -1   4    0.01    1.17 
  -6  -1   4   -0.07    1.19 
  -6   1   4   -0.80    1.11 
  -6   1   4   -0.05    1.15 
  -6  -1  -4    0.48    1.28 
   6   1  -4   -0.05    1.19 
   7  -1  -4   62.74    3.09 
  -7   1  -4   63.46    3.53 
  -7  -1   4   66.14    3.20 
  -7   1   4   60.73    3.31 
   7   1  -4   67.64    3.15 
  -7  -1  -4   62.15    3.46 
  -7   1   4   63.57    3.09 
  -8  -1   4    8.79    2.06 
   8  -1  -4    5.93    2.16 
  -8   1  -4    7.42    2.23 
  -8  -1  -4    6.41    2.22 
   8   1  -4    6.81    1.91 
  -8   1   4    6.01    1.99 
   0  -1  -5    9.97    0.90 
   0   1   5   12.28    1.06 
   0   1  -5   10.19    0.91 
   0  -1   5   11.52    0.94 
   0  -1  -5    9.77    0.96 
   0  -1   5   10.70    0.97 
   0   1  -5   10.54    0.88 
  -1  -1   5    4.82    0.75 
   1  -1  -5    3.12    0.71 
  -1   1  -5    3.88    0.78 
   1  -1  -5    4.01    0.72 
  -1   1  -5    3.02    0.69 
  -1  -1   5    5.17    0.86 
   1   1  -5    3.77    0.79 
  -1   1   5    5.04    0.79 
  -1  -1  -5    4.93    0.75 
  -1  -1  -5    4.93    0.85 
   1   1  -5    4.73    0.70 
   1  -1   5    5.88    0.78 
   2   1   5   84.44    1.93 
  -2  -1   5   87.84    2.71 
   2  -1  -5   84.14    2.65 
   2  -1  -5   86.01    2.51 
  -2  -1   5   84.88    2.44 
  -2   1  -5   86.51    2.73 
   2   1  -5   85.10    2.39 
  -2  -1  -5   85.60    2.78 
   2   1  -5   89.22    2.70 
  -2  -1  -5   81.83    2.38 
  -2   1   5   82.44    2.54 
  -3  -1   5   -0.03    0.86 
   3   1   5    0.45    0.51 
  -3  -1   5    0.24    0.73 
  -3   1  -5   -0.42    0.92 
   3  -1  -5   -0.48    0.81 
  -3  -1  -5    0.71    0.96 
  -3   1   5   -1.14    0.83 
  -3   1   5    0.48    0.77 
   3  -1   5   -0.13    0.53 
   3   1  -5    0.25    0.83 
   4  -1  -5   73.35    2.74 
  -4  -1   5   77.91    2.84 
   4   1   5   72.43    2.47 
  -4   1  -5   76.11    2.91 
  -4  -1   5   77.99    2.62 
   4   1  -5   78.08    2.79 
  -4  -1  -5   74.55    3.06 
  -4   1   5   80.11    2.67 
  -4   1   5   80.92    2.84 
   4  -1   5   78.16    2.48 
   5  -1  -5    0.34    1.05 
  -5   1  -5    0.49    1.36 
  -5  -1   5    0.54    1.20 
   5   1  -5    2.33    1.20 
  -5   1   5    0.35    1.08 
  -5  -1  -5    2.19    1.41 
  -5   1   5    0.01    1.05 
  -6   1  -5    6.91    1.59 
   6  -1  -5    6.62    1.49 
  -6  -1   5    5.45    1.56 
  -6   1   5    6.94    1.55 
   6   1  -5    7.49    1.60 
  -6   1   5    3.13    1.43 
  -6  -1  -5    6.97    1.79 
   7  -1  -5    1.03    1.59 
  -7   1  -5    1.68    1.83 
  -7  -1   5    1.61    1.70 
  -7   1   5    1.94    1.74 
  -7  -1  -5    0.72    1.84 
   7   1  -5   -0.67    1.47 
  -7   1   5    2.68    1.69 
   0   1  -6    0.37    0.75 
   0  -1  -6   -0.06    0.76 
   0   1  -6    1.30    0.86 
   0  -1   6    1.33    0.87 
   0   1   6   -0.08    0.80 
   0  -1  -6    0.75    0.85 
   0  -1   6    0.13    0.79 
  -1  -1   6    4.57    1.02 
  -1   1  -6    4.42    0.93 
   1  -1  -6    6.40    0.97 
   1  -1  -6    4.39    0.99 
  -1  -1   6    6.48    1.00 
   1   1  -6    6.04    0.89 
  -1   1   6    5.50    1.02 
  -1  -1  -6    3.31    0.98 
   1   1  -6    6.91    1.06 
   1  -1   6    5.34    1.10 
  -1  -1  -6    4.76    0.96 
  -2   1  -6    2.03    1.03 
   2  -1  -6    1.21    0.96 
  -2  -1   6    1.95    0.96 
   2  -1  -6    1.51    0.83 
  -2  -1   6    1.44    0.87 
  -2   1   6    2.16    1.05 
  -2  -1  -6   -0.37    0.99 
  -2   1   6    0.16    0.86 
   2   1  -6    0.93    0.79 
   2   1  -6    3.20    0.99 
  -3  -1   6    0.71    0.92 
   3  -1  -6   -0.12    0.84 
  -3   1  -6    0.05    1.12 
  -3  -1   6    0.54    1.04 
   3   1   6    0.28    0.41 
   3  -1  -6    0.24    0.99 
  -3   1   6   -0.77    0.95 
  -3  -1  -6    0.37    0.99 
  -3   1   6    0.67    1.07 
   3   1  -6    0.62    1.02 
  -4   1  -6    6.60    1.48 
  -4  -1   6    6.53    1.37 
   4  -1  -6    7.01    1.33 
   4   1  -6    4.84    1.22 
  -4  -1  -6    3.74    1.37 
  -4   1   6    7.48    1.40 
  -4   1   6    5.41    1.19 
   5  -1  -6    2.04    1.29 
  -5  -1   6    4.28    1.47 
  -5   1  -6    4.70    1.61 
   5   1  -6    2.93    1.32 
  -5   1   6    4.16    1.39 
  -5   1   6    3.94    1.41 
  -5  -1  -6    4.43    1.62 
  -6   1  -6    0.19    1.67 
  -6  -1   6   -0.30    1.60 
   6  -1  -6   -0.14    1.45 
  -6   1   6   -0.85    1.55 
  -6  -1  -6    0.26    1.65 
   6   1  -6    0.18    1.52 
  -6   1   6    0.82    2.00 
   7  -1  -6    0.90    1.74 
  -7   1  -6    1.08    2.01 
  -7  -1   6   -0.64    1.90 
  -7  -1  -6    0.48    2.04 
  -7   1   6    0.98    1.85 
   7   1  -6    0.48    1.80 
   0  -1   7   14.04    1.44 
   0   1   7   11.78    1.42 
   0   1  -7    9.73    1.21 
   0   1  -7    9.07    1.32 
   0  -1  -7   11.13    1.36 
   0  -1  -7    9.11    1.27 
   0  -1   7   10.21    1.37 
  -1  -1   7    0.25    1.04 
  -1  -1   7    0.90    1.08 
   1  -1  -7   -0.29    0.91 
   1   1   7   -0.63    1.05 
   1  -1  -7    0.57    1.10 
  -1   1  -7   -0.69    0.96 
   1  -1   7    0.51    1.10 
   1   1  -7   -0.45    0.94 
  -1   1   7    0.63    1.04 
   1   1  -7   -1.22    1.02 
  -1  -1  -7    0.49    0.98 
  -1   1   7   -0.77    1.05 
   2  -1  -7  106.54    3.61 
  -2  -1   7  114.10    3.70 
   2  -1  -7  111.50    3.40 
  -2   1  -7  109.02    3.63 
  -2   1   7  105.79    3.64 
  -2   1   7  119.59    3.55 
   2   1  -7  105.35    3.59 
  -2  -1  -7  107.58    3.70 
   3  -1  -7    0.58    1.08 
  -3  -1   7   -0.60    1.29 
   3  -1  -7   -0.33    1.21 
  -3   1  -7    0.15    1.26 
  -3   1   7    0.44    1.20 
   3   1  -7    0.18    1.27 
  -3   1   7    0.42    1.28 
  -3  -1  -7   -0.63    1.29 
  -4  -1   7   76.25    3.38 
  -4   1  -7   72.84    3.38 
   4  -1  -7   73.15    3.20 
  -4   1   7   73.15    3.29 
  -4   1   7   72.58    3.04 
  -4  -1  -7   78.68    3.52 
   4   1  -7   73.35    3.20 
   5  -1  -7    1.99    1.51 
  -5   1  -7    2.98    1.74 
  -5  -1   7    4.22    1.78 
  -5   1   7    2.76    1.65 
   5   1  -7    1.93    1.51 
  -5  -1  -7    1.36    1.74 
  -6   1  -7    6.51    2.09 
  -6  -1   7    4.82    2.01 
   6  -1  -7    6.48    1.81 
  -6   1   7    5.77    1.97 
  -6  -1  -7    7.74    2.16 
   6   1  -7    3.26    1.75 
   0   1   8    0.52    1.32 
   0  -1  -8   -0.35    1.18 
   0   1   8   -0.32    1.24 
   0  -1  -8   -0.16    1.37 
  -1  -1   8   54.38    2.85 
  -1   1  -8   59.93    2.80 
   1  -1  -8   56.78    2.75 
   1   1   8   58.43    3.07 
   1  -1  -8   59.15    2.85 
   1  -1   8   50.81    2.89 
   1   1  -8   56.16    2.81 
  -1   1   8   53.09    2.74 
  -1  -1  -8   56.74    2.75 
  -1   1   8   48.05    2.75 
  -2   1  -8   15.92    1.85 
   2   1   8   16.01    1.93 
   2  -1  -8   18.57    1.95 
  -2  -1   8   19.11    2.03 
   2  -1  -8   17.24    1.69 
   2   1  -8   17.45    1.96 
  -2   1   8   16.03    1.91 
  -2   1   8   20.07    1.88 
  -2  -1  -8   15.72    1.83 
  -3   1  -8    5.19    1.69 
  -3  -1   8    4.78    1.73 
   3  -1  -8    3.24    1.53 
   3   1  -8    3.72    1.60 
  -3  -1  -8    3.29    1.72 
  -3   1   8    3.47    1.56 
   4  -1  -8    8.21    1.73 
  -4  -1   8    9.58    2.05 
  -4   1  -8    6.50    1.93 
  -4  -1  -8    9.49    2.07 
  -4   1   8    9.19    1.89 
   4   1  -8    9.83    1.89 
   5  -1  -8   42.18    2.91 
  -5   1  -8   39.48    3.01 
  -5  -1   8   43.53    3.07 
   5   1  -8   37.62    2.84 
  -5   1   8   50.74    3.26 
  -5  -1  -8   40.04    3.07 
   0   1   9   -0.07    1.60 
   0  -1  -9    0.74    1.46 
   1   1   9   30.17    2.51 
   1  -1  -9   32.90    2.51 
  -1  -1  -9   31.59    2.38 
  -1   1   9   24.88    2.41 
   2  -1  -9    5.83    1.90 
   2   1   9    2.73    1.85 
  -2  -1   9    2.98    1.78 
   2   1  -9    2.17    1.78 
  -2  -1  -9    2.89    1.73 
  -2   1   9    3.82    1.79 
   3  -1  -9   -1.26    1.68 
  -3   1  -9    0.04    1.81 
  -3  -1   9    0.03    1.92 
  -3  -1  -9    1.93    1.92 
  -3   1   9   -1.03    1.71 
   3   1  -9   -0.27    1.87 
   0   2   0    5.94    0.37 
   0  -2   0    6.34    0.38 
  -1  -2   0    0.42    0.36 
   1   2   0   -0.02    0.34 
  -2  -2   0  122.28    3.03 
  -2  -2   0  125.23    2.85 
   2  -2   0  127.37    2.84 
  -2  -2   0  125.80    2.88 
   2   2   0  122.91    3.02 
  -3  -2   0   -0.13    0.48 
   3  -2   0   -0.24    0.32 
  -3   2   0    0.07    0.49 
  -3  -2   0   -0.77    0.49 
   3  -2   0   -0.74    0.44 
  -3  -2   0    0.12    0.61 
   3   2   0   -0.26    0.60 
  -3   2   0   -0.28    0.33 
   4  -2   0   56.82    2.00 
  -4   2   0   58.36    1.66 
   4   2   0   63.17    2.26 
  -4  -2   0   57.90    1.91 
  -4  -2   0   62.87    2.04 
   4  -2   0   60.89    1.66 
  -4   2   0   59.62    2.11 
  -5  -2   0    0.31    0.77 
  -5  -2   0    0.90    0.86 
   5  -2   0   -0.05    0.79 
   5   2   0    0.47    1.00 
  -5   2   0   -0.46    0.88 
  -6   2   0   11.02    1.37 
  -6  -2   0   10.08    1.33 
  -7  -2   0    0.19    1.26 
  -7   2   0    0.12    1.21 
  -8   2   0   48.91    3.01 
  -8  -2   0   51.29    3.09 
  -9   2   0    0.28    1.92 
  -9  -2   0   -0.07    1.86 
   0   2  -1   -0.28    0.19 
   0  -2   1    0.28    0.21 
   0  -2  -1   -0.70    0.19 
   0   2   1   -0.52    0.20 
  -1  -2   1   31.49    1.02 
   1  -2  -1   31.76    0.95 
  -1  -2   1   31.22    0.99 
   1  -2  -1   31.04    0.91 
   1   2   1   29.29    0.99 
  -1   2   1   31.73    0.97 
   1   2  -1   32.31    1.01 
  -1  -2  -1   32.15    1.05 
  -1  -2  -1   30.80    1.01 
   1   2  -1   29.40    1.00 
  -2  -2   1    0.63    0.39 
   2   2   1    0.75    0.46 
   2  -2  -1    1.60    0.37 
  -2   2  -1    1.63    0.50 
  -2  -2   1    1.58    0.49 
   2  -2  -1    1.45    0.34 
  -2  -2   1    0.91    0.45 
   2   2  -1    0.95    0.45 
  -2   2   1    0.82    0.37 
   2   2  -1    1.20    0.51 
  -2  -2  -1    1.11    0.49 
   2  -2   1    0.40    0.35 
  -2  -2  -1    1.23    0.51 
  -2  -2  -1    0.40    0.45 
  -3  -2   1   -0.61    0.44 
  -3   2  -1    1.34    0.64 
   3  -2  -1   -0.18    0.39 
  -3  -2   1    0.59    0.52 
   3   2   1   -0.15    0.60 
   3  -2  -1   -0.53    0.45 
  -3  -2   1   -0.16    0.54 
   3   2  -1   -0.14    0.46 
   3   2  -1    0.41    0.64 
  -3   2   1    0.15    0.51 
   3  -2   1    0.39    0.44 
  -3  -2  -1    0.58    0.61 
  -3  -2  -1   -0.05    0.52 
   4  -2  -1   -0.04    0.48 
  -4   2  -1    0.04    0.66 
   4  -2  -1    0.36    0.60 
   4   2   1    0.72    0.83 
  -4  -2   1    0.20    0.59 
  -4  -2   1    0.35    0.59 
  -4  -2  -1    0.84    0.64 
  -4   2   1    1.08    0.67 
   4   2  -1    0.88    0.60 
   4  -2   1    0.55    0.60 
  -4   2   1    0.21    0.50 
  -4  -2  -1    0.28    0.70 
   4   2  -1    0.47    0.82 
  -5  -2   1   29.56    1.63 
   5   2   1   22.71    1.64 
  -5   2  -1   32.09    1.91 
   5  -2  -1   28.39    1.39 
  -5  -2   1   28.99    1.65 
  -5   2   1   31.98    1.79 
   5  -2   1   32.50    1.75 
  -5  -2  -1   29.12    1.75 
  -5  -2  -1   27.04    1.58 
  -5   2   1   26.96    1.39 
  -6  -2   1    6.41    1.16 
  -6   2  -1    8.10    1.45 
  -6  -2   1    3.34    1.12 
   6  -2   1    7.50    1.36 
  -6  -2  -1    5.09    1.15 
  -6   2   1    4.94    1.11 
  -7   2  -1    8.56    1.74 
  -7  -2   1    8.81    1.56 
  -7   2   1   14.77    1.76 
  -7  -2  -1    6.45    1.54 
  -8  -2   1   -0.41    1.57 
  -8   2  -1    0.28    1.66 
  -8   2   1    0.36    1.59 
  -8  -2  -1   -0.22    1.61 
  -9   2  -1   -0.31    2.04 
  -9  -2   1    0.73    1.97 
  -9  -2  -1    0.84    2.02 
  -9   2   1    0.30    1.98 
   0  -2   2   70.28    1.75 
   0   2  -2   70.01    1.74 
   0  -2  -2   72.00    1.78 
   0   2  -2   72.95    1.58 
   0  -2   2   74.31    1.59 
   0  -2  -2   73.99    1.83 
   1  -2  -2   -0.06    0.35 
  -1  -2   2   -0.01    0.29 
   1   2   2    0.20    0.27 
  -1  -2   2    0.13    0.40 
  -1   2  -2    0.25    0.41 
   1  -2  -2   -0.05    0.33 
   1   2  -2   -0.13    0.33 
  -1   2   2    0.41    0.36 
  -1  -2  -2   -0.08    0.34 
  -1  -2  -2    0.42    0.40 
   1  -2   2   -0.16    0.23 
   1   2  -2   -0.29    0.38 
   2  -2  -2    7.30    0.53 
   2   2   2    9.96    0.73 
  -2   2  -2    8.27    0.75 
  -2  -2   2    8.96    0.73 
   2  -2  -2    8.67    0.63 
  -2  -2   2    8.43    0.53 
  -2  -2   2    8.28    0.61 
   2   2  -2    8.94    0.73 
  -2  -2  -2    8.94    0.63 
  -2   2   2    7.23    0.61 
  -2  -2  -2    6.93    0.71 
   2   2  -2   10.67    0.76 
   2  -2   2    7.91    0.55 
   3  -2  -2    6.86    0.69 
   3  -2  -2    5.72    0.67 
  -3  -2   2    6.68    0.77 
  -3  -2   2    5.87    0.68 
   3   2   2    7.21    0.83 
  -3   2  -2    5.18    0.75 
  -3  -2   2    5.95    0.63 
   3   2  -2    6.91    0.83 
  -3  -2  -2    6.43    0.65 
  -3  -2  -2    7.48    0.90 
   3  -2   2    5.88    0.67 
   3   2  -2    6.47    0.73 
  -3   2   2    5.14    0.69 
  -4  -2   2    6.38    0.81 
  -4   2  -2    7.38    1.00 
   4   2   2    6.13    0.95 
   4  -2  -2    7.06    0.76 
  -4  -2   2    5.74    0.80 
  -4  -2  -2    5.87    0.75 
  -4   2   2    5.41    0.83 
  -4   2   2    5.99    0.76 
   4  -2   2    8.86    0.88 
   4   2  -2    6.28    0.85 
  -4  -2  -2    5.80    0.93 
   5  -2  -2    0.50    0.70 
  -5   2  -2   -0.22    1.02 
  -5  -2   2   -0.26    0.80 
   5   2   2    1.26    0.97 
  -5  -2   2   -0.06    0.79 
   5   2  -2   -0.05    0.77 
  -5   2   2    0.21    0.87 
  -5  -2  -2    0.41    1.00 
   5  -2   2    0.26    0.86 
  -5   2   2   -0.05    0.70 
   6   2   2   33.24    2.20 
  -6  -2   2   30.97    1.84 
  -6  -2   2   32.03    1.93 
   6  -2  -2   28.40    1.67 
  -6   2  -2   26.39    1.94 
  -6  -2  -2   29.51    2.10 
   6   2  -2   32.12    1.89 
  -6   2   2   31.51    2.03 
  -6   2   2   28.53    1.72 
   6  -2   2   32.91    2.11 
  -7  -2   2    2.21    1.32 
  -7   2  -2    3.20    1.60 
  -7  -2   2    2.37    1.36 
  -7   2   2    2.34    1.43 
  -7  -2  -2    2.54    1.51 
  -8  -2   2    1.45    1.71 
  -8   2  -2    1.78    1.76 
  -8  -2  -2    2.89    1.81 
  -8   2   2    2.24    1.71 
   0   2  -3    0.07    0.36 
   0  -2  -3   -0.45    0.37 
   0  -2  -3   -0.85    0.42 
   0   2  -3   -0.21    0.40 
   0  -2   3   -0.37    0.39 
   0   2   3   -0.34    0.44 
   1  -2  -3   38.11    1.30 
   1  -2  -3   39.10    1.31 
  -1  -2   3   38.00    1.13 
  -1  -2   3   36.39    0.92 
  -1   2  -3   37.44    1.12 
   1   2   3   37.75    1.04 
  -1  -2   3   33.91    1.27 
  -1   2  -3   37.64    1.33 
  -1  -2  -3   38.28    1.41 
  -1  -2  -3   37.71    1.23 
   1  -2   3   37.37    0.92 
   1  -2   3   35.46    0.96 
  -1   2   3   40.01    1.36 
   1   2  -3   35.79    1.09 
   1  -2   3   36.62    1.13 
   1   2  -3   35.36    1.31 
   1   2  -3   37.40    1.10 
  -2  -2   3    0.65    0.40 
   2  -2  -3    0.74    0.48 
   2   2   3    1.42    0.45 
  -2   2  -3    0.70    0.61 
  -2  -2   3    0.30    0.56 
   2  -2  -3    0.56    0.37 
  -2  -2   3    1.21    0.37 
   2  -2  -3    0.95    0.46 
  -2  -2  -3    0.99    0.59 
   2   2  -3    0.81    0.55 
  -2   2   3    1.36    0.54 
   2  -2   3    1.66    0.40 
   2   2  -3    1.57    0.58 
  -2  -2  -3    1.36    0.47 
  -3  -2   3   83.08    2.27 
   3   2   3   84.31    2.46 
  -3  -2   3   86.55    2.46 
  -3  -2   3   84.20    2.23 
   3  -2  -3   82.77    2.35 
  -3   2  -3   91.04    2.69 
  -3  -2  -3   81.35    2.18 
   3   2  -3   85.69    2.44 
   3  -2   3   83.50    2.33 
  -3   2   3   85.37    2.43 
  -3  -2  -3   79.79    2.57 
   4   2   3    1.04    0.77 
  -4  -2   3    2.92    0.72 
  -4   2  -3    2.67    1.01 
  -4  -2   3    1.82    0.75 
   4  -2  -3    2.92    0.75 
   4  -2   3    1.42    0.72 
  -4   2   3    1.87    0.71 
  -4  -2  -3    0.87    0.94 
  -4   2   3    1.22    0.71 
   4   2  -3    2.47    0.76 
  -5  -2   3   30.93    1.74 
  -5  -2   3   30.82    1.87 
   5  -2  -3   30.88    1.68 
  -5   2  -3   27.04    1.84 
   5   2   3   32.18    1.92 
   5   2  -3   32.12    1.84 
  -5   2   3   34.80    1.91 
  -5  -2  -3   35.91    2.11 
   5  -2   3   28.57    1.72 
  -5   2   3   31.95    1.70 
  -6   2  -3    3.02    1.27 
  -6  -2   3    2.17    1.16 
   6   2   3    1.63    1.30 
  -6  -2   3    3.97    1.25 
   6  -2  -3    2.21    1.02 
  -6   2   3    1.29    1.16 
   6   2  -3    2.00    1.14 
   6  -2   3    1.66    1.29 
  -6   2   3    2.59    1.08 
  -6  -2  -3    2.42    1.34 
   7  -2  -3   11.62    1.56 
  -7   2  -3   11.10    1.95 
  -7  -2   3   12.79    1.73 
   7   2  -3   11.13    1.62 
  -7   2   3   13.27    1.61 
  -7  -2  -3   13.99    2.01 
  -7   2   3   15.73    1.91 
  -8  -2   3   -0.64    2.66 
  -8   2  -3    2.47    1.94 
  -8  -2  -3    0.70    1.83 
  -8   2   3    1.05    1.78 
   0  -2  -4   16.21    1.01 
   0  -2   4   17.76    1.03 
   0   2   4   21.06    1.10 
   0  -2  -4   19.34    1.06 
   0   2  -4   16.64    1.01 
   0   2  -4   20.77    0.99 
  -1  -2   4    6.51    0.62 
   1  -2  -4    7.07    0.75 
  -1   2  -4    6.38    0.73 
  -1  -2   4    6.18    0.76 
  -1   2  -4    7.14    0.66 
   1   2   4    6.95    0.40 
   1  -2  -4    5.69    0.67 
  -1   2   4    7.68    0.79 
   1   2  -4    6.89    0.61 
   1  -2   4    6.42    0.67 
  -1  -2  -4    7.30    0.72 
   1   2  -4    5.24    0.71 
  -1  -2  -4    6.05    0.75 
  -2   2  -4    2.37    0.75 
  -2  -2   4    2.81    0.77 
   2  -2  -4    2.99    0.66 
   2   2   4    1.59    0.42 
   2  -2  -4    1.26    0.65 
  -2  -2   4    2.00    0.53 
  -2  -2  -4    3.13    0.63 
  -2   2   4    3.12    0.71 
   2  -2   4    2.93    0.48 
   2   2  -4    2.40    0.50 
   2   2  -4    3.41    0.76 
  -2  -2  -4    2.37    0.78 
  -3  -2   4    0.20    0.75 
   3  -2  -4    0.49    0.63 
   3   2   4    0.39    0.57 
  -3   2  -4    0.84    0.85 
  -3  -2   4    0.52    0.58 
   3   2  -4    1.10    0.77 
  -3   2   4   -0.34    0.68 
   3  -2   4    0.97    0.58 
  -3  -2  -4    0.36    0.87 
   4  -2  -4    0.21    0.78 
  -4   2  -4    1.22    1.04 
  -4  -2   4    0.32    0.74 
  -4  -2   4    0.57    0.92 
   4   2   4    0.92    0.76 
  -4   2   4    0.80    0.85 
   4   2  -4    0.56    0.87 
   4  -2   4    0.71    0.73 
  -4   2   4    0.60    0.82 
  -4  -2  -4    0.19    1.03 
   5  -2  -4    7.50    1.14 
  -5   2  -4    5.96    1.44 
   5   2   4    7.57    1.22 
  -5  -2   4    6.74    1.26 
  -5  -2   4    9.21    1.87 
  -5   2   4    5.83    1.15 
  -5  -2  -4    6.68    1.30 
  -5   2   4    6.47    1.14 
   5   2  -4    6.21    1.26 
   5  -2   4    5.40    1.13 
   6  -2  -4   18.53    1.63 
  -6  -2   4   23.21    1.93 
  -6   2  -4   24.08    2.22 
  -6  -2  -4   20.01    1.98 
  -6   2   4   18.77    1.65 
   6   2  -4   19.83    1.81 
  -6   2   4   23.68    1.90 
   7  -2  -4    0.98    1.39 
  -7  -2   4    0.84    1.56 
  -7   2  -4    2.07    1.76 
  -7   2   4    2.13    1.42 
  -7   2   4    0.58    1.54 
   7   2  -4    1.43    1.49 
  -7  -2  -4    1.47    1.72 
  -8   2  -4    2.24    2.07 
  -8  -2   4    0.53    1.81 
  -8  -2  -4    3.55    1.95 
   8   2  -4    1.37    1.80 
  -8   2   4    3.04    1.92 
   0   2  -5    0.28    0.66 
   0  -2  -5    0.08    0.61 
   0   2   5    0.44    0.69 
   0   2  -5   -0.06    0.55 
   0  -2  -5    0.03    0.66 
   0  -2   5    0.03    0.57 
   0  -2   5   -0.08    0.64 
  -1  -2   5   44.88    1.82 
   1  -2  -5   42.43    1.71 
  -1  -2   5   40.02    1.53 
  -1   2  -5   40.13    1.57 
   1  -2  -5   42.36    1.75 
  -1   2  -5   43.34    1.70 
   1  -2   5   42.38    1.63 
   1   2  -5   43.23    1.76 
   1   2  -5   41.11    1.52 
  -1   2   5   41.32    1.77 
  -1  -2  -5   44.34    1.86 
  -1  -2  -5   43.10    1.63 
  -2  -2   5   17.33    1.08 
   2  -2  -5   16.30    1.17 
   2  -2  -5   14.41    1.20 
  -2  -2   5   13.32    1.23 
  -2   2  -5   12.39    1.14 
   2   2   5   15.68    0.74 
  -2  -2  -5   13.33    1.04 
  -2   2   5   13.59    1.18 
  -2  -2  -5   18.64    1.41 
   2   2  -5   12.87    1.14 
   2   2  -5   15.07    0.98 
   3   2   5    2.08    0.60 
  -3  -2   5    0.67    0.92 
   3  -2  -5    1.74    0.92 
  -3   2  -5    1.38    0.97 
  -3  -2   5    1.51    0.77 
  -3   2   5    1.08    0.79 
   3  -2   5    1.28    0.58 
   3   2  -5    2.31    0.95 
  -3  -2  -5    1.08    0.97 
  -4  -2   5    1.76    1.09 
   4  -2  -5    3.17    0.93 
  -4   2  -5    3.92    1.22 
   4   2   5    2.03    0.81 
   4  -2   5    4.46    0.87 
  -4   2   5    4.11    1.01 
  -4  -2  -5    4.40    1.29 
   4   2  -5    3.56    1.11 
  -4   2   5    2.82    1.00 
   5  -2  -5   21.05    1.72 
  -5  -2   5   19.18    1.82 
  -5   2  -5   19.48    1.93 
   5   2  -5   23.57    1.88 
  -5  -2  -5   18.67    1.97 
  -5   2   5   20.69    1.68 
  -5   2   5   22.79    1.83 
  -6   2  -5    2.27    1.69 
  -6  -2   5    4.19    1.50 
   6  -2  -5    4.00    1.35 
  -6  -2  -5    1.91    1.44 
  -6   2   5    3.29    1.37 
  -6   2   5    2.34    1.44 
   6   2  -5    4.98    1.52 
  -7  -2   5   20.10    2.29 
   7  -2  -5   14.27    1.91 
  -7   2  -5   18.43    2.43 
  -7   2   5   19.69    2.19 
  -7   2   5   18.75    2.16 
   7   2  -5   20.03    2.25 
  -7  -2  -5   21.47    2.46 
   0  -2   6    4.40    0.91 
   0  -2  -6    5.66    1.01 
   0   2  -6    3.56    0.93 
   0  -2   6    3.57    0.97 
   0   2   6    6.79    1.13 
   0   2  -6    3.99    0.84 
   0  -2  -6    3.19    0.95 
  -1   2  -6   10.48    1.16 
  -1  -2   6   12.94    1.32 
   1  -2  -6    9.02    1.19 
  -1  -2   6   11.34    1.10 
   1  -2  -6   11.04    1.17 
  -1  -2  -6    8.01    1.13 
   1   2  -6   10.49    1.22 
   1   2  -6   10.60    1.00 
  -1   2   6   10.28    1.23 
  -1  -2  -6   12.10    1.15 
   2  -2  -6   69.28    2.44 
   2  -2  -6   64.32    2.56 
  -2  -2   6   73.22    2.72 
  -2   2  -6   72.34    2.61 
  -2   2   6   68.45    2.54 
   2   2  -6   68.53    2.60 
  -2  -2  -6   68.63    2.71 
   3   2   6    1.66    0.56 
  -3  -2   6    0.47    0.97 
   3  -2  -6    1.61    1.03 
   3  -2  -6    2.35    0.97 
  -3   2  -6   -0.24    1.12 
  -3   2   6    1.33    1.00 
  -3   2   6    1.52    1.10 
   3   2  -6    0.58    1.00 
  -3  -2  -6    0.46    1.13 
   4  -2  -6   52.72    2.41 
  -4  -2   6   46.20    2.63 
  -4   2  -6   49.73    2.73 
  -4  -2  -6   59.35    2.89 
  -4   2   6   47.53    2.40 
  -4   2   6   50.73    2.46 
   4   2  -6   54.13    2.59 
  -5   2  -6    7.00    1.64 
  -5  -2   6    9.39    1.73 
   5  -2  -6    6.00    1.39 
  -5   2   6    7.08    1.53 
  -5   2   6    8.29    1.54 
  -5  -2  -6    9.02    1.65 
   5   2  -6    6.24    1.56 
  -6   2  -6    4.68    1.85 
   6  -2  -6    3.79    1.59 
  -6  -2   6    5.11    1.82 
   6   2  -6    2.69    1.61 
  -6   2   6    3.93    1.64 
  -6   2   6    5.87    1.77 
  -6  -2  -6    3.26    1.82 
   7  -2  -6    0.85    1.62 
  -7   2  -6    0.48    2.02 
  -7  -2   6    0.49    1.94 
  -7  -2  -6    0.16    2.05 
  -7   2   6    1.19    1.87 
   7   2  -6    2.05    1.87 
  -7   2   6    0.39    1.85 
   0  -2   7    0.06    1.11 
   0  -2  -7   -0.17    1.00 
   0  -2   7    0.06    1.16 
   0  -2  -7   -0.44    1.04 
   0   2  -7    0.45    1.21 
   0   2   7    0.43    1.11 
   1  -2  -7   12.67    1.34 
   1   2   7   13.75    1.59 
   1  -2  -7   13.99    1.50 
  -1   2  -7   15.73    1.44 
  -1  -2   7   14.07    1.56 
  -1   2   7   14.34    1.49 
  -1  -2  -7   13.95    1.52 
   1   2  -7   12.92    1.49 
  -1  -2  -7   12.20    1.50 
  -2   2  -7    6.48    1.34 
   2  -2  -7    6.31    1.22 
   2  -2  -7    6.44    1.39 
  -2  -2   7    3.85    1.29 
  -2  -2  -7    4.54    1.33 
   2   2  -7    3.66    1.22 
  -2   2   7    5.95    1.38 
  -2   2   7    6.54    1.30 
   3  -2  -7    9.43    1.38 
   3  -2  -7    8.33    1.52 
  -3   2  -7   10.27    1.63 
  -3  -2   7    7.61    1.53 
   3   2  -7    9.71    1.53 
  -3   2   7    8.35    1.46 
  -3  -2  -7    8.67    1.65 
  -3   2   7   12.09    1.68 
   4  -2  -7    3.72    1.32 
  -4  -2   7    4.16    1.60 
  -4   2  -7    2.08    1.59 
   4   2  -7    3.62    1.48 
  -4   2   7    3.01    1.48 
  -4  -2  -7    2.11    1.41 
  -4   2   7    4.61    1.46 
  -5   2  -7   13.39    2.11 
   5  -2  -7   13.07    1.80 
  -5  -2   7   13.63    2.05 
  -5   2   7   14.36    1.95 
  -5   2   7   15.00    1.93 
   5   2  -7   15.11    1.95 
  -5  -2  -7   14.25    2.09 
   6  -2  -7   -0.26    1.66 
  -6   2  -7    0.23    2.03 
  -6  -2   7   -1.61    1.89 
  -6  -2  -7   -0.44    1.88 
   6   2  -7   -0.03    1.79 
  -6   2   7   -0.85    1.83 
   0   2   8   82.80    3.31 
   0  -2  -8   79.25    3.14 
   0  -2  -8   75.50    3.18 
   1   2   8    3.37    1.47 
   1  -2  -8    1.53    1.31 
   1  -2  -8    2.39    1.45 
  -1  -2   8    3.21    1.51 
   1   2  -8    2.02    1.39 
  -1  -2  -8    1.48    1.30 
  -1   2   8    0.12    1.35 
  -1   2   8    0.88    1.33 
   2  -2  -8    1.47    1.48 
   2  -2  -8    0.80    1.23 
  -2  -2   8    1.97    1.49 
  -2   2  -8    2.05    2.26 
   2   2   8    0.92    1.49 
   2   2  -8    0.75    1.42 
  -2  -2  -8    1.42    1.46 
  -2   2   8    1.44    1.44 
  -2   2   8    1.69    1.38 
   3  -2  -8    0.38    1.35 
  -3   2  -8    0.80    1.61 
   3  -2  -8   -1.09    1.52 
  -3  -2   8   -0.76    1.48 
  -3   2   8    0.39    1.48 
   3   2  -8    0.78    1.44 
  -3  -2  -8    1.08    1.63 
  -3   2   8    2.26    1.65 
  -4   2  -8    2.44    1.84 
  -4  -2   8    0.95    1.77 
   4  -2  -8    1.90    1.59 
  -4   2   8    2.19    1.63 
  -4   2   8    1.93    1.82 
  -4  -2  -8    1.92    1.87 
   4   2  -8    1.95    1.67 
   0  -2  -9    0.14    1.50 
   0   2   9    0.03    1.60 
   1  -2  -9    9.65    1.97 
   1   2   9    6.95    1.88 
   1  -2  -9    6.68    1.66 
  -1  -2  -9    7.72    1.83 
  -1   2   9    5.75    1.76 
  -1   2   9    9.49    1.88 
   2  -2  -9    2.10    1.77 
  -2  -2   9    0.93    1.84 
   2   2   9   -0.50    1.79 
  -2   2   9    0.44    1.69 
  -2   2   9    2.04    1.68 
  -2  -2  -9    1.15    1.72 
   2   2  -9    1.11    1.73 
   0   3   0   -0.84    0.25 
   0  -3   0   -0.49    0.28 
  -1  -3   0   -0.69    0.36 
   1   3   0   -0.06    0.35 
  -1  -3   0    0.01    0.43 
  -1   3   0   -0.64    0.33 
  -2  -3   0   90.24    2.29 
   2   3   0   90.58    2.40 
  -2   3   0   87.63    2.26 
  -2  -3   0   91.54    2.44 
  -2  -3   0   88.36    2.18 
   3   3   0    0.15    0.66 
   3  -3   0   -0.42    0.32 
  -3  -3   0    1.23    0.58 
  -3   3   0   -0.28    0.51 
  -3  -3   0    0.05    0.52 
   3  -3   0   -0.27    0.46 
  -3  -3   0    0.29    0.72 
  -4   3   0   63.09    1.69 
  -4  -3   0   61.74    2.02 
   4  -3   0   61.04    2.04 
   4   3   0   61.17    2.33 
   4  -3   0   61.69    1.68 
  -4  -3   0   63.46    2.05 
  -4   3   0   64.36    2.20 
  -5  -3   0   -0.53    0.80 
  -5  -3   0   -0.41    0.80 
  -5   3   0   -0.14    0.88 
   5  -3   0    0.38    0.80 
  -6  -3   0    0.61    1.01 
  -6   3   0    0.61    1.17 
  -6  -3   0   -0.03    1.01 
  -7   3   0   -0.09    1.40 
  -7  -3   0    1.56    1.29 
  -8  -3   0   24.36    2.28 
  -8   3   0   22.99    2.43 
  -9  -3   0    0.60    1.98 
  -9   3   0   -0.21    2.09 
   0  -3  -1  153.97    3.29 
   0   3  -1  153.46    3.26 
   0   3   1  148.83    3.27 
   0   3   1  153.05    3.31 
   0  -3   1  154.48    3.26 
   0  -3  -1  157.33    3.35 
   0  -3  -1  152.64    3.30 
   1   3   1   37.74    1.18 
  -1  -3   1   38.20    1.25 
   1  -3  -1   40.35    1.14 
   1  -3  -1   36.26    1.11 
  -1  -3   1   38.02    1.21 
  -1   3   1   40.80    1.16 
   1   3  -1   37.34    1.19 
  -1  -3  -1   36.91    1.15 
  -1  -3  -1   35.76    1.20 
   2   3   1  647.22   13.41 
  -2   3  -1  650.75   13.32 
   2  -3  -1  674.99   13.15 
  -2  -3   1  670.01   13.42 
  -2  -3   1  668.33   13.34 
   2   3  -1  643.76   13.39 
   2  -3   1  672.72   13.21 
  -2  -3  -1  638.55   13.31 
  -2   3   1  635.56   13.29 
  -2  -3  -1  645.25   13.28 
  -3  -3   1    0.31    0.48 
   3  -3  -1   -0.53    0.40 
   3   3   1   -0.22    0.60 
  -3  -3   1    0.72    0.65 
  -3   3  -1    0.22    0.59 
  -3  -3   1    0.84    0.56 
   3  -3  -1    0.10    0.37 
  -3  -3  -1    0.07    0.58 
  -3   3   1    0.50    0.50 
   3  -3   1   -0.08    0.44 
   3   3  -1   -0.19    0.61 
  -3  -3  -1   -1.08    0.55 
  -4  -3   1  413.37    9.01 
   4  -3  -1  428.14    9.02 
  -4   3  -1  416.02    9.18 
   4   3   1  427.26    9.29 
  -4  -3   1  420.82    8.92 
   4  -3  -1  427.71    8.75 
  -4   3   1  411.78    9.09 
  -4   3   1  419.91    8.75 
  -4  -3  -1  407.40    8.90 
  -4  -3  -1  413.27    9.10 
   4  -3   1  423.61    9.01 
   4   3  -1  422.94    9.30 
   5  -3  -1   23.03    1.25 
  -5   3  -1   24.25    1.72 
  -5  -3   1   20.34    1.39 
  -5  -3   1   24.69    1.51 
   5   3   1   24.90    1.80 
  -5   3   1   23.52    1.27 
   5  -3   1   17.54    1.32 
  -5   3   1   20.48    1.47 
  -5  -3  -1   20.23    1.36 
  -5  -3  -1   22.16    1.56 
  -6   3  -1   74.67    3.02 
  -6  -3   1   68.15    2.65 
  -6  -3   1   73.04    2.72 
   6  -3   1   68.51    2.89 
  -6   3   1   66.97    2.74 
  -6  -3  -1   68.59    2.81 
  -7   3  -1   15.91    2.00 
  -7  -3   1   17.32    1.76 
  -7   3   1   14.37    1.87 
  -7  -3  -1   16.37    1.83 
  -8   3  -1  213.51    6.42 
  -8  -3   1  211.46    6.10 
  -8   3   1  207.40    6.33 
  -8  -3  -1  213.07    6.18 
  -9   3  -1    1.14    2.05 
  -9  -3  -1   -0.06    2.01 
  -9   3   1    0.08    1.92 
   0   3  -2    0.02    0.37 
   0  -3   2    0.23    0.25 
   0   3   2   -0.26    0.34 
   0  -3   2    0.11    0.38 
   0   3  -2    0.31    0.26 
   0  -3  -2   -0.08    0.39 
   0   3   2    0.01    0.24 
   0  -3  -2   -0.27    0.37 
  -1   3  -2  663.39   13.41 
   1   3   2  617.52   13.36 
  -1  -3   2  665.91   13.50 
  -1  -3   2  661.49   13.39 
   1  -3  -2  674.37   13.47 
   1  -3  -2  718.13   13.46 
  -1  -3  -2  624.24   13.49 
   1   3  -2  697.17   13.37 
  -1  -3  -2  664.50   13.44 
   1   3  -2  662.40   13.49 
  -1   3   2  646.73   13.48 
   1  -3   2  686.05   13.27 
   2  -3  -2   -0.05    0.40 
  -2  -3   2    0.21    0.47 
   2   3   2    0.79    0.48 
  -2   3  -2   -0.11    0.54 
  -2  -3   2    0.02    0.46 
   2   3  -2    0.08    0.46 
   2  -3   2   -0.36    0.33 
  -2  -3  -2    0.30    0.46 
  -2   3   2    0.07    0.40 
  -2  -3  -2   -0.09    0.53 
   2   3  -2    0.12    0.53 
   3   3   2   94.32    2.68 
   3  -3  -2   89.83    2.44 
  -3  -3   2   94.54    2.34 
  -3  -3   2   91.00    2.57 
  -3   3  -2   93.29    2.69 
  -3  -3   2   92.20    2.60 
   3  -3  -2   94.26    2.43 
  -3  -3  -2   92.54    2.43 
   3   3  -2   88.01    2.56 
   3   3  -2   97.50    2.70 
  -3  -3  -2   94.49    2.71 
   3  -3   2   94.14    2.45 
  -3   3   2   94.84    2.57 
   4   3   2    1.40    0.86 
   4  -3  -2    1.58    0.62 
  -4   3  -2    1.62    0.90 
  -4  -3   2    0.22    0.61 
  -4  -3   2    0.52    0.75 
   4  -3   2    0.83    0.66 
  -4   3   2    0.91    0.74 
   4   3  -2    0.51    0.73 
  -4  -3  -2    1.39    0.70 
  -4  -3  -2    1.41    0.84 
   5   3   2  411.86    9.40 
   5  -3  -2  423.47    8.92 
  -5  -3   2  403.85    9.13 
  -5  -3   2  418.80    9.00 
  -5   3  -2  412.25    9.41 
  -5  -3  -2  421.05    9.38 
   5   3  -2  409.85    9.12 
   5  -3   2  409.15    9.15 
  -5   3   2  407.41    9.22 
  -5   3   2  409.36    8.90 
   6  -3  -2    0.68    0.86 
  -6  -3   2   -0.14    1.02 
   6   3   2   -0.36    1.25 
  -6   3  -2    1.28    1.28 
  -6  -3   2    0.37    1.09 
  -6   3   2   -0.17    0.88 
  -6  -3  -2   -1.26    1.15 
   6  -3   2    0.10    1.13 
  -6   3   2    0.66    1.15 
  -7  -3   2  179.39    5.08 
  -7   3  -2  183.60    5.52 
  -7  -3  -2  179.73    5.38 
  -7   3   2  179.35    5.33 
  -8   3  -2    0.06    1.77 
  -8  -3  -2    0.15    1.66 
  -8   3   2    0.18    1.70 
   0  -3  -3    6.43    0.63 
   0   3   3    8.46    0.77 
   0  -3  -3    9.66    0.78 
   0  -3   3    9.99    0.73 
   0   3  -3    8.86    0.51 
   0   3  -3    9.06    0.70 
   0   3  -3    9.60    0.58 
   0  -3   3    8.96    0.51 
  -1   3  -3    7.09    0.66 
   1  -3  -3    6.84    0.66 
  -1  -3   3    5.01    0.62 
   1   3   3    6.37    0.49 
   1  -3  -3    7.90    0.72 
  -1  -3   3    6.55    0.47 
  -1   3  -3    7.35    0.57 
  -1  -3   3    6.77    0.48 
  -1  -3  -3    5.50    0.67 
   1  -3   3    6.93    0.43 
   1  -3   3    7.44    0.58 
   1   3  -3    5.10    0.64 
   1  -3   3    6.93    0.42 
  -1   3   3    5.59    0.67 
  -1  -3  -3    7.27    0.70 
   1   3  -3    7.24    0.54 
   1   3  -3    7.32    0.46 
  -2  -3   3    3.07    0.45 
   2   3   3    3.55    0.54 
  -2  -3   3    3.88    0.65 
   2  -3  -3    2.52    0.55 
  -2   3  -3    3.47    0.71 
   2  -3  -3    3.48    0.59 
  -2  -3   3    3.59    0.52 
   2   3  -3    3.98    0.66 
  -2  -3  -3    5.46    0.65 
  -2   3   3    3.52    0.63 
  -2  -3  -3    2.65    0.66 
   2  -3   3    4.07    0.48 
   2   3  -3    2.34    0.65 
  -3  -3   3    0.50    0.50 
  -3   3  -3   -0.17    0.79 
   3  -3  -3    0.39    0.61 
  -3  -3   3   -1.00    0.65 
   3   3   3    0.84    0.61 
  -3  -3  -3    0.13    0.56 
   3   3  -3   -0.06    0.68 
  -3   3   3   -0.04    0.63 
  -3  -3  -3    0.72    0.81 
  -4  -3   3    1.70    0.78 
  -4  -3   3    0.83    0.68 
   4  -3  -3    0.70    0.72 
  -4   3  -3    0.42    0.96 
   4   3   3   -0.20    0.77 
  -4   3   3    0.11    0.67 
   4  -3   3    0.54    0.67 
  -4  -3  -3    0.62    0.88 
   4   3  -3    0.71    0.81 
  -5  -3   3    3.92    1.00 
  -5   3  -3    6.00    1.35 
   5   3   3    3.84    1.13 
   5  -3  -3    5.32    1.00 
  -5  -3   3    3.38    1.14 
  -5   3   3    3.85    0.98 
   5   3  -3    3.10    1.02 
  -5  -3  -3    5.56    1.32 
  -5   3   3    4.28    0.99 
   5  -3   3    3.17    1.00 
   6   3   3    3.17    1.37 
   6  -3  -3    3.30    1.07 
  -6  -3   3    3.24    1.27 
  -6   3  -3    4.25    1.35 
   6   3  -3    6.25    1.33 
  -6   3   3    4.91    1.33 
  -6   3   3    3.29    1.06 
  -6  -3  -3    6.03    1.44 
  -7  -3   3    6.48    1.60 
  -7   3  -3    5.13    1.72 
  -7   3   3    6.73    1.65 
  -7  -3  -3    5.02    1.66 
  -8   3  -3   -0.88    1.90 
  -8  -3   3    1.31    1.81 
  -8  -3  -3    1.37    1.81 
  -8   3   3    0.87    1.79 
   0   3  -4   -0.14    0.43 
   0  -3  -4   -0.04    0.57 
   0   3  -4   -0.30    0.54 
   0  -3  -4   -0.37    0.52 
   0  -3   4    0.28    0.58 
   0   3   4    0.02    0.58 
   1  -3  -4  366.18    8.12 
   1   3   4  375.60    7.73 
   1  -3  -4  372.61    8.12 
  -1  -3   4  387.64    7.86 
  -1   3  -4  383.86    8.04 
  -1   3  -4  380.68    7.90 
  -1  -3   4  379.34    8.18 
  -1   3   4  362.41    8.16 
   1   3  -4  393.44    7.83 
  -1  -3  -4  383.57    8.08 
  -1  -3  -4  372.78    8.26 
   1   3  -4  384.20    8.15 
   1  -3   4  380.48    7.94 
  -2  -3   4    0.48    0.48 
  -2  -3   4    0.23    0.62 
   2  -3  -4    0.81    0.64 
  -2  -3   4    0.86    0.36 
   2  -3  -4    1.03    0.60 
  -2   3  -4    0.56    0.69 
   2   3   4    0.70    0.43 
   2   3  -4    1.10    0.69 
   2  -3   4   -0.20    0.39 
  -2  -3  -4    0.03    0.59 
  -2   3   4    0.03    0.57 
  -2  -3  -4    0.14    0.72 
   3   3   4  156.53    3.88 
  -3  -3   4  157.84    4.44 
  -3   3  -4  165.35    4.24 
  -3  -3   4  161.05    4.18 
   3  -3  -4  162.91    4.04 
  -3  -3  -4  159.28    3.80 
  -3  -3  -4  156.39    4.27 
   3   3  -4  153.00    4.06 
   3  -3   4  162.99    3.80 
  -3   3   4  153.97    4.04 
   4   3   4    2.77    0.89 
  -4   3  -4    1.61    1.07 
  -4  -3   4    3.74    1.11 
   4  -3  -4    4.11    0.97 
   4   3  -4    2.78    0.99 
   4  -3   4    2.59    0.80 
  -4  -3  -4    3.44    1.13 
  -4   3   4    2.22    0.94 
   5   3   4  278.88    6.65 
   5  -3  -4  258.73    6.36 
  -5   3  -4  269.44    6.83 
  -5  -3   4  262.78    6.57 
  -5  -3  -4  262.64    6.72 
  -5   3   4  264.67    6.47 
  -5   3   4  252.77    6.38 
   5   3  -4  272.23    6.58 
  -6  -3   4    0.10    1.29 
  -6   3  -4   -0.43    1.30 
   6  -3  -4   -0.03    1.03 
  -6   3   4   -0.02    1.25 
  -6  -3  -4    1.13    1.48 
   6   3  -4   -0.84    1.16 
  -6   3   4   -0.04    1.12 
   7  -3  -4  143.65    4.39 
  -7  -3   4  149.44    4.77 
  -7   3  -4  140.82    5.08 
  -7   3   4  138.23    4.47 
  -7  -3  -4  130.22    4.68 
  -7   3   4  139.41    4.66 
   7   3  -4  139.76    4.59 
  -8  -3   4    0.08    1.89 
  -8   3  -4   -0.46    2.01 
  -8   3   4    0.07    1.84 
  -8  -3  -4    1.28    1.91 
   0   3   5  143.82    3.80 
   0   3  -5  144.35    3.60 
   0  -3   5  141.34    3.45 
   0  -3   5  136.95    3.63 
   0  -3  -5  143.70    3.63 
   0  -3  -5  142.55    3.72 
   0   3  -5  137.38    3.40 
  -1   3  -5   57.01    1.88 
  -1  -3   5   53.16    2.06 
  -1   3  -5   50.83    2.10 
   1  -3  -5   51.81    1.90 
  -1  -3   5   49.85    1.74 
   1  -3  -5   50.89    1.96 
  -1  -3  -5   53.49    2.02 
   1   3  -5   50.53    1.68 
  -1  -3  -5   55.56    1.97 
   1  -3   5   50.82    1.89 
  -1   3   5   53.69    2.05 
   1   3  -5   51.77    1.99 
   2  -3  -5  314.77    7.24 
  -2  -3   5  333.16    7.37 
  -2   3  -5  331.44    7.30 
   2  -3  -5  331.85    7.25 
   2   3   5  312.76    6.69 
  -2  -3  -5  323.90    7.09 
  -2   3   5  321.19    7.26 
  -2  -3  -5  305.52    7.38 
   2  -3   5  319.74    6.50 
   2   3  -5  322.05    7.31 
   2  -3   5  317.17    6.44 
  -3  -3   5   -0.24    0.84 
  -3   3  -5   -0.61    0.94 
   3  -3  -5    0.36    0.76 
   3   3   5    0.34    0.56 
   3  -3   5    0.17    0.59 
  -3  -3  -5   -0.43    0.94 
   3   3  -5    0.11    0.83 
  -3   3   5   -0.46    0.82 
   4  -3  -5  197.54    5.11 
  -4   3  -5  204.19    5.38 
  -4  -3   5  191.82    5.19 
   4   3  -5  193.43    5.15 
  -4   3   5  202.11    5.15 
  -4   3   5  198.59    5.16 
  -4  -3  -5  196.96    5.37 
  -5   3  -5   13.93    1.82 
   5  -3  -5   14.38    1.57 
  -5  -3   5   29.90    2.04 
   5   3  -5   26.17    1.95 
  -5   3   5   14.26    1.59 
  -5  -3  -5   15.17    1.89 
  -5   3   5   14.11    1.64 
  -6  -3   5   68.69    3.39 
  -6   3  -5   77.18    3.67 
   6  -3  -5   80.52    3.15 
  -6   3   5   69.40    3.22 
  -6  -3  -5   76.93    3.45 
   6   3  -5   76.75    3.34 
  -6   3   5   76.52    3.24 
  -7   3  -5   36.06    2.93 
  -7  -3   5   30.66    2.58 
   7  -3  -5   33.06    2.42 
  -7   3   5   36.46    2.69 
  -7  -3  -5   33.08    2.84 
  -7   3   5   34.42    2.51 
   7   3  -5   35.70    2.55 
   0  -3  -6    0.25    0.85 
   0   3   6    0.05    0.91 
   0  -3   6    0.70    0.93 
   0  -3   6   -0.03    0.87 
   0  -3  -6   -0.06    0.86 
   0   3  -6    0.51    0.89 
  -1   3  -6    2.28    0.91 
   1  -3  -6    0.99    0.89 
   1   3   6    0.70    0.88 
   1  -3  -6    1.18    0.92 
  -1  -3   6    2.52    1.07 
  -1  -3  -6    0.49    0.86 
  -1  -3  -6    0.90    0.92 
   1   3  -6    3.32    1.04 
  -1   3   6    0.20    0.91 
   2  -3  -6   54.38    2.22 
   2  -3  -6   52.09    2.33 
  -2   3  -6   57.37    2.39 
  -2  -3   6   57.19    2.47 
  -2   3   6   56.24    2.33 
  -2  -3  -6   55.68    2.42 
   2   3  -6   54.31    2.38 
   3  -3  -6    1.89    1.08 
   3  -3  -6    1.19    0.90 
  -3   3  -6    1.25    1.14 
  -3  -3   6    0.66    1.15 
  -3   3   6    1.38    1.02 
  -3  -3  -6    0.86    1.06 
   3   3  -6    1.88    1.13 
   4  -3  -6   64.18    2.63 
  -4  -3   6   65.67    2.98 
  -4   3  -6   60.22    2.94 
  -4   3   6   64.98    2.86 
  -4  -3  -6   60.60    3.00 
  -4   3   6   64.07    2.76 
   4   3  -6   66.24    2.89 
  -5   3  -6    0.64    1.45 
   5  -3  -6   -0.83    1.25 
  -5  -3   6    0.21    1.45 
  -5  -3  -6    0.34    1.54 
  -5   3   6    0.65    1.35 
  -5   3   6   -0.08    1.31 
   5   3  -6    0.51    1.30 
  -6  -3   6    0.38    1.69 
   6  -3  -6    0.64    1.47 
  -6   3  -6    0.60    1.80 
  -6   3   6    0.01    1.55 
  -6  -3  -6    1.02    1.82 
   6   3  -6    0.39    1.56 
  -6   3   6    0.59    1.55 
   7  -3  -6    7.14    1.86 
  -7   3  -6    5.02    2.17 
  -7  -3   6    3.45    2.00 
  -7  -3  -6    7.32    2.28 
   7   3  -6    4.16    1.92 
  -7   3   6    5.92    1.96 
  -7   3   6    4.86    1.94 
   0   3   7   42.36    2.29 
   0  -3  -7   36.67    2.13 
   0  -3  -7   37.66    2.17 
   1  -3  -7   17.88    1.61 
   1  -3  -7   24.20    1.76 
  -1  -3   7   21.05    1.81 
   1   3   7   22.60    1.90 
   1   3  -7   20.55    1.74 
  -1   3   7   21.20    1.79 
  -1  -3  -7   22.32    1.69 
  -1  -3  -7   21.86    1.81 
  -2   3  -7  235.67    5.91 
   2  -3  -7  231.92    6.04 
   2  -3  -7  224.19    5.85 
  -2  -3   7  236.01    6.16 
  -2   3   7  235.80    6.05 
  -2  -3  -7  230.80    6.18 
   2   3  -7  237.26    6.05 
  -3   3  -7    0.14    1.33 
  -3  -3   7    1.28    1.41 
   3  -3  -7    0.84    1.26 
   3  -3  -7   -0.04    1.11 
  -3   3   7    0.55    1.25 
  -3  -3  -7    0.55    1.44 
   3   3  -7    0.10    1.29 
  -3   3   7   -0.25    1.29 
  -4  -3   7  201.55    5.91 
   4  -3  -7  198.05    5.68 
  -4   3  -7  206.84    5.93 
  -4  -3  -7  195.81    5.85 
   4   3  -7  200.85    5.79 
  -4   3   7  209.18    5.66 
  -4   3   7  203.21    5.79 
  -5   3  -7   17.15    2.21 
  -5  -3   7   23.10    2.39 
   5  -3  -7   23.69    2.16 
  -5   3   7   22.96    2.25 
   5   3  -7   22.60    2.23 
  -5   3   7   20.64    2.09 
  -5  -3  -7   21.85    2.39 
  -6   3  -7   22.78    2.63 
  -6  -3   7   25.55    2.55 
   6  -3  -7   15.46    2.10 
  -6  -3  -7   21.73    2.61 
  -6   3   7   23.74    2.50 
  -6   3   7   22.87    2.37 
   6   3  -7   22.91    2.46 
   0   3   8    0.12    1.35 
   0  -3  -8   -0.56    1.35 
   0  -3  -8    0.86    1.26 
   1  -3  -8  186.67    5.26 
  -1  -3   8  170.50    5.35 
   1   3   8  190.97    5.59 
   1  -3  -8  191.22    5.38 
   1   3  -8  193.28    6.91 
  -1  -3  -8  188.38    5.40 
  -1   3   8  186.18    5.35 
   2  -3  -8    3.10    1.40 
   2  -3  -8    1.25    1.44 
   2   3   8    1.63    1.58 
  -2   3   8    1.16    1.46 
  -2   3   8    3.30    1.50 
  -2  -3  -8    2.13    1.51 
   3  -3  -8   13.63    1.76 
  -3  -3   8   14.11    2.04 
   3  -3  -8   17.38    2.01 
  -3  -3  -8   17.71    2.21 
   3   3  -8   16.11    1.99 
  -3   3   8   17.73    2.07 
  -3   3   8   16.54    1.94 
   4  -3  -8    1.39    1.60 
  -4   3  -8   -0.05    1.76 
  -4  -3   8   -0.21    1.79 
  -4  -3  -8    1.31    1.90 
   4   3  -8    0.46    1.72 
  -4   3   8    0.87    1.69 
  -4   3   8   -0.43    1.57 
   0  -3  -9    8.90    1.87 
   0   3   9    9.14    1.97 
   1  -3  -9    2.84    1.79 
   1   3   9    0.86    1.70 
   1  -3  -9   -0.02    1.58 
  -1  -3  -9    1.22    1.63 
  -1   3   9   -0.04    1.68 
  -1   3   9    1.49    1.74 
   2  -3  -9    0.41    1.83 
  -2  -3   9   -0.29    1.86 
   2   3   9   -0.01    1.87 
   2  -3  -9    0.09    1.49 
  -2   3   9   -0.17    1.69 
  -2  -3  -9    0.21    1.78 
   2   3  -9   -0.40    1.74 
  -2   3   9    0.85    1.73 
   0  -4   0  326.14    6.65 
   0  -4   0  317.15    6.69 
   0   4   0  321.68    6.64 
   1  -4   0    0.35    0.32 
   1   4   0   -0.30    0.34 
  -1  -4   0    0.30    0.52 
  -1  -4   0   -0.52    0.40 
  -1   4   0    0.17    0.34 
  -2   4   0  177.00    4.02 
   2  -4   0  180.26    3.79 
  -2  -4   0  183.04    4.19 
   2   4   0  177.68    4.17 
  -2  -4   0  175.76    3.91 
  -2  -4   0  177.44    4.12 
   3  -4   0   -0.45    0.42 
  -3  -4   0   -0.40    0.53 
   3  -4   0   -0.27    0.32 
  -3  -4   0   -0.36    0.74 
  -3   4   0    0.00    0.52 
   3   4   0    0.10    0.72 
  -3  -4   0    0.07    0.65 
   4  -4   0  135.75    3.08 
   4   4   0  132.56    3.80 
  -4  -4   0  136.25    3.52 
  -4   4   0  135.60    3.09 
  -4   4   0  133.46    3.65 
  -4  -4   0  133.28    3.47 
   4  -4   0  140.51    3.53 
   5  -4   0    0.17    0.80 
  -5  -4   0    0.15    0.83 
  -5   4   0   -1.89    0.88 
  -5  -4   0    0.24    0.89 
  -6   4   0  179.24    4.97 
  -6  -4   0  181.44    4.75 
  -6  -4   0  176.76    4.81 
  -7   4   0    0.03    1.29 
  -7  -4   0   -1.36    1.23 
  -8   4   0   59.02    3.51 
  -8  -4   0   52.46    3.13 
   0  -4  -1    0.56    0.34 
   0  -4  -1    0.24    0.32 
   0  -4   1    0.23    0.29 
   0   4   1    0.81    0.32 
   0   4   1    0.54    0.33 
   0  -4  -1    0.32    0.40 
   0   4  -1   -0.05    0.29 
   0  -4   1   -0.04    0.45 
  -1  -4   1   72.72    1.97 
  -1   4  -1   69.79    1.77 
   1  -4  -1   71.84    1.81 
   1   4   1   72.67    1.87 
   1  -4  -1   68.97    1.77 
  -1  -4   1   69.28    1.87 
   1   4  -1   72.16    1.87 
  -1   4   1   69.59    1.83 
   1  -4   1   68.06    1.77 
  -1  -4  -1   70.59    1.89 
  -1  -4  -1   71.07    1.81 
  -1  -4  -1   74.35    1.95 
  -2  -4   1  121.15    3.00 
   2  -4  -1  119.94    2.76 
   2   4   1  119.58    3.03 
  -2  -4   1  118.89    3.05 
  -2   4  -1  121.76    2.92 
  -2  -4  -1  116.62    2.95 
  -2  -4  -1  118.19    2.89 
   2   4  -1  118.78    3.03 
  -2   4   1  119.43    2.91 
  -3  -4   1   18.55    1.00 
  -3   4  -1   18.14    1.11 
   3   4   1   19.25    1.29 
   3  -4  -1   19.24    1.05 
  -3  -4   1   15.94    1.14 
   3  -4  -1   17.21    0.88 
  -3  -4   1   19.09    1.17 
  -3   4   1   19.14    1.16 
  -3  -4  -1   15.83    1.09 
   3   4  -1   17.11    1.23 
   3  -4   1   17.68    1.04 
  -3  -4  -1   19.83    1.17 
   4  -4  -1   54.11    1.68 
   4  -4  -1   56.12    1.98 
  -4   4  -1   52.39    2.02 
  -4  -4   1   54.56    2.04 
   4   4   1   53.17    2.27 
  -4  -4   1   52.10    1.87 
  -4  -4  -1   53.35    1.98 
   4  -4   1   57.22    1.96 
  -4   4   1   60.43    2.11 
  -4  -4  -1   53.40    2.05 
  -5  -4   1   42.26    1.99 
   5  -4  -1   42.42    1.62 
   5   4   1   43.67    2.36 
  -5  -4   1   45.00    1.94 
  -5   4  -1   39.60    2.22 
  -5   4   1   42.14    2.11 
  -5  -4  -1   40.08    2.00 
   5  -4   1   43.41    2.00 
  -5  -4  -1   40.83    2.04 
  -5   4   1   42.03    1.64 
  -6   4  -1   10.27    1.58 
  -6  -4   1   11.17    1.36 
  -6  -4   1   12.24    1.46 
  -6   4   1   11.96    1.55 
  -6  -4  -1   10.23    1.39 
  -7  -4   1   32.45    2.15 
  -7   4  -1   32.66    2.51 
  -7  -4   1   25.16    2.95 
  -7  -4  -1   28.27    2.14 
  -7   4   1   28.54    2.28 
  -8   4  -1   26.84    2.66 
  -8   4   1   37.28    2.81 
  -8  -4  -1   29.72    2.52 
   0  -4   2  441.19    9.30 
   0  -4  -2  460.80    9.37 
   0   4   2  443.91    9.22 
   0  -4   2  455.84    9.18 
   0   4  -2  473.01    9.18 
   0  -4  -2  450.19    9.35 
   0   4   2  445.20    9.37 
   1  -4  -2  115.43    2.80 
  -1   4  -2  116.33    2.72 
   1   4   2  115.85    2.74 
   1  -4  -2  114.89    2.78 
  -1  -4   2  113.95    2.84 
  -1  -4   2  117.43    2.77 
  -1  -4  -2  115.14    2.81 
   1   4  -2  116.68    2.72 
  -1  -4  -2  114.31    2.84 
  -1   4   2  121.67    2.86 
   1  -4   2  114.66    2.62 
   1  -4   2  116.36    2.77 
   2   4   2    4.55    0.60 
   2  -4  -2    4.32    0.59 
  -2  -4   2    3.15    0.68 
  -2   4  -2    3.27    0.65 
  -2  -4   2    3.42    0.63 
  -2  -4  -2    3.23    0.62 
   2   4  -2    3.35    0.68 
  -2  -4  -2    2.86    0.65 
   2   4  -2    2.47    0.62 
  -2   4   2    2.89    0.60 
   2  -4   2    3.44    0.45 
   3  -4  -2    8.76    0.77 
   3   4   2   11.24    1.02 
  -3   4  -2   11.38    1.04 
   3  -4  -2    8.85    0.74 
  -3  -4   2    9.91    0.98 
  -3  -4   2    8.24    0.90 
  -3  -4   2    8.89    0.68 
   3   4  -2    7.86    1.01 
  -3  -4  -2    7.83    0.82 
   3   4  -2    8.14    0.89 
   3  -4   2    7.48    0.71 
  -3   4   2   10.93    0.94 
  -3  -4  -2    9.21    0.96 
  -4  -4   2    3.25    0.88 
   4  -4  -2    2.08    0.63 
   4   4   2    3.76    0.94 
  -4   4  -2    5.99    1.08 
  -4  -4   2    3.43    0.72 
  -4  -4  -2    2.61    0.87 
  -4  -4  -2    5.12    0.89 
  -4   4   2    2.62    0.85 
   4  -4   2    2.33    0.65 
  -5   4  -2   65.10    2.76 
  -5  -4   2   65.56    2.40 
   5  -4  -2   66.77    2.21 
  -5  -4   2   70.15    2.59 
   5   4   2   68.87    2.86 
  -5  -4  -2   70.61    2.73 
  -5   4   2   72.24    2.25 
  -5  -4  -2   65.93    2.64 
   5  -4   2   64.83    2.53 
  -5   4   2   67.04    2.58 
  -6  -4   2  205.11    5.35 
   6   4   2  204.83    5.71 
  -6   4  -2  202.44    5.66 
  -6   4   2  205.32    5.52 
  -6  -4  -2  200.23    5.48 
   6  -4   2  196.46    5.39 
  -7   4  -2   23.44    2.25 
  -7  -4   2   22.34    2.04 
  -7  -4  -2   19.07    1.99 
  -7   4   2   20.66    2.01 
  -8   4  -2    1.54    1.87 
  -8   4   2    2.10    1.83 
  -8  -4  -2    1.46    1.74 
   0  -4  -3    0.29    0.53 
   0   4  -3   -0.29    0.47 
   0  -4  -3   -0.83    0.48 
   0  -4   3   -0.07    0.32 
   0  -4   3   -0.53    0.47 
   0   4   3    0.68    0.55 
   0   4  -3    0.12    0.33 
   0   4  -3   -0.23    0.31 
   1  -4  -3   33.67    1.35 
   1  -4  -3   33.26    1.34 
  -1   4  -3   36.39    1.27 
  -1  -4   3   34.16    1.42 
   1   4   3   32.51    1.13 
  -1  -4   3   31.36    1.18 
  -1  -4  -3   33.66    1.33 
   1  -4   3   30.13    1.16 
   1   4  -3   33.91    1.39 
   1   4  -3   35.54    1.17 
   1  -4   3   32.59    1.03 
  -1   4   3   34.05    1.38 
  -1  -4  -3   31.33    1.42 
  -2  -4   3    2.26    0.40 
  -2  -4   3    2.86    0.59 
  -2  -4   3    2.81    0.75 
   2   4   3    1.67    0.52 
  -2   4  -3    3.45    0.72 
   2   4  -3    2.74    0.67 
   2  -4   3    2.10    0.44 
  -2  -4  -3    1.93    0.63 
   2   4  -3    2.05    0.70 
  -2  -4  -3    1.92    0.60 
  -3   4  -3  680.37   14.09 
   3  -4  -3  690.94   13.88 
   3   4   3  659.13   13.96 
  -3  -4   3  675.52   14.07 
  -3  -4  -3  669.27   13.81 
   3  -4   3  675.73   13.75 
  -3   4   3  658.81   13.99 
  -3  -4  -3  648.28   14.11 
   3   4  -3  681.70   14.04 
   4   4   3   -0.32    0.81 
  -4   4  -3    1.01    0.93 
   4  -4  -3   -0.08    0.64 
  -4  -4   3    0.13    0.88 
   4   4  -3    0.69    0.88 
   4  -4   3    0.05    0.66 
  -4  -4  -3    1.10    0.95 
  -4   4   3    0.25    0.72 
  -4  -4  -3    0.44    0.77 
  -5  -4   3   25.49    1.73 
  -5   4  -3   25.55    1.94 
   5  -4  -3   21.69    1.43 
   5   4   3   22.61    1.77 
   5  -4   3   25.49    1.62 
  -5   4   3   22.84    1.47 
  -5   4   3   30.73    1.88 
  -5  -4  -3   20.92    1.66 
   5   4  -3   20.96    1.55 
  -6   4  -3   -0.28    1.40 
  -6  -4   3    1.99    1.26 
   6  -4  -3    0.92    1.01 
  -6  -4  -3   -0.53    1.26 
  -6   4   3    1.25    1.24 
  -6   4   3    1.40    1.03 
  -7  -4   3   14.03    1.90 
  -7   4  -3   11.28    1.95 
  -7   4   3   16.40    2.04 
  -7  -4  -3   19.39    2.14 
  -8   4  -3    0.25    1.95 
  -8  -4   3   -0.33    1.75 
  -8   4   3    0.48    1.76 
  -8  -4  -3   -1.16    1.80 
   0  -4   4  198.24    4.62 
   0  -4   4  199.10    4.11 
   0   4  -4  202.10    4.60 
   0  -4  -4  203.54    4.75 
   0  -4  -4  195.11    4.65 
   0   4   4  195.58    4.77 
   0   4  -4  202.64    4.35 
  -1  -4   4   47.92    1.85 
  -1  -4   4   50.02    1.61 
  -1  -4   4   52.15    1.32 
   1  -4  -4   50.70    1.81 
  -1   4  -4   49.52    1.66 
  -1   4  -4   49.95    1.63 
   1   4   4   51.81    1.47 
  -1   4   4   48.09    1.80 
   1  -4   4   50.93    1.29 
  -1  -4  -4   54.33    1.81 
   1   4  -4   51.92    1.85 
   1  -4   4   49.27    1.66 
   1  -4   4   50.64    1.29 
  -1  -4  -4   50.44    1.91 
   2  -4  -4    0.65    0.58 
  -2  -4   4    0.43    0.76 
  -2  -4   4    0.76    0.45 
   2  -4  -4   -0.26    0.59 
   2   4   4    0.86    0.47 
  -2   4  -4    0.03    0.69 
   2  -4   4    1.71    0.42 
   2  -4   4    0.47    0.40 
  -2  -4  -4    0.71    0.77 
   2   4  -4    1.15    0.68 
  -2  -4  -4    0.59    0.67 
  -2   4   4    0.68    0.63 
  -3   4  -4    2.61    0.90 
  -3  -4   4    2.25    0.98 
   3   4   4    1.69    0.66 
   3  -4  -4    2.29    0.81 
   3   4  -4    1.90    0.92 
  -3  -4  -4    3.03    1.01 
  -3  -4  -4    2.21    0.78 
  -3   4   4    1.59    0.81 
   3  -4   4    2.14    0.61 
   4   4   4   -0.86    0.80 
   4  -4  -4    0.63    0.83 
  -4   4  -4    0.36    1.03 
  -4  -4   4    0.76    1.00 
   4   4  -4   -0.09    0.96 
   4  -4   4    0.59    0.72 
  -4  -4  -4    0.45    1.03 
  -4   4   4    0.08    0.88 
  -5  -4   4   36.87    2.17 
  -5   4  -4   27.52    2.03 
   5  -4  -4   30.19    1.86 
  -5  -4  -4   36.60    2.32 
   5   4  -4   27.83    1.85 
  -5   4   4   33.90    2.10 
  -5   4   4   36.97    2.00 
  -6   4  -4  123.20    4.45 
  -6  -4   4  119.09    4.19 
   6  -4  -4  130.65    3.92 
  -6  -4  -4  138.60    4.48 
  -6   4   4  130.59    4.09 
   6   4  -4  126.88    4.17 
  -6   4   4  129.35    3.95 
  -7  -4   4   15.54    2.06 
  -7   4  -4   13.86    2.25 
   7  -4  -4   19.82    1.86 
  -7   4   4   16.70    2.09 
  -7  -4  -4   13.37    2.17 
  -7   4   4   14.82    1.81 
  -8  -4   4    2.07    2.03 
  -8   4  -4    1.09    2.13 
  -8   4   4   -0.66    1.88 
  -8  -4  -4   -0.49    1.92 
   0   4   5    0.43    0.79 
   0  -4   5    0.09    0.77 
   0  -4  -5   -0.04    0.72 
   0  -4  -5   -0.58    0.72 
   0   4  -5    0.67    0.76 
  -1   4  -5   60.68    2.00 
   1  -4  -5   58.35    2.10 
  -1  -4   5   61.66    2.30 
   1  -4  -5   57.55    2.12 
   1   4   5   56.71    2.28 
  -1  -4  -5   59.35    2.21 
  -1  -4  -5   58.89    2.11 
  -1   4   5   60.58    2.18 
   1   4  -5   61.92    2.20 
  -2   4  -5   54.95    2.16 
   2   4   5   51.18    1.61 
   2  -4  -5   51.97    2.00 
   2  -4  -5   53.05    2.11 
  -2  -4   5   56.55    2.29 
  -2   4   5   49.02    2.04 
   2  -4   5   52.93    1.46 
   2   4  -5   50.81    2.18 
  -2  -4  -5   52.96    2.01 
  -2  -4  -5   52.64    2.30 
   2  -4   5   51.29    1.36 
  -3  -4   5   52.45    2.40 
   3   4   5   50.59    1.82 
   3  -4  -5   47.68    2.16 
  -3   4  -5   52.72    2.33 
   3  -4   5   53.21    1.79 
  -3  -4  -5   48.33    2.38 
  -3   4   5   55.58    2.24 
   3   4  -5   48.49    2.28 
   4  -4  -5   24.82    1.62 
  -4  -4   5   25.12    1.87 
  -4   4  -5   26.36    1.91 
  -4  -4  -5   22.66    1.88 
   4   4  -5   26.25    1.77 
  -4   4   5   30.82    1.91 
  -5  -4   5   17.37    1.77 
   5  -4  -5   24.93    1.82 
  -5   4  -5   25.69    2.14 
   5   4  -5   24.51    1.96 
  -5  -4  -5   23.75    2.08 
  -5   4   5   23.78    1.83 
  -5   4   5   26.17    1.95 
  -6  -4   5    8.01    1.79 
   6  -4  -5   12.15    1.64 
  -6   4  -5    9.51    1.93 
   6   4  -5   11.30    1.81 
  -6   4   5   10.06    1.68 
  -6   4   5    9.78    1.72 
  -6  -4  -5   12.03    1.98 
  -7   4  -5   32.50    2.79 
   7  -4  -5   30.10    2.34 
  -7  -4   5   32.63    2.67 
  -7   4   5   33.18    2.52 
  -7   4   5   31.97    2.56 
   7   4  -5   35.72    2.71 
  -7  -4  -5   37.57    2.96 
   0  -4  -6  209.25    5.31 
   0  -4   6  210.49    5.26 
   0   4  -6  203.84    5.17 
   0   4   6  212.70    5.41 
   0  -4  -6  214.82    5.25 
   1  -4  -6    0.48    0.90 
   1   4   6    0.10    0.91 
   1  -4  -6    0.13    0.86 
  -1  -4  -6    0.61    0.91 
  -1   4   6    0.94    1.00 
  -1  -4  -6    0.51    0.96 
   2  -4  -6   82.82    2.83 
  -2   4  -6   81.98    2.76 
  -2  -4   6   71.07    2.89 
   2  -4  -6   72.20    2.66 
  -2  -4  -6   71.30    2.91 
  -2   4   6   72.48    2.68 
  -2  -4  -6   72.25    2.65 
   2   4  -6   79.20    2.87 
  -3   4  -6    0.58    1.12 
  -3  -4   6    2.52    1.28 
   3  -4  -6    1.18    0.95 
   3  -4  -6    2.59    1.11 
  -3  -4  -6    1.41    1.28 
  -3   4   6    1.12    1.09 
   3   4  -6    2.63    1.24 
  -4   4  -6   72.50    3.14 
   4  -4  -6   66.85    2.94 
  -4  -4   6   69.93    3.19 
  -4  -4  -6   75.22    3.29 
   4   4  -6   70.60    3.07 
  -4   4   6   73.44    3.02 
  -5  -4   6    1.34    1.52 
   5  -4  -6    0.24    1.26 
  -5   4  -6    0.38    1.56 
  -5   4   6    1.15    1.36 
  -5  -4  -6    0.35    1.53 
  -5   4   6    0.61    1.38 
   5   4  -6    1.42    1.46 
   6  -4  -6  127.73    4.38 
  -6   4  -6  134.00    4.93 
  -6  -4   6  131.73    4.78 
  -6   4   6  126.33    4.47 
  -6  -4  -6  126.43    4.86 
  -6   4   6  125.28    4.50 
   6   4  -6  129.81    4.60 
   0   4   7   -1.16    1.14 
   0  -4  -7   -0.10    1.10 
   0  -4  -7   -0.17    1.07 
   1   4   7   11.16    1.59 
   1  -4  -7   14.59    1.51 
  -1  -4   7   12.99    1.64 
   1  -4  -7   11.95    1.46 
   1   4  -7   15.00    1.62 
  -1  -4  -7   13.64    1.59 
  -1   4   7   10.18    1.54 
  -1  -4  -7   11.21    1.44 
   2   4   7   23.84    2.01 
   2  -4  -7   26.09    1.98 
  -2  -4   7   22.69    1.98 
   2  -4  -7   22.13    1.79 
   2   4  -7   23.09    1.89 
  -2  -4  -7   19.75    1.79 
  -2   4   7   23.79    1.88 
   3  -4  -7    7.32    1.39 
   3  -4  -7    7.93    1.54 
  -3  -4   7    5.39    1.55 
   3   4  -7    6.65    1.49 
  -3   4   7    7.18    1.51 
  -3  -4  -7   11.53    1.83 
  -4   4  -7   19.13    2.08 
   4  -4  -7   19.18    1.89 
  -4  -4   7   21.24    2.22 
  -4   4   7   19.62    1.91 
   4   4  -7   20.16    2.06 
  -4   4   7   21.45    2.04 
  -4  -4  -7   21.90    2.19 
   5  -4  -7   13.91    1.95 
  -5   4  -7   11.30    2.11 
  -5  -4   7    8.60    2.06 
  -5  -4  -7    9.40    1.97 
  -5   4   7   12.08    1.86 
   5   4  -7    7.94    1.95 
  -5   4   7   13.02    2.05 
   0  -4  -8  179.21    5.14 
   0  -4  -8  175.18    5.14 
   0   4   8  172.21    5.26 
   1  -4  -8   24.44    2.12 
   1  -4  -8   25.72    2.04 
   1   4   8   26.61    2.23 
  -1  -4  -8   20.42    1.96 
  -1   4   8   30.97    2.29 
  -2  -4   8    4.27    1.74 
   2  -4  -8    5.50    1.63 
   2  -4  -8    5.68    1.46 
   2   4   8    5.04    1.73 
  -2  -4  -8    3.88    1.66 
   2   4  -8    5.44    1.69 
  -2   4   8    6.39    1.63 
  -3  -4   8    0.02    1.69 
   3  -4  -8    0.63    1.42 
   3  -4  -8    1.25    1.59 
  -3   4   8    2.38    1.70 
  -3  -4  -8    1.30    1.67 
  -3   4   8    0.28    1.53 
   3   4  -8    0.18    1.62 
  -4  -4   8    4.65    1.94 
   4  -4  -8    6.01    1.85 
  -4  -4  -8    7.75    2.06 
  -4   4   8    8.28    2.00 
   4   4  -8    4.77    1.87 
  -4   4   8    6.70    1.87 
   0  -4  -9    0.44    1.63 
   0   4   9   -0.43    1.70 
   1   4   9   19.51    2.40 
   1  -4  -9   18.13    2.31 
   1  -4  -9   16.00    2.03 
  -1  -4  -9   17.67    2.21 
  -1   4   9   19.08    2.24 
   2  -4  -9   -0.28    1.79 
   2   4   9    1.15    1.89 
  -2  -4   9    0.05    2.42 
   2  -4  -9   -0.12    1.62 
  -2   4   9   -1.13    1.78 
  -2  -4  -9   -0.05    1.81 
  -2   4   9    1.28    1.79 
   0  -5   0   -0.16    0.46 
   0  -5   0   -0.21    0.34 
   0   5   0    0.06    0.34 
  -1  -5   0    0.10    0.46 
  -1   5   0   -0.27    0.38 
   1   5   0   -0.36    0.42 
   1  -5   0   -0.10    0.39 
  -1  -5   0   -0.25    0.58 
   1  -5   0   -0.58    0.38 
  -2  -5   0  226.83    5.14 
  -2  -5   0  222.07    5.10 
   2  -5   0  222.54    4.74 
  -2   5   0  225.19    4.97 
   2   5   0  221.29    5.11 
  -2  -5   0  223.03    4.80 
   3  -5   0    0.08    0.37 
  -3  -5   0    0.11    0.71 
  -3   5   0    0.19    0.59 
   3   5   0   -0.02    0.69 
  -3  -5   0   -0.06    0.55 
  -3  -5   0    0.42    0.80 
  -4  -5   0   97.24    2.93 
  -4  -5   0   96.65    2.78 
   4   5   0   97.39    3.15 
   4  -5   0   99.09    2.82 
  -4   5   0   97.96    2.98 
   4  -5   0   96.86    2.55 
  -5  -5   0   -0.66    0.97 
  -5   5   0    0.60    1.04 
  -5  -5   0    0.52    0.89 
  -6   5   0   -0.74    1.15 
  -6  -5   0    1.18    1.06 
  -6  -5   0   -0.36    1.17 
  -7   5   0    0.38    1.45 
  -7  -5   0    0.68    1.36 
  -8   5   0   92.60    4.00 
   0   5   1  119.28    2.84 
   0   5   1  120.99    2.80 
   0  -5   1  119.90    2.91 
   0   5  -1  115.92    2.79 
   0  -5  -1  123.67    2.93 
   0  -5  -1  122.68    2.79 
   0  -5   1  124.46    2.83 
  -1  -5   1  113.91    2.89 
  -1  -5   1  115.72    2.80 
   1   5   1  110.87    2.77 
   1  -5  -1  113.31    2.72 
  -1   5  -1  112.05    2.63 
   1  -5  -1  111.11    2.68 
   1  -5   1  113.34    2.63 
  -1  -5  -1  115.74    2.69 
  -1  -5  -1  109.13    2.84 
   1  -5   1  116.22    2.70 
  -1   5   1  114.34    2.73 
   1   5  -1  119.91    2.78 
  -2  -5   1    1.55    0.60 
  -2  -5   1    2.22    0.64 
   2  -5  -1    2.45    0.49 
   2   5   1    1.88    0.57 
  -2   5  -1    1.67    0.57 
  -2  -5  -1    1.26    0.51 
   2   5  -1    2.56    0.62 
  -2  -5  -1    1.19    0.62 
   2  -5   1    2.39    0.36 
  -2   5   1    1.68    0.54 
  -3  -5   1    0.06    0.51 
   3   5   1   -0.26    0.64 
  -3   5  -1   -0.12    0.61 
   3  -5  -1    0.49    0.42 
  -3  -5   1   -0.28    0.70 
  -3  -5   1   -0.23    0.68 
  -3  -5  -1   -0.22    0.68 
  -3   5   1   -0.62    0.52 
   3   5  -1   -1.13    0.73 
  -3  -5  -1   -0.06    0.60 
   3  -5   1   -0.19    0.47 
  -4   5  -1    1.20    0.75 
  -4  -5   1    1.33    0.69 
   4   5   1    1.36    0.98 
   4  -5  -1    0.88    0.55 
  -4  -5   1    1.62    0.88 
  -4  -5  -1    1.23    0.84 
  -4  -5  -1    2.94    0.86 
   4  -5   1    1.24    0.68 
  -4   5   1    1.55    0.74 
  -5   5  -1   97.43    3.23 
  -5  -5   1   89.90    3.03 
  -5  -5   1   92.80    2.83 
   5   5   1   88.09    3.32 
  -5  -5  -1   91.76    3.05 
  -5  -5  -1   93.15    3.00 
  -5   5   1   92.11    3.05 
   5  -5   1   92.50    2.95 
  -6   5  -1   49.62    2.71 
  -6  -5   1   46.71    2.44 
  -6  -5  -1   47.39    2.54 
  -6   5   1   50.09    2.46 
  -6  -5  -1   47.90    2.41 
  -7   5  -1   32.32    2.48 
  -7  -5   1   26.42    2.10 
  -7   5   1   29.30    2.30 
  -7  -5  -1   28.31    2.20 
  -8   5  -1    0.20    1.84 
  -8  -5  -1    0.62    1.75 
  -8   5   1    0.50    1.57 
   0  -5   2   -0.36    0.35 
   0  -5  -2   -0.10    0.48 
   0   5   2   -0.09    0.42 
   0  -5  -2   -0.59    0.42 
   0   5   2   -0.20    0.34 
   0  -5   2    0.69    0.55 
   0   5  -2    0.13    0.36 
  -1   5  -2    0.88    0.45 
  -1  -5   2    0.82    0.60 
   1   5   2    0.37    0.42 
   1  -5  -2    0.32    0.46 
   1  -5  -2    0.95    0.46 
  -1  -5   2    1.11    0.48 
   1  -5   2    1.28    0.48 
  -1  -5  -2    0.98    0.52 
  -1  -5  -2    1.14    0.52 
   1  -5   2    1.11    0.39 
   1   5  -2    0.90    0.47 
  -1   5   2    0.61    0.46 
   2   5   2   14.49    0.95 
   2  -5  -2   16.14    0.98 
  -2  -5   2   16.35    1.08 
  -2  -5   2   19.98    1.21 
  -2   5  -2   18.04    1.05 
  -2  -5  -2   18.00    1.12 
  -2  -5  -2   20.07    1.16 
  -2   5   2   18.32    1.01 
   2   5  -2   17.09    1.03 
   3  -5  -2   69.84    2.03 
  -3  -5   2   71.23    2.35 
   3   5   2   71.11    2.35 
  -3   5  -2   71.05    2.31 
  -3   5   2   67.99    2.25 
   3  -5   2   71.61    2.09 
  -3  -5  -2   71.31    2.27 
  -3  -5  -2   68.62    2.30 
  -4   5  -2   11.25    1.24 
   4  -5  -2   10.87    0.95 
   4   5   2   11.66    1.27 
  -4  -5   2   11.55    1.18 
  -4   5   2   11.88    1.18 
  -4  -5  -2   10.33    1.16 
   4  -5   2    8.88    0.89 
  -4  -5  -2   12.60    1.16 
   5   5   2    2.10    1.19 
  -5  -5   2    4.09    1.14 
   5  -5  -2    1.84    0.82 
  -5   5  -2    1.73    1.04 
  -5  -5  -2    2.70    1.09 
  -5  -5  -2    3.48    1.09 
   5  -5   2    1.62    0.91 
  -5   5   2    2.23    1.07 
  -6   5  -2    1.37    1.25 
   6   5   2    0.21    1.60 
  -6  -5   2    1.32    1.23 
  -6   5   2    0.03    1.21 
   6  -5   2    0.51    1.13 
  -6  -5  -2    0.95    1.26 
  -7  -5   2    5.24    1.66 
  -7   5  -2    4.98    1.69 
  -7   5   2    4.87    1.63 
  -7  -5  -2    7.09    1.64 
  -8   5  -2    6.83    2.11 
  -8  -5   2    3.24    2.04 
  -8  -5  -2    7.40    2.04 
  -8   5   2    6.84    1.98 
   0  -5  -3    5.58    0.75 
   0  -5   3    4.10    0.51 
   0  -5   3    3.80    0.68 
   0   5   3    4.14    0.71 
   0   5  -3    3.93    0.51 
   0  -5  -3    4.16    0.69 
   1   5   3    2.66    0.51 
   1  -5  -3    3.15    0.67 
  -1   5  -3    2.96    0.57 
  -1  -5   3    3.34    0.58 
  -1  -5   3    3.14    0.74 
  -1  -5  -3    3.45    0.71 
   1   5  -3    2.56    0.71 
  -1   5   3    2.21    0.62 
  -1  -5  -3    0.93    0.63 
   1  -5   3    2.79    0.45 
   1  -5   3    2.90    0.63 
   1   5  -3    2.69    0.55 
  -2   5  -3    1.58    0.71 
   2  -5  -3    0.22    0.52 
   2   5   3    0.71    0.55 
  -2  -5   3    0.65    0.67 
  -2  -5   3    0.46    0.62 
   2  -5  -3    0.38    0.52 
   2  -5   3    0.85    0.42 
   2   5  -3    1.00    0.65 
  -2  -5  -3    0.90    0.67 
   2  -5   3    0.67    0.46 
  -2  -5  -3    0.39    0.65 
  -2   5   3   -0.05    0.54 
  -3  -5   3    1.72    0.84 
   3  -5  -3    1.00    0.57 
  -3   5  -3    0.71    0.80 
   3   5   3    2.69    0.76 
   3   5  -3    0.16    0.81 
  -3  -5  -3    0.77    0.82 
   3  -5   3    1.17    0.55 
  -3   5   3    0.35    0.66 
  -3  -5  -3    1.09    0.76 
  -4   5  -3   -0.28    0.96 
   4   5   3    0.07    0.90 
   4  -5  -3   -0.87    0.70 
  -4  -5   3    0.78    0.98 
  -4  -5  -3   -0.28    0.97 
  -4  -5  -3    1.11    0.86 
  -4   5   3    0.89    0.87 
   4  -5   3    1.07    0.68 
  -5  -5   3   -0.60    0.96 
   5   5   3    0.24    1.11 
  -5   5  -3    1.94    1.21 
   5  -5  -3   -0.04    0.87 
   5  -5   3   -0.02    0.86 
  -5   5   3    0.38    1.03 
  -5  -5  -3   -0.04    1.14 
   6  -5  -3    2.62    1.10 
  -6  -5   3    3.05    1.41 
  -6   5  -3    2.55    1.51 
  -6   5   3   -0.05    1.23 
  -6   5   3    0.80    1.05 
  -6  -5  -3    2.60    1.35 
  -7   5  -3    2.51    1.80 
  -7  -5   3    2.00    1.61 
  -7  -5  -3    0.35    1.58 
  -7   5   3    0.90    1.57 
  -8   5  -3    0.69    2.04 
  -8  -5   3   -0.29    1.88 
  -8  -5  -3    1.17    1.87 
  -8   5   3    0.24    1.88 
   0   5  -4   -0.09    0.64 
   0   5   4   -0.39    0.67 
   0  -5  -4    0.63    0.68 
   0  -5   4    0.59    0.42 
   0  -5   4    0.92    0.68 
   0  -5  -4   -0.32    0.65 
   1   5   4    0.84    0.43 
   1  -5  -4    0.71    0.67 
   1  -5  -4    0.58    0.66 
  -1  -5   4    0.69    0.74 
  -1  -5   4    1.01    0.49 
   1   5   4    0.81    0.67 
  -1   5  -4    0.17    0.58 
  -1  -5  -4    0.84    0.67 
   1   5  -4    1.07    0.75 
   1  -5   4    0.14    0.64 
  -1  -5  -4    0.14    0.65 
   1  -5   4    0.67    0.39 
   1  -5   4    0.88    0.34 
  -1   5   4    0.86    0.71 
  -2  -5   4    8.96    1.10 
   2  -5  -4    7.55    0.84 
   2  -5  -4    8.10    0.97 
   2   5   4    9.45    0.81 
  -2   5   4    9.76    1.08 
  -2  -5  -4    5.62    1.01 
   2   5  -4   10.73    1.13 
  -2  -5  -4    7.61    0.95 
  -3  -5   4  107.73    3.33 
   3  -5  -4  106.37    3.08 
  -3   5  -4  104.60    3.27 
   3   5   4  107.56    3.00 
  -3  -5  -4  105.38    3.01 
  -3   5   4  104.91    3.13 
  -3  -5  -4  108.60    3.34 
   3   5  -4  109.64    3.29 
   3  -5   4  107.20    2.82 
  -4   5  -4   22.39    1.76 
   4  -5  -4   15.78    1.24 
  -4  -5   4   13.06    1.39 
   4   5   4   16.35    1.36 
   4  -5   4   15.92    1.19 
  -4   5   4   21.98    1.64 
  -4  -5  -4   18.64    1.65 
   4   5  -4   16.82    1.52 
  -5   5  -4    2.04    1.26 
  -5  -5   4   -0.89    1.18 
   5  -5  -4    0.37    0.94 
   5   5  -4    0.29    1.23 
  -5  -5  -4    0.47    1.26 
  -5   5   4    0.82    1.14 
  -6  -5   4    0.03    1.44 
   6  -5  -4    0.44    1.14 
  -6   5  -4    0.31    1.51 
  -6   5   4    0.25    1.21 
  -6  -5  -4    1.05    1.45 
  -6   5   4    0.34    1.35 
  -7  -5   4   -1.42    1.61 
   7  -5  -4    0.36    1.37 
  -7   5  -4   -0.35    1.76 
  -7  -5  -4    0.44    1.76 
  -7   5   4   -0.57    1.61 
   0   5   5  106.33    3.26 
   0  -5  -5  107.18    3.21 
   0  -5  -5  113.11    3.19 
  -1  -5   5   61.14    2.35 
   1  -5  -5   60.34    2.21 
   1   5   5   57.39    2.38 
   1   5  -5   59.35    2.28 
  -1  -5  -5   64.24    2.38 
  -1  -5  -5   56.99    2.20 
  -1   5   5   61.79    2.27 
   2  -5  -5    5.58    1.00 
   2   5   5    5.60    0.68 
   2  -5  -5    5.82    1.03 
  -2  -5   5    6.39    1.20 
  -2   5  -5    4.64    1.00 
  -2   5   5    6.60    1.11 
   2   5  -5    6.30    1.14 
  -2  -5  -5    5.91    1.03 
  -2  -5  -5    4.69    1.12 
   2  -5   5    7.31    0.62 
  -3  -5   5   -1.10    1.07 
  -3   5  -5    0.02    0.98 
   3  -5  -5    0.01    0.88 
   3   5   5    0.38    0.66 
  -3  -5  -5    0.27    1.07 
  -3   5   5    0.11    0.94 
   3   5  -5   -0.05    1.05 
   3  -5   5    0.13    0.63 
  -3  -5  -5    0.42    0.94 
  -4   5  -5    1.55    1.20 
   4  -5  -5    1.41    1.05 
  -4  -5   5    1.45    1.27 
  -4  -5  -5    1.80    1.24 
   4   5  -5    1.54    1.16 
  -4   5   5    0.78    1.05 
  -5   5  -5   29.66    2.23 
   5  -5  -5   33.26    2.07 
  -5  -5   5   23.65    1.98 
  -5   5   5   22.11    1.91 
   5   5  -5   28.99    2.04 
  -5  -5  -5   22.07    2.00 
  -5   5   5   28.52    2.01 
   6  -5  -5   58.45    2.84 
  -6   5  -5   54.35    3.29 
  -6  -5   5   52.03    3.18 
  -6  -5  -5   53.49    3.24 
   6   5  -5   58.57    3.12 
  -6   5   5   61.53    2.99 
  -6   5   5   48.35    2.94 
  -7  -5   5   29.25    2.72 
   7  -5  -5   27.53    2.27 
  -7   5  -5   29.38    2.84 
  -7   5   5   25.81    2.36 
  -7  -5  -5   32.03    2.80 
  -7   5   5   29.06    2.57 
   0  -5  -6    0.03    0.90 
   0   5   6   -0.46    0.88 
   0  -5   6    1.21    1.09 
   0  -5  -6    0.00    0.90 
   1  -5  -6    5.39    1.11 
  -1  -5   6    7.93    1.36 
   1  -5  -6    5.53    1.01 
   1   5   6    4.67    1.16 
   1   5  -6    7.58    1.29 
  -1  -5  -6    4.47    1.09 
  -1  -5  -6    8.21    1.20 
  -1   5   6    6.26    1.13 
   2  -5  -6   63.67    2.55 
   2  -5  -6   61.41    2.55 
  -2  -5   6   60.01    2.71 
  -2  -5  -6   57.49    2.42 
  -2   5   6   59.84    2.62 
  -2  -5  -6   62.32    2.75 
   2   5  -6   65.81    2.69 
  -3   5  -6    1.00    1.93 
   3  -5  -6    0.67    1.11 
   3  -5  -6    2.48    1.15 
  -3  -5   6    1.30    1.26 
   3   5  -6    0.36    1.19 
  -3   5   6    2.44    1.19 
  -3  -5  -6    1.29    1.31 
   4  -5  -6   43.37    2.48 
  -4   5  -6   44.31    2.65 
  -4  -5   6   46.42    2.79 
  -4   5   6   44.90    2.58 
  -4  -5  -6   46.73    2.82 
   4   5  -6   43.65    2.57 
   5  -5  -6    4.03    1.42 
  -5   5  -6    5.67    1.78 
  -5  -5   6    3.76    1.73 
   5   5  -6    6.45    1.69 
  -5   5   6    2.46    1.52 
  -5   5   6    3.76    1.46 
  -5  -5  -6    3.66    1.71 
   6  -5  -6    0.17    1.51 
  -6  -5   6   -0.06    1.80 
  -6   5  -6   -0.19    1.83 
  -6  -5  -6    0.21    1.74 
   6   5  -6   -1.11    1.55 
  -6   5   6    0.68    1.62 
  -6   5   6    0.61    1.60 
   0  -5  -7   27.40    1.95 
   0   5   7   29.82    2.09 
   0  -5  -7   32.35    2.05 
   1  -5  -7   15.19    1.67 
   1  -5  -7   14.40    1.63 
   1   5   7   12.50    1.72 
  -1  -5   7   15.20    1.80 
   1   5  -7   14.07    1.66 
  -1   5   7   15.00    1.72 
  -1  -5  -7   12.11    1.60 
  -1  -5  -7   16.16    1.63 
  -2  -5   7    3.94    1.48 
   2   5   7    2.71    1.40 
   2  -5  -7    1.81    1.32 
   2  -5  -7    4.28    1.24 
  -2   5   7    2.68    1.32 
   2   5  -7    4.94    1.47 
  -2  -5  -7    3.06    1.26 
   3  -5  -7   -1.46    1.18 
  -3  -5   7   -0.28    1.41 
   3  -5  -7    2.02    1.34 
  -3   5   7   -0.55    1.26 
  -3  -5  -7    0.84    1.47 
   3   5  -7   -1.22    1.39 
  -4  -5   7    2.58    1.70 
   4  -5  -7    2.67    1.54 
   4   5  -7    5.20    1.70 
  -4   5   7    1.96    1.53 
  -4  -5  -7    3.63    1.76 
   5  -5  -7   20.16    2.16 
  -5  -5   7   19.79    2.42 
  -5   5   7   21.97    2.32 
  -5   5   7   23.30    2.30 
   5   5  -7   18.80    2.27 
  -5  -5  -7   23.06    2.53 
   0   5   8    0.03    1.49 
   0  -5  -8    0.01    1.39 
   0  -5  -8    0.04    1.44 
   1  -5  -8    0.77    1.30 
   1   5   8    0.80    1.35 
   1  -5  -8   -1.57    1.41 
  -1  -5  -8    0.76    1.39 
  -1   5   8   -0.88    1.39 
  -1  -5  -8    1.18    1.68 
   2  -5  -8   -0.47    1.36 
   2  -5  -8   -0.22    1.41 
  -2  -5   8   -0.20    1.66 
   2   5   8    0.28    1.46 
   2   5  -8    0.54    1.63 
  -2  -5  -8    1.14    1.55 
  -2   5   8   -1.16    1.48 
   3   5   8   22.60    2.46 
   3  -5  -8   16.08    2.06 
  -3  -5   8   22.21    2.37 
   3  -5  -8   21.76    2.06 
   3   5  -8   20.50    2.26 
  -3  -5  -8   21.89    2.45 
  -3   5   8   23.29    2.24 
  -4  -5   8    0.16    1.96 
   4  -5  -8    0.45    1.64 
   4   5  -8    1.37    1.87 
  -4   5   8    0.74    1.76 
  -4  -5  -8    1.08    1.87 
  -4   5   8    1.76    1.82 
   0  -5  -9    2.27    1.73 
   0   5   9    0.40    1.80 
   0  -5  -9    0.53    1.75 
   1   5   9    3.23    1.86 
   1  -5  -9    3.64    1.87 
   1  -5  -9    4.64    1.81 
  -1   5   9    2.42    1.82 
  -1  -5  -9    5.20    1.81 
   0  -6   0  889.80   17.47 
   0  -6   0  846.34   17.21 
   0  -6   0  849.46   17.50 
   0   6   0  857.61   17.23 
   0   6   0  884.76   17.45 
   1  -6   0    0.21    0.45 
   1   6   0   -0.39    0.41 
  -1  -6   0    0.32    0.50 
   1  -6   0   -0.07    0.46 
  -1  -6   0   -0.51    0.64 
   1   6   0   -0.30    0.38 
  -1   6   0    0.49    0.44 
  -1  -6   0   -0.52    0.34 
   2   6   0  295.75    6.52 
   2  -6   0  296.60    6.18 
  -2   6   0  290.37    6.37 
  -2  -6   0  287.12    6.14 
  -2  -6   0  294.54    6.56 
  -2  -6   0  293.29    6.57 
   3  -6   0    0.72    0.44 
  -3  -6   0    0.01    0.79 
  -3   6   0   -0.42    0.66 
  -3  -6   0   -0.03    0.58 
   3   6   0   -0.20    0.76 
  -4  -6   0  243.94    5.69 
   4   6   0  247.55    6.61 
  -4   6   0  253.51    6.00 
   4  -6   0  256.16    5.79 
  -4  -6   0  245.60    5.94 
  -5  -6   0   -0.74    1.04 
  -5  -6   0   -0.08    0.92 
  -5   6   0    0.52    0.95 
  -6  -6   0  385.41    8.93 
  -6   6   0  378.58    9.11 
  -7   6   0    0.57    1.48 
  -7  -6   0    0.01    2.50 
  -8   6   0   75.92    3.94 
   0  -6   1   -0.55    0.55 
   0   6   1   -0.01    0.42 
   0  -6  -1    0.08    0.42 
   0  -6   1    0.17    0.43 
   0   6  -1   -0.07    0.40 
   0  -6  -1   -0.28    0.52 
   0   6   1   -0.01    0.39 
   1  -6  -1   61.10    1.76 
  -1  -6   1   59.42    1.86 
  -1  -6   1   58.61    2.00 
   1   6   1   58.83    1.69 
  -1   6  -1   58.97    1.64 
   1  -6  -1   60.08    1.71 
   1   6   1   61.37    1.82 
   1   6  -1   59.77    1.81 
  -1   6   1   55.57    1.72 
  -1  -6  -1   60.01    1.94 
   1  -6   1   61.65    1.73 
  -1  -6  -1   60.07    1.68 
   1  -6   1   60.51    1.75 
  -2  -6   1    0.16    0.65 
   2  -6  -1   -0.35    0.45 
  -2   6  -1    0.08    0.54 
   2   6   1    0.58    0.63 
  -2  -6   1    0.23    0.65 
  -2  -6  -1   -0.50    0.60 
  -2   6   1    0.11    0.52 
  -2  -6  -1    0.76    0.54 
   2   6  -1    0.58    0.60 
   2  -6   1    0.61    0.39 
   3  -6  -1  275.54    5.88 
  -3  -6   1  263.54    6.25 
  -3   6  -1  275.96    6.21 
   3   6   1  272.25    6.34 
  -3  -6  -1  277.94    6.11 
  -3   6   1  268.78    6.17 
  -3  -6  -1  269.43    6.26 
   3   6  -1  271.51    6.39 
   4   6   1    0.05    0.93 
   4  -6  -1    0.57    0.56 
  -4   6  -1    0.88    0.85 
  -4  -6   1    0.97    0.93 
  -4  -6  -1    0.30    0.91 
  -4  -6  -1    1.18    0.82 
   4  -6   1    1.01    0.73 
  -4   6   1    2.27    0.88 
  -5  -6   1   26.18    1.79 
  -5   6  -1   23.00    1.73 
  -5  -6  -1   25.25    1.76 
  -5  -6  -1   26.91    1.71 
   5  -6   1   21.99    1.49 
  -6   6  -1    0.78    1.40 
  -6  -6   1   -0.47    1.24 
  -6   6   1   -0.42    1.10 
  -6  -6  -1    1.06    1.26 
  -6  -6  -1    0.44    1.18 
  -7   6  -1   25.87    2.40 
  -7  -6   1   19.29    2.06 
  -7   6   1   24.52    2.22 
  -7  -6  -1   24.53    2.09 
  -8   6  -1    1.25    1.96 
  -8   6   1    0.76    1.73 
   0  -6  -2   25.82    1.17 
   0   6   2   25.72    1.13 
   0   6  -2   25.11    1.08 
   0  -6   2   25.49    1.34 
   0   6   2   25.03    1.07 
   0  -6  -2   28.64    1.20 
   0  -6   2   25.92    1.10 
  -1  -6   2    1.56    0.58 
   1  -6  -2    1.62    0.58 
  -1   6  -2    2.20    0.53 
   1   6   2    2.64    0.61 
  -1  -6   2    1.97    0.70 
   1  -6  -2    1.07    0.50 
   1   6   2    0.99    0.49 
  -1   6   2    1.46    0.59 
  -1  -6  -2    1.32    0.58 
   1  -6   2    0.74    0.46 
   1   6  -2    1.84    0.54 
   1  -6   2    1.59    0.58 
  -1  -6  -2    1.76    0.58 
  -2   6  -2  158.33    3.79 
   2   6   2  159.47    3.89 
   2  -6  -2  158.88    3.78 
  -2  -6   2  155.14    4.20 
  -2  -6   2  152.61    3.99 
  -2   6   2  162.81    3.90 
   2  -6   2  160.57    3.95 
   2  -6   2  156.59    3.44 
  -2  -6  -2  153.01    3.89 
  -2  -6  -2  161.16    3.88 
   3   6   2    1.02    0.77 
  -3  -6   2    0.91    0.77 
   3  -6  -2    0.72    0.57 
  -3   6  -2    0.41    0.75 
  -3  -6  -2    0.47    0.73 
  -3   6   2    1.90    0.75 
  -3  -6  -2    1.64    0.82 
   3  -6   2    1.00    0.53 
  -4   6  -2  124.17    3.65 
   4  -6  -2  126.01    3.26 
  -4  -6   2  130.20    3.72 
   4   6   2  122.81    3.77 
   4  -6   2  128.63    3.44 
  -4   6   2  128.33    3.62 
  -4  -6  -2  123.43    3.54 
  -4  -6  -2  124.97    3.61 
  -5  -6   2    0.14    1.10 
  -5   6  -2    1.37    1.16 
   5   6   2   -0.02    1.12 
   5  -6  -2    0.24    0.78 
  -5  -6  -2   -0.42    1.02 
  -5  -6  -2    0.50    1.04 
   5  -6   2   -0.51    0.87 
  -5   6   2   -0.68    0.92 
  -6   6  -2   12.73    1.82 
  -6  -6   2   10.90    1.62 
  -6   6   2   12.41    1.66 
   6  -6   2   14.35    1.64 
  -6  -6  -2   10.02    1.59 
  -7  -6   2    1.42    1.58 
  -7   6  -2    0.83    1.71 
  -7  -6  -2   -0.81    1.48 
  -7   6   2    1.22    1.40 
  -8   6  -2   51.69    3.40 
  -8  -6   2   54.72    3.24 
  -8  -6  -2   55.96    3.25 
  -8   6   2   50.61    3.30 
   0  -6  -3   -0.59    0.59 
   0  -6  -3   -0.39    0.57 
   0   6   3   -0.06    0.59 
   0  -6   3    0.82    0.70 
   0  -6   3   -0.19    0.45 
   1   6   3  454.69    9.73 
   1  -6  -3  438.35    9.67 
   1   6   3  446.79    9.52 
  -1   6  -3  465.33    9.39 
  -1  -6   3  454.75    9.74 
   1  -6  -3  456.46    9.67 
  -1  -6   3  462.56    9.55 
  -1  -6  -3  458.25    9.70 
   1  -6   3  454.75    9.39 
   1  -6   3  457.66    9.48 
  -1  -6  -3  452.95    9.71 
  -1   6   3  452.25    9.73 
  -2  -6   3    1.04    0.83 
   2  -6  -3    1.39    0.66 
   2  -6  -3    0.11    0.56 
  -2   6  -3    0.71    0.70 
   2   6   3    1.11    0.62 
  -2   6   3    1.28    0.64 
  -2  -6  -3    1.66    0.68 
  -2  -6  -3    1.31    0.75 
   3  -6  -3  197.78    4.77 
   3   6   3  199.27    4.96 
  -3   6  -3  199.60    4.98 
  -3  -6   3  204.13    5.11 
  -3   6   3  200.58    5.00 
  -3  -6  -3  206.40    4.94 
  -3  -6  -3  204.30    5.05 
   3  -6   3  205.17    4.71 
  -4  -6   3    1.26    1.05 
   4  -6  -3   -0.34    0.71 
   4   6   3   -0.32    0.93 
  -4   6  -3   -0.41    0.99 
  -4  -6  -3    0.50    1.01 
   4  -6   3    0.29    0.69 
  -4   6   3    0.59    0.91 
  -4  -6  -3   -0.16    0.91 
  -5  -6   3  249.20    6.30 
  -5   6  -3  238.13    6.34 
   5   6   3  250.24    6.34 
   5  -6  -3  248.65    5.88 
  -5  -6  -3  252.29    6.33 
   5  -6   3  245.64    6.04 
  -5   6   3  237.59    6.22 
  -6  -6   3    1.72    1.36 
  -6   6  -3    2.32    1.51 
   6  -6  -3    0.70    1.04 
  -6  -6  -3    0.54    1.38 
  -6   6   3    1.90    1.40 
  -6   6   3    2.40    1.13 
  -7   6  -3  220.45    6.48 
  -7  -6   3  214.86    6.21 
  -7  -6  -3  209.68    6.14 
  -7   6   3  211.53    6.24 
  -8  -6   3   -2.61    1.93 
  -8   6  -3    1.96    2.17 
  -8   6   3   -0.04    1.82 
  -8  -6  -3    0.02    1.89 
   0   6   4   35.44    1.73 
   0  -6   4   36.80    1.36 
   0  -6   4   36.37    1.72 
   0  -6  -4   37.26    1.68 
   0  -6  -4   36.78    1.71 
   1   6   4    0.02    0.48 
  -1  -6   4    0.21    0.78 
   1  -6  -4    0.50    0.70 
   1   6   4    0.73    0.81 
   1  -6  -4   -0.17    0.73 
  -1   6   4    0.23    0.74 
  -1  -6  -4   -0.07    0.75 
   1  -6   4    3.54    1.07 
  -1  -6  -4    0.78    0.77 
   2   6   4   98.94    2.75 
   2  -6  -4  102.29    2.99 
  -2  -6   4  102.79    3.14 
  -2   6  -4   98.63    2.87 
   2  -6  -4   96.13    2.86 
   2  -6   4  102.56    2.54 
  -2  -6  -4  101.39    3.16 
  -2  -6  -4   97.74    2.93 
   2   6  -4   95.50    3.04 
  -2   6   4   98.66    3.05 
  -3   6  -4    1.31    0.98 
  -3  -6   4    0.29    0.90 
   3   6   4    0.13    0.74 
   3  -6  -4   -0.41    0.73 
  -3   6   4    0.32    0.79 
   3  -6   4    1.21    0.61 
  -3  -6  -4    0.06    0.84 
  -3  -6  -4   -0.10    0.93 
   3   6  -4   -0.46    0.93 
   4   6   4   97.97    3.20 
  -4  -6   4  103.18    3.46 
  -4   6  -4   96.14    3.36 
   4  -6  -4   97.40    3.08 
  -4   6   4   95.89    3.26 
  -4  -6  -4  102.13    3.44 
  -4  -6  -4  100.87    3.16 
   4  -6   4   99.56    2.97 
  -5   6  -4    1.92    1.39 
   5  -6  -4    0.59    1.00 
  -5  -6   4    0.50    1.17 
  -5   6   4    0.08    1.06 
  -5  -6  -4    1.96    1.35 
  -6   6  -4   10.33    1.83 
   6  -6  -4    9.05    1.46 
  -6  -6   4   10.26    1.74 
  -6   6   4    6.33    1.44 
  -6  -6  -4    7.82    1.77 
  -6   6   4    8.10    1.65 
  -7  -6   4   -0.02    1.71 
  -7   6  -4    0.96    1.85 
  -7   6   4    1.65    1.70 
  -7  -6  -4    1.12    1.83 
   0   6   5    0.00    0.85 
   0  -6  -5   -0.13    0.82 
   0  -6   5    0.08    0.43 
   0  -6  -5   -0.19    0.85 
   0  -6   5   -0.18    0.91 
   0  -6   5    0.29    0.29 
   1  -6  -5   33.67    1.77 
   1  -6  -5   31.80    1.82 
   1   6   5   35.41    2.01 
  -1  -6   5   31.30    1.86 
  -1  -6  -5   34.59    1.88 
   1   6  -5   33.48    1.95 
  -1   6   5   33.41    1.91 
  -1  -6  -5   37.34    1.99 
   1  -6   5   37.31    1.11 
   2   6   5    0.43    0.58 
   2  -6  -5   -0.18    0.78 
   2  -6  -5    1.70    0.95 
  -2  -6   5   -0.47    1.06 
   2  -6   5    0.09    0.49 
  -2  -6  -5   -0.10    0.90 
  -2  -6  -5    0.68    1.00 
  -2   6   5    1.43    0.99 
   2   6  -5    0.91    1.03 
   3  -6  -5  120.13    3.67 
  -3   6  -5  129.72    3.86 
  -3  -6   5  126.08    4.00 
  -3   6   5  125.31    3.80 
   3   6  -5  133.45    3.94 
  -3  -6  -5  127.65    4.00 
  -3  -6  -5  123.16    3.68 
  -4   6  -5    0.67    1.27 
  -4  -6   5    1.02    1.29 
   4  -6  -5    1.73    1.13 
  -4   6   5    0.00    1.13 
  -4  -6  -5    0.97    1.17 
   4   6  -5    1.48    1.14 
  -5  -6   5   24.63    2.12 
  -5   6  -5   35.43    2.43 
   5  -6  -5   30.48    1.96 
  -5  -6  -5   29.78    2.26 
  -5   6   5   32.99    2.26 
  -6   6  -5    0.21    1.70 
   6  -6  -5   -0.41    1.33 
  -6  -6   5   -1.08    1.64 
  -6   6   5    0.20    1.35 
  -6   6   5    0.18    1.46 
  -6  -6  -5    0.07    1.69 
   7  -6  -5   16.62    2.04 
  -7   6  -5   14.43    2.49 
  -7  -6   5   13.98    2.28 
  -7   6   5   14.04    2.05 
  -7   6   5   16.46    2.26 
  -7  -6  -5   18.43    2.51 
   0  -6  -6  363.58    8.50 
   0  -6  -6  378.39    8.64 
   0   6   6  370.02    8.67 
   1  -6  -6    2.25    0.97 
   1  -6  -6   -0.15    1.04 
   1   6   6    2.04    1.22 
  -1   6   6    0.47    1.06 
  -1  -6  -6    2.07    1.17 
  -1  -6  -6    1.12    1.03 
  -2  -6   6  135.90    4.24 
   2  -6  -6  137.61    4.06 
   2   6   6  140.49    4.31 
   2  -6  -6  140.48    4.06 
  -2  -6  -6  130.64    3.90 
  -2   6   6  139.07    4.17 
  -2  -6  -6  129.96    4.12 
   2   6  -6  133.25    4.12 
   3  -6  -6    1.70    1.15 
   3  -6  -6    1.78    1.16 
  -3  -6   6    0.93    1.38 
  -3  -6  -6    2.01    1.21 
   3   6  -6    1.98    1.35 
  -3   6   6    1.68    1.23 
  -4  -6   6  124.05    4.35 
   4  -6  -6  123.34    3.99 
  -4  -6  -6  120.77    4.33 
   4   6  -6  119.39    4.14 
  -4   6   6  118.55    4.09 
  -5  -6   6    0.20    1.67 
   5  -6  -6    1.11    1.36 
  -5   6  -6    0.89    1.69 
   5   6  -6    0.77    1.49 
  -5   6   6    1.98    1.54 
  -5   6   6    2.44    1.53 
  -5  -6  -6   -0.06    1.64 
  -6  -6   6  215.49    6.45 
   6  -6  -6  202.98    5.97 
  -6   6  -6  203.27    6.43 
  -6   6   6  212.41    6.18 
  -6   6   6  217.11    6.21 
  -6  -6  -6  193.19    6.33 
   0   6   7   -0.54    1.26 
   0  -6  -7    1.36    1.22 
   0  -6  -7    1.47    1.26 
   1   6   7   14.36    1.75 
   1  -6  -7   13.25    1.51 
   1  -6  -7   14.11    1.66 
  -1  -6   7   16.91    1.89 
  -1  -6  -7   17.61    1.73 
  -1  -6  -7   13.88    1.60 
  -1   6   7   16.82    1.74 
   2   6   7    1.98    1.48 
  -2  -6   7    1.43    1.53 
   2  -6  -7    2.09    1.26 
   2  -6  -7    0.78    1.15 
  -2   6   7    0.13    1.28 
  -2  -6  -7   -0.10    1.35 
   2   6  -7    2.38    1.47 
  -2  -6  -7    1.66    1.47 
   3  -6  -7   89.72    3.47 
   3  -6  -7   93.91    3.63 
  -3  -6   7   93.41    3.87 
   3   6  -7   98.44    3.82 
  -3   6   7   89.28    3.60 
  -3  -6  -7   96.28    3.90 
  -4  -6   7    0.05    1.69 
   4  -6  -7    1.37    1.51 
  -4   6   7   -1.15    1.45 
   4   6  -7   -0.75    1.52 
  -4  -6  -7    1.27    1.67 
  -5  -6   7    6.22    2.04 
   5  -6  -7    5.59    1.68 
  -5   6   7    8.63    1.99 
  -5  -6  -7    8.41    2.02 
  -5   6   7    7.85    1.90 
   5   6  -7    4.00    1.81 
   0  -6  -8    5.93    1.67 
   0  -6  -8    6.77    1.63 
   0   6   8    6.90    1.74 
   1  -6  -8   -0.26    1.40 
   1   6   8   -0.73    1.49 
   1  -6  -8   -0.99    1.53 
  -1  -6  -8   -0.99    1.49 
  -1   6   8    0.16    1.53 
  -1  -6  -8    0.63    1.44 
  -2  -6   8   58.70    3.46 
   2   6   8   62.21    3.53 
   2  -6  -8   59.31    3.11 
   2  -6  -8   62.95    3.23 
  -2   6   8   59.16    3.23 
   2   6  -8   60.73    3.32 
  -2  -6  -8   64.89    3.46 
   3  -6  -8    0.37    1.63 
   3  -6  -8    0.80    1.54 
  -3  -6   8    0.10    1.87 
   3   6   8   -0.07    1.81 
   3   6  -8    0.99    1.80 
  -3  -6  -8    0.87    1.77 
  -3   6   8    0.91    1.58 
   0   7   0   -0.26    0.43 
   0   7   0   -0.19    0.40 
   0  -7   0   -0.43    0.54 
   0  -7   0   -0.27    0.58 
  -1  -7   0   -0.02    0.57 
   1   7   0    0.35    0.48 
   1   7   0    0.12    0.38 
   1  -7   0    0.19    0.51 
   1  -7   0   -0.06    0.54 
  -1  -7   0   -0.19    0.69 
  -1   7   0    0.40    0.48 
  -1  -7   0   -0.04    0.37 
  -2  -7   0   20.34    1.37 
   2  -7   0   19.18    0.96 
  -2  -7   0   21.04    1.38 
  -2  -7   0   18.62    0.98 
   2   7   0   19.51    1.24 
  -2   7   0   20.84    1.18 
   3   7   0    0.54    0.83 
   3  -7   0   -0.17    0.48 
  -3   7   0    0.39    0.66 
  -3  -7   0    0.10    0.86 
  -3  -7   0    0.69    0.63 
  -4  -7   0   61.58    2.45 
  -4   7   0   55.57    2.33 
   4  -7   0   55.93    2.17 
  -5  -7   0   -0.24    1.14 
  -5   7   0   -0.86    1.10 
  -6   7   0    1.47    1.34 
  -6  -7   0    1.57    1.40 
  -7  -7   0   -1.39    1.58 
  -7   7   0    0.11    1.62 
  -8   7   0    0.77    2.00 
   0  -7   1   87.73    2.51 
   0   7   1   88.12    2.38 
   0  -7   1   86.54    2.38 
   0   7   1   88.88    2.30 
   0   7  -1   89.67    2.38 
   0  -7  -1   85.51    2.48 
   0  -7  -1   90.07    2.27 
   1   7   1    8.43    0.84 
   1  -7  -1    7.98    0.79 
   1   7   1    8.81    0.72 
  -1  -7   1    7.05    0.84 
  -1  -7   1    6.55    0.84 
  -1   7  -1    7.32    0.66 
  -1   7   1    6.39    0.69 
   1  -7   1    6.73    0.68 
  -1  -7  -1    7.22    0.91 
  -1  -7  -1    7.96    0.69 
   1  -7   1    6.92    0.73 
   1   7  -1    5.81    0.68 
  -2  -7   1  241.93    5.81 
   2  -7  -1  248.61    5.48 
   2   7   1  252.36    5.74 
  -2   7  -1  245.76    5.54 
  -2  -7  -1  246.47    5.48 
   2   7  -1  240.15    5.69 
  -2  -7  -1  250.90    5.77 
  -2   7   1  249.17    5.60 
   2  -7   1  252.30    5.31 
   3  -7  -1    0.75    0.56 
  -3   7  -1    0.74    0.73 
   3   7   1   -0.11    0.80 
  -3  -7   1   -1.15    0.86 
  -3  -7  -1    0.08    0.68 
  -3  -7  -1    0.42    0.89 
  -3   7   1   -0.19    0.71 
  -4  -7   1  196.65    5.18 
  -4   7  -1  194.04    5.08 
   4   7   1  204.86    5.34 
   4  -7  -1  200.20    4.60 
  -4   7   1  196.87    5.09 
  -4  -7  -1  204.88    5.16 
  -4  -7  -1  209.56    4.97 
   4  -7   1  198.06    4.86 
  -5  -7   1    0.91    1.19 
  -5   7  -1    0.14    0.99 
  -5  -7  -1    0.84    1.17 
  -5  -7  -1    0.49    1.02 
  -5   7   1   -1.36    1.04 
   5  -7   1    0.16    0.97 
  -6  -7   1   44.10    2.68 
  -6   7  -1   47.72    2.85 
  -6   7   1   44.40    2.73 
  -6  -7  -1   45.29    2.53 
  -7   7  -1    5.46    1.84 
  -7  -7   1    2.90    1.72 
  -7   7   1    5.58    1.77 
  -8   7  -1  102.29    4.70 
  -8   7   1  114.36    4.71 
   0  -7   2    0.52    0.70 
   0  -7  -2   -0.22    0.60 
   0   7  -2   -0.47    0.57 
   0   7   2    0.14    0.44 
   0  -7   2    0.22    0.51 
   0  -7  -2   -0.12    0.51 
   0   7   2    0.33    0.52 
   1  -7  -2  213.33    4.92 
   1  -7  -2  213.12    4.90 
  -1  -7   2  216.60    5.08 
   1   7   2  215.70    4.93 
  -1   7  -2  211.97    4.66 
   1   7   2  214.80    4.90 
  -1  -7  -2  204.34    5.00 
  -1  -7  -2  213.66    4.89 
   1  -7   2  215.72    4.82 
  -1   7   2  214.75    4.94 
  -2   7  -2   25.19    1.33 
   2   7   2   23.20    1.39 
  -2  -7   2   23.81    1.50 
   2  -7  -2   24.29    1.26 
  -2  -7  -2   23.57    1.42 
   2  -7   2   24.57    1.20 
  -2   7   2   24.30    1.29 
  -2  -7  -2   28.45    1.51 
  -3   7  -2   72.28    2.42 
   3   7   2   73.51    2.54 
   3  -7  -2   69.89    2.17 
  -3  -7   2   64.30    2.43 
  -3  -7  -2   67.06    2.46 
  -3  -7  -2   72.95    2.37 
  -3   7   2   69.41    2.42 
   4  -7  -2   31.82    1.48 
  -4   7  -2   25.86    1.71 
   4   7   2   34.68    2.00 
  -4  -7   2   28.02    1.86 
  -4   7   2   30.21    1.74 
   4  -7   2   28.22    1.67 
  -4  -7  -2   31.57    1.84 
  -4  -7  -2   33.47    1.87 
  -5  -7   2  142.92    4.22 
   5   7   2  134.60    4.31 
  -5   7  -2  135.05    4.18 
   5  -7  -2  140.65    3.67 
  -5  -7  -2  138.61    4.11 
   5  -7   2  133.10    3.92 
  -5  -7  -2  136.70    4.06 
  -5   7   2  135.12    4.16 
  -6  -7   2    0.63    1.34 
  -6   7  -2   -1.00    1.43 
  -6   7   2    0.59    1.36 
  -6  -7  -2   -0.96    1.29 
  -7  -7   2  111.30    4.26 
  -7   7  -2  119.08    4.58 
  -7   7   2  116.12    4.42 
  -7  -7  -2  112.96    4.26 
  -8   7  -2    4.85    2.17 
  -8  -7   2    3.27    2.03 
  -8   7   2    6.17    2.07 
   0  -7  -3    2.08    0.76 
   0  -7  -3    2.46    0.73 
   0  -7   3    3.21    0.83 
   0   7   3    2.59    0.74 
  -1  -7   3  107.48    3.11 
   1   7   3  104.08    2.82 
   1  -7  -3  111.16    3.01 
   1   7   3  106.66    3.03 
   1  -7  -3  108.92    2.98 
  -1  -7  -3  107.68    3.01 
  -1  -7  -3  107.37    3.03 
   1  -7   3  109.41    2.87 
  -1   7   3   99.50    2.98 
   2  -7  -3   12.26    1.03 
  -2  -7   3    8.07    1.07 
   2   7   3    8.50    0.91 
  -2   7  -3    8.84    0.98 
   2  -7  -3    8.13    0.94 
  -2   7   3    9.05    1.04 
  -2  -7  -3   10.57    1.10 
  -2  -7  -3    8.19    1.03 
  -3  -7   3   -0.13    0.95 
   3  -7  -3   -0.05    0.70 
   3   7   3    0.55    0.81 
  -3   7  -3    0.35    0.89 
  -3   7   3    0.14    0.85 
  -3  -7  -3    0.42    0.89 
  -3  -7  -3   -0.44    0.88 
   3  -7   3   -0.29    0.55 
   4  -7  -3    2.71    0.84 
  -4   7  -3    4.73    1.17 
  -4  -7   3    4.12    1.23 
   4   7   3    2.50    1.11 
  -4  -7  -3    3.86    1.12 
  -4   7   3    2.17    1.07 
   4  -7   3    3.27    0.86 
  -4  -7  -3    3.26    1.12 
   5  -7  -3   22.30    1.54 
  -5  -7   3   20.20    1.90 
   5   7   3   19.83    1.84 
  -5   7  -3   26.43    2.02 
  -5   7   3   18.82    1.76 
  -5  -7  -3   22.53    1.84 
  -5  -7  -3   21.57    1.71 
  -6   7  -3    1.65    1.58 
  -6  -7   3    1.45    1.56 
  -6  -7  -3    1.19    1.45 
  -6   7   3    2.25    1.47 
  -7   7  -3   73.10    3.90 
  -7  -7   3   75.53    3.75 
  -7   7   3   78.06    3.77 
  -7  -7  -3   72.06    3.58 
   0  -7  -4   -0.42    0.76 
   0   7   4    0.07    0.76 
   0  -7  -4    0.01    0.76 
   1   7   4  278.72    6.56 
   1   7   4  278.64    6.19 
   1  -7  -4  283.30    6.50 
   1  -7  -4  283.84    6.47 
  -1  -7   4  266.70    6.48 
  -1  -7  -4  276.18    6.46 
  -1   7   4  281.54    6.54 
  -1  -7  -4  270.70    6.52 
   2  -7  -4   26.22    1.53 
  -2  -7   4   21.62    1.56 
   2  -7  -4   26.43    1.61 
   2   7   4   29.15    1.52 
  -2  -7  -4   29.55    1.71 
  -2  -7  -4   27.39    1.74 
   2  -7   4   27.84    1.23 
  -2   7   4   26.33    1.60 
  -3  -7   4   18.13    1.57 
   3  -7  -4   22.73    1.47 
  -3   7  -4   20.07    1.55 
   3   7   4   21.90    1.44 
  -3   7   4   18.63    1.51 
  -3  -7  -4   24.26    1.76 
  -3  -7  -4   22.27    1.54 
   3  -7   4   20.40    1.22 
  -4  -7   4   54.86    2.70 
  -4   7  -4   53.02    2.55 
   4  -7  -4   52.10    2.23 
  -4  -7  -4   53.66    2.40 
  -4   7   4   51.24    2.45 
  -4  -7  -4   51.59    2.56 
  -5   7  -4  186.79    5.33 
   5  -7  -4  179.82    4.86 
  -5  -7   4  195.18    5.40 
  -5  -7  -4  176.53    5.27 
  -5   7   4  177.93    5.13 
   6  -7  -4   -0.29    1.20 
  -6  -7   4   -0.15    1.58 
  -6   7  -4    0.58    1.64 
  -6   7   4   -0.48    1.24 
  -6   7   4    0.06    1.50 
  -6  -7  -4    1.44    1.62 
  -7   7  -4  128.68    5.08 
  -7  -7   4  123.45    4.92 
  -7  -7  -4  133.20    4.85 
  -7   7   4  137.55    4.92 
   0  -7  -5   12.15    1.31 
   0  -7   5   13.38    1.37 
   0   7   5   11.88    1.33 
   0  -7  -5   10.52    1.23 
   1   7   5    1.00    0.93 
   1  -7  -5    1.60    1.00 
  -1  -7   5    0.15    1.05 
   1  -7  -5    1.46    0.90 
  -1  -7  -5    0.87    0.98 
  -1   7   5    1.25    1.00 
  -1  -7  -5    0.95    0.94 
   1  -7   5    1.01    0.46 
   2   7   5  167.55    4.20 
   2   7   5  165.33    4.68 
   2  -7  -5  163.75    4.43 
   2  -7  -5  167.58    4.48 
  -2  -7   5  164.21    4.67 
  -2  -7  -5  172.33    4.71 
  -2   7   5  163.85    4.54 
  -2  -7  -5  164.51    4.47 
   2  -7   5  162.08    3.83 
  -3  -7   5    2.36    1.29 
   3  -7  -5    0.32    0.92 
  -3  -7  -5    0.24    1.07 
  -3  -7  -5    0.67    1.07 
  -3   7   5    0.51    0.93 
   4  -7  -5  157.45    4.49 
  -4  -7   5  151.80    4.83 
  -4   7   5  152.80    4.56 
  -4  -7  -5  167.98    4.91 
  -5  -7   5   -0.13    1.37 
   5  -7  -5   -0.20    1.14 
  -5   7  -5   -0.52    1.51 
  -5   7   5   -0.28    1.34 
  -5  -7  -5    1.10    1.53 
  -6   7  -5    6.52    1.97 
   6  -7  -5    7.48    1.59 
  -6  -7   5    5.39    1.95 
  -6  -7  -5    7.20    1.88 
  -6   7   5    7.05    1.71 
  -6   7   5    8.25    1.89 
   0  -7  -6   -0.47    1.00 
   0  -7  -6    0.38    1.07 
   0   7   6    0.04    1.12 
  -1  -7   6    1.75    1.26 
   1  -7  -6    1.74    0.97 
   1  -7  -6    0.65    1.11 
   1   7   6   -0.68    1.05 
  -1  -7  -6    0.94    1.03 
  -1   7   6    0.90    1.12 
  -1  -7  -6    0.32    1.06 
   2   7   6    0.30    1.29 
   2  -7  -6    0.70    1.16 
   2  -7  -6    0.92    1.10 
  -2  -7   6    1.48    1.40 
  -2  -7  -6    1.47    1.26 
  -2  -7  -6    1.96    1.22 
  -2   7   6    1.16    1.24 
   3  -7  -6    9.60    1.42 
  -3  -7   6   11.58    1.78 
  -3  -7  -6   13.18    1.81 
  -3  -7  -6    9.87    1.74 
  -3   7   6    7.03    1.46 
   4  -7  -6    7.76    1.56 
  -4  -7   6    9.01    1.85 
  -4   7   6    8.36    1.67 
  -4  -7  -6    9.10    1.84 
  -5  -7   6    2.11    1.81 
   5  -7  -6    1.27    1.49 
  -5   7   6    1.93    1.60 
  -5  -7  -6    3.81    1.79 
  -6  -7   6   -0.75    1.94 
   6  -7  -6   -0.34    1.49 
  -6   7   6   -1.61    1.76 
  -6   7   6   -1.10    1.74 
  -6  -7  -6   -0.86    1.87 
   0  -7  -7   64.99    3.05 
   0   7   7   64.99    3.13 
   0  -7  -7   69.40    2.97 
   1  -7  -7    0.34    1.30 
   1  -7  -7    0.82    1.24 
   1   7   7    0.60    1.22 
  -1  -7  -7   -0.26    1.16 
  -1   7   7    1.92    1.41 
  -1  -7  -7   -0.30    1.34 
   2  -7  -7  136.80    4.39 
  -2  -7   7  123.56    4.64 
   2  -7  -7  132.55    4.33 
   2   7   7  137.70    4.68 
  -2  -7  -7  138.70    4.65 
   2   7  -7  144.29    4.64 
  -2   7   7  134.49    4.36 
  -2  -7  -7  132.78    4.25 
  -3  -7   7    1.22    1.69 
   3   7   7   -1.67    1.43 
   3  -7  -7    1.25    1.41 
   3   7  -7   -0.44    1.56 
  -3  -7  -7    1.00    1.63 
  -3   7   7   -0.82    1.45 
   4  -7  -7   85.70    3.67 
  -4  -7   7   95.20    4.17 
  -4   7   7   88.92    3.84 
  -4  -7  -7   84.85    4.01 
  -5  -7   7    3.13    2.17 
   5  -7  -7    3.16    1.71 
  -5   7   7    5.34    1.92 
  -5   7   7    5.32    1.94 
  -5  -7  -7    2.79    1.99 
   0  -7  -8    0.11    1.57 
   0  -7  -8    0.01    1.47 
   0   7   8    0.46    1.56 
   1  -7  -8   67.54    3.39 
   1  -7  -8   68.18    3.39 
   1   7   8   74.97    3.69 
  -1  -7  -8   73.94    3.60 
  -1  -7  -8   74.67    3.53 
  -1   7   8   71.92    3.57 
   2  -7  -8   24.59    2.26 
  -2  -7   8   20.09    2.84 
   2   7   8   18.14    2.36 
   2  -7  -8   23.17    2.34 
  -2   7   8   19.42    2.28 
  -2  -7  -8   18.26    2.29 
  -3  -7   8   40.93    3.10 
   3  -7  -8   32.16    2.51 
   3   7   8   41.05    3.08 
   3   7  -8   27.93    2.73 
  -3   7   8   34.23    2.66 
  -3  -7  -8   32.62    2.82 
   0  -8   0  258.47    5.90 
   0   8   0  262.30    5.53 
   0   8   0  262.46    5.83 
   0  -8   0  255.35    5.86 
   1   8   0   -0.38    0.44 
   1   8   0   -1.05    0.53 
   1  -8   0    0.44    0.59 
  -1   8   0   -0.50    0.52 
  -1  -8   0   -0.63    0.73 
  -1  -8   0   -0.33    0.75 
  -1  -8   0   -0.70    0.43 
  -2   8   0   54.18    1.86 
   2  -8   0   52.49    1.71 
  -2  -8   0   49.59    2.06 
   2   8   0   51.73    2.04 
   3  -8   0   -0.34    0.52 
  -3  -8   0   -0.42    0.97 
  -3   8   0   -0.47    0.77 
  -4  -8   0   14.40    1.52 
  -4   8   0   15.74    1.47 
  -5  -8   0    0.23    1.25 
  -5   8   0   -0.02    1.18 
  -6   8   0   99.20    3.84 
  -6  -8   0  103.29    3.83 
  -7  -8   0    0.71    1.74 
  -7   8   0   -0.10    1.71 
  -8   8   0   34.29    3.06 
   0   8   1    0.35    0.54 
   0  -8  -1    0.71    0.62 
   0  -8  -1    0.68    0.53 
   0  -8   1    0.08    0.68 
   0   8   1   -0.14    0.54 
   0   8  -1    0.59    0.58 
   1   8   1   10.94    0.85 
   1   8   1   14.35    1.04 
  -1   8  -1   12.93    0.84 
  -1  -8   1   10.73    1.12 
   1  -8  -1   14.08    1.04 
   1  -8   1   12.49    0.96 
  -1  -8  -1   12.70    0.87 
   1   8  -1   11.58    1.00 
  -1  -8  -1   10.26    1.03 
  -1   8   1   12.48    0.91 
   2   8   1   40.66    1.83 
   2  -8  -1   43.22    1.59 
  -2  -8   1   43.24    1.91 
  -2   8  -1   44.79    1.70 
  -2  -8  -1   42.91    1.60 
  -2  -8  -1   43.88    1.98 
  -2   8   1   41.97    1.72 
   2  -8   1   41.38    1.49 
   3  -8  -1   74.24    2.20 
   3   8   1   74.74    2.71 
  -3   8  -1   77.34    2.57 
  -3  -8   1   73.14    2.66 
  -3  -8  -1   72.53    2.35 
  -3   8   1   75.40    2.51 
  -3  -8  -1   75.13    2.62 
   4  -8  -1   45.83    1.73 
  -4   8  -1   53.59    2.38 
  -4  -8   1   52.79    2.49 
  -4  -8  -1   47.82    2.38 
   4  -8   1   47.69    2.05 
  -4   8   1   46.37    2.24 
  -4  -8  -1   47.12    2.12 
  -5   8  -1   18.67    1.76 
  -5  -8   1   19.13    1.81 
   5  -8   1   13.92    1.56 
  -5  -8  -1   16.58    1.69 
  -5   8   1   16.67    1.59 
  -6  -8   1    2.38    1.58 
  -6   8  -1    2.98    1.50 
  -6   8   1    0.59    1.47 
  -6  -8  -1    0.40    1.40 
  -7   8  -1    2.15    1.82 
  -7  -8   1    0.85    1.72 
  -7   8   1    1.33    1.81 
  -8  -8   1   13.66    3.31 
  -8   8  -1   12.69    2.38 
  -8   8   1   15.32    2.50 
   0   8   2    4.26    0.70 
   0  -8   2    2.54    0.85 
   0   8   2    3.28    0.71 
   0  -8  -2    3.04    0.71 
   0  -8  -2    2.72    0.81 
   1   8   2   54.50    1.91 
   1  -8  -2   53.01    1.95 
   1  -8  -2   55.64    1.93 
  -1  -8   2   53.37    2.17 
   1   8   2   55.19    1.94 
  -1   8   2   54.49    1.97 
  -1  -8  -2   54.12    1.89 
  -1  -8  -2   59.85    2.08 
   1  -8   2   53.31    1.88 
  -2   8  -2    2.13    0.76 
   2  -8  -2    1.59    0.68 
   2   8   2    2.30    0.79 
  -2  -8   2    2.91    1.06 
  -2   8   2    1.87    0.79 
  -2  -8  -2    2.28    0.79 
  -2  -8  -2    1.97    0.90 
  -3  -8   2    2.84    1.08 
   3   8   2    0.83    0.91 
   3  -8  -2    1.90    0.74 
  -3   8  -2    1.10    0.90 
  -3  -8  -2    1.11    0.99 
  -3  -8  -2    1.80    0.89 
  -3   8   2    1.65    0.89 
  -4  -8   2    0.44    1.16 
  -4   8  -2   -0.13    1.03 
   4  -8  -2    0.60    0.74 
   4   8   2    1.94    1.17 
  -4  -8  -2    0.35    1.11 
  -4  -8  -2    0.03    0.97 
   4  -8   2   -0.50    0.74 
  -4   8   2    0.80    1.01 
  -5   8  -2   22.99    1.92 
  -5  -8   2   25.69    2.03 
  -5  -8  -2   26.87    1.90 
  -5  -8  -2   26.21    1.93 
   5  -8   2   19.81    1.56 
  -5   8   2   20.89    1.76 
  -6   8  -2    2.47    1.60 
  -6  -8   2    0.76    1.47 
  -6   8   2    1.65    1.31 
  -6  -8  -2    1.65    1.49 
  -7   8  -2   41.12    3.03 
  -7  -8   2   36.12    2.76 
  -7   8   2   33.31    2.59 
  -8   8  -2    2.59    2.24 
  -8  -8   2   -0.99    2.07 
  -8   8   2    0.11    1.99 
   0  -8  -3   -0.60    0.77 
   0  -8  -3    0.21    0.71 
   0  -8   3    0.52    0.86 
   0   8   3   -0.42    0.69 
   1  -8  -3    4.30    0.81 
   1   8   3    7.27    0.86 
   1  -8  -3    6.79    0.95 
  -1  -8   3    7.01    1.10 
   1   8   3    6.12    0.96 
  -1  -8  -3    6.70    0.97 
  -1  -8  -3    6.69    1.05 
   1  -8   3    7.60    0.98 
  -1   8   3    5.14    0.86 
   2  -8  -3   -0.37    0.74 
   2   8   3    0.41    0.78 
  -2  -8   3    1.18    1.02 
   2  -8  -3    0.22    0.69 
  -2  -8  -3    0.42    0.85 
  -2   8   3   -0.25    0.71 
  -2  -8  -3    0.27    0.86 
  -3   8  -3   44.34    2.12 
   3  -8  -3   43.84    1.91 
  -3  -8   3   45.97    2.34 
   3   8   3   43.54    2.15 
  -3  -8  -3   41.57    2.15 
   3  -8   3   44.10    1.79 
  -3   8   3   47.59    2.05 
  -3  -8  -3   49.04    2.19 
   4   8   3   -0.08    1.12 
  -4  -8   3    2.37    1.14 
   4  -8  -3    0.67    0.85 
  -4   8  -3    0.69    1.11 
  -4   8   3    0.32    0.95 
  -4  -8  -3    1.47    1.11 
  -4  -8  -3    1.96    1.14 
   4  -8   3    0.88    0.83 
   5  -8  -3   14.37    1.38 
  -5   8  -3   14.93    1.75 
  -5  -8   3   14.58    1.88 
  -5  -8  -3   11.26    1.57 
  -5   8   3   16.63    1.78 
  -5  -8  -3   15.81    1.74 
  -6   8  -3    2.53    1.70 
  -6  -8   3    1.41    1.64 
  -6  -8  -3    2.58    1.59 
  -6   8   3    1.16    1.52 
  -7   8  -3    1.61    1.99 
  -7  -8   3    0.63    1.78 
  -7  -8  -3    1.89    1.84 
  -7   8   3    0.65    1.76 
   0  -8  -4    9.69    1.09 
   0  -8   4   13.61    1.34 
   0  -8  -4   14.50    1.32 
   0   8   4   10.40    1.17 
   1   8   4   19.14    1.21 
   1  -8  -4   25.44    1.59 
  -1  -8   4   22.64    1.69 
   1  -8  -4   18.32    1.40 
   1   8   4   18.47    1.51 
  -1  -8  -4   23.23    1.59 
  -1   8   4   21.50    1.54 
  -1  -8  -4   20.10    1.48 
   2   8   4    0.47    0.96 
   2  -8  -4    0.17    0.85 
   2  -8  -4    0.81    0.90 
  -2  -8   4    1.02    1.15 
   2   8   4    0.19    0.74 
  -2  -8  -4    0.91    0.96 
   2  -8   4    0.24    0.57 
  -2   8   4    0.59    0.91 
  -2  -8  -4    1.33    1.01 
  -3  -8   4   -0.53    1.17 
   3  -8  -4    0.04    0.85 
   3   8   4    0.15    0.89 
   3  -8   4    0.63    0.86 
  -3  -8  -4    0.29    1.01 
  -3  -8  -4    1.13    1.16 
  -3   8   4    0.16    0.89 
  -4  -8   4    0.17    1.17 
   4  -8  -4   -0.05    0.96 
  -4   8   4    0.17    1.14 
  -4  -8  -4    0.02    1.22 
  -4  -8  -4    0.27    1.21 
  -5  -8   4    8.08    1.58 
  -5   8  -4    8.65    1.71 
   5  -8  -4   10.54    1.41 
  -5  -8  -4    7.94    1.65 
  -5   8   4    9.05    1.63 
  -6  -8   4    0.56    1.78 
  -6   8  -4    1.18    1.79 
   6  -8  -4    0.93    1.34 
  -6   8   4    1.21    1.64 
  -6  -8  -4    0.69    1.62 
  -7   8  -4   16.27    2.54 
  -7  -8   4   15.46    2.37 
  -7  -8  -4   16.58    2.31 
  -7   8   4   14.31    2.27 
   0   8   5   -0.69    0.87 
   0  -8  -5   -0.50    0.89 
   0  -8  -5   -1.27    0.97 
   0  -8   5   -1.60    1.86 
  -1  -8   5   16.69    1.70 
   1  -8  -5   16.85    1.50 
   1  -8  -5   17.12    1.48 
   1   8   5   21.50    1.77 
   1  -8   5   16.60    1.01 
  -1   8   5   14.96    1.52 
  -1  -8  -5   12.45    1.36 
  -1  -8  -5   18.18    1.62 
  -2  -8   5    5.19    1.37 
   2  -8  -5    9.46    1.25 
   2   8   5    9.45    1.52 
   2  -8  -5    7.93    1.28 
  -2  -8  -5    6.66    1.35 
  -2   8   5    7.56    1.32 
  -2  -8  -5    7.69    1.28 
  -3  -8   5   30.68    2.24 
   3  -8  -5   29.19    1.85 
  -3  -8  -5   29.59    1.94 
  -3  -8  -5   31.24    2.22 
  -3   8   5   29.74    2.00 
   4  -8  -5   15.88    1.61 
  -4  -8   5   15.07    1.94 
  -4   8   5   12.43    1.57 
  -4  -8  -5   12.65    1.73 
   5  -8  -5   10.86    1.59 
  -5  -8   5    7.98    1.89 
  -5  -8  -5    8.82    1.83 
  -5   8   5    8.40    1.76 
  -6  -8   5    1.52    1.94 
   6  -8  -5    1.42    1.50 
  -6  -8  -5    1.42    1.76 
  -6   8   5    1.73    1.75 
  -6   8   5    0.95    1.62 
   0  -8  -6  117.21    3.91 
   0  -8  -6  116.16    3.73 
   0   8   6  123.89    4.04 
   1  -8  -6    4.34    1.24 
   1   8   6    4.91    1.39 
  -1  -8   6    6.65    1.53 
   1  -8  -6    6.08    1.35 
  -1   8   6    3.51    1.28 
  -1  -8  -6    5.56    1.31 
  -1  -8  -6    6.72    1.41 
   2  -8  -6   32.81    2.07 
   2  -8  -6   33.79    2.11 
   2   8   6   32.74    2.38 
  -2  -8   6   36.59    2.50 
  -2  -8  -6   33.24    2.33 
  -2  -8  -6   34.21    2.17 
  -2   8   6   29.25    2.12 
  -3  -8   6    1.50    1.57 
   3   8   6   -0.23    1.36 
   3  -8  -6    0.94    1.28 
  -3   8   6    0.49    1.17 
  -3  -8  -6    1.69    1.43 
  -3  -8  -6    1.31    1.33 
   4  -8  -6   18.36    1.88 
  -4  -8   6   18.22    2.18 
  -4   8   6   16.51    2.03 
  -4  -8  -6   20.11    2.26 
  -5  -8   6    3.80    2.00 
   5  -8  -6    2.63    1.56 
  -5   8   6    6.33    1.81 
  -5  -8  -6    4.98    1.83 
   0   8   7   -0.62    1.40 
   0  -8  -7    1.03    1.34 
   0  -8  -7    0.97    1.42 
   1  -8  -7    6.71    1.42 
   1   8   7    6.94    1.62 
   1  -8  -7    6.45    1.60 
  -1  -8  -7    8.11    1.68 
  -1  -8  -7    8.83    1.65 
  -1   8   7   11.46    1.81 
   2  -8  -7   40.82    2.53 
   2   8   7   41.71    2.76 
  -2  -8   7   45.84    2.98 
   2  -8  -7   37.33    2.40 
  -2  -8  -7   37.83    2.60 
  -2  -8  -7   41.64    2.51 
  -2   8   7   43.78    2.73 
   3   8   7   50.87    3.13 
   3  -8  -7   52.79    3.00 
  -3  -8   7   48.41    3.14 
  -3   8   7   54.37    3.10 
  -3  -8  -7   53.65    3.28 
   4  -8  -7   33.15    2.45 
  -4  -8   7   31.65    2.83 
  -4  -8  -7   31.22    2.69 
  -4   8   7   36.34    2.72 
   0  -8  -8    3.25    1.68 
   0   8   8    6.09    1.88 
   0  -8  -8    4.23    1.74 
   1  -8  -8   28.03    2.42 
   1  -8  -8   29.60    2.41 
   1   8   8   28.00    2.57 
  -1   8   8   26.89    2.51 
  -1  -8  -8   32.61    2.49 
  -1  -8  -8   26.33    2.46 
   2  -8  -8    1.20    1.72 
   2   8   8   -0.06    1.78 
   2  -8  -8   -1.19    1.55 
  -2  -8  -8    0.75    1.78 
  -2   8   8    0.19    1.72 
   0   9   0    0.22    0.64 
   0   9   0   -0.32    0.52 
   0  -9   0    0.09    0.73 
   1   9   0   -0.07    0.61 
   1  -9   0    0.27    0.67 
  -1   9   0   -0.43    0.58 
  -1  -9   0   -0.01    0.83 
   2  -9   0    0.33    0.61 
  -2  -9   0    1.38    0.99 
  -2   9   0    0.66    0.73 
  -3  -9   0    0.38    1.11 
   3  -9   0   -0.04    0.61 
  -3   9   0    0.68    0.87 
  -4  -9   0    2.08    1.23 
  -4   9   0    2.84    1.17 
  -5   9   0    1.11    1.24 
  -5  -9   0   -1.53    1.34 
  -6  -9   0    3.48    1.59 
  -6   9   0    3.78    1.66 
  -7   9   0    1.31    1.82 
  -7  -9   0    1.22    1.83 
   0  -9   1  381.03    8.42 
   0  -9  -1  378.21    8.42 
   0  -9  -1  372.70    8.11 
   0   9   1  392.70    8.34 
   0   9   1  386.64    8.15 
   1   9   1    2.12    0.66 
  -1  -9   1    2.08    0.99 
   1  -9  -1    2.39    0.76 
   1   9   1    2.75    0.78 
  -1   9   1    1.98    0.70 
  -1  -9  -1    1.14    0.78 
  -1  -9  -1    1.60    0.64 
   1  -9   1    2.58    0.76 
  -2   9  -1  149.62    3.81 
   2   9   1  148.51    3.73 
  -2  -9   1  147.43    4.23 
   2   9   1  154.51    4.07 
   2  -9  -1  157.21    3.80 
  -2   9   1  160.34    3.94 
   2  -9   1  151.70    3.67 
  -2  -9  -1  152.22    4.18 
  -2  -9  -1  146.68    3.69 
  -3  -9   1    1.80    1.14 
   3   9   1    0.14    0.98 
  -3   9  -1   -0.63    0.86 
   3  -9  -1    0.65    0.69 
  -3  -9  -1    0.60    1.05 
  -3   9   1    0.01    0.85 
  -4  -9   1  110.77    3.64 
  -4   9  -1  100.30    3.36 
  -4   9   1  102.28    3.39 
  -4  -9  -1  102.89    3.51 
   4  -9   1  102.24    3.22 
  -5   9  -1    5.97    1.40 
  -5  -9   1    7.38    1.62 
  -5   9   1    7.00    1.44 
  -5  -9  -1    5.70    1.52 
  -6  -9   1  202.82    5.94 
  -6   9  -1  201.95    6.00 
  -6  -9  -1  209.54    5.94 
  -6   9   1  212.94    6.09 
  -7  -9   1    0.06    1.85 
  -7   9  -1    2.29    1.87 
  -7   9   1    0.37    1.61 
   0  -9  -2    0.00    0.70 
   0  -9  -2   -0.67    0.66 
   0   9   2    0.23    0.72 
   0  -9   2   -0.30    0.86 
  -1  -9   2  152.83    4.15 
   1  -9  -2  155.80    3.88 
   1   9   2  152.85    3.85 
   1  -9  -2  152.75    3.97 
   1   9   2  154.45    3.96 
  -1   9   2  157.46    3.90 
   1  -9   2  151.55    3.86 
  -1  -9  -2  148.91    4.12 
  -1  -9  -2  152.38    3.84 
   2   9   2   61.19    2.18 
  -2  -9   2   62.95    2.62 
   2  -9  -2   63.47    2.20 
   2   9   2   64.06    2.39 
  -2   9   2   60.66    2.28 
  -2  -9  -2   64.97    2.48 
  -2  -9  -2   61.35    2.17 
   3   9   2  303.89    7.16 
  -3   9  -2  292.13    6.88 
   3  -9  -2  293.51    6.74 
  -3  -9   2  314.58    7.32 
  -3  -9  -2  296.51    7.09 
  -3   9   2  294.71    7.01 
  -3  -9  -2  297.46    6.91 
   4  -9  -2   38.62    1.82 
  -4   9  -2   42.07    2.25 
   4   9   2   38.70    2.23 
  -4  -9   2   45.25    2.53 
  -4   9   2   41.97    2.28 
  -4  -9  -2   42.20    2.26 
   4  -9   2   40.44    2.01 
  -4  -9  -2   39.69    2.35 
  -5  -9   2   94.77    3.76 
  -5   9  -2   98.39    3.59 
  -5   9   2   99.08    3.65 
  -5  -9  -2   97.31    3.67 
  -6   9  -2    0.21    1.63 
  -6  -9   2   -1.55    1.62 
  -6  -9  -2    1.35    1.58 
  -6   9   2   -0.19    1.44 
  -7   9  -2   47.46    3.19 
  -7  -9   2   41.91    2.96 
  -7   9   2   41.43    3.08 
   0  -9  -3   -0.07    0.80 
   0  -9   3   -0.16    0.97 
   0  -9  -3    1.48    0.94 
   0   9   3    0.18    0.83 
   1  -9  -3  115.45    3.35 
   1   9   3  117.99    3.36 
  -1  -9   3  112.07    3.52 
   1  -9  -3  117.16    3.35 
   1   9   3  114.17    3.27 
  -1  -9  -3  113.39    3.45 
  -1  -9  -3  117.58    3.34 
   1  -9   3  117.76    3.33 
  -1   9   3  116.21    3.38 
   2   9   3    0.22    0.92 
  -2  -9   3    1.37    1.02 
   2  -9  -3    0.94    0.84 
   2   9   3    0.06    0.87 
  -2  -9  -3    0.76    0.89 
  -2  -9  -3    0.26    0.98 
  -2   9   3    1.16    0.87 
   3   9   3    0.38    1.00 
  -3  -9   3    0.59    1.22 
   3  -9  -3    0.47    0.82 
  -3  -9  -3    1.71    1.11 
  -3  -9  -3    0.60    1.02 
  -3   9   3    1.30    0.92 
  -4  -9   3    1.89    1.36 
   4   9   3    5.83    1.43 
   4  -9  -3    0.45    0.89 
  -4  -9  -3   -0.41    1.19 
  -4   9   3    0.02    1.15 
  -4  -9  -3    1.33    1.21 
  -5  -9   3   54.72    2.91 
   5  -9  -3   60.82    2.55 
  -5   9  -3   64.76    3.03 
  -5  -9  -3   66.64    3.08 
  -5   9   3   64.98    2.91 
  -5  -9  -3   64.22    2.93 
  -6  -9   3    0.55    1.73 
  -6   9  -3    0.76    1.73 
  -6   9   3    1.13    1.65 
  -6  -9  -3   -0.10    1.95 
  -7   9  -3   49.88    3.39 
  -7  -9   3   44.27    3.09 
  -7   9   3   38.83    2.86 
   0  -9   4   -1.46    1.10 
   0  -9  -4   -0.44    0.81 
   0  -9  -4   -0.28    0.93 
   0   9   4    0.16    0.96 
   1   9   4  114.16    3.51 
   1   9   4  111.95    3.19 
  -1  -9   4  118.71    3.62 
   1  -9  -4  107.49    3.41 
   1  -9  -4  111.60    3.37 
  -1  -9  -4  117.23    3.51 
  -1  -9  -4  111.95    3.51 
  -1   9   4  107.33    3.45 
  -2  -9   4   44.35    2.47 
   2   9   4   42.68    2.27 
   2  -9  -4   44.62    2.05 
   2   9   4   44.17    2.03 
   2  -9  -4   40.24    2.06 
  -2   9   4   38.03    2.03 
  -2  -9  -4   42.73    2.24 
  -2  -9  -4   43.07    2.23 
  -3  -9   4  226.45    6.00 
   3  -9  -4  223.42    5.59 
  -3  -9  -4  223.54    5.77 
  -3  -9  -4  216.72    5.86 
  -3   9   4  223.21    5.83 
   4  -9  -4   41.02    2.27 
  -4  -9   4   50.51    2.90 
  -4  -9  -4   49.27    2.72 
  -4  -9  -4   50.91    2.60 
  -4   9   4   48.21    2.66 
   5  -9  -4   64.37    2.77 
  -5  -9   4   67.74    3.46 
  -5   9   4   61.52    2.99 
  -5  -9  -4   68.37    3.26 
  -6  -9   4   -1.01    1.82 
   6  -9  -4   -0.86    1.47 
  -6   9  -4    0.04    2.35 
  -6  -9  -4    2.16    1.74 
  -6   9   4   -0.42    1.65 
   0   9   5  203.33    5.50 
   0  -9  -5  203.53    5.41 
   0  -9  -5  205.38    5.45 
   1  -9  -5    2.75    1.15 
   1   9   5    4.17    1.14 
   1  -9  -5    2.56    1.11 
  -1  -9   5    3.41    1.35 
  -1  -9  -5    3.65    1.25 
  -1  -9  -5    3.75    1.11 
  -1   9   5    3.75    1.21 
   2   9   5   98.40    3.61 
   2  -9  -5   98.47    3.42 
  -2  -9   5  100.51    3.72 
   2  -9  -5  100.78    3.40 
  -2  -9  -5   97.46    3.56 
  -2   9   5   96.05    3.45 
  -2  -9  -5  101.23    3.43 
  -3  -9   5    1.50    1.52 
   3  -9  -5    0.70    1.09 
   3   9   5    1.44    1.35 
  -3   9   5    0.78    1.14 
  -3  -9  -5    0.17    1.27 
  -3  -9  -5    0.07    1.19 
   4  -9  -5   71.62    2.95 
  -4  -9   5   67.43    3.46 
  -4  -9  -5   65.99    3.12 
  -4   9   5   63.01    3.15 
  -4  -9  -5   64.35    3.24 
  -5  -9   5   -1.31    1.80 
   5  -9  -5   -0.78    1.32 
  -5   9   5    0.43    1.56 
  -5  -9  -5    0.22    1.61 
   6  -9  -5  128.05    4.33 
  -6  -9   5  130.45    5.07 
  -6   9   5  112.56    4.66 
  -6  -9  -5  120.25    4.74 
   0   9   6    1.10    1.32 
   0  -9  -6    0.41    1.24 
   0  -9  -6    0.26    1.26 
   1   9   6    0.93    1.32 
  -1  -9   6    1.14    1.61 
   1  -9  -6    0.87    1.20 
   1  -9  -6    1.16    1.24 
  -1  -9  -6    0.93    1.30 
  -1   9   6   -0.17    1.27 
  -1  -9  -6    0.51    1.23 
   2   9   6    1.87    1.33 
   2  -9  -6    2.12    1.18 
  -2  -9   6    0.84    1.61 
   2  -9  -6    2.53    1.29 
  -2   9   6    1.70    1.26 
  -2  -9  -6    1.22    1.39 
  -2  -9  -6    1.20    1.32 
  -3  -9   6    4.62    1.81 
   3   9   6    2.42    1.60 
   3  -9  -6    1.33    1.28 
  -3   9   6    2.28    1.42 
  -3  -9  -6    3.00    1.58 
  -3  -9  -6    1.29    1.45 
  -4  -9   6   -0.10    1.73 
   4  -9  -6    0.53    1.44 
  -4   9   6    0.54    1.38 
  -4  -9  -6    0.76    1.69 
  -5  -9   6    0.87    2.02 
   5  -9  -6   -0.13    1.48 
  -5   9   6   -0.58    1.72 
  -5  -9  -6    0.87    1.83 
   0  -9  -7  188.32    5.57 
   0   9   7  178.03    5.61 
   0  -9  -7  181.48    5.42 
   1  -9  -7   -0.37    1.40 
   1  -9  -7    0.46    1.44 
   1   9   7   -0.51    1.55 
  -1  -9  -7   -0.20    1.48 
  -1  -9  -7   -0.34    1.53 
  -1   9   7    0.95    1.48 
  -2  -9   7   40.99    2.93 
   2   9   7   38.63    2.75 
   2  -9  -7   41.86    2.63 
   2  -9  -7   39.56    2.61 
  -2   9   7   37.03    2.60 
  -2  -9  -7   45.87    2.87 
  -2  -9  -7   38.77    2.55 
   3   9   7    0.65    1.78 
   3  -9  -7   -0.32    1.49 
  -3  -9   7   -0.16    1.94 
  -3   9   7   -0.23    1.58 
  -3  -9  -7    0.62    1.77 
   4   9   7   46.12    3.18 
  -4  -9   7   41.96    3.20 
   4  -9  -7   47.56    2.96 
  -4  -9  -7   43.34    3.06 
  -4   9   7   50.41    3.19 
   0  -9  -8   -0.25    1.75 
   0  -9  -8    0.13    1.72 
   0   9   8   -0.50    1.74 
   1  -9  -8   45.57    2.95 
   1  -9  -8   43.93    2.88 
   1   9   8   33.01    2.76 
  -1  -9  -8   36.42    2.66 
  -1  -9  -8   32.26    2.66 
  -1   9   8   40.12    2.87 
   0 -10   0   47.39    2.04 
   1 -10   0    0.74    0.78 
  -1 -10   0   -1.07    0.94 
  -1  10   0   -0.03    0.79 
   2 -10   0  342.80    7.46 
  -2 -10   0  339.58    7.98 
  -2  10   0  339.07    7.57 
  -3 -10   0    0.00    1.10 
  -3  10   0    1.44    0.98 
  -4  10   0  264.75    6.60 
  -4 -10   0  266.91    6.83 
  -5  10   0    1.47    1.40 
  -5 -10   0    1.76    1.32 
  -6 -10   0   45.86    2.84 
  -6  10   0   52.15    3.07 
  -7 -10   0   -0.21    1.93 
  -7  10   0    0.85    1.96 
   0  10   1    0.46    0.74 
   0 -10   1    0.01    0.85 
   0 -10  -1   -0.13    0.64 
   0 -10  -1    1.00    0.89 
   0  10   1    0.01    0.66 
  -1 -10   1  121.15    3.58 
   1 -10  -1  113.89    3.28 
   1  10   1  119.13    3.36 
  -1 -10  -1  117.51    3.49 
   1 -10   1  113.65    3.23 
  -1  10   1  114.86    3.14 
   2 -10  -1    5.19    0.88 
  -2 -10   1    4.02    1.25 
   2  10   1    4.81    1.10 
   2 -10   1    6.18    0.88 
  -2  10   1    5.67    0.97 
  -2 -10  -1    4.46    1.08 
  -3  10  -1    1.36    1.00 
   3 -10  -1    0.88    0.77 
  -3 -10   1   -0.20    1.21 
  -3  10   1    0.50    0.98 
  -3 -10  -1    2.36    1.25 
  -4 -10   1   -0.02    1.18 
  -4  10  -1    0.69    1.17 
  -4 -10  -1   -0.88    1.28 
  -4  10   1   -0.10    1.10 
  -5 -10   1   82.67    3.51 
  -5  10  -1   78.42    3.30 
  -5  10   1   80.63    3.40 
  -5 -10  -1   80.27    3.40 
  -6 -10   1    5.70    1.89 
  -6  10  -1    4.30    1.76 
  -6  10   1    7.93    1.91 
  -6 -10  -1    5.58    1.81 
  -7 -10   1   53.01    3.35 
  -7  10  -1   60.41    3.63 
  -7 -10  -1   59.56    3.55 
  -7  10   1   56.95    3.42 
   0  10   2  229.34    5.32 
   0 -10  -2  218.43    5.48 
   0 -10  -2  224.65    5.29 
   0 -10   2  222.92    5.52 
   1 -10  -2    2.86    0.96 
   1  10   2    6.01    0.98 
  -1 -10   2    6.38    1.26 
   1 -10  -2    3.60    0.87 
   1  10   2    5.36    0.95 
  -1 -10  -2    5.04    1.07 
  -1 -10  -2    5.43    0.94 
   1 -10   2    6.20    1.04 
  -1  10   2    2.44    0.90 
   2 -10  -2   21.14    1.43 
   2  10   2   27.54    1.77 
  -2 -10   2   22.90    1.83 
   2  10   2   19.69    1.46 
  -2 -10  -2   20.01    1.43 
  -2  10   2   25.87    1.63 
  -2 -10  -2   22.48    1.73 
   3 -10  -2    2.86    0.92 
  -3 -10   2    4.92    1.43 
   3  10   2    4.78    1.27 
  -3 -10  -2    3.70    1.29 
  -3  10   2    6.91    1.26 
   4 -10  -2   15.81    1.35 
  -4  10  -2   15.30    1.63 
  -4 -10   2   13.72    1.70 
   4 -10   2   14.61    1.40 
  -4  10   2   15.41    1.67 
  -4 -10  -2   12.56    1.64 
  -5  10  -2    7.11    1.62 
  -5 -10   2    6.65    1.80 
  -5 -10  -2    6.56    1.58 
  -5  10   2    6.82    1.56 
  -6 -10   2  122.55    4.64 
  -6  10  -2  130.84    4.78 
  -6 -10  -2  125.38    4.60 
  -6  10   2  125.15    4.63 
  -7  10  -2   -1.21    2.06 
  -7 -10   2    1.85    2.03 
  -7  10   2   -1.18    1.95 
   0 -10  -3   -0.23    0.84 
   0 -10  -3   -0.52    0.96 
   0 -10   3    0.21    1.10 
   0  10   3    0.17    0.90 
  -1 -10   3  123.60    3.86 
   1  10   3  124.07    3.65 
   1 -10  -3  120.52    3.63 
   1  10   3  122.05    3.59 
   1 -10  -3  127.65    3.60 
  -1  10   3  128.36    3.67 
  -1 -10  -3  127.36    3.66 
  -1 -10  -3  125.08    3.79 
   2  10   3    3.50    1.13 
   2  10   3    3.63    1.07 
  -2 -10   3    2.48    1.18 
   2 -10  -3    3.12    0.96 
  -2 -10  -3    5.10    1.26 
  -2  10   3    3.25    1.09 
  -2 -10  -3    3.10    1.07 
   3 -10  -3  350.89    7.88 
  -3 -10   3  339.95    8.34 
   3  10   3  337.20    8.09 
  -3 -10  -3  339.45    8.04 
  -3  10   3  341.49    8.10 
  -3 -10  -3  345.09    8.19 
   4 -10  -3    0.24    0.94 
  -4 -10   3   -0.18    1.39 
  -4 -10  -3    0.73    1.33 
  -4  10   3    0.44    1.24 
  -4 -10  -3    0.72    1.31 
   5 -10  -3   97.63    3.30 
  -5 -10   3  102.10    4.13 
  -5  10   3  103.89    3.93 
  -5 -10  -3  105.45    3.84 
  -6 -10   3   -0.09    1.84 
  -6  10  -3    0.06    1.75 
  -6  10   3   -0.19    1.61 
  -7 -10   3   56.79    3.67 
  -7  10  -3   56.49    3.57 
  -7  10   3   55.50    3.53 
   0 -10  -4   88.40    3.15 
   0  10   4   93.97    3.21 
   0 -10  -4   91.71    3.18 
   0 -10   4   94.68    3.24 
   1 -10  -4    0.18    1.04 
   1 -10  -4    1.29    1.07 
   1  10   4    0.96    1.05 
  -1 -10   4   -0.05    1.30 
  -1 -10  -4    0.43    1.12 
  -1  10   4    0.11    1.06 
  -1 -10  -4    0.47    1.01 
   2 -10  -4    9.04    1.20 
   2 -10  -4   12.46    1.45 
   2  10   4   16.03    1.65 
  -2 -10   4   11.03    1.64 
  -2 -10  -4   15.32    1.64 
  -2 -10  -4   11.59    1.53 
  -2  10   4   13.84    1.54 
   3 -10  -4    1.10    1.07 
   3  10   4    1.30    1.31 
  -3 -10   4    1.66    1.48 
  -3  10   4    0.92    1.26 
  -3 -10  -4    2.16    1.31 
  -3 -10  -4    0.62    1.23 
  -4 -10   4    5.56    1.75 
   4 -10  -4    4.77    1.26 
  -4 -10  -4    5.14    1.53 
  -4  10   4    2.86    1.41 
  -4 -10  -4    3.77    1.52 
   5 -10  -4    0.12    1.24 
  -5 -10   4   -0.36    1.67 
  -5 -10  -4    0.00    1.56 
  -5  10   4    1.31    1.56 
  -5 -10  -4    0.67    1.52 
  -6 -10   4   64.22    3.92 
  -6  10   4   70.62    3.80 
   0 -10  -5    0.28    1.02 
   0  10   5   -0.20    1.22 
   0 -10  -5    0.16    1.21 
  -1 -10   5   99.39    3.59 
   1 -10  -5   91.83    3.40 
   1 -10  -5   91.71    3.32 
   1  10   5   93.32    3.48 
  -1  10   5   88.77    3.42 
  -1 -10  -5   88.62    3.39 
  -1 -10  -5   91.63    3.43 
   2 -10  -5    0.33    1.17 
  -2 -10   5    0.23    1.41 
   2 -10  -5    0.30    1.12 
   2  10   5   -1.28    1.29 
  -2 -10  -5    0.49    1.26 
  -2 -10  -5    0.20    1.24 
  -2  10   5    0.62    1.19 
  -3 -10   5   14.08    1.97 
   3  10   5   14.22    1.83 
   3 -10  -5   12.41    1.49 
  -3 -10  -5   17.70    1.93 
  -3 -10  -5   14.69    1.78 
  -3  10   5   19.15    1.98 
  -4 -10   5   -1.75    1.67 
   4 -10  -5    1.44    1.28 
  -4  10   5    1.35    1.52 
  -4 -10  -5    2.25    1.66 
  -4 -10  -5    1.39    1.49 
   5 -10  -5   55.11    3.07 
  -5 -10   5   54.81    3.36 
  -5 -10  -5   55.09    3.29 
  -5  10   5   57.59    3.44 
   0 -10  -6   77.12    3.41 
   0  10   6   74.83    3.39 
   0 -10  -6   72.38    3.04 
   1 -10  -6    0.56    1.32 
   1 -10  -6    1.13    1.40 
   1  10   6   -0.10    1.39 
  -1  10   6    0.13    1.39 
  -1 -10  -6    0.65    1.41 
  -1 -10  -6   -0.04    1.40 
   2 -10  -6  174.17    5.03 
  -2 -10   6  164.54    5.38 
   2  10   6  171.99    5.39 
   2 -10  -6  163.08    4.98 
  -2 -10  -6  170.70    5.29 
  -2 -10  -6  168.99    5.06 
  -2  10   6  171.34    5.16 
  -3 -10   6   -0.11    1.81 
   3 -10  -6    1.29    1.39 
   3  10   6    1.79    1.71 
  -3  10   6   -0.53    1.54 
  -3 -10  -6    2.33    1.71 
  -3 -10  -6    1.80    1.51 
   4  10   6  146.40    5.15 
  -4 -10   6  134.72    5.19 
   4 -10  -6  141.79    4.69 
  -4 -10  -6  149.73    5.13 
  -4  10   6  141.38    4.97 
   0 -10  -7    0.05    1.62 
   0 -10  -7   -0.41    1.56 
   0  10   7   -0.41    1.61 
   1 -10  -7   30.28    2.40 
   1  10   7   23.45    2.33 
   1 -10  -7   22.17    2.27 
  -1 -10  -7   33.39    2.48 
  -1 -10  -7   24.38    2.31 
  -1  10   7   26.10    2.41 
   2 -10  -7    1.85    1.62 
   2 -10  -7    1.57    1.62 
   2  10   7    0.26    1.66 
  -2  10   7   -0.34    1.60 
  -2 -10  -7    0.71    1.71 
  -2 -10  -7    2.02    1.65 
  -3 -10   7   -1.12    2.01 
   3 -10  -7    0.94    1.64 
   3  10   7    1.08    1.79 
  -3  10   7    2.57    1.88 
  -3 -10  -7    1.01    1.80 
   0 -11   0   -1.02    0.91 
  -1 -11   0   -0.11    1.03 
   1 -11   0   -0.68    0.85 
   2 -11   0   70.98    2.44 
  -2 -11   0   76.07    3.00 
  -3  11   0   -0.13    1.06 
  -3 -11   0   -0.59    1.24 
  -4 -11   0   45.97    2.67 
  -4  11   0   43.68    2.50 
  -5  11   0    0.52    1.49 
  -5 -11   0   -0.98    1.50 
  -6  11   0   -1.05    1.63 
  -6 -11   0    1.86    1.77 
  -7 -11   0    0.11    1.99 
  -7  11   0   -0.62    1.97 
   0 -11  -1   11.65    1.36 
   0 -11   1   10.92    1.33 
  -1 -11   1   30.94    1.96 
   1 -11  -1   29.58    1.80 
  -1 -11  -1   28.93    1.83 
  -1  11   1   28.09    1.66 
   1 -11   1   29.49    1.76 
   2 -11  -1   47.14    2.06 
  -2 -11   1   43.16    2.34 
  -2 -11  -1   47.60    2.42 
  -2  11   1   47.18    2.08 
   2 -11   1   46.10    2.08 
   3 -11  -1    0.40    0.85 
  -3 -11   1    0.14    1.17 
  -3 -11  -1    0.16    1.24 
  -3  11   1    0.40    1.08 
  -4  11  -1   19.17    1.79 
  -4 -11   1   19.05    2.01 
  -4 -11  -1   20.34    1.98 
  -4  11   1   21.84    1.88 
  -5 -11   1   29.30    2.39 
  -5  11  -1   32.37    2.34 
  -5 -11  -1   29.76    2.34 
  -5  11   1   32.77    2.41 
  -6 -11   1    7.86    2.07 
  -6  11  -1    7.07    2.02 
  -6 -11  -1    6.06    1.95 
  -6  11   1    4.31    1.88 
  -7  11  -1   12.65    2.48 
  -7 -11   1   11.22    2.43 
  -7  11   1   12.98    2.50 
  -7 -11  -1   18.47    2.41 
   0 -11   2   -0.14    1.03 
   0  11   2    0.10    0.88 
   0 -11  -2   -0.30    0.83 
   0 -11  -2    0.73    1.02 
   1  11   2   41.53    1.99 
   1 -11  -2   39.03    2.04 
   1  11   2   40.01    2.09 
  -1 -11   2   41.85    2.38 
  -1 -11  -2   37.20    1.92 
  -1 -11  -2   42.05    2.31 
  -1  11   2   41.19    1.94 
   1 -11   2   44.10    2.09 
  -2 -11   2    1.55    1.31 
   2  11   2    1.29    1.13 
   2 -11  -2    0.77    0.89 
  -2 -11  -2    0.60    1.15 
  -2  11   2    1.19    1.00 
  -3 -11   2   10.44    1.65 
   3 -11  -2    8.68    1.19 
  -3  11   2    7.92    1.29 
  -3 -11  -2   11.99    1.61 
  -4 -11   2    0.16    1.33 
   4 -11  -2    0.45    0.97 
  -4 -11  -2    2.39    1.45 
  -4  11   2   -2.19    1.29 
  -5 -11   2   36.35    2.64 
  -5 -11  -2   37.39    2.58 
  -5  11   2   35.55    2.52 
  -6 -11   2   -3.00    1.80 
  -6  11  -2   -0.42    1.83 
  -6  11   2   -0.31    1.76 
  -6 -11  -2    0.05    1.73 
   0 -11  -3   -0.32    1.05 
   0 -11   3    0.94    1.23 
   0  11   3    1.70    1.07 
   0 -11  -3   -0.18    0.95 
   1 -11  -3    0.73    0.94 
   1  11   3    0.22    1.03 
  -1 -11   3    1.32    1.31 
   1 -11  -3    1.09    1.03 
   1  11   3    0.60    0.96 
  -1 -11  -3    0.49    1.01 
  -1  11   3    0.92    0.98 
  -1 -11  -3    1.66    1.04 
   2  11   3    1.21    1.09 
   2  11   3    1.54    1.14 
  -2 -11   3    0.81    1.34 
   2 -11  -3    0.76    0.89 
  -2  11   3    1.44    1.10 
  -2 -11  -3    2.82    1.27 
  -2 -11  -3    0.16    1.04 
   3 -11  -3   -0.04    0.98 
   3  11   3    0.35    1.40 
  -3 -11   3   -1.04    1.44 
  -3  11   3   -0.05    1.15 
  -3 -11  -3   -0.40    1.33 
  -3 -11  -3   -0.65    1.18 
  -4 -11   3   -1.70    1.61 
   4 -11  -3   -0.24    1.00 
  -4 -11  -3   -1.22    1.41 
  -4  11   3    1.35    1.40 
  -5 -11   3    0.90    1.82 
  -5  11   3    3.33    1.69 
  -5 -11  -3    4.37    1.69 
  -6 -11   3   -1.03    1.99 
  -6  11   3    0.12    1.73 
  -6 -11  -3    0.63    2.35 
   0 -11  -4    0.15    1.08 
   0  11   4    1.45    1.22 
   0 -11  -4   -0.06    1.11 
   1  11   4   19.51    1.73 
   1 -11  -4   15.49    1.54 
  -1 -11   4   20.36    1.95 
   1 -11  -4   17.87    1.65 
  -1 -11  -4   20.26    1.73 
  -1  11   4   18.56    1.66 
  -1 -11  -4   20.91    1.74 
  -2 -11   4    0.98    1.55 
   2 -11  -4    0.74    1.11 
   2  11   4    1.46    1.28 
  -2 -11  -4    0.49    1.30 
  -2  11   4    0.96    1.14 
  -2 -11  -4    1.24    1.25 
   3 -11  -4    4.99    1.31 
  -3 -11   4    3.50    1.72 
   3  11   4    5.11    1.53 
  -3 -11  -4    6.75    1.57 
  -3 -11  -4    5.50    1.51 
  -3  11   4    4.95    1.49 
   4 -11  -4    3.32    1.31 
  -4 -11   4    2.74    1.75 
  -4 -11  -4    5.22    1.67 
  -4 -11  -4    3.77    1.63 
  -4  11   4    4.52    1.47 
  -5 -11   4   18.74    2.46 
   5 -11  -4   19.63    1.85 
  -5 -11  -4   16.47    2.09 
  -5  11   4   18.60    2.24 
  -6 -11   4   -0.91    2.04 
  -6  11   4    1.30    1.98 
   0  11   5    5.11    1.45 
   0 -11  -5    7.28    1.51 
   0 -11  -5    4.18    1.40 
  -1 -11   5   27.58    2.39 
   1  11   5   38.05    2.46 
   1 -11  -5   33.45    2.28 
   1 -11  -5   34.12    2.25 
  -1 -11  -5   33.59    2.26 
  -1  11   5   32.30    2.27 
  -1 -11  -5   35.92    2.39 
   2  11   5   27.80    2.28 
   2 -11  -5   32.96    2.30 
  -2 -11   5   25.70    2.36 
   2 -11  -5   26.55    2.00 
  -2  11   5   28.64    2.23 
  -2 -11  -5   31.31    2.28 
  -2 -11  -5   28.21    2.24 
   3  11   5    0.33    1.55 
   3 -11  -5    0.07    1.25 
  -3 -11   5   -2.70    1.66 
  -3  11   5    0.09    1.48 
  -3 -11  -5   -1.45    1.48 
  -3 -11  -5    0.28    1.53 
  -4 -11   5    9.73    2.20 
   4  11   5   11.06    1.97 
   4 -11  -5   14.66    1.79 
  -4  11   5   13.49    2.09 
  -4 -11  -5   10.85    1.91 
  -4 -11  -5    8.92    1.91 
  -5 -11   5   14.68    2.39 
   5 -11  -5   15.10    1.90 
  -5 -11  -5   14.50    2.28 
  -5  11   5   13.18    2.19 
   0 -11  -6    0.35    1.27 
   0  11   6   -1.06    1.40 
   0 -11  -6   -0.56    1.41 
   1 -11  -6   -0.73    1.34 
   1 -11  -6    0.69    1.51 
   1  11   6    0.59    1.48 
  -1 -11  -6    2.06    1.50 
  -1  11   6    1.14    1.56 
  -1 -11  -6    0.45    1.40 
   2  11   6   38.55    2.70 
  -2 -11   6   42.90    2.96 
   2 -11  -6   46.36    2.80 
   2 -11  -6   43.09    2.56 
  -2 -11  -6   33.82    2.53 
  -2  11   6   42.87    2.80 
  -2 -11  -6   41.34    2.64 
   3  11   6   -0.93    1.75 
   3 -11  -6   -0.53    1.38 
  -3 -11   6   -1.84    1.90 
  -3  11   6    0.06    1.64 
  -3 -11  -6    1.25    1.65 
  -3 -11  -6    0.20    1.73 
   4  11   6   33.89    2.86 
  -4 -11   6   31.01    3.02 
   4 -11  -6   39.05    2.64 
  -4  11   6   28.75    2.56 
  -4 -11  -6   39.26    2.96 
   0 -11  -7    3.72    1.77 
   0  11   7    6.78    2.06 
   0 -11  -7    7.75    2.03 
   1  11   7   12.53    2.21 
   1 -11  -7    9.85    1.85 
   1 -11  -7   12.10    1.98 
  -1 -11  -7   11.85    2.03 
  -1  11   7    9.88    1.92 
  -1 -11  -7    6.80    1.98 
   2  11   7   10.68    2.11 
   2 -11  -7    8.78    1.94 
   2 -11  -7    8.47    1.82 
  -2 -11  -7   10.38    2.07 
  -2 -11  -7   10.19    2.07 
  -2  11   7    9.06    1.98 
   0 -12   0   60.30    2.52 
  -1 -12   0   -0.38    1.14 
   1 -12   0    0.22    0.97 
   2 -12   0  215.09    5.20 
  -2 -12   0  208.39    5.78 
  -3 -12   0    0.52    1.35 
  -4 -12   0  190.27    5.62 
  -4  12   0  184.68    5.28 
  -5  12   0   -0.89    1.55 
  -5 -12   0    0.97    1.72 
  -6 -12   0   24.79    2.55 
  -6  12   0   27.48    2.60 
   0 -12  -1    0.39    1.04 
   0 -12   1   -0.52    1.09 
  -1 -12   1   53.27    2.64 
   1 -12  -1   54.60    2.36 
   1 -12   1   49.10    2.24 
  -1 -12  -1   55.28    2.45 
   2 -12  -1   28.97    1.72 
  -2 -12   1   31.27    2.15 
  -2  12   1   28.68    1.90 
  -2 -12  -1   31.03    2.16 
  -3 -12   1   20.17    1.98 
   3 -12  -1   19.85    1.50 
  -3  12   1   16.59    1.66 
  -3 -12  -1   25.67    2.09 
  -4 -12   1   33.92    2.56 
  -4  12   1   31.04    2.23 
  -4 -12  -1   30.52    2.29 
  -5 -12   1   29.27    2.56 
  -5 -12  -1   36.51    2.75 
  -5  12   1   31.64    2.52 
  -6  12  -1    2.37    1.99 
  -6 -12   1    2.66    1.95 
  -6  12   1    1.90    1.97 
  -6 -12  -1    1.72    1.90 
   0 -12  -2    0.12    1.16 
   0 -12   2    1.14    1.17 
   0 -12  -2    0.47    1.01 
  -1 -12   2   29.80    2.13 
   1 -12  -2   31.62    1.98 
   1 -12   2   31.27    1.88 
  -1 -12  -2   35.43    2.23 
  -1  12   2   30.29    1.89 
   2 -12  -2   77.26    2.79 
  -2 -12   2   73.24    3.31 
  -2  12   2   77.81    2.92 
  -2 -12  -2   79.81    3.24 
  -3 -12   2    2.24    1.54 
   3 -12  -2    1.26    1.05 
  -3 -12  -2    1.72    1.40 
  -3  12   2    1.59    1.22 
  -4 -12   2   59.28    3.36 
  -4 -12  -2   54.12    3.11 
  -4  12   2   55.34    2.97 
  -5 -12   2   12.98    2.22 
  -5  12   2   13.57    2.02 
  -5 -12  -2   13.04    2.09 
  -6 -12   2    1.19    2.08 
  -6  12   2    1.81    2.05 
  -6 -12  -2   -0.51    1.92 
   0  12   3   -0.15    1.06 
   0 -12  -3    0.61    1.05 
   0 -12  -3    0.34    1.19 
   0 -12   3    0.25    1.25 
  -1 -12   3  250.77    6.50 
   1 -12  -3  245.68    6.15 
   1  12   3  247.80    6.20 
   1 -12  -3  250.00    6.28 
   1  12   3  248.76    6.19 
  -1 -12  -3  233.68    6.15 
  -1 -12  -3  250.85    6.42 
  -1  12   3  253.42    6.22 
  -2 -12   3    2.28    1.53 
   2 -12  -3    1.72    1.11 
  -2  12   3    0.23    1.18 
  -2 -12  -3    1.81    1.37 
  -3 -12   3    7.20    1.81 
   3 -12  -3    7.55    1.28 
  -3  12   3    4.94    1.46 
  -3 -12  -3    9.21    1.75 
  -4 -12   3    0.45    1.73 
   4 -12  -3    1.56    1.20 
  -4 -12  -3    1.39    1.62 
  -4  12   3    0.43    1.47 
  -5 -12   3  187.07    5.97 
  -5 -12  -3  175.02    5.64 
  -5  12   3  180.26    5.72 
  -6 -12   3   -0.86    2.10 
  -6  12   3    0.63    2.03 
  -6 -12  -3    0.97    1.92 
   0 -12  -4    0.55    1.28 
   0  12   4    0.64    1.29 
   0 -12  -4    1.07    1.25 
   1  12   4   54.43    2.77 
   1 -12  -4   52.22    2.62 
   1 -12  -4   53.53    2.70 
  -1 -12   4   56.05    3.00 
  -1  12   4   54.81    2.68 
  -1 -12  -4   51.37    2.66 
  -1 -12  -4   47.82    2.58 
  -2 -12   4   53.64    3.18 
   2 -12  -4   56.31    2.74 
   2  12   4   61.36    2.90 
  -2 -12  -4   56.47    2.94 
  -2 -12  -4   55.67    2.83 
  -2  12   4   57.18    2.95 
  -3 -12   4    1.58    1.86 
   3 -12  -4    0.05    1.21 
  -3 -12  -4    1.57    1.53 
  -3 -12  -4    0.34    1.45 
  -3  12   4   -0.51    1.42 
   4 -12  -4   52.51    2.72 
  -4 -12   4   57.43    3.49 
  -4  12   4   58.16    3.29 
  -4 -12  -4   52.66    3.20 
  -5 -12   4   23.73    2.79 
   5 -12  -4   22.83    2.07 
  -5 -12  -4   22.97    2.43 
  -5  12   4   28.80    2.66 
   0 -12  -5    0.65    1.33 
   0  12   5    0.18    1.42 
   0 -12  -5    1.24    1.38 
   1  12   5   31.94    2.43 
   1 -12  -5   22.76    2.04 
   1 -12  -5   22.96    2.09 
  -1 -12  -5   28.64    2.28 
  -1 -12  -5   25.06    2.23 
  -1  12   5   21.87    2.08 
  -2 -12   5   50.49    3.16 
   2  12   5   43.43    2.71 
   2 -12  -5   46.22    2.77 
  -2 -12  -5   45.54    2.72 
  -2 -12  -5   44.31    2.74 
  -2  12   5   48.59    2.93 
  -3 -12   5   16.18    2.43 
   3  12   5   14.84    2.14 
   3 -12  -5   12.14    1.77 
  -3 -12  -5   13.54    2.04 
  -3 -12  -5   11.24    2.03 
  -3  12   5   15.60    2.13 
  -4 -12   5   38.19    3.11 
   4  12   5   43.07    2.98 
   4 -12  -5   46.64    2.81 
  -4  12   5   40.35    2.84 
  -4 -12  -5   46.04    2.85 
  -4 -12  -5   40.44    2.91 
   0 -12  -6   36.04    2.65 
   0 -12  -6   39.82    2.71 
   0  12   6   40.40    2.77 
   1 -12  -6    6.61    1.78 
   1  12   6    3.53    1.84 
   1 -12  -6    5.85    1.77 
  -1  12   6    4.75    1.80 
  -1 -12  -6    6.61    1.85 
  -1 -12  -6    2.42    1.68 
   2 -12  -6  110.11    4.24 
   2 -12  -6  106.60    4.17 
   2  12   6  103.53    4.51 
  -2 -12   6  104.35    4.86 
  -2 -12  -6  107.78    4.48 
  -2  12   6  102.64    4.26 
  -2 -12  -6  107.66    4.24 
   3  12   6    0.95    1.87 
  -3 -12   6   -0.60    2.16 
   3 -12  -6    1.96    1.55 
  -3  12   6    0.29    1.82 
  -3 -12  -6    1.13    1.82 
  -3 -12  -6    0.40    1.70 
   0  12   7    1.04    1.84 
   0 -12  -7   -0.33    1.81 
   0 -12  -7    1.55    1.81 
   0 -13   0    1.43    1.19 
  -1 -13   0    1.36    1.28 
   1 -13   0    0.72    1.10 
   2 -13   0   39.27    2.15 
  -2 -13   0   45.08    2.65 
  -3 -13   0   -0.56    1.34 
  -4 -13   0   14.62    2.11 
  -5 -13   0   -0.06    1.84 
  -6  13   0    1.41    2.10 
  -6 -13   0    4.39    2.07 
   0 -13  -1  292.06    7.30 
   0 -13   1  302.21    7.29 
   1 -13  -1    8.27    1.37 
  -1 -13   1    8.58    1.57 
   1 -13   1   11.15    1.46 
  -1 -13  -1   12.34    1.64 
   2 -13  -1   69.28    2.71 
  -2 -13   1   68.35    3.27 
  -2 -13  -1   73.06    3.21 
  -3 -13   1    0.19    1.39 
   3 -13  -1   -0.92    1.66 
  -3 -13  -1   -0.14    1.42 
  -4 -13   1   91.77    3.98 
  -4  13   1   77.47    3.46 
  -4 -13  -1   85.90    3.84 
  -5 -13   1   20.41    2.53 
  -5 -13  -1   19.14    2.38 
  -5  13   1   18.79    2.31 
  -6 -13   1  178.64    6.19 
  -6 -13  -1  185.29    6.18 
  -6  13   1  183.40    6.12 
   0 -13   2   -0.14    1.28 
   0 -13  -2   -0.07    1.24 
   1 -13  -2   73.68    2.93 
  -1 -13   2   73.89    3.23 
  -1 -13  -2   68.69    3.13 
  -2 -13   2    0.17    1.42 
   2 -13  -2   -1.26    1.04 
  -2 -13  -2   -0.23    1.23 
  -2  13   2    0.32    1.22 
   3 -13  -2  241.31    6.17 
  -3 -13   2  248.21    6.89 
  -3 -13  -2  246.71    6.73 
  -3  13   2  249.18    6.49 
  -4 -13   2   -0.30    1.75 
  -4  13   2    0.76    1.64 
  -4 -13  -2    1.23    1.63 
  -5 -13   2   38.65    2.97 
  -5 -13  -2   43.88    2.97 
  -5  13   2   47.74    3.01 
   0 -13  -3    0.14    1.23 
   0 -13  -3   -0.11    1.16 
   0 -13   3    1.22    1.42 
   1 -13  -3   -0.14    1.15 
  -1 -13   3    0.51    1.50 
  -1  13   3    1.64    1.22 
  -1 -13  -3    0.42    1.29 
  -2 -13   3    3.83    1.77 
   2 -13  -3    3.53    1.26 
  -2  13   3    3.24    1.43 
  -2 -13  -3    2.94    1.49 
   3 -13  -3    0.02    1.15 
  -3 -13   3    2.41    1.89 
  -3 -13  -3    1.71    1.64 
  -3  13   3   -0.16    1.45 
  -4 -13   3   -0.13    1.88 
   4 -13  -3    1.56    1.31 
  -4  13   3    2.09    1.65 
  -4 -13  -3    0.86    1.67 
  -5 -13   3    6.88    2.23 
  -5  13   3    5.17    2.10 
  -5 -13  -3    5.76    2.06 
   0 -13  -4   -0.43    1.33 
   0 -13  -4   -0.26    1.38 
   0  13   4    0.12    1.37 
   1 -13  -4  101.33    3.80 
   1  13   4  102.81    3.79 
  -1 -13   4  114.96    4.32 
   1 -13  -4  101.11    3.80 
  -1 -13  -4  100.56    3.76 
  -1  13   4  100.90    3.83 
  -1 -13  -4  106.46    3.97 
   2 -13  -4   -1.08    1.30 
  -2 -13   4   -1.56    1.73 
  -2  13   4   -0.02    1.40 
  -2 -13  -4    0.46    1.53 
  -3 -13   4  178.39    5.70 
   3 -13  -4  167.16    5.03 
  -3  13   4  172.82    5.39 
  -3 -13  -4  165.43    5.32 
  -4 -13   4    4.40    2.14 
   4 -13  -4    4.48    1.53 
  -4 -13  -4    4.34    1.89 
  -4  13   4    4.38    1.92 
   0 -13  -5  150.78    4.92 
   0 -13  -5  148.46    4.94 
   0  13   5  157.18    5.00 
   1  13   5   20.26    2.21 
   1 -13  -5   22.43    2.13 
   1 -13  -5   22.51    2.23 
  -1  13   5   17.65    2.03 
  -1 -13  -5   20.83    2.22 
  -1 -13  -5   25.01    2.34 
   2 -13  -5   47.40    2.81 
  -2 -13   5   53.44    3.40 
   2  13   5   52.40    3.28 
  -2 -13  -5   52.54    3.23 
  -2  13   5   51.76    3.06 
  -2 -13  -5   54.32    3.15 
  -3 -13   5   -1.30    2.10 
   3 -13  -5   -0.35    1.43 
  -3  13   5   -0.10    1.73 
  -3 -13  -5   -0.27    1.69 
  -3 -13  -5   -0.46    1.92 
  -4 -13   5   68.40    4.08 
   4 -13  -5   61.84    3.28 
  -4 -13  -5   56.96    3.35 
  -4  13   5   64.63    3.81 
   0  13   6   -0.30    1.75 
   0 -13  -6   -0.91    1.71 
   0 -13  -6   -1.43    1.65 
   1 -13  -6    2.83    1.73 
   1 -13  -6    2.71    1.77 
   1  13   6    0.38    1.88 
  -1  13   6    2.24    1.76 
  -1 -13  -6    0.02    1.71 
  -1 -13  -6    1.25    1.84 
   2 -13  -6   29.79    2.49 
   2  13   6   31.51    2.84 
  -2 -13  -6   24.57    2.46 
  -2 -13  -6   29.12    2.73 
  -2  13   6   38.39    2.85 
   0 -14   0  160.71    4.81 
   1 -14   0    0.13    1.16 
  -1 -14   0   -1.20    1.36 
  -2 -14   0    6.53    1.57 
   2 -14   0    5.02    1.54 
  -3 -14   0    2.75    1.66 
  -4 -14   0    8.07    2.03 
  -5 -14   0    1.16    2.01 
   0 -14   1    0.78    1.29 
   0 -14  -1    0.86    1.30 
  -1 -14   1    1.42    1.42 
   1 -14  -1    0.06    1.17 
   1 -14   1    0.28    1.26 
  -1 -14  -1    0.19    1.40 
  -2 -14   1   -0.58    1.55 
   2 -14  -1    0.25    1.16 
  -2 -14  -1    0.50    1.48 
  -3 -14   1   61.63    3.52 
  -3 -14  -1   72.50    3.50 
  -4 -14   1   -0.21    1.58 
  -4 -14  -1   -0.05    1.77 
  -5 -14   1    0.45    1.92 
  -5 -14  -1   -0.16    1.97 
   0 -14   2    3.19    1.48 
   0 -14  -2    3.24    1.42 
   1 -14  -2    0.79    1.27 
  -1 -14   2    1.09    1.55 
  -1 -14  -2    0.94    1.40 
   2 -14  -2   22.93    1.88 
  -2 -14   2   17.53    2.19 
  -2 -14  -2   14.63    1.99 
  -3 -14   2    0.72    1.67 
   3 -14  -2    0.82    1.31 
  -3 -14  -2    2.69    1.75 
  -4 -14   2   24.89    2.73 
  -4 -14  -2   19.72    2.31 
  -4  14   2   21.15    2.34 
  -5 -14   2   -0.12    2.00 
  -5  14   2   -0.80    1.93 
  -5 -14  -2    0.39    1.98 
   0 -14  -3   -0.58    1.38 
  -1 -14   3   49.07    2.93 
   1 -14  -3   44.97    2.67 
  -1 -14  -3   47.05    2.80 
   2 -14  -3    3.28    1.36 
  -2 -14   3    0.64    1.80 
  -2 -14  -3    0.37    1.56 
  -2  14   3    1.27    1.49 
  -3 -14   3    1.85    1.98 
   3 -14  -3    2.32    1.35 
  -3 -14  -3    3.80    1.77 
  -3  14   3    4.41    1.73 
   4 -14  -3    1.38    2.31 
  -4 -14   3   -0.30    2.10 
  -4  14   3   -0.05    1.80 
  -4 -14  -3    0.42    1.89 
   0 -14  -4   -0.13    1.44 
   0 -14  -4    0.52    1.45 
   1 -14  -4    1.44    1.50 
  -1 -14   4    2.65    1.91 
  -1 -14  -4    0.05    1.55 
  -1  14   4   -0.23    1.49 
   2 -14  -4   10.54    1.77 
  -2 -14   4   15.19    2.32 
  -2  14   4   12.41    2.00 
  -2 -14  -4   10.76    1.82 
   3 -14  -4   -0.05    1.49 
  -3 -14   4   -1.62    2.05 
  -3 -14  -4   -0.45    1.69 
  -3  14   4    1.40    1.79 
  -4 -14   4   24.24    2.88 
   4 -14  -4   17.50    1.96 
  -4 -14  -4   15.35    2.36 
  -4  14   4   14.31    2.42 
   0  14   5   15.29    2.10 
   0 -14  -5   16.71    2.09 
   0 -14  -5   13.22    2.03 
   1  14   5    0.07    1.77 
   1 -14  -5    0.28    1.58 
   1 -14  -5   -0.58    1.59 
  -1  14   5   -0.39    1.70 
  -1 -14  -5   -0.04    1.73 
  -1 -14  -5    0.36    1.71 
  -2 -14   5    0.05    2.19 
   2 -14  -5    0.55    1.67 
  -2  14   5    0.09    1.78 
  -2 -14  -5    0.76    1.76 
   0 -15   0    0.05    1.48 
   1 -15   0    0.17    1.33 
  -1 -15   0    0.98    1.45 
  -2 -15   0    0.06    1.62 
  -3 -15   0    2.25    1.83 
  -4 -15   0    1.89    2.01 
   0 -15  -1  135.34    4.47 
   0 -15   1  133.21    4.51 
   1 -15  -1    2.07    1.42 
  -1 -15   1    2.12    1.62 
   1 -15   1    2.86    1.68 
  -1 -15  -1    2.82    1.59 
  -2 -15   1   27.64    2.46 
   2 -15  -1   26.35    2.02 
  -2 -15  -1   28.78    2.40 
  -3 -15   1    0.80    1.88 
  -3 -15  -1    1.35    1.58 
  -4 -15   1   22.14    2.68 
  -4 -15  -1   21.22    2.52 
   0 -15  -2    0.19    1.45 
   0 -15   2    0.03    1.54 
   1 -15  -2   23.73    2.07 
  -1 -15   2   28.69    2.48 
  -1 -15  -2   27.59    2.40 
  -2 -15   2   39.36    2.90 
   2 -15  -2   38.53    2.40 
  -2 -15  -2   37.37    2.71 
   3 -15  -2  120.84    4.10 
  -3 -15   2  116.98    4.75 
  -3 -15  -2  119.46    4.68 
  -4 -15   2   32.94    3.02 
  -4 -15  -2   30.07    2.81 
   0 -15  -3   -0.33    1.56 
   1 -15  -3   73.62    3.47 
  -1 -15   3   77.55    3.97 
  -1 -15  -3   71.48    3.62 
   2 -15  -3    1.24    1.50 
  -2 -15   3   -1.86    1.84 
  -2 -15  -3    0.25    1.69 
  -3 -15   3    2.95    2.04 
   3 -15  -3   -0.60    1.41 
  -3 -15  -3    1.18    1.86 
  -4 -15   3   -0.52    2.11 
  -4 -15  -3    0.83    1.92 
   0 -15  -4    0.55    1.58 
   1 -15  -4   23.71    2.32 
  -1 -15  -4   27.30    2.56 
  -2 -15   4   33.87    3.02 
   2 -15  -4   24.87    2.30 
  -2  15   4   30.51    2.89 
  -2 -15  -4   33.29    2.81 
   3 -15  -4   76.89    3.61 
  -3 -15   4   79.23    4.45 
  -3 -15  -4   80.03    4.18 
  -3  15   4   74.67    3.92 
   0 -15  -5   63.83    3.69 
   1 -15  -5    2.44    1.85 
  -1 -15  -5    1.91    1.93 
   0 -16   0    7.25    1.79 
  -1 -16   0   -0.57    1.67 
   1 -16   0    0.05    1.49 
  -2 -16   0  287.14    7.84 
  -3 -16   0    0.54    1.96 
  -4 -16   0  215.39    6.91 
   0 -16  -1   -0.35    1.58 
   0 -16   1   -0.20    1.61 
  -1 -16   1   66.38    3.57 
   1 -16  -1   70.22    3.41 
  -1 -16  -1   74.12    3.70 
  -2 -16   1   10.42    2.21 
   2 -16  -1    9.33    1.74 
  -2 -16  -1   10.30    2.06 
  -3 -16   1    1.25    1.96 
  -3 -16  -1    2.13    1.90 
   0 -16   2   40.88    4.30 
   0 -16  -2   31.69    2.53 
   1 -16  -2   19.95    2.11 
  -1 -16   2   21.08    2.45 
  -1 -16  -2   20.27    2.43 
  -2 -16   2   37.00    3.00 
   2 -16  -2   41.91    2.70 
  -2 -16  -2   37.70    2.82 
  -3 -16   2    2.21    2.08 
  -3 -16  -2   -0.45    1.99 
   0 -16  -3    0.01    1.72 
   1 -16  -3  165.16    5.27 
  -1 -16   3  155.41    5.52 
  -1 -16  -3  158.62    5.46 
   2 -16  -3   -0.78    1.59 
  -2 -16   3    0.15    2.06 
  -2 -16  -3    1.51    1.96 
   0 -16  -4    7.85    2.01 
   1 -16  -4   14.02    2.23 
  -1 -16  -4   14.78    2.20 
   0 -17   0    0.31    1.67 
  -1 -17   0    1.27    1.93 
   1 -17   0   -0.15    1.65 
  -2 -17   0    6.12    2.01 
   0 -17   1   65.74    3.64 
   0 -17  -1   62.11    3.56 
   1 -17  -1    3.14    1.69 
  -1 -17   1    0.07    1.86 
  -1 -17  -1    2.40    1.88 
  -2 -17   1   19.61    2.51 
  -2 -17  -1   20.83    2.57 
   0 -17  -2    0.18    1.80 
   1 -17  -2   21.52    2.32 
  -1 -17   2   19.88    2.55 
  -1 -17  -2   24.62    2.64 
   0   0   0    0.00    0.00 
;
_shelx_hkl_checksum              35970
loop_
_space_group_symop_id
_space_group_symop_operation_xyz
1 x,y,z
2 1/2-x,-y,1/2+z
3 1/2+x,1/2-y,1/2-z
4 -x,1/2+y,-z
5 -x,-y,-z
6 1/2+x,y,1/2-z
7 1/2-x,1/2+y,1/2+z
8 x,1/2-y,z
loop_
_atom_site_label
_atom_site_type_symbol
_atom_site_fract_x
_atom_site_fract_y
_atom_site_fract_z
_atom_site_U_iso_or_equiv
_atom_site_adp_type
_atom_site_occupancy
_atom_site_site_symmetry_order
_atom_site_calc_flag
_atom_site_refinement_flags_posn
_atom_site_refinement_flags_adp
_atom_site_refinement_flags_occupancy
Lu1 Lu -0.00258(4) 0.59325(2) 0.16871(3) 0.00466(8) Uani 1 1 d . . .
Mo2 Mo 0.32977(8) 0.12404(4) 0.16668(6) 0.00377(11) Uani 1 1 d . . .
Mo3 Mo 0.16575(11) 0.2500 0.50378(9) 0.00348(14) Uani 1 2 d S T P
Si4 Si 0.1616(3) 0.04571(14) 0.4599(2) 0.0048(3) Uani 1 1 d . . .
Si5 Si 0.0334(4) 0.2500 0.1303(3) 0.0055(5) Uani 1 2 d S T P
Si6 Si 0.3011(4) 0.2500 0.8669(3) 0.0050(5) Uani 1 2 d S T P
loop_
_atom_site_aniso_label
_atom_site_aniso_U_11
_atom_site_aniso_U_22
_atom_site_aniso_U_33
_atom_site_aniso_U_23
_atom_site_aniso_U_13
_atom_site_aniso_U_12
Lu1 0.00345(13) 0.00510(13) 0.00544(12) 0.00010(9) -0.00026(10) -0.00014(10)
Mo2 0.0030(2) 0.0037(2) 0.00465(19) 0.00015(19) 0.00009(19) 0.0004(2)
Mo3 0.0017(3) 0.0042(4) 0.0045(3) 0.000 0.0000(3) 0.000
Si4 0.0045(7) 0.0047(8) 0.0053(6) -0.0007(6) 0.0006(6) 0.0006(7)
Si5 0.0041(12) 0.0062(12) 0.0063(10) 0.000 0.0011(8) 0.000
Si6 0.0042(12) 0.0047(12) 0.0062(10) 0.000 0.0000(8) 0.000
loop_
_atom_type_symbol
_atom_type_description
_atom_type_scat_dispersion_real
_atom_type_scat_dispersion_imag
_atom_type_scat_source
Si Si 0.0817 0.0704 'International Tables Vol C Tables 4.2.6.8 and 6.1.1.4'
Mo Mo -1.6832 0.6857 'International Tables Vol C Tables 4.2.6.8 and 6.1.1.4'
Lu Lu -0.4720 5.8584 'International Tables Vol C Tables 4.2.6.8 and 6.1.1.4'
loop_
_citation_id
_citation_year
primary 2015
loop_
_geom_angle_atom_site_label_1
_geom_angle_atom_site_label_2
_geom_angle_atom_site_label_3
_geom_angle
_geom_angle_site_symmetry_1
_geom_angle_site_symmetry_3
_geom_angle_publ_flag
Si4 Lu1 Si6 159.67(6) 3_455 2_564 yes
Si5 Lu1 Si6 83.21(5) 4_555 2_564 yes
Si4 Lu1 Si6 83.81(6) 4_556 2_564 yes
Si6 Lu1 Si6 82.48(6) 2_564 4_556 yes
Lu1 Lu1 Si6 148.97(5) 5_565 2_564 yes
Si4 Lu1 Si6 91.04(6) 7_554 2_564 yes
Si4 Lu1 Si6 85.50(5) 8_555 2_564 yes
Si4 Lu1 Si5 98.60(5) 3_455 4_555 yes
Si4 Lu1 Si4 81.96(5) 3_455 4_556 yes
Si4 Lu1 Si6 82.63(5) 3_455 4_556 yes
Lu1 Lu1 Si4 51.32(3) 5_565 3_455 yes
Si4 Lu1 Si4 109.26(5) 3_455 7_554 yes
Si4 Lu1 Si4 96.98(5) 3_455 8_555 yes
Si4 Lu1 Si5 140.13(6) 4_556 4_555 yes
Si5 Lu1 Si6 52.80(6) 4_555 4_556 yes
Lu1 Lu1 Si5 90.11(3) 5_565 4_555 yes
Si4 Lu1 Si5 80.78(6) 7_554 4_555 yes
Si4 Lu1 Si5 161.71(7) 8_555 4_555 yes
Si4 Lu1 Si6 88.18(6) 4_556 4_556 yes
Lu1 Lu1 Si4 118.62(4) 5_565 4_556 yes
Si4 Lu1 Si4 136.99(5) 4_556 7_554 yes
Si4 Lu1 Si4 51.98(5) 4_556 8_555 yes
Lu1 Lu1 Si6 117.02(4) 5_565 4_556 yes
Si4 Lu1 Si6 133.54(5) 7_554 4_556 yes
Si4 Lu1 Si6 139.44(5) 8_555 4_556 yes
Lu1 Lu1 Si4 57.95(4) 5_565 7_554 yes
Lu1 Lu1 Si4 92.20(3) 5_565 8_555 yes
Si4 Lu1 Si4 85.10(5) 7_554 8_555 yes
Si4 Mo2 Si5 89.24(6) . . yes
Si4 Mo2 Si6 147.43(7) . 1_554 yes
Si4 Mo2 Si4 96.66(6) . 2_554 yes
Si4 Mo2 Si5 92.82(6) . 3_555 yes
Si4 Mo2 Si4 119.82(6) . 6_555 yes
Si5 Mo2 Si6 58.69(7) . 1_554 yes
Si4 Mo2 Si5 119.36(6) 2_554 . yes
Si5 Mo2 Si5 93.75(6) . 3_555 yes
Si4 Mo2 Si5 150.72(6) 6_555 . yes
Si4 Mo2 Si6 94.86(5) 2_554 1_554 yes
Si5 Mo2 Si6 94.68(5) 3_555 1_554 yes
Si4 Mo2 Si6 92.04(6) 6_555 1_554 yes
Si4 Mo2 Si5 145.54(7) 2_554 3_555 yes
Si4 Mo2 Si4 58.03(6) 2_554 6_555 yes
Si4 Mo2 Si5 88.61(7) 6_555 3_555 yes
Si4 Mo3 Si5 83.57(3) . . yes
Si4 Mo3 Si6 96.40(3) . . yes
Si4 Mo3 Si6 91.70(5) . 3_456 yes
Si4 Mo3 Si5 88.24(5) . 3_555 yes
Si4 Mo3 Si4 166.77(5) . 8_555 yes
Si5 Mo3 Si6 179.09(8) . . yes
Si5 Mo3 Si6 91.23(8) . 3_456 yes
Si5 Mo3 Si5 88.25(7) . 3_555 yes
Si4 Mo3 Si5 83.57(3) 8_555 . yes
Si6 Mo3 Si6 89.68(8) . 3_456 yes
Si5 Mo3 Si6 90.85(8) 3_555 . yes
Si4 Mo3 Si6 96.40(3) 8_555 . yes
Si5 Mo3 Si6 179.48(7) 3_555 3_456 yes
Si4 Mo3 Si6 91.70(5) 8_555 3_456 yes
Si4 Mo3 Si5 88.24(5) 8_555 3_555 yes
Mo2 Si4 Mo3 72.03(5) . . yes
Mo2 Si4 Mo2 139.71(8) . 2_555 yes
Lu1 Si4 Mo2 70.56(5) 3_555 . yes
Lu1 Si4 Mo2 143.55(7) 4_546 . yes
Mo2 Si4 Si4 138.02(8) . 5_556 yes
Mo2 Si4 Mo2 87.42(5) . 6_455 yes
Lu1 Si4 Mo2 87.94(6) 7_545 . yes
Lu1 Si4 Mo2 81.80(4) 8_555 . yes
Mo2 Si4 Mo3 140.15(6) 2_555 . yes
Lu1 Si4 Mo3 128.10(7) 3_555 . yes
Lu1 Si4 Mo3 71.76(4) 4_546 . yes
Mo3 Si4 Si4 116.54(8) . 5_556 yes
Mo2 Si4 Mo3 70.20(5) 6_455 . yes
Lu1 Si4 Mo3 73.26(5) 7_545 . yes
Lu1 Si4 Mo3 133.95(6) 8_555 . yes
Lu1 Si4 Mo2 69.40(5) 3_555 2_555 yes
Lu1 Si4 Mo2 72.16(4) 4_546 2_555 yes
Mo2 Si4 Si4 60.57(6) 2_555 5_556 yes
Mo2 Si4 Mo2 121.97(8) 2_555 6_455 yes
Lu1 Si4 Mo2 83.15(5) 7_545 2_555 yes
Lu1 Si4 Mo2 82.74(5) 8_555 2_555 yes
Lu1 Si4 Lu1 132.39(6) 3_555 4_546 yes
Lu1 Si4 Si4 115.35(8) 3_555 5_556 yes
Lu1 Si4 Mo2 140.52(6) 3_555 6_455 yes
Lu1 Si4 Lu1 70.74(5) 3_555 7_545 yes
Lu1 Si4 Lu1 73.23(4) 3_555 8_555 yes
Lu1 Si4 Si4 65.27(5) 4_546 5_556 yes
Lu1 Si4 Mo2 84.34(5) 4_546 6_455 yes
Lu1 Si4 Lu1 77.85(4) 4_546 7_545 yes
Lu1 Si4 Lu1 128.02(7) 4_546 8_555 yes
Mo2 Si4 Si4 61.41(6) 6_455 5_556 yes
Lu1 Si4 Si4 133.97(7) 7_545 5_556 yes
Lu1 Si4 Si4 62.76(5) 8_555 5_556 yes
Lu1 Si4 Mo2 142.80(7) 7_545 6_455 yes
Lu1 Si4 Mo2 71.43(4) 8_555 6_455 yes
Lu1 Si4 Lu1 143.93(7) 7_545 8_555 yes
Mo2 Si5 Mo3 69.98(6) . . yes
Mo2 Si5 Si6 61.95(7) . 1_554 yes
Mo2 Si5 Mo2 139.54(9) . 3_455 yes
Mo2 Si5 Mo3 139.06(4) . 3_455 yes
Lu1 Si5 Mo2 71.71(4) 4_545 . yes
Lu1 Si5 Mo2 124.29(9) 5_565 . yes
Mo2 Si5 Mo2 87.55(4) . 6_455 yes
Mo2 Si5 Mo2 78.08(8) . 8_555 yes
Mo3 Si5 Si6 116.59(11) . 1_554 yes
Mo2 Si5 Mo3 69.56(5) 3_455 . yes
Mo3 Si5 Mo3 129.58(10) . 3_455 yes
Lu1 Si5 Mo3 134.32(4) 4_545 . yes
Lu1 Si5 Mo3 134.32(4) 5_565 . yes
Mo2 Si5 Mo3 69.56(5) 6_455 . yes
Mo2 Si5 Mo3 69.98(6) 8_555 . yes
Mo2 Si5 Si6 140.36(4) 3_455 1_554 yes
Mo3 Si5 Si6 113.84(10) 3_455 1_554 yes
Lu1 Si5 Si6 62.65(5) 4_545 1_554 yes
Lu1 Si5 Si6 62.65(5) 5_565 1_554 yes
Mo2 Si5 Si6 140.36(4) 6_455 1_554 yes
Mo2 Si5 Si6 61.95(7) 8_555 1_554 yes
Mo2 Si5 Mo3 72.15(7) 3_455 3_455 yes
Lu1 Si5 Mo2 143.21(11) 4_545 3_455 yes
Lu1 Si5 Mo2 84.98(3) 5_565 3_455 yes
Mo2 Si5 Mo2 79.27(7) 3_455 6_455 yes
Mo2 Si5 Mo2 87.55(4) 3_455 8_555 yes
Lu1 Si5 Mo3 71.42(5) 4_545 3_455 yes
Lu1 Si5 Mo3 71.42(5) 5_565 3_455 yes
Mo2 Si5 Mo3 72.15(7) 6_455 3_455 yes
Mo2 Si5 Mo3 139.06(4) 8_555 3_455 yes
Lu1 Si5 Lu1 88.27(6) 4_545 5_565 yes
Lu1 Si5 Mo2 84.98(3) 4_545 6_455 yes
Lu1 Si5 Mo2 124.29(9) 4_545 8_555 yes
Lu1 Si5 Mo2 143.21(11) 5_565 6_455 yes
Lu1 Si5 Mo2 71.71(4) 5_565 8_555 yes
Mo2 Si5 Mo2 139.54(9) 6_455 8_555 yes
Mo2 Si6 Mo3 139.81(5) 1_556 . yes
Mo3 Si6 Si5 115.68(11) . 1_556 yes
Lu1 Si6 Mo3 72.61(5) 2_565 . yes
Mo3 Si6 Mo3 129.96(10) . 3_556 yes
Lu1 Si6 Mo3 71.40(5) 4_546 . yes
Lu1 Si6 Mo3 71.40(5) 5_566 . yes
Lu1 Si6 Mo3 72.61(5) 7_545 . yes
Mo2 Si6 Mo3 139.81(5) 8_556 . yes
Mo2 Si6 Si5 59.36(6) 1_556 1_556 yes
Lu1 Si6 Mo2 142.76(10) 2_565 1_556 yes
Mo2 Si6 Mo3 70.19(6) 1_556 3_556 yes
Lu1 Si6 Mo2 71.59(4) 4_546 1_556 yes
Lu1 Si6 Mo2 123.62(9) 5_566 1_556 yes
Lu1 Si6 Mo2 84.67(3) 7_545 1_556 yes
Mo2 Si6 Mo2 75.78(6) 1_556 8_556 yes
Lu1 Si6 Si5 133.63(4) 2_565 1_556 yes
Mo3 Si6 Si5 114.36(10) 3_556 1_556 yes
Lu1 Si6 Si5 64.56(6) 4_546 1_556 yes
Lu1 Si6 Si5 64.56(6) 5_566 1_556 yes
Lu1 Si6 Si5 133.63(4) 7_545 1_556 yes
Mo2 Si6 Si5 59.36(6) 8_556 1_556 yes
Lu1 Si6 Mo3 73.46(6) 2_565 3_556 yes
Lu1 Si6 Lu1 143.99(8) 2_565 4_546 yes
Lu1 Si6 Lu1 77.53(2) 2_565 5_566 yes
Lu1 Si6 Lu1 92.74(7) 2_565 7_545 yes
Lu1 Si6 Mo2 84.67(3) 2_565 8_556 yes
Lu1 Si6 Mo3 133.46(4) 4_546 3_556 yes
Lu1 Si6 Mo3 133.46(4) 5_566 3_556 yes
Lu1 Si6 Mo3 73.46(6) 7_545 3_556 yes
Mo2 Si6 Mo3 70.19(6) 8_556 3_556 yes
Lu1 Si6 Lu1 90.14(8) 4_546 5_566 yes
Lu1 Si6 Lu1 77.53(2) 4_546 7_545 yes
Lu1 Si6 Mo2 123.62(9) 4_546 8_556 yes
Lu1 Si6 Lu1 143.99(8) 5_566 7_545 yes
Lu1 Si6 Mo2 71.59(4) 5_566 8_556 yes
Lu1 Si6 Mo2 142.76(10) 7_545 8_556 yes
loop_
_geom_bond_atom_site_label_1
_geom_bond_atom_site_label_2
_geom_bond_distance
_geom_bond_site_symmetry_2
_geom_bond_publ_flag
Lu1 Si6 2.7680(17) 2_564 yes
Lu1 Si4 2.9859(19) 3_455 yes
Lu1 Si5 2.8773(15) 4_555 yes
Lu1 Si4 2.8285(15) 4_556 yes
Lu1 Si6 2.8300(19) 4_556 yes
Lu1 Lu1 3.3258(4) 5_565 yes
Lu1 Si4 2.7500(19) 7_554 yes
Lu1 Si4 2.8896(17) 8_555 yes
Mo2 Si4 2.5124(17) . yes
Mo2 Si5 2.556(2) . yes
Mo2 Si6 2.6216(17) 1_554 yes
Mo2 Si4 2.5943(17) 2_554 yes
Mo2 Si5 2.5239(19) 3_555 yes
Mo2 Si4 2.573(2) 6_555 yes
Mo3 Si4 2.6287(18) . yes
Mo3 Si5 2.713(2) . yes
Mo3 Si6 2.653(2) . yes
Mo3 Si6 2.581(3) 3_456 yes
Mo3 Si5 2.611(3) 3_555 yes
Mo3 Si4 2.6287(18) 8_555 yes
Si4 Si4 2.506(3) 5_556 yes
Si5 Si6 2.538(3) 1_554 yes
