#------------------------------------------------------------------------------
#$Date: 2016-03-05 12:19:26 +0200 (Sat, 05 Mar 2016) $
#$Revision: 177864 $
#$URL: svn://www.crystallography.net/cod/cif/7/03/81/7038100.cif $
#------------------------------------------------------------------------------
#
# This file is available in the Crystallography Open Database (COD),
# http://www.crystallography.net/
#
# All data on this site have been placed in the public domain by the
# contributors.
#
data_7038100
loop_
_publ_author_name
'Nielsen, Morten B.'
'Xie, Weiwei'
'Cava, Robert J.'
_publ_section_title
;
 Ternary rare earth silicides RE2M3Si4 (RE = Sc, Y, Lu; M = Mo, W):
 crystal structure, coloring and electronic properties.
;
_journal_issue                   9
_journal_name_full
'Dalton transactions (Cambridge, England : 2003)'
_journal_page_first              3771
_journal_page_last               3777
_journal_paper_doi               10.1039/c5dt03976b
_journal_volume                  45
_journal_year                    2016
_chemical_formula_sum            'Sc2.07 Si4 W2.93'
_chemical_formula_weight         744.80
_chemical_name_systematic
; 
 ? 
;
_space_group_crystal_system      orthorhombic
_space_group_IT_number           62
_space_group_name_Hall           '-P 2ac 2n'
_space_group_name_H-M_alt        'P n m a'
_symmetry_space_group_name_Hall  '-P 2ac 2n'
_symmetry_space_group_name_H-M   'P n m a'
_audit_creation_method           SHELXL-2013
_cell_angle_alpha                90
_cell_angle_beta                 90
_cell_angle_gamma                90
_cell_formula_units_Z            4
_cell_length_a                   6.5357(4)
_cell_length_b                   12.6408(8)
_cell_length_c                   6.7743(4)
_cell_measurement_reflns_used    1963
_cell_measurement_temperature    300(2)
_cell_measurement_theta_max      30.53
_cell_measurement_theta_min      3.22
_cell_volume                     559.67(6)
_computing_cell_refinement       'Bruker SAINT'
_computing_data_collection       'Bruker APEX2'
_computing_data_reduction        'Bruker SAINT'
_computing_molecular_graphics    'Bruker SHELXTL'
_computing_publication_material  'Bruker SHELXTL'
_computing_structure_refinement  'SHELXL-2013 (Sheldrick, 2013)'
_computing_structure_solution    'SHELXS-97 (Sheldrick 2008)'
_diffrn_ambient_temperature      300(2)
_diffrn_measured_fraction_theta_full 1.000
_diffrn_measured_fraction_theta_max 0.999
_diffrn_measurement_device_type  'Bruker APEX-II CCD'
_diffrn_measurement_method       '\f and \w scans'
_diffrn_radiation_type           MoK\a
_diffrn_radiation_wavelength     0.71073
_diffrn_reflns_av_R_equivalents  0.0264
_diffrn_reflns_av_unetI/netI     0.0231
_diffrn_reflns_laue_measured_fraction_full 1.000
_diffrn_reflns_laue_measured_fraction_max 0.999
_diffrn_reflns_limit_h_max       7
_diffrn_reflns_limit_h_min       -9
_diffrn_reflns_limit_k_max       16
_diffrn_reflns_limit_k_min       -17
_diffrn_reflns_limit_l_max       9
_diffrn_reflns_limit_l_min       -8
_diffrn_reflns_number            3743
_diffrn_reflns_point_group_measured_fraction_full 1.000
_diffrn_reflns_point_group_measured_fraction_max 0.999
_diffrn_reflns_theta_full        25.242
_diffrn_reflns_theta_max         30.538
_diffrn_reflns_theta_min         3.223
_exptl_absorpt_coefficient_mu    63.182
_exptl_absorpt_correction_T_max  0.7461
_exptl_absorpt_correction_T_min  0.4503
_exptl_absorpt_correction_type   multi-scan
_exptl_crystal_colour            Metallic
_exptl_crystal_density_diffrn    8.839
_exptl_crystal_density_meas      ?
_exptl_crystal_density_method    'Not measured'
_exptl_crystal_description       Irregular
_exptl_crystal_F_000             1266
_exptl_crystal_size_max          0.020
_exptl_crystal_size_mid          0.015
_exptl_crystal_size_min          0.010
_refine_diff_density_max         1.680
_refine_diff_density_min         -1.870
_refine_diff_density_rms         0.374
_refine_ls_extinction_coef       0.00195(8)
_refine_ls_extinction_expression Fc^*^=kFc[1+0.001xFc^2^\l^3^/sin(2\q)]^-1/4^
_refine_ls_extinction_method     SHELXL
_refine_ls_goodness_of_fit_ref   1.138
_refine_ls_hydrogen_treatment    undef
_refine_ls_matrix_type           full
_refine_ls_number_parameters     48
_refine_ls_number_reflns         897
_refine_ls_number_restraints     0
_refine_ls_restrained_S_all      1.138
_refine_ls_R_factor_all          0.0232
_refine_ls_R_factor_gt           0.0187
_refine_ls_shift/su_max          0.001
_refine_ls_shift/su_mean         0.000
_refine_ls_structure_factor_coef Fsqd
_refine_ls_weighting_details
'w=1/[\s^2^(Fo^2^)+(0.0154P)^2^+0.1663P] where P=(Fo^2^+2Fc^2^)/3'
_refine_ls_weighting_scheme      calc
_refine_ls_wR_factor_gt          0.0371
_refine_ls_wR_factor_ref         0.0380
_reflns_Friedel_coverage         0.000
_reflns_number_gt                790
_reflns_number_total             897
_reflns_threshold_expression     'I > 2\s(I)'
_cod_data_source_file            c5dt03976b4.cif
_cod_data_source_block           Sc2.07W2.93Si4
_cod_depositor_comments
;
The following automatic conversions were performed:

'_exptl_crystal_density_meas' value 'None' was changed to '?' - the
value is perceived as not measured.

Automatic conversion script
Id: cif_fix_values 4268 2015-11-12 08:31:59Z antanas 

 Adding full bibliography for 7038099--7038101.cif.
;
_cod_database_code               7038100
_shelx_space_group_comment
; 
The symmetry employed for this shelxl refinement is uniquely defined 
by the following loop, which should always be used as a source of 
symmetry information in preference to the above space-group names. 
They are only intended as comments. 
;
_shelxl_version_number           2013-4
_shelx_res_file
; 
TITL MBN038s in Pnma 
CELL 0.71073   6.53570  12.64080   6.77430  90.0000  90.0000  90.0000 
ZERR    4.00   0.00040   0.00080   0.00040   0.0000   0.0000   0.0000 
LATT  1 
SYMM 0.5-X, -Y, 0.5+Z 
SYMM -X, 0.5+Y, -Z 
SYMM 0.5+X, 0.5-Y, 0.5-Z 
SFAC SI SC W 
UNIT 16 8.26 11.74 
TEMP 0.000 
  
L.S. 10 
ACTA 
EADP W1 SC1 
EXYZ W1 SC1 
  
WGHT    0.015400    0.166300 
EXTI    0.001946 
FVAR       0.05170   0.03294 
MOLE   1 
W1    3    0.170269    0.375773    0.664847   -21.00000    0.00198   -0.00016 = 
         0.00076    0.00010   -0.00019    0.00018 
SC1   2    0.170269    0.375773    0.664847    21.00000    0.00198   -0.00016 = 
         0.00076    0.00010   -0.00019    0.00018 
W2    3   -0.163349    0.250000    0.497450    10.50000    0.00106   -0.00024 = 
         0.00040    0.00000    0.00027    0.00000 
SC3   2    0.004496    0.591488    0.829346    11.00000    0.00313    0.00142 = 
         0.00191    0.00000   -0.00031   -0.00115 
SI4   1    0.167698    0.543733    0.462344    11.00000    0.00214    0.00119 = 
         0.00147    0.00014   -0.00017   -0.00004 
SI5   1    0.200984    0.250000    0.356955    10.50000    0.00291    0.00013 = 
         0.00120    0.00000   -0.00044    0.00000 
SI6   1   -0.031953    0.250000    0.881532    10.50000    0.00075    0.00221 = 
         0.00166    0.00000   -0.00047    0.00000 
HKLF 4 
  
REM  MBN038s in Pnma 
REM R1 =  0.0187 for     790 Fo > 4sig(Fo)  and  0.0232 for all     897 data 
REM     48 parameters refined using      0 restraints 
  
END 
  
WGHT      0.0152      0.2259 
  
REM Highest difference peak  1.680,  deepest hole -1.870,  1-sigma level  0.374 
Q1    1   0.0802  0.3727  0.5429  11.00000  0.05    1.68 
Q2    1  -0.0113  0.3787  0.6763  11.00000  0.05    1.55 
Q3    1   0.2556  0.3744  0.7890  11.00000  0.05    1.31 
Q4    1   0.2481  0.3740  0.5537  11.00000  0.05    1.29 
Q5    1   0.2443  0.2500  0.2343  10.50000  0.05    1.27 
Q6    1  -0.1594  0.2500  0.8406  10.50000  0.05    1.26 
Q7    1  -0.0847  0.2500  0.3516  10.50000  0.05    1.21 
Q8    1   0.0873  0.2500  1.1068  10.50000  0.05    1.18 
Q9    1  -0.2542  0.2500  0.3606  10.50000  0.05    1.18 
Q10   1   0.0880  0.3681  0.7786  11.00000  0.05    1.14 
Q11   1   0.2512  0.5234  0.7119  11.00000  0.05    1.13 
Q12   1   0.2225  0.6036  0.9379  11.00000  0.05    1.08 
Q13   1   0.2493  0.2500  0.4993  10.50000  0.05    1.07 
Q14   1  -0.2552  0.2500  0.6127  10.50000  0.05    1.04 
Q15   1   0.2466  0.6213  0.4167  11.00000  0.05    1.04 
Q16   1   0.2520  0.6061  0.7586  11.00000  0.05    1.03 
Q17   1   0.2748  0.6065  0.4974  11.00000  0.05    0.98 
Q18   1   0.3357  0.3745  0.6767  11.00000  0.05    0.98 
Q19   1  -0.1342  0.6501  0.9648  11.00000  0.05    0.98 
Q20   1  -0.0749  0.2838  0.8559  11.00000  0.05    0.98 
;
_shelx_res_checksum              43948
_shelx_hkl_file
; 
  -1   0   0    1.15    0.18 
   1   0   0    1.49    0.21 
  -2   0   0  211.82    5.69 
   2   0   0  208.66    5.70 
  -2   0   0  212.41    5.53 
  -3   0   0    0.32    0.30 
  -4   0   0  105.80    3.02 
  -4   0   0  101.58    3.29 
   4   0   0  101.84    3.18 
  -5   0   0    1.05    0.40 
  -5   0   0   -0.15    0.47 
  -6   0   0  858.07   22.36 
  -7   0   0    0.09    0.58 
  -8   0   0  115.64    3.91 
  -9   0   0    0.34    0.91 
   0   0   1    0.34    0.06 
   0   0  -1    0.16    0.07 
  -1   0  -1  118.06    3.14 
   1   0   1  112.34    3.13 
   2   0   1  237.39    6.48 
   2   0  -1  253.18    6.65 
  -2   0  -1  225.49    6.22 
  -2   0  -1  239.14    6.47 
   2   0   1  244.06    6.40 
  -2   0   1  247.82    6.35 
   2   0  -1  238.33    6.33 
  -3   0  -1  786.23   19.65 
  -3   0  -1  654.76   19.28 
   3   0   1  802.22   19.68 
   3   0   1  771.89   19.51 
  -4   0   1  219.83    6.05 
  -4   0  -1  224.41    6.34 
  -4   0  -1  208.81    5.92 
   4   0   1  230.53    6.19 
  -5   0   1   94.78    2.99 
  -5   0  -1   94.93    2.87 
  -6   0  -1    0.63    0.45 
  -6   0   1    0.68    0.55 
  -7   0  -1   44.37    1.86 
  -7   0   1   43.67    1.98 
  -8   0   1   89.67    3.29 
  -8   0  -1   84.28    3.09 
  -9   0   1  235.16    7.19 
   0   0  -2    1.07    0.17 
   0   0   2    1.02    0.12 
  -1   0   2  263.83    6.68 
   1   0  -2  236.57    6.64 
   1   0   2  254.51    6.63 
  -1   0  -2  261.83    6.69 
   1   0   2  250.12    6.66 
  -2   0   2   15.07    0.74 
  -2   0  -2   16.77    0.56 
   2   0   2   16.14    0.77 
   2   0   2   15.29    0.84 
  -2   0  -2   16.82    0.86 
   2   0  -2   16.29    0.75 
   3   0   2    0.11    0.31 
  -3   0   2    0.08    0.29 
  -3   0  -2    0.19    0.36 
   3   0   2    0.38    0.39 
  -3   0  -2    0.70    0.21 
   3   0  -2   -0.02    0.29 
  -4   0  -2   34.17    1.18 
  -4   0   2   33.78    1.39 
   4   0   2   33.76    1.46 
  -5   0   2  128.42    4.01 
   5   0   2  138.50    4.18 
  -5   0  -2  133.34    3.80 
  -6   0  -2    1.16    0.47 
  -6   0   2    1.33    0.62 
  -7   0   2  137.62    4.42 
  -8   0   2   -0.12    0.79 
  -9   0   2    1.37    1.06 
   0   0   3    0.35    0.19 
   0   0  -3    0.47    0.24 
   1   0   3    8.72    0.50 
  -1   0   3    8.02    0.60 
   1   0  -3    6.83    0.55 
  -1   0  -3    8.07    0.57 
   1   0   3    8.10    0.51 
  -2   0  -3    3.40    0.31 
  -2   0  -3    4.28    0.55 
   2   0  -3    5.13    0.51 
   2   0   3    4.03    0.49 
   2   0   3    5.86    0.54 
  -2   0   3    5.98    0.52 
  -3   0  -3  197.46    5.37 
   3   0   3  206.52    5.73 
   3   0  -3  209.29    5.69 
  -3   0   3  199.37    5.63 
   4   0   3    0.23    0.45 
  -4   0  -3    1.68    0.34 
  -4   0   3    0.57    0.43 
   5   0   3   11.72    1.11 
  -5   0   3    7.25    0.77 
   6   0   3    2.56    0.83 
  -6   0   3    1.92    0.66 
  -7   0   3   16.43    1.40 
  -8   0   3    1.65    0.92 
   0   0  -4   14.79    0.73 
   0   0   4   16.10    0.64 
   0   0   4   15.15    0.80 
   1   0   4  274.72    7.09 
  -1   0   4  272.97    7.14 
  -1   0  -4  260.90    6.98 
  -1   0   4  263.77    6.88 
  -1   0  -4  280.22    7.15 
   1   0   4  262.86    6.97 
   1   0  -4  246.46    7.09 
  -2   0   4    5.71    0.43 
  -2   0   4    4.28    0.52 
   2   0   4    4.85    0.53 
   2   0  -4    5.84    0.59 
   2   0   4    4.75    0.52 
   3   0   4    2.29    0.54 
   3   0  -4    3.84    0.61 
  -3   0   4    3.82    0.55 
  -4   0   4   26.01    1.31 
   4   0   4   26.60    1.43 
   5   0   4  179.94    5.48 
  -5   0   4  176.83    5.27 
  -6   0   4    1.36    0.72 
   6   0   4    1.72    0.82 
  -7   0   4  130.20    4.34 
  -8   0   4    1.63    0.95 
   0   0  -5    0.11    0.31 
   0   0   5    0.19    0.26 
   0   0   5    0.31    0.41 
   1   0   5   75.27    2.25 
  -1   0   5   70.91    2.04 
  -1   0   5   72.83    2.30 
   1   0   5   73.59    2.00 
   1   0  -5   68.85    2.28 
  -2   0   5  219.52    5.93 
   2   0  -5  211.51    5.96 
  -2   0   5  209.64    5.66 
   2   0   5  216.90    5.96 
  -3   0   5  371.98    9.89 
   3   0  -5  362.90    9.97 
   3   0   5  367.96   10.01 
  -4   0   5  207.11    6.02 
   4   0   5  211.52    6.19 
   4   0  -5  213.47    6.15 
  -5   0   5   41.32    1.88 
   5   0   5   42.81    2.11 
   6   0   5    0.50    0.88 
  -6   0   5    0.64    0.73 
   7   0   5   32.81    3.17 
  -7   0   5   35.67    2.02 
  -8   0   5   97.31    3.73 
   0   0   6  956.62   24.54 
   1   0   6    3.22    0.48 
  -1   0   6    5.15    0.50 
  -2   0   6  122.55    3.33 
   2   0   6  123.30    3.66 
  -2   0   6  120.17    3.62 
   2   0  -6  116.90    3.67 
   3   0   6    2.24    0.60 
   3   0  -6    1.22    0.62 
  -3   0   6    1.27    0.54 
   4   0   6   71.05    2.71 
  -4   0   6   72.08    2.58 
   5   0   6    1.37    0.81 
  -5   0   6    0.64    0.71 
  -6   0   6  587.55   16.06 
   6   0   6  603.29   16.45 
  -7   0   6    5.65    1.12 
   7   0   6    5.13    1.41 
   0   0   7    0.09    0.31 
  -1   0   7   59.14    1.78 
   1   0   7   56.96    1.91 
   2   0   7  115.14    3.46 
  -2   0   7  111.79    3.17 
   3   0   7  352.86    9.51 
  -3   0   7  341.05    9.12 
   4   0   7   82.20    3.00 
  -4   0   7   81.50    2.55 
  -4   0   7   84.05    2.96 
   5   0   7   53.28    2.51 
  -5   0   7   54.95    2.36 
  -5   0   7   56.83    2.01 
  -6   0   7    6.18    0.80 
   6   0   7    5.93    1.27 
  -6   0   7    6.19    1.12 
   0   0   8    0.47    0.30 
   1   0   8  104.34    3.03 
   2   0   8    2.41    0.51 
   3   0   8    1.28    0.56 
  -3   0   8    0.99    0.37 
   4   0   8    6.09    0.90 
  -4   0   8    5.95    0.60 
  -5   0   8   93.97    2.95 
   5   0   8   91.91    3.49 
   1   0   9    2.11    0.39 
   2   0   9    0.67    0.44 
   3   0   9   83.33    2.79 
   0  -1   0    1.48    0.13 
  -1   1   0    0.11    0.16 
   1  -1   0   -0.18    0.15 
  -2   1   0    7.07    0.56 
   2  -1   0    7.70    0.57 
   2  -1   0    7.81    0.41 
  -2  -1   0    8.26    0.40 
   2   1   0    8.63    0.56 
  -2   1   0    7.95    0.44 
  -3  -1   0   -0.02    0.21 
  -3   1   0    0.41    0.32 
  -3   1   0    0.60    0.26 
   3   1   0    0.18    0.32 
   3   1   0    0.20    0.27 
  -4   1   0   45.67    1.85 
   4  -1   0   45.87    1.71 
  -4  -1   0   45.60    1.55 
  -4   1   0   48.14    1.60 
  -5   1   0   -0.13    0.49 
  -5   1   0    1.13    0.42 
  -5  -1   0    0.07    0.36 
  -6   1   0    6.00    0.72 
  -6  -1   0    5.69    0.70 
  -6   1   0    5.99    0.97 
  -7   1   0    0.40    0.59 
  -7  -1   0    0.48    0.58 
  -8  -1   0    3.74    0.87 
  -8   1   0    3.15    0.87 
  -9   1   0   -0.10    0.90 
  -9  -1   0   -0.01    0.89 
   0   1   1  153.95    3.87 
   0  -1   1  152.70    3.95 
   0   1  -1  146.47    3.96 
   1   1   1    6.72    0.34 
  -1   1  -1    6.37    0.45 
   1   1   1    6.58    0.40 
  -1  -1  -1    7.57    0.39 
  -1   1   1    6.06    0.34 
   1  -1   1    7.24    0.46 
   2   1   1   69.48    2.12 
   2   1   1   74.04    2.24 
   2  -1  -1   71.72    2.14 
  -2  -1   1   76.56    2.09 
  -2   1  -1   72.43    2.27 
   2  -1   1   73.98    2.28 
   2   1  -1   76.72    2.31 
  -2  -1  -1   72.77    2.01 
  -2  -1  -1   75.48    2.22 
  -2   1   1   75.66    2.16 
  -2   1   1   66.90    2.16 
   2  -1   1   73.16    2.17 
   3   1   1    1.70    0.39 
  -3  -1   1    1.11    0.31 
   3  -1  -1    0.99    0.32 
   3   1   1    1.25    0.40 
  -3   1  -1    1.58    0.26 
  -3   1  -1    1.33    0.44 
   3  -1   1    1.10    0.36 
  -3  -1  -1    1.07    0.37 
  -3   1   1    1.00    0.35 
   3  -1   1    0.88    0.39 
  -3  -1  -1    1.42    0.25 
  -3   1   1    1.62    0.35 
  -4  -1   1   52.73    1.79 
  -4   1  -1   55.02    2.10 
   4   1   1   53.86    2.14 
  -4   1  -1   55.66    1.73 
  -4  -1  -1   57.03    1.73 
   4  -1   1   54.01    1.94 
  -4   1   1   53.30    1.84 
  -4  -1  -1   54.19    2.07 
  -4   1   1   51.15    2.00 
  -5   1  -1   29.06    1.19 
  -5   1  -1   27.97    1.60 
   5   1   1   28.87    1.71 
  -5  -1   1   26.24    1.25 
  -5   1   1   28.01    1.53 
  -5   1   1   26.90    1.29 
  -5  -1  -1   27.56    1.19 
  -6  -1   1   75.24    2.63 
  -6   1  -1   76.15    2.55 
  -6  -1  -1   79.33    2.58 
  -6   1   1   76.90    2.68 
  -7  -1   1   -0.01    0.58 
  -7   1  -1    0.27    0.55 
  -7  -1  -1    0.45    0.56 
  -7   1   1    0.19    0.63 
  -8  -1   1   40.63    2.07 
  -8   1   1   39.62    2.04 
  -8  -1  -1   38.21    1.93 
  -9  -1   1    3.67    1.09 
  -9   1   1    3.18    1.09 
   0  -1   2    0.47    0.13 
   0   1  -2    0.24    0.18 
   0  -1   2    0.34    0.14 
   0  -1  -2   -0.03    0.20 
  -1   1  -2   59.90    1.88 
   1   1   2   61.78    1.81 
   1   1   2   61.27    1.75 
  -1  -1   2   61.19    1.76 
   1  -1  -2   59.31    1.85 
  -1  -1  -2   64.75    1.81 
   1  -1   2   62.95    1.82 
   1   1  -2   59.30    1.75 
  -1   1   2   62.79    1.92 
   1  -1   2   63.30    1.86 
   2  -1  -2  301.04    8.26 
  -2   1  -2  308.30    8.37 
  -2  -1   2  325.32    8.19 
   2   1   2  294.19    8.19 
   2   1   2  304.64    8.31 
   2  -1   2  313.30    8.27 
  -2  -1  -2  339.10    8.33 
  -2  -1  -2  300.32    8.05 
  -2   1   2  325.69    8.28 
   2  -1   2  304.51    8.34 
   3  -1  -2  127.94    3.74 
  -3  -1   2  130.95    3.68 
   3   1   2  129.51    3.74 
   3   1   2  129.22    3.90 
  -3   1  -2  129.26    3.95 
  -3   1  -2  128.47    3.47 
  -3  -1  -2  131.30    3.52 
  -3  -1  -2  132.55    3.87 
  -3   1   2  127.97    3.71 
   3  -1   2  130.92    3.93 
   3  -1   2  124.77    3.78 
  -4   1  -2  237.95    6.46 
   4  -1  -2  239.13    6.74 
   4   1   2  250.62    6.80 
  -4  -1   2  251.86    6.70 
  -4   1  -2  254.90    7.38 
  -4   1   2  230.92    6.68 
  -4  -1  -2  244.20    6.51 
   4  -1   2  241.45    6.82 
   5   1   2   45.22    1.94 
  -5   1  -2   42.04    1.54 
  -5  -1   2   45.19    1.76 
  -5   1   2   42.01    1.77 
   5  -1   2   47.34    1.93 
  -5  -1  -2   45.23    1.60 
  -6  -1   2    0.44    0.55 
  -6  -1  -2    0.10    0.44 
  -6   1   2    0.21    0.58 
  -7  -1   2   30.91    1.69 
  -7  -1  -2   30.08    1.53 
  -7   1   2   31.41    1.74 
  -8  -1   2  117.18    4.04 
  -8   1   2  112.38    4.00 
  -9  -1   2   43.88    2.45 
  -9   1   2   41.31    2.41 
   0   1   3    2.68    0.21 
   0  -1   3    2.89    0.29 
   0  -1  -3    2.73    0.34 
   0   1  -3    3.08    0.36 
  -1  -1   3  558.68   15.09 
   1   1   3  603.21   15.17 
  -1   1  -3  588.79   15.33 
   1   1   3  608.85   15.16 
   1  -1  -3  555.76   15.27 
  -1  -1   3  613.97   15.20 
  -1   1   3  610.02   15.37 
  -1  -1  -3  526.15   15.12 
   1   1  -3  567.87   15.19 
  -1  -1  -3  654.27   15.24 
   1  -1   3  591.02   15.25 
   1   1  -3  584.36   15.15 
   1  -1   3  605.89   15.26 
   2   1   3    3.45    0.47 
   2  -1  -3    2.30    0.42 
  -2  -1   3    3.19    0.40 
  -2   1  -3    2.94    0.50 
   2   1   3    3.25    0.40 
  -2  -1  -3    3.78    0.32 
   2  -1   3    2.69    0.43 
  -2   1   3    3.15    0.31 
  -2  -1  -3    4.17    0.49 
  -2   1   3    2.42    0.44 
   2  -1   3    3.22    0.47 
   2   1  -3    2.94    0.41 
   3   1   3    0.23    0.32 
  -3  -1   3    0.63    0.35 
   3  -1  -3    0.23    0.38 
  -3   1  -3    0.59    0.21 
  -3   1   3    0.28    0.35 
   3  -1   3    0.21    0.38 
  -3  -1  -3    0.58    0.23 
   4  -1  -3    0.73    0.49 
   4   1   3    0.35    0.41 
  -4  -1   3    0.39    0.43 
  -4  -1  -3    1.44    0.33 
  -4   1   3    0.51    0.41 
   4  -1   3    0.16    0.49 
   5   1   3  329.39    8.93 
  -5  -1   3  311.31    8.72 
  -5  -1  -3  310.84    8.48 
   5  -1   3  324.07    8.95 
  -5   1   3  311.49    8.74 
  -6  -1   3    0.55    0.57 
   6   1   3    1.02    0.79 
  -6   1   3    0.68    0.62 
  -7  -1   3  304.50    8.81 
  -7   1   3  314.84    8.87 
  -8  -1   3    1.13    0.88 
  -8   1   3    0.35    0.88 
   0  -1   4    0.16    0.23 
   0  -1   4    0.15    0.27 
   0   1  -4    0.19    0.25 
   0   1   4    0.14    0.17 
   0  -1  -4   -0.16    0.27 
   1  -1  -4   70.84    2.26 
   1   1   4   74.25    2.15 
  -1  -1   4   73.31    2.08 
   1   1   4   75.18    2.06 
  -1   1  -4   75.87    2.37 
  -1  -1   4   71.83    2.19 
  -1   1   4   72.53    1.95 
  -1  -1  -4   73.49    2.16 
   1  -1   4   76.14    2.17 
   1   1  -4   74.39    2.22 
  -1   1   4   72.11    2.38 
   1  -1   4   74.76    2.27 
   2   1   4  263.13    7.07 
   2  -1  -4  257.69    7.14 
   2   1   4  267.62    7.06 
  -2  -1   4  241.68    6.86 
  -2  -1   4  254.56    7.02 
   2   1  -4  259.54    7.07 
  -2  -1  -4  254.29    6.89 
   2  -1   4  270.27    7.18 
  -2   1   4  271.12    7.17 
   2  -1   4  262.16    7.13 
  -2   1   4  277.94    6.82 
   3  -1  -4   77.94    2.60 
   3   1   4   80.25    2.56 
  -3  -1   4   77.27    2.50 
  -3   1   4   77.24    2.54 
   3  -1   4   77.93    2.64 
  -4  -1   4  276.53    7.67 
   4   1   4  281.09    7.79 
   4  -1  -4  278.85    7.81 
  -4   1   4  281.12    7.70 
   4  -1   4  272.73    7.88 
  -5  -1   4   53.31    2.14 
   5   1   4   58.14    2.35 
  -5   1   4   55.36    2.18 
   5  -1   4   55.75    2.39 
  -6  -1   4    0.08    0.65 
   6   1   4    0.27    0.78 
   6  -1   4    0.39    0.79 
  -6   1   4    0.63    0.69 
  -7  -1   4   24.93    1.67 
  -7   1   4   26.64    1.76 
  -8  -1   4   88.42    3.42 
  -8   1   4   86.16    3.43 
   0   1   5  105.62    2.81 
   0   1   5  102.62    3.15 
   0  -1   5  102.49    2.98 
   0  -1  -5  101.02    3.03 
   1  -1  -5   13.68    0.88 
  -1  -1   5   14.21    0.80 
  -1  -1   5   15.93    0.70 
   1   1   5   16.21    0.75 
   1   1  -5   15.05    0.84 
   1  -1   5   16.39    0.68 
   1  -1   5   16.84    0.92 
  -1   1   5   14.50    1.00 
  -2  -1   5   40.37    1.37 
   2  -1  -5   42.42    1.67 
   2   1   5   43.17    1.55 
  -2  -1   5   40.19    1.52 
   2  -1   5   44.52    1.71 
  -2   1   5   40.86    1.65 
   2   1  -5   40.65    1.58 
  -2   1   5   44.61    1.27 
  -3  -1   5    1.82    0.51 
   3  -1  -5    1.57    0.57 
  -3   1   5    1.69    0.53 
   3  -1   5    1.93    0.59 
  -4  -1   5   38.70    1.65 
   4  -1  -5   36.19    1.76 
   4   1   5   38.14    1.74 
   4  -1   5   38.02    1.88 
  -4   1   5   37.26    1.67 
   5   1   5    8.81    1.07 
  -5  -1   5   10.82    1.03 
  -5   1   5    7.19    0.90 
   5  -1   5    7.47    1.06 
  -6  -1   5   64.59    2.63 
   6   1   5   70.44    3.03 
  -6   1   5   68.19    2.70 
   6  -1   5   67.23    3.03 
  -7  -1   5    5.57    1.04 
   7   1   5    6.62    1.46 
  -7   1   5    6.13    1.13 
   0  -1   6   -0.02    0.36 
   1   1   6    2.35    0.38 
  -1  -1   6    1.95    0.38 
   1  -1  -6    2.21    0.59 
  -1   1   6    1.33    0.57 
   1  -1   6    2.38    0.52 
  -2  -1   6    6.89    0.79 
  -2  -1   6    7.90    0.58 
   2  -1  -6    7.73    0.81 
   2   1   6    7.72    0.72 
  -2   1   6    7.26    0.78 
   2  -1   6    7.41    0.79 
  -2   1   6    8.56    0.46 
  -3  -1   6    5.34    0.69 
  -3  -1   6    2.21    0.40 
   3  -1  -6    2.47    0.66 
   3   1   6    2.64    0.55 
   3  -1   6    4.43    0.77 
  -3   1   6    1.92    0.32 
  -3   1   6    3.39    0.66 
  -4  -1   6   16.59    0.93 
   4  -1  -6   15.55    1.37 
   4   1   6   16.91    1.25 
  -4  -1   6   15.93    1.23 
   4  -1   6   17.95    1.44 
  -4   1   6   14.57    1.16 
  -5  -1   6    2.54    0.76 
   5   1   6    2.00    0.80 
   5  -1   6    0.97    0.82 
  -5   1   6    0.80    0.72 
   6   1   6    8.18    1.33 
  -6  -1   6    7.61    1.05 
   6  -1   6    7.25    1.32 
  -6   1   6    7.16    1.05 
   7   1   6    0.36    1.20 
  -7  -1   6    0.29    0.87 
  -7   1   6    0.27    0.94 
   7  -1   6   -0.05    1.23 
   0  -1   7   43.98    1.62 
  -1  -1   7    0.45    0.40 
   1   1   7    0.78    0.31 
   1  -1   7    0.23    0.44 
   2   1   7   55.73    1.90 
  -2  -1   7   56.13    1.83 
   2  -1   7   56.60    2.11 
   3  -1  -7    2.03    0.75 
   3   1   7    1.83    0.56 
  -3  -1   7    1.64    0.41 
  -3   1   7    2.06    0.66 
   3  -1   7    2.16    0.69 
  -4  -1   7   32.42    2.11 
   4  -1  -7   30.17    1.76 
   4   1   7   29.66    1.61 
  -4  -1   7   31.07    1.32 
   4  -1   7   30.37    1.80 
  -4   1   7   30.60    1.21 
  -4   1   7   28.86    1.63 
  -5  -1   7    8.12    0.79 
  -5  -1   7    8.05    1.05 
   5   1   7    5.93    1.02 
  -5   1   7    7.30    1.02 
   5  -1   7    6.97    1.15 
  -6  -1   7   31.92    1.63 
   6   1   7   33.49    2.28 
  -6  -1   7   33.17    2.04 
   6  -1   7   29.15    2.28 
  -6   1   7   32.11    1.95 
   0  -1   8    0.12    0.40 
   1   1   8   31.06    1.13 
  -1  -1   8   33.39    1.25 
   1  -1   8   34.53    1.41 
   2   1   8  100.29    3.11 
  -2  -1   8  111.23    3.08 
   2  -1   8  105.46    3.36 
   3   1   8   40.86    1.74 
  -3  -1   8   43.42    1.56 
   3  -1   8   47.79    1.98 
  -4  -1   8   70.17    2.29 
   4   1   8   68.91    2.60 
   4  -1   8   69.60    2.74 
  -4   1   8   69.06    2.12 
  -5  -1   8   28.33    1.40 
   5   1   8   29.42    1.85 
   5  -1   8   27.10    1.94 
  -5   1   8   27.65    1.29 
   0  -1   9    0.20    0.36 
   1  -1   9  209.05    5.73 
   2   1   9    1.66    0.48 
   2  -1   9    1.97    0.56 
   3   1   9    0.64    0.55 
  -3  -1   9    1.06    0.41 
   3  -1   9    0.18    0.57 
   0  -2   0  128.97    3.47 
   0   2   0  131.99    3.48 
   1  -2   0    0.04    0.17 
  -1   2   0    0.09    0.19 
   2  -2   0   38.16    1.28 
  -2  -2   0   42.34    1.24 
   2  -2   0   42.70    1.46 
  -2   2   0   41.57    1.45 
  -2   2   0   41.46    1.31 
  -3  -2   0    0.35    0.23 
   3  -2   0    0.31    0.26 
  -3   2   0    0.28    0.26 
  -3   2   0   -0.11    0.33 
   3   2   0    0.13    0.37 
  -4   2   0   26.31    1.40 
  -4   2   0   28.10    1.15 
   4   2   0   27.77    1.34 
  -4  -2   0   28.49    1.10 
  -5   2   0    0.60    0.41 
  -5  -2   0    0.32    0.37 
  -5   2   0    0.10    0.53 
  -6   2   0   37.23    1.63 
  -6   2   0   33.40    1.94 
  -6  -2   0   35.68    1.55 
  -7  -2   0    0.62    0.58 
  -7   2   0    0.24    0.62 
  -8   2   0   11.31    1.22 
  -8  -2   0   15.14    1.34 
  -9  -2   0    0.18    0.88 
   0  -2   1    1.09    0.23 
   0   2   1    0.95    0.20 
   0   2  -1    1.41    0.25 
  -1  -2   1   31.80    0.90 
  -1   2  -1   27.05    1.05 
   1  -2  -1   26.92    0.98 
   1  -2   1   28.49    1.04 
  -1   2   1   28.02    0.94 
   2  -2  -1    2.08    0.36 
  -2  -2   1    1.15    0.23 
  -2   2  -1    1.31    0.38 
   2   2   1    2.30    0.39 
   2  -2   1    0.91    0.36 
  -2  -2  -1    0.82    0.18 
  -2   2   1    2.06    0.35 
   2  -2   1    1.14    0.31 
  -2   2   1    2.73    0.43 
  -3  -2   1   90.13    2.60 
   3  -2  -1   88.85    2.71 
   3   2   1   92.50    2.88 
  -3   2  -1   86.78    2.88 
  -3   2  -1   88.69    2.53 
  -3  -2  -1   90.86    2.55 
   3  -2   1   91.68    2.91 
  -3   2   1   88.42    2.69 
   3  -2   1   91.17    2.75 
  -3   2   1   87.04    2.80 
  -4   2  -1    0.31    0.49 
   4   2   1   -0.02    0.39 
   4  -2  -1    1.09    0.41 
  -4   2  -1    0.32    0.28 
   4   2   1    0.35    0.61 
  -4  -2   1    0.17    0.30 
  -4   2   1    0.92    0.46 
   4  -2   1    0.54    0.43 
  -4   2   1    1.15    0.40 
  -4  -2  -1    1.48    0.32 
  -5   2  -1   16.24    0.90 
   5   2   1   13.39    1.14 
  -5   2  -1   14.54    1.27 
  -5  -2   1   13.74    0.86 
  -5   2   1   14.75    1.01 
  -5   2   1   15.35    1.18 
  -5  -2  -1   15.15    0.86 
  -6  -2   1    5.44    0.74 
  -6   2  -1    4.01    0.64 
  -6   2   1    4.64    0.92 
  -6   2   1    5.48    0.77 
  -6  -2  -1    3.94    0.59 
  -7   2  -1   16.69    1.25 
  -7  -2   1   15.79    1.26 
  -7   2   1   16.10    1.32 
  -7  -2  -1   16.81    1.24 
  -8  -2   1    0.24    0.76 
  -8   2   1    0.25    0.80 
  -8  -2  -1    1.37    0.79 
  -9  -2   1   21.03    1.74 
  -9  -2  -1   18.16    1.61 
  -9   2   1   17.52    1.64 
   0   2   2  114.70    3.09 
   0  -2   2  116.27    3.20 
   0   2  -2  118.66    3.31 
   0  -2  -2  118.79    3.25 
   0  -2   2  126.09    3.25 
  -1   2  -2    0.65    0.31 
   1   2   2    0.25    0.15 
  -1  -2   2    0.11    0.15 
  -1  -2   2    0.37    0.17 
   1  -2  -2    0.43    0.28 
   1   2   2    0.82    0.23 
  -1  -2  -2    0.16    0.17 
  -1   2   2    0.67    0.18 
   1  -2   2    0.44    0.26 
  -2   2  -2    6.34    0.69 
   2  -2  -2    6.02    0.54 
   2   2   2    5.70    0.47 
   2   2   2    6.68    0.59 
  -2  -2   2    6.63    0.47 
   2  -2   2    6.16    0.58 
   2  -2   2    7.21    0.64 
  -2  -2  -2    6.21    0.39 
  -2   2   2    6.35    0.62 
  -2   2   2    6.55    0.48 
  -3   2  -2    3.54    0.59 
  -3   2  -2    4.23    0.35 
   3   2   2    3.42    0.56 
   3   2   2    3.46    0.46 
  -3  -2   2    4.17    0.44 
  -3   2   2    4.36    0.52 
   3  -2   2    4.84    0.60 
   3  -2   2    4.33    0.62 
  -3  -2  -2    4.13    0.40 
  -3   2   2    7.17    0.67 
   4   2   2   14.62    1.00 
  -4   2  -2   16.62    0.73 
   4  -2  -2   15.81    1.03 
  -4   2  -2   14.49    1.39 
  -4  -2   2   15.22    0.88 
   4  -2   2   14.33    1.05 
  -4   2   2   15.27    0.94 
  -4  -2  -2   16.70    0.77 
  -4   2   2   14.99    1.01 
   5   2   2    0.37    0.52 
  -5  -2   2    0.28    0.44 
  -5   2  -2    0.43    0.35 
  -5   2   2    0.08    0.50 
   5  -2   2    0.02    0.52 
  -5  -2  -2    0.71    0.39 
  -6  -2   2   55.02    2.18 
  -6  -2  -2   61.92    2.14 
  -6   2   2   60.41    2.33 
  -7  -2   2    2.40    0.76 
  -7  -2  -2    3.91    0.75 
  -7   2   2    1.85    0.79 
  -8  -2   2    1.53    0.85 
  -8   2   2    1.23    0.90 
  -9  -2   2    2.98    1.10 
  -9   2   2    3.99    1.16 
   0   2   3    0.13    0.09 
   0  -2   3    0.05    0.19 
   0  -2   3    0.48    0.19 
   0  -2  -3    0.46    0.26 
   0   2  -3    0.12    0.28 
   1  -2  -3   12.66    0.70 
   1   2   3   10.89    0.49 
  -1  -2   3   12.08    0.54 
   1   2   3   12.41    0.57 
  -1   2  -3   10.69    0.77 
  -1  -2   3   12.02    0.56 
  -1  -2  -3   12.46    0.59 
   1  -2   3   11.96    0.66 
  -1   2   3   10.96    0.80 
  -1   2   3   12.47    0.42 
   1  -2   3   12.44    0.68 
   1   2  -3   11.82    0.62 
  -2   2  -3    1.91    0.49 
  -2  -2   3    1.28    0.31 
   2   2   3    1.63    0.39 
   2  -2  -3    1.33    0.39 
   2   2   3    1.48    0.28 
  -2  -2  -3    1.43    0.36 
  -2  -2  -3    1.64    0.27 
  -2   2   3    1.60    0.47 
   2  -2   3    1.41    0.40 
   2  -2   3    1.82    0.40 
  -2   2   3    1.46    0.25 
  -3  -2   3   79.67    2.44 
   3  -2  -3   76.93    2.57 
   3   2   3   74.79    2.46 
  -3   2   3   80.12    2.57 
   3  -2   3   80.23    2.62 
  -3  -2  -3   79.26    2.29 
   4   2   3    4.75    0.66 
   4  -2  -3    4.28    0.68 
  -4  -2   3    4.23    0.56 
  -4  -2  -3    6.47    0.57 
  -4   2   3    3.77    0.62 
   4  -2   3    6.10    0.81 
   5  -2  -3    0.82    0.60 
   5   2   3    1.09    0.62 
  -5  -2   3    0.46    0.45 
  -5   2   3    1.46    0.57 
   5  -2   3    0.54    0.60 
  -5  -2  -3    1.63    0.44 
  -6  -2   3    1.55    0.63 
   6   2   3    1.59    0.76 
  -6   2   3    1.95    0.66 
  -7  -2   3   15.00    1.30 
  -7   2   3   15.62    1.36 
  -8  -2   3    1.33    0.92 
  -8   2   3    0.80    0.90 
   0  -2   4   52.00    1.55 
   0   2  -4   52.65    1.82 
   0   2  -4   50.83    1.55 
   0  -2  -4   56.99    1.77 
   0  -2   4   53.36    1.69 
   1  -2  -4   11.53    0.77 
   1   2   4   12.26    0.48 
  -1  -2   4   10.48    0.60 
  -1  -2   4   11.64    0.58 
   1   2   4   11.05    0.52 
   1   2  -4   10.87    0.70 
   1  -2   4   11.28    0.65 
  -1   2   4   13.03    0.92 
   1   2  -4   11.58    0.62 
  -1  -2  -4   11.43    0.65 
   1  -2   4   11.92    0.75 
   2   2   4   13.70    0.79 
  -2  -2   4   12.32    0.64 
   2   2   4   12.30    0.69 
   2  -2  -4   14.09    0.87 
  -2  -2   4   13.99    0.76 
  -2   2   4   13.31    0.58 
  -2   2   4   13.16    0.96 
  -2  -2  -4   13.97    0.70 
   2  -2   4   13.96    0.92 
   3   2   4    0.77    0.37 
  -3  -2   4    0.30    0.38 
   3  -2  -4    0.21    0.46 
   3  -2   4    1.04    0.51 
  -3  -2  -4    0.35    0.30 
  -3   2   4    0.68    0.49 
   4  -2  -4   30.67    1.57 
   4   2   4   34.02    1.54 
  -4  -2   4   30.47    1.42 
  -4   2   4   31.00    1.49 
   4  -2   4   31.27    1.69 
  -5  -2   4    4.66    0.72 
   5  -2  -4    3.98    0.83 
   5   2   4    4.67    0.82 
   5  -2   4    6.31    1.01 
  -5   2   4    5.44    0.82 
  -6  -2   4   48.18    2.12 
   6   2   4   50.78    2.48 
  -6   2   4   51.51    2.22 
   6  -2   4   48.52    2.49 
  -7  -2   4    4.29    0.91 
  -7   2   4    4.39    1.00 
  -8  -2   4    1.28    0.96 
  -8   2   4    0.95    0.96 
   0  -2   5    0.25    0.32 
   0  -2  -5    0.09    0.36 
   1   2   5   45.72    1.41 
  -1  -2   5   44.55    1.60 
  -1  -2   5   47.67    1.53 
   1  -2  -5   45.68    1.67 
   1  -2   5   45.03    1.71 
  -1   2   5   44.62    1.83 
  -1  -2  -5   46.53    1.61 
  -2  -2   5   15.44    0.78 
  -2  -2   5   14.15    0.86 
   2   2   5   14.74    0.80 
   2  -2  -5   15.53    0.99 
   2  -2   5   16.53    1.11 
  -2   2   5   15.08    1.09 
  -2   2   5   18.73    0.64 
  -3  -2   5   39.56    1.59 
  -3  -2   5   41.28    1.44 
   3   2   5   39.35    1.57 
   3  -2  -5   39.19    1.71 
   3  -2   5   40.71    1.85 
  -3   2   5   39.76    1.72 
  -4  -2   5    8.90    0.86 
   4  -2  -5    9.73    1.00 
   4   2   5    8.22    0.86 
  -4   2   5    9.43    0.94 
   4  -2   5   14.91    1.30 
   5   2   5   16.08    1.38 
  -5  -2   5   15.67    1.22 
   5  -2  -5   16.32    1.38 
   5  -2   5   14.06    1.41 
  -5   2   5   16.63    1.27 
   6   2   5    2.90    0.99 
  -6  -2   5    3.53    0.85 
  -6   2   5    2.44    0.83 
   6  -2   5    2.50    1.01 
   7   2   5   27.40    2.28 
  -7  -2   5   23.56    1.72 
  -7   2   5   28.13    1.87 
   0  -2   6   60.56    2.07 
   1   2   6   12.71    0.59 
  -1  -2   6   11.19    0.77 
   1  -2  -6   11.47    0.94 
   1  -2   6   11.43    0.97 
  -1   2   6   12.71    1.14 
   2  -2  -6   39.02    1.67 
   2   2   6   39.68    1.41 
  -2  -2   6   38.54    1.42 
   2  -2   6   39.96    1.77 
  -2   2   6   37.85    1.73 
   3  -2  -6    1.47    0.61 
  -3  -2   6    1.41    0.40 
  -3  -2   6    1.66    0.56 
   3   2   6    1.64    0.49 
  -3   2   6    1.69    0.62 
   3  -2   6    1.69    0.68 
   4   2   6   33.67    1.64 
  -4  -2   6   32.98    1.39 
   4  -2  -6   31.58    1.75 
  -4  -2   6   32.54    1.57 
   4  -2   6   32.92    1.95 
  -4   2   6   33.08    1.70 
  -5  -2   6    8.54    0.83 
  -5  -2   6    8.63    1.02 
   5  -2  -6    9.37    1.15 
   5   2   6   10.09    1.13 
  -5   2   6    9.09    1.04 
   5  -2   6    8.96    1.26 
  -6  -2   6   33.70    1.90 
   6   2   6   35.78    2.28 
  -6   2   6   37.72    2.01 
   6  -2   6   36.28    2.40 
   7   2   6    1.33    1.21 
  -7  -2   6    2.28    0.98 
  -7   2   6    1.83    1.01 
   7  -2   6    2.67    1.37 
   0  -2   7   -0.04    0.45 
   1   2   7   22.79    0.86 
  -1  -2   7   21.45    1.12 
   1  -2   7   22.93    1.31 
  -2  -2   7    7.02    0.65 
   2   2   7    6.65    0.65 
   2  -2   7    7.69    0.89 
  -2   2   7    7.23    1.01 
   3   2   7   78.47    2.56 
  -3  -2   7   78.54    2.46 
   3  -2  -7   74.14    2.78 
  -3   2   7   77.72    2.79 
   3  -2   7   77.03    2.91 
  -3   2   7   74.37    2.16 
   4  -2  -7    2.11    0.84 
   4   2   7    2.56    0.68 
  -4  -2   7    2.76    0.55 
   4  -2   7    2.75    0.93 
  -4   2   7    3.20    0.83 
  -4   2   7    2.69    0.42 
   5  -2  -7   17.86    1.61 
  -5  -2   7   17.18    1.18 
  -5  -2   7   15.79    1.39 
   5   2   7   16.52    1.51 
   5  -2   7   18.52    1.66 
  -5   2   7   16.60    1.42 
   6   2   7   -0.06    0.93 
  -6  -2   7    0.69    0.86 
  -6  -2   7    0.48    0.63 
   6  -2   7    0.48    1.11 
  -6   2   7    0.72    0.91 
   0  -2   8  131.58    3.92 
  -1  -2   8    3.29    0.58 
   1  -2   8    2.28    0.61 
   2   2   8    7.13    0.62 
  -2  -2   8    7.16    0.69 
   2  -2   8    7.24    0.86 
  -3  -2   8    0.28    0.45 
   3   2   8   -0.04    0.47 
   3  -2   8    0.25    0.69 
   4   2   8    7.76    0.90 
  -4   2   8    7.97    0.58 
   4  -2   8    8.57    1.15 
  -5  -2   8    4.49    0.73 
   5   2   8    4.96    0.96 
   5  -2   8    3.67    1.10 
  -5   2   8    2.89    1.03 
  -5   2   8    4.71    0.60 
   0  -2   9    0.27    0.47 
  -1  -2   9    5.24    0.61 
   1  -2   9    5.94    0.71 
  -2  -2   9    2.39    0.52 
   2  -2   9    1.99    0.68 
  -3  -2   9   89.71    2.70 
   3  -2   9   84.02    3.07 
   0   3   0    0.39    0.23 
   0  -3   0    0.04    0.18 
   1  -3   0    0.41    0.24 
  -1  -3   0    0.49    0.15 
  -1   3   0    0.35    0.23 
  -2  -3   0  419.21   11.28 
  -2   3   0  458.17   11.44 
  -2   3   0  451.35   11.58 
   2  -3   0  414.58   11.36 
   2  -3   0  446.17   11.55 
   3  -3   0    0.63    0.30 
  -3   3   0   -0.07    0.35 
   3   3   0    0.09    0.40 
  -3   3   0    0.29    0.29 
  -4   3   0  306.68    8.24 
  -4   3   0  308.48    8.60 
  -4  -3   0  310.05    8.19 
   4  -3   0  306.26    8.24 
  -5   3   0   -0.11    0.42 
  -5  -3   0    0.37    0.37 
  -5   3   0   -0.01    0.55 
  -6   3   0    1.22    0.76 
  -6   3   0    0.90    0.57 
  -6  -3   0    1.09    0.51 
  -7   3   0    0.88    0.65 
  -7  -3   0    0.43    0.57 
  -8  -3   0  207.60    6.10 
  -8   3   0  193.86    6.04 
  -9  -3   0    0.48    0.91 
   0  -3  -1  122.49    3.43 
   0  -3  -1  131.49    3.43 
   0   3  -1  132.36    3.55 
   0  -3   1  120.14    3.43 
   0   3   1  133.43    3.45 
   0  -3   1  129.07    3.52 
   1  -3  -1  214.35    5.71 
  -1  -3   1  212.86    5.63 
  -1  -3   1  215.22    5.56 
   1  -3  -1  204.73    5.79 
  -1   3  -1  222.13    5.85 
   1  -3   1  207.61    5.69 
  -1  -3  -1  216.32    5.60 
  -1   3   1  220.07    5.71 
   1  -3   1  215.26    5.81 
   2  -3  -1  230.48    6.41 
  -2  -3   1  245.99    6.27 
   2   3   1  246.35    6.50 
  -2   3  -1  240.85    6.59 
   2  -3   1  242.75    6.56 
  -2  -3  -1  238.61    6.27 
  -2   3   1  236.31    6.50 
  -2   3   1  228.76    6.43 
   3  -3  -1    0.20    0.31 
  -3  -3   1   -0.02    0.21 
  -3   3  -1    1.99    0.47 
   3   3   1    1.36    0.46 
  -3   3  -1    0.48    0.25 
   3  -3   1    0.10    0.33 
  -3   3   1   -0.13    0.30 
   3  -3   1    0.98    0.44 
   3  -3   1    0.22    0.22 
  -3   3   1    0.15    0.33 
  -3  -3  -1    0.99    0.26 
   4  -3  -1   99.64    3.10 
  -4  -3   1   99.88    2.96 
  -4   3  -1   97.96    2.90 
  -4   3  -1   96.81    3.38 
  -4   3   1   98.89    3.26 
   4  -3   1  103.45    3.19 
  -4   3   1   97.01    3.06 
  -4  -3  -1  105.72    2.94 
  -5   3  -1  163.13    5.38 
  -5   3  -1  169.14    4.88 
  -5  -3   1  178.03    4.96 
  -5   3   1  175.06    5.32 
  -5   3   1  175.75    5.06 
  -5  -3  -1  182.20    4.93 
  -6   3  -1   62.71    2.22 
  -6  -3   1   64.06    2.32 
  -6   3   1   63.71    2.69 
  -6   3   1   63.03    2.39 
  -6  -3  -1   66.56    2.28 
  -7  -3   1   86.40    3.07 
  -7  -3  -1   89.80    3.03 
  -7   3   1   85.76    3.13 
  -8  -3   1   81.43    3.08 
  -8   3   1   77.66    3.10 
  -8  -3  -1   80.24    3.04 
  -9  -3   1    1.53    0.98 
  -9  -3  -1    0.51    0.96 
  -9   3   1   -0.02    0.97 
   0  -3  -2    0.34    0.22 
   0  -3   2    0.41    0.20 
   0   3  -2    0.09    0.24 
   0  -3   2    0.31    0.18 
   0   3   2    0.99    0.18 
  -1  -3   2  237.03    6.17 
  -1  -3   2  242.96    6.10 
  -1   3  -2  229.81    6.41 
   1   3   2  241.93    6.22 
   1  -3  -2  226.47    6.28 
   1  -3   2  231.98    6.26 
   1   3  -2  233.55    6.26 
  -1  -3  -2  231.33    6.16 
  -1   3   2  231.56    6.13 
   1  -3   2  236.23    6.34 
   2   3   2    5.14    0.56 
  -2  -3   2    5.50    0.41 
  -2   3  -2    4.30    0.61 
   2   3   2    5.17    0.48 
   2  -3  -2    4.97    0.54 
   2  -3   2    5.69    0.62 
  -2  -3  -2    5.65    0.40 
   2  -3   2    6.30    0.60 
  -2   3   2    4.85    0.48 
  -2   3   2    4.67    0.62 
  -3  -3   2  119.77    3.32 
  -3   3  -2  115.05    3.71 
   3   3   2  111.20    3.56 
  -3   3  -2  118.83    3.14 
   3   3   2  115.29    3.42 
  -3   3   2  113.94    3.45 
   3  -3   2  117.29    3.51 
   3  -3   2  117.28    3.66 
  -3  -3  -2  116.79    3.25 
  -3   3   2  117.75    3.51 
   4   3   2    0.86    0.43 
   4  -3  -2    0.22    0.47 
  -4  -3   2    0.61    0.36 
  -4   3  -2    0.26    0.26 
  -4   3   2    0.58    0.45 
   4  -3   2    0.22    0.47 
  -4  -3  -2    0.60    0.32 
  -4   3   2    0.40    0.43 
   5   3   2  161.44    5.03 
   5  -3  -2  165.61    4.99 
  -5  -3   2  168.83    4.81 
  -5  -3  -2  166.08    4.70 
  -5   3   2  161.94    4.87 
  -5   3   2  170.17    5.09 
  -6  -3   2    1.16    0.61 
  -6   3   2    1.89    0.71 
  -6   3   2    2.07    0.77 
  -6  -3  -2    1.89    0.54 
  -7  -3   2   33.63    1.75 
  -7   3   2   30.31    1.81 
  -7  -3  -2   33.23    1.64 
  -8  -3   2    4.54    1.00 
  -8  -3  -2    5.69    0.98 
  -8   3   2    6.69    1.11 
  -9  -3   2   38.09    2.27 
  -9   3   2   38.16    2.44 
   0  -3   3    7.11    0.49 
   0  -3  -3    8.48    0.56 
   0  -3   3    7.27    0.51 
   0   3   3    6.90    0.31 
   0   3  -3    6.02    0.61 
   1   3   3   20.03    0.80 
  -1  -3   3   21.08    0.74 
  -1   3  -3   18.36    1.05 
   1  -3  -3   19.89    0.94 
  -1  -3   3   19.50    0.79 
   1  -3   3   20.25    0.93 
  -1  -3  -3   20.52    0.82 
  -1   3   3   21.55    0.71 
   1  -3   3   19.20    0.90 
   1   3  -3   19.53    0.90 
   2   3   3    8.03    0.54 
  -2  -3   3    7.29    0.52 
  -2  -3   3    6.69    0.50 
   2  -3  -3    7.46    0.68 
   2   3   3    8.13    0.69 
  -2   3  -3    7.29    0.77 
  -2  -3  -3    8.62    0.53 
  -2   3   3    8.64    0.81 
   2  -3   3    8.74    0.76 
  -2   3   3    9.21    0.55 
   2  -3   3    7.58    0.70 
  -3  -3   3    1.23    0.36 
   3  -3  -3    1.36    0.48 
   3   3   3    0.97    0.37 
   3  -3   3    1.13    0.48 
  -3   3   3    1.28    0.52 
  -3  -3  -3    0.74    0.29 
   4  -3  -3    1.30    0.52 
   4   3   3    2.25    0.52 
  -4  -3  -3    1.44    0.36 
  -4   3   3    1.33    0.50 
   4  -3   3    1.70    0.58 
   5   3   3   11.58    1.10 
  -5  -3   3   11.12    0.94 
   5  -3  -3   10.24    1.00 
  -5   3   3   11.79    0.98 
  -5  -3  -3   10.93    0.83 
   5  -3   3   10.97    1.18 
   6   3   3    3.18    0.85 
  -6  -3   3    4.49    0.79 
  -6  -3  -3    4.06    0.69 
  -6   3   3    6.69    0.93 
  -7  -3   3   17.63    1.46 
  -7   3   3   18.45    1.55 
  -8  -3   3    1.02    0.88 
  -8   3   3    0.52    0.97 
   0  -3  -4    0.35    0.33 
   0  -3   4    0.06    0.26 
  -1  -3   4   84.62    2.51 
  -1  -3   4   85.95    2.43 
   1   3   4   85.96    2.33 
   1  -3  -4   84.79    2.64 
   1   3   4   86.20    2.38 
   1   3   4   87.32    2.29 
   1  -3   4   84.83    2.65 
   1  -3   4   84.45    2.59 
  -1  -3  -4   83.14    2.54 
  -1   3   4   84.21    2.80 
  -2  -3   4    3.58    0.41 
  -2  -3   4    3.67    0.45 
   2   3   4    3.64    0.52 
   2   3   4    3.06    0.39 
   2  -3  -4    3.76    0.55 
  -2   3   4    2.69    0.65 
   2  -3   4    4.02    0.61 
  -2   3   4    3.54    0.36 
  -2  -3  -4    4.07    0.45 
  -3  -3   4   38.76    1.48 
   3  -3  -4   40.80    1.67 
   3   3   4   36.25    1.49 
  -3  -3   4   41.11    1.44 
  -3   3   4   40.04    1.72 
  -3  -3  -4   40.03    1.40 
   3  -3   4   36.63    1.73 
   4  -3  -4    4.58    0.74 
  -4  -3   4    4.52    0.63 
   4   3   4    5.80    0.74 
  -4  -3  -4    7.13    0.62 
   4  -3   4    3.98    0.78 
  -4   3   4    4.58    0.73 
  -5  -3   4   75.40    2.66 
   5   3   4   73.31    2.83 
   5  -3  -4   75.03    2.84 
   5  -3   4   75.61    3.05 
  -5   3   4   77.97    2.76 
  -6  -3   4    3.01    0.77 
   6   3   4    2.82    0.90 
  -6   3   4    3.77    0.80 
  -7  -3   4   19.98    1.56 
  -7   3   4   23.81    1.72 
  -8  -3   4    1.01    0.91 
  -8   3   4    1.61    1.02 
   0  -3  -5   49.03    1.76 
   0  -3   5   48.57    1.74 
   1   3   5  203.59    5.10 
   1  -3  -5  190.81    5.41 
  -1  -3   5  191.50    5.30 
   1  -3   5  183.37    5.46 
  -1   3   5  193.18    5.61 
  -1  -3  -5  188.46    5.32 
   2   3   5  104.81    3.03 
   2  -3  -5  103.09    3.25 
  -2  -3   5  104.58    3.08 
  -2  -3   5  100.23    3.05 
  -2   3   5   98.83    3.42 
  -2  -3  -5  103.84    3.11 
   2  -3   5  104.33    3.40 
  -2   3   5  112.81    2.88 
   3   3   5    0.88    0.41 
  -3  -3   5    1.15    0.37 
   3  -3  -5    0.71    0.54 
  -3  -3   5    0.82    0.46 
  -3   3   5    1.04    0.60 
   3  -3   5    0.47    0.59 
  -4  -3   5   37.42    1.51 
   4  -3  -5   36.10    1.76 
  -4  -3   5   40.56    1.68 
   4   3   5   35.64    1.70 
   4  -3   5   34.97    1.95 
  -4   3   5   38.61    1.78 
   5   3   5  100.65    3.59 
  -5  -3   5  107.13    3.44 
   5  -3  -5  104.02    3.61 
   5  -3   5  100.46    3.89 
  -5   3   5  104.88    3.52 
   6  -3  -5   28.12    1.87 
   6   3   5   28.87    1.96 
  -6  -3   5   30.15    1.67 
  -6   3   5   22.91    1.67 
   6  -3   5   25.73    2.14 
  -7  -3   5  105.82    3.83 
   7   3   5  110.68    4.40 
  -7   3   5  114.28    4.01 
   0   3   6    1.35    0.68 
   0  -3  -6    0.25    0.46 
   0  -3   6    1.15    0.47 
   1  -3  -6    0.08    0.47 
  -1  -3   6    0.36    0.38 
  -1   3   6    0.10    0.64 
   1  -3   6    0.24    0.49 
   2   3   6  300.51    7.82 
   2  -3  -6  284.01    8.06 
  -2  -3   6  290.74    7.92 
  -2   3   6  297.27    8.27 
   2  -3   6  291.83    8.29 
   3  -3  -6    2.08    0.66 
  -3  -3   6    2.24    0.46 
   3   3   6    2.03    0.50 
   3  -3   6    2.37    0.78 
  -3   3   6    2.07    0.70 
   4  -3  -6  276.82    7.84 
   4   3   6  277.82    7.73 
  -4  -3   6  270.33    7.55 
  -4  -3   6  264.22    7.62 
   4  -3   6  270.02    8.11 
  -4   3   6  285.78    7.85 
   5   3   6    0.38    0.67 
   5  -3  -6    0.54    0.77 
  -5  -3   6    0.25    0.49 
  -5  -3   6    0.39    0.66 
  -5   3   6    0.30    0.72 
   5  -3   6    0.21    0.93 
  -6  -3   6    0.98    0.79 
   6   3   6    0.73    0.90 
  -6  -3   6    1.55    0.67 
   6  -3   6    0.73    1.13 
  -6   3   6    0.91    0.88 
  -7  -3   6    1.86    0.85 
  -7  -3   6    2.04    0.98 
   7   3   6    2.81    1.30 
  -7   3   6    4.76    1.17 
   0  -3   7  105.36    3.36 
  -1  -3   7  138.78    4.14 
   1  -3   7  139.95    4.34 
  -2  -3   7   71.83    2.43 
   2   3   7   75.25    2.29 
   2  -3  -7   74.36    2.64 
   2  -3   7   72.82    2.80 
  -2   3   7   74.09    2.77 
  -3  -3   7    0.12    0.43 
   3   3   7    0.44    0.43 
   3  -3  -7    0.37    0.67 
   3  -3   7    0.32    0.70 
  -3   3   7    0.49    0.68 
  -4  -3   7   48.11    1.86 
   4   3   7   44.86    1.96 
   4  -3  -7   46.28    2.16 
   4  -3   7   49.24    2.51 
  -4   3   7   46.55    2.16 
  -5  -3   7  132.43    4.10 
   5   3   7  131.48    4.35 
   5  -3  -7  133.85    4.43 
   5  -3   7  123.62    4.74 
  -5   3   7  136.23    4.40 
   6   3   7   60.21    2.86 
  -6  -3   7   61.36    2.43 
  -6  -3   7   52.33    2.52 
   6  -3   7   58.04    3.22 
  -6   3   7   59.41    2.70 
   0  -3   8    0.31    0.55 
  -1  -3   8   70.24    2.41 
   1  -3   8   68.53    2.59 
  -2  -3   8   11.76    0.99 
   2  -3   8   12.21    1.18 
  -3  -3   8  107.89    3.33 
   3  -3   8  104.33    3.76 
   4  -3  -8    1.19    1.10 
  -4  -3   8    2.13    0.63 
   4  -3   8    1.83    0.98 
  -4   3   8    1.18    0.88 
   5  -3  -8   70.32    3.09 
  -5  -3   8   76.21    2.72 
  -5   3   8   74.33    2.31 
   5  -3   8   72.36    3.34 
  -5   3   8   76.38    3.11 
   0  -3   9   19.61    1.26 
  -1  -3   9    5.00    0.69 
   1  -3   9    4.50    0.78 
  -2  -3   9    4.08    0.65 
   2  -3   9    4.62    0.86 
  -3  -3   9    0.54    0.54 
   3  -3   9   -0.09    0.79 
   0   4   0  119.10    3.28 
   0  -4   0  109.36    3.23 
   0  -4   0  115.64    3.11 
  -1  -4   0    0.13    0.17 
   1  -4   0    0.46    0.31 
  -1   4   0    0.52    0.33 
   1  -4   0    0.04    0.21 
  -2   4   0    7.31    0.67 
  -2  -4   0    6.98    0.43 
   2  -4   0    7.07    0.56 
  -2   4   0    7.14    0.65 
  -3  -4   0   -0.38    0.24 
   3  -4   0    0.04    0.35 
  -3   4   0   -0.02    0.43 
  -3   4   0    0.08    0.37 
  -4   4   0    0.26    0.38 
   4  -4   0    0.28    0.39 
  -4  -4   0    0.49    0.31 
  -4   4   0    0.63    0.54 
  -5   4   0    2.12    0.54 
  -5  -4   0    0.42    0.36 
  -5   4   0    0.72    0.62 
  -6  -4   0   69.39    2.43 
  -6   4   0   69.86    2.93 
  -6   4   0   71.07    2.51 
  -7   4   0    0.05    0.69 
  -7  -4   0    2.02    0.66 
  -8  -4   0   10.33    1.15 
  -9  -4   0    0.57    0.97 
   0  -4   1    0.39    0.24 
   0   4   1    0.36    0.21 
   0  -4   1    0.68    0.21 
   0  -4  -1    0.06    0.17 
   0   4  -1    0.09    0.26 
  -1  -4   1    5.97    0.41 
   1  -4  -1    6.10    0.48 
  -1  -4   1    5.86    0.33 
  -1   4  -1    5.82    0.61 
   1  -4   1    5.83    0.58 
  -1   4   1    5.62    0.49 
  -1  -4  -1    6.73    0.40 
   1  -4   1    5.90    0.49 
   1   4  -1    6.21    0.51 
  -2   4  -1  317.20    8.18 
   2  -4  -1  308.48    8.27 
  -2  -4   1  319.73    8.11 
  -2   4  -1  311.51    8.49 
   2  -4   1  308.45    8.28 
   2  -4   1  290.45    8.10 
  -2   4   1  318.86    8.36 
   2  -4   1  307.57    8.43 
  -2   4   1  306.61    8.38 
  -2  -4  -1  321.17    8.14 
  -3   4  -1    3.28    0.39 
   3   4   1    3.09    0.53 
  -3  -4   1    4.86    0.43 
   3  -4  -1    4.04    0.53 
  -3   4  -1    3.32    0.62 
  -3   4   1    3.02    0.50 
   3  -4   1    2.95    0.36 
  -3  -4  -1    4.21    0.41 
  -3   4   1    3.01    0.55 
   4  -4  -1  250.48    6.83 
  -4   4  -1  243.15    7.12 
  -4   4  -1  235.88    6.59 
  -4  -4   1  249.11    6.65 
   4  -4   1  248.60    6.99 
  -4  -4  -1  244.71    6.63 
  -4   4   1  248.13    6.80 
  -4   4   1  242.16    6.99 
  -5   4  -1    0.14    0.41 
   5  -4  -1    0.64    0.53 
  -5  -4   1    0.32    0.37 
  -5   4  -1    0.47    0.75 
  -5   4   1    0.80    0.58 
  -5  -4  -1    1.47    0.45 
  -5   4   1    0.34    0.49 
  -6  -4   1   16.86    1.11 
  -6   4  -1   15.03    1.20 
  -6   4   1   15.48    1.49 
  -6   4   1   15.37    1.22 
  -6  -4  -1   17.73    1.11 
  -7  -4   1    8.73    0.95 
  -7  -4  -1    9.34    1.00 
  -7   4   1    9.88    1.13 
  -8  -4   1   90.82    3.41 
  -8   4   1   98.09    3.54 
  -8  -4  -1   94.57    3.43 
  -9  -4   1    0.75    0.97 
  -9  -4  -1    0.05    0.92 
  -9   4   1    0.65    1.04 
   0  -4   2  561.93   15.30 
   0  -4   2  583.98   15.38 
   0   4  -2  626.01   15.51 
   0  -4  -2  571.38   15.31 
   0   4   2  623.14   15.27 
  -1  -4   2  341.76    9.24 
  -1   4  -2  354.72    9.53 
  -1  -4   2  367.35    9.13 
   1  -4  -2  349.60    9.34 
   1   4  -2  369.77    9.41 
  -1  -4  -2  342.27    9.22 
   1  -4   2  358.42    9.45 
   1  -4   2  340.21    9.32 
  -1   4   2  361.42    9.24 
   2   4   2   87.48    2.73 
   2  -4  -2   91.09    2.74 
  -2   4  -2   89.84    2.96 
  -2  -4   2   91.40    2.53 
  -2  -4   2   89.05    2.61 
   2  -4   2   87.91    2.86 
   2  -4   2   90.43    2.74 
  -2  -4  -2   91.50    2.56 
  -2   4   2   90.21    2.67 
  -2   4   2   87.34    2.88 
   3  -4  -2   11.02    0.83 
  -3  -4   2   10.89    0.64 
  -3   4  -2   11.36    0.54 
  -3   4  -2   11.21    1.07 
  -3   4   2   10.62    0.87 
   3  -4   2   11.53    1.04 
  -3  -4  -2   12.54    0.65 
   3  -4   2   10.65    0.85 
  -3   4   2   12.34    0.83 
   4  -4  -2   81.54    2.75 
  -4  -4   2   84.51    2.55 
  -4   4   2   74.53    2.72 
  -4   4   2   81.83    2.73 
  -4  -4  -2   83.26    2.50 
   4  -4   2   80.74    2.78 
   5  -4  -2  211.65    6.14 
  -5  -4   2  208.61    5.91 
  -5   4   2  211.82    6.05 
  -5   4   2  206.64    6.19 
  -5  -4  -2  207.19    5.84 
  -6  -4   2  340.32    9.24 
   6  -4  -2  336.86    9.46 
  -6  -4  -2  316.95    9.12 
  -6   4   2  344.10    9.37 
  -7  -4   2  140.25    4.44 
  -7  -4  -2  138.24    4.34 
  -7   4   2  136.52    4.53 
  -8  -4   2   32.88    1.98 
  -8   4   2   41.16    2.30 
  -8  -4  -2   36.38    2.00 
   0   4   3   -0.04    0.17 
   0   4   3   -0.06    0.17 
   0  -4   3    0.32    0.29 
   0  -4  -3   -0.53    0.25 
   0   4  -3   -0.05    0.39 
   0  -4   3    0.10    0.28 
   0   4   3    0.04    0.18 
   1   4   3  203.07    5.18 
  -1  -4   3  202.35    5.13 
   1   4   3  182.95    5.22 
  -1   4  -3  184.43    5.56 
  -1  -4   3  197.55    5.28 
   1  -4  -3  195.56    5.40 
   1   4  -3  194.57    5.43 
   1  -4   3  192.00    5.41 
  -1   4   3  200.80    5.09 
  -1   4   3  189.03    5.16 
   1  -4   3  192.74    5.37 
  -1  -4  -3  198.04    5.28 
  -2  -4   3    4.29    0.41 
  -2   4  -3    2.99    0.65 
   2  -4  -3    4.97    0.59 
   2   4   3    3.38    0.50 
  -2  -4   3    3.54    0.41 
   2  -4   3    4.92    0.61 
  -2   4   3    3.89    0.44 
   2  -4   3    4.29    0.72 
  -2   4   3    6.19    0.79 
  -2  -4  -3    3.83    0.41 
  -2   4   3    3.58    0.38 
   3  -4  -3  891.99   22.82 
  -3  -4   3  827.64   22.62 
  -3  -4   3  931.60   22.62 
   3  -4   3  881.59   22.92 
  -3  -4  -3  800.94   22.54 
  -3   4   3  887.93   22.68 
  -3   4   3  913.26   22.98 
  -4  -4   3    0.77    0.41 
   4  -4  -3    0.60    0.48 
  -4   4   3    0.58    0.49 
   4  -4   3    1.30    0.64 
  -4   4   3    0.94    0.46 
  -4  -4  -3    1.40    0.39 
   5  -4  -3  134.49    4.34 
  -5  -4   3  135.79    4.13 
  -5  -4  -3  136.14    4.01 
  -5   4   3  141.87    4.33 
  -5   4   3  138.09    4.28 
   5  -4   3  130.04    4.44 
   6  -4  -3    2.53    0.82 
  -6  -4   3    2.57    0.69 
  -6  -4  -3    4.15    0.70 
  -6   4   3    2.21    0.74 
  -7  -4   3   89.99    3.28 
  -7  -4  -3   89.08    3.31 
  -7   4   3   93.37    3.42 
  -8  -4   3    0.61    0.84 
  -8   4   3    0.70    1.01 
   0  -4  -4  386.63   10.33 
   0  -4   4  392.38   10.31 
  -1  -4   4  232.93    6.11 
  -1  -4   4  240.15    6.32 
   1   4   4  241.59    6.13 
   1  -4  -4  230.61    6.41 
   1   4   4  236.12    6.07 
  -1  -4  -4  229.84    6.32 
  -1   4   4  216.43    6.05 
   1  -4   4  232.83    6.43 
  -2  -4   4  101.28    3.01 
  -2  -4   4  102.31    2.92 
   2  -4  -4  103.20    3.17 
  -2   4   4  102.48    3.38 
  -2   4   4  103.59    2.91 
  -2  -4  -4  101.57    3.00 
   2  -4   4   96.18    3.21 
  -3  -4   4    2.62    0.44 
  -3  -4   4    2.42    0.44 
   3  -4  -4    2.25    0.55 
   3   4   4    2.46    0.47 
   3  -4   4    2.61    0.65 
  -3   4   4    3.51    0.72 
  -3  -4  -4    2.32    0.43 
  -4  -4   4  101.25    3.10 
  -4  -4   4   99.56    3.06 
   4  -4  -4   99.65    3.27 
   4   4   4   93.20    3.19 
  -4   4   4   98.84    3.30 
   4  -4   4   95.82    3.45 
  -4  -4  -4   97.70    2.97 
  -5  -4   4  133.17    3.93 
   5   4   4  121.99    4.11 
   5  -4  -4  123.34    4.11 
   5  -4   4  122.64    4.32 
  -5  -4  -4  122.75    3.76 
  -5   4   4  127.04    4.07 
  -6  -4   4  282.07    8.03 
   6  -4  -4  286.34    8.25 
  -6   4   4  277.00    8.10 
  -7  -4   4  115.57    4.15 
  -7   4   4  134.35    4.37 
  -8  -4   4   34.06    2.14 
  -8   4   4   37.98    2.39 
   0  -4   5    0.01    0.38 
   0  -4  -5   -0.03    0.41 
   1  -4  -5   16.53    1.00 
  -1  -4   5   16.64    0.93 
  -1  -4  -5   17.21    0.96 
  -1   4   5   13.94    1.20 
   1  -4   5   15.80    1.06 
  -2  -4   5  211.68    5.93 
   2  -4  -5  214.29    6.06 
  -2  -4   5  209.81    6.34 
  -2   4   5  223.48    6.36 
   2  -4   5  208.12    6.20 
  -2  -4  -5  207.38    5.92 
  -2   4   5  225.55    5.95 
  -3  -4   5    0.61    0.42 
   3  -4  -5    0.90    0.49 
  -3  -4   5    1.46    0.42 
   3   4   5    1.14    0.43 
  -3  -4  -5    2.98    0.60 
   3  -4   5    1.58    0.69 
  -3   4   5    1.82    0.67 
  -4  -4   5  184.22    5.31 
   4   4   5  184.99    5.45 
   4  -4  -5  190.04    5.55 
  -4  -4   5  183.76    5.34 
  -4   4   5  185.99    5.60 
   4  -4   5  181.98    5.80 
   5   4   5    1.79    0.74 
  -5  -4   5    0.81    0.62 
   5  -4  -5    1.42    0.77 
  -5  -4   5    0.97    0.52 
   5  -4   5    1.06    0.91 
  -5   4   5    0.50    0.71 
  -6  -4   5   12.00    1.17 
  -6  -4   5   12.18    1.18 
   6  -4  -5   12.81    1.32 
  -6   4   5   10.74    1.18 
   6  -4   5   11.11    1.49 
  -7  -4   5   12.54    1.37 
  -7  -4   5   14.12    1.30 
  -7   4   5   14.37    1.46 
   0  -4  -6  102.59    3.21 
   0  -4   6  100.41    3.24 
   1  -4  -6    2.80    0.62 
  -1  -4   6    2.48    0.53 
  -1  -4  -6    1.92    0.62 
   1  -4   6    2.37    0.64 
  -1   4   6    2.82    0.82 
   2  -4  -6    3.52    0.68 
  -2  -4   6    3.89    0.58 
  -2   4   6    2.93    0.84 
   2  -4   6    3.36    0.79 
  -3  -4   6    2.12    0.50 
   3  -4  -6    2.34    0.67 
   3  -4   6    1.75    0.82 
  -3   4   6    2.67    0.77 
   4  -4  -6    0.35    0.66 
  -4  -4   6    1.01    0.59 
  -4  -4   6    0.44    0.47 
   4  -4   6    1.08    0.84 
  -4   4   6    0.01    0.69 
  -5  -4   6    1.62    0.61 
  -5  -4   6    1.31    0.72 
   5  -4  -6    2.03    0.82 
  -5   4   6    2.18    0.85 
   5  -4   6    2.59    1.12 
   6  -4  -6   71.46    3.01 
  -6  -4   6   66.54    2.75 
  -6  -4   6   73.98    2.76 
  -6   4   6   72.36    2.96 
   6  -4   6   70.01    3.49 
  -7  -4   6    0.61    0.79 
  -7  -4   6    1.57    1.01 
  -7   4   6    0.94    1.02 
   0  -4   7    0.11    0.52 
  -1  -4   7    0.25    0.51 
   1  -4  -7    0.37    0.61 
  -1   4   7    0.59    0.80 
   1  -4   7    0.35    0.60 
  -2  -4   7  118.08    3.58 
   2  -4  -7  117.65    3.68 
   2  -4   7  108.20    3.90 
  -2   4   7  111.80    3.90 
   3  -4  -7    0.89    0.68 
  -3  -4   7    0.16    0.46 
  -3   4   7    0.37    0.77 
   3  -4   7    0.83    0.84 
   4  -4  -7  135.28    4.25 
  -4  -4   7  127.52    3.97 
  -4   4   7  126.56    4.28 
   4  -4   7  124.00    4.56 
   5  -4  -7    0.78    0.87 
  -5  -4   7    0.71    0.61 
  -5   4   7    0.81    0.86 
   5  -4   7    0.13    1.14 
  -6  -4   7    1.09    0.73 
   6  -4  -7    1.08    1.03 
  -6   4   7    0.96    1.00 
   6  -4   7    1.74    1.34 
   0  -4   8  293.77    8.24 
  -1  -4   8  168.21    4.95 
   1  -4   8  163.39    5.13 
  -2  -4   8   22.77    1.33 
   2  -4   8   21.04    1.63 
  -3  -4   8    1.83    0.63 
   3  -4   8    1.75    0.90 
  -3   4   8    2.31    1.01 
  -4  -4   8   18.19    1.27 
   4  -4  -8   18.11    1.65 
  -4   4   8   19.22    1.72 
   4  -4   8   19.65    1.78 
   0  -4   9   -0.16    0.62 
  -1  -4   9   55.09    2.15 
   1  -4   9   56.04    2.34 
  -2  -4   9    2.08    0.65 
   2  -4   9    2.26    0.86 
   0  -5   0    0.17    0.17 
   0  -5   0    0.66    0.29 
   0   5   0    0.18    0.26 
  -1   5   0   -0.06    0.29 
   1  -5   0    0.08    0.21 
  -1  -5   0    0.15    0.17 
   1   5   0    0.22    0.27 
  -2  -5   0  552.54   14.83 
  -2   5   0  590.52   15.20 
   2  -5   0  580.23   14.94 
  -2  -5   0  577.19   14.88 
   3  -5   0    0.30    0.36 
  -3   5   0    0.07    0.40 
  -3  -5   0    0.63    0.27 
  -3   5   0    0.07    0.39 
  -4   5   0  390.84   10.53 
  -4   5   0  403.55   10.91 
  -4  -5   0  391.79   10.44 
   4  -5   0  393.36   10.54 
  -5   5   0    0.13    0.65 
  -5  -5   0    0.16    0.36 
   5  -5   0    0.28    0.49 
  -5   5   0    0.22    0.48 
  -6   5   0    0.77    0.86 
  -6  -5   0    0.30    0.48 
  -6   5   0    0.13    0.59 
  -7   5   0   -0.06    0.71 
  -7  -5   0    0.01    0.59 
  -8  -5   0  303.38    8.75 
   0   5   1  228.40    6.01 
   0  -5   1  219.53    5.94 
   0  -5   1  218.98    6.03 
   0   5  -1  222.09    6.11 
   0  -5   1  221.01    5.79 
   0  -5  -1  222.42    5.90 
  -1  -5   1  331.35    8.80 
   1  -5  -1  327.80    8.93 
  -1   5  -1  349.52    9.21 
  -1  -5   1  333.03    8.91 
   1   5   1  347.07    8.98 
   1  -5   1  336.90    8.80 
   1   5  -1  346.93    9.08 
  -1  -5  -1  330.41    8.85 
   1  -5   1  340.02    9.12 
   1  -5   1  345.35    8.98 
  -1   5   1  352.46    9.07 
  -2   5  -1   63.98    2.29 
  -2  -5   1   63.17    1.85 
   2  -5  -1   59.29    2.01 
  -2   5  -1   62.25    1.98 
  -2  -5   1   67.86    1.96 
  -2  -5  -1   62.11    1.87 
   2  -5   1   59.66    1.89 
  -2   5   1   63.60    2.11 
   2  -5   1   61.19    2.22 
  -3   5  -1   -0.05    0.32 
  -3  -5   1    0.59    0.31 
   3  -5  -1    0.41    0.40 
  -3  -5   1   -0.13    0.23 
  -3   5  -1    0.04    0.50 
   3  -5   1   -0.06    0.36 
   3  -5   1   -0.13    0.29 
  -3   5   1    0.54    0.39 
  -3   5   1    0.19    0.50 
  -3  -5  -1    0.05    0.25 
  -4   5  -1   15.43    1.30 
   4  -5  -1   15.82    1.05 
  -4   5  -1   15.49    0.88 
  -4  -5   1   15.60    0.83 
  -4   5   1   14.95    1.15 
   4  -5   1   15.07    0.85 
  -4  -5  -1   16.79    0.86 
  -4   5   1   14.84    1.05 
   5  -5  -1  282.97    7.67 
  -5  -5   1  274.96    7.44 
  -5   5  -1  249.35    7.35 
  -5   5   1  270.60    7.84 
  -5   5   1  276.98    7.60 
  -5  -5  -1  272.59    7.42 
  -6  -5   1   94.86    3.18 
  -6   5   1   98.00    3.35 
  -6   5   1  100.14    3.64 
  -6  -5  -1   99.54    3.19 
  -7  -5   1  130.14    4.23 
  -7   5   1  135.68    4.38 
  -7  -5  -1  133.45    4.23 
  -8  -5   1   23.96    1.69 
  -8   5   1   23.98    1.83 
  -8  -5  -1   26.96    1.74 
   0  -5   2   -0.04    0.26 
   0  -5  -2   -0.05    0.22 
   0   5  -2   -0.03    0.36 
   0   5   2    0.20    0.23 
   0  -5   2    0.03    0.25 
   0  -5   2    0.29    0.15 
   1  -5  -2   50.69    1.73 
   1   5   2   53.57    1.66 
  -1   5  -2   49.60    1.94 
  -1  -5   2   51.52    1.52 
  -1  -5   2   53.77    1.68 
   1  -5   2   50.58    1.74 
  -1   5   2   52.52    1.68 
   1   5  -2   51.66    1.82 
  -1  -5  -2   53.95    1.65 
   1  -5   2   52.68    1.85 
   2  -5  -2   44.63    1.63 
  -2   5  -2   42.84    1.89 
  -2  -5   2   46.75    1.41 
  -2  -5   2   45.61    1.54 
   2  -5   2   44.79    1.66 
   2  -5   2   44.05    1.79 
  -2  -5  -2   45.90    1.47 
  -2   5   2   43.57    1.58 
  -3  -5   2  145.06    4.26 
  -3   5  -2  150.36    4.75 
  -3  -5   2  150.81    4.19 
   3  -5  -2  153.17    4.41 
  -3   5   2  149.06    4.58 
  -3   5   2  151.02    4.41 
   3  -5   2  151.02    4.47 
  -3  -5  -2  155.65    4.21 
  -4  -5   2   26.19    1.13 
   4  -5  -2   24.48    1.34 
  -4  -5  -2   24.98    1.11 
  -4   5   2   25.61    1.35 
  -4   5   2   25.14    1.39 
   4  -5   2   22.61    1.37 
  -5  -5   2   51.14    1.92 
   5  -5  -2   50.30    2.16 
  -5  -5  -2   52.84    1.90 
  -5   5   2   50.56    2.18 
  -5   5   2   51.59    2.10 
   6  -5  -2    2.47    0.81 
  -6  -5   2    2.12    0.64 
  -6  -5  -2    2.24    0.64 
  -6   5   2    1.91    0.72 
  -7  -5   2    2.25    0.73 
  -7   5   2    3.12    0.95 
  -7  -5  -2    4.70    0.87 
  -8  -5   2   20.66    1.66 
  -8   5   2   20.17    1.82 
  -8  -5  -2   20.16    1.74 
   0  -5   3    4.05    0.48 
   0  -5   3    3.20    0.43 
   0  -5   3    3.72    0.31 
   0  -5  -3    3.98    0.46 
   0   5  -3    3.63    0.59 
   0   5   3    3.61    0.35 
   0   5   3    3.62    0.33 
   1  -5  -3    0.26    0.35 
  -1  -5   3    0.54    0.20 
   1   5   3    0.43    0.29 
  -1   5  -3    0.55    0.49 
  -1  -5   3    0.32    0.28 
   1   5   3    0.47    0.23 
   1  -5   3    0.73    0.37 
   1   5  -3    0.59    0.41 
  -1   5   3    0.62    0.27 
  -1   5   3    0.91    0.25 
   1  -5   3    0.53    0.37 
  -1  -5  -3    0.18    0.28 
  -2  -5   3    1.51    0.35 
   2  -5  -3    1.55    0.44 
   2   5   3    1.41    0.47 
  -2  -5   3    1.90    0.31 
   2  -5   3    1.64    0.46 
  -2   5   3    1.72    0.63 
  -2   5   3    2.20    0.37 
  -2  -5  -3    1.70    0.36 
  -3  -5   3    2.28    0.41 
  -3  -5   3    1.69    0.39 
   3  -5  -3    1.79    0.49 
  -3  -5  -3    2.35    0.41 
  -3   5   3    1.92    0.62 
  -3   5   3    2.20    0.45 
   3  -5   3    1.51    0.53 
   4  -5  -3    0.34    0.46 
  -4  -5   3   -0.01    0.36 
  -4  -5   3    0.41    0.40 
  -4  -5  -3    0.29    0.37 
  -4   5   3    0.37    0.52 
  -4   5   3    0.23    0.43 
   4  -5   3    0.53    0.61 
  -5  -5   3    0.81    0.52 
   5  -5  -3    0.97    0.67 
  -5   5   3    0.97    0.67 
  -5  -5  -3    0.78    0.48 
  -6  -5   3    0.87    0.64 
   6  -5  -3    0.69    0.78 
  -6   5   3    1.45    0.76 
  -6  -5  -3    0.77    0.61 
  -7  -5   3    1.31    0.77 
  -7   5   3    1.55    0.92 
  -7  -5  -3    2.10    0.83 
  -8  -5   3    0.10    0.86 
  -8   5   3   -0.20    1.00 
   0  -5   4   -0.16    0.33 
   0  -5  -4   -0.25    0.36 
  -1  -5   4   29.00    1.16 
   1  -5  -4   28.22    1.30 
   1   5   4   26.97    1.07 
  -1  -5   4   31.14    1.23 
   1   5   4   30.31    1.00 
  -1   5   4   27.06    0.99 
   1  -5   4   31.53    1.35 
  -1  -5  -4   31.75    1.25 
  -2  -5   4   20.18    0.88 
  -2  -5   4   22.22    1.04 
   2  -5  -4   20.16    1.13 
  -2   5   4   21.21    1.40 
   2  -5   4   19.05    1.20 
  -2  -5  -4   20.97    1.00 
  -3  -5   4  203.06    5.52 
   3  -5  -4  203.95    5.74 
  -3  -5   4  199.28    5.62 
  -3   5   4  192.05    5.96 
  -3  -5  -4  199.84    5.53 
   3  -5   4  195.07    5.90 
  -4  -5   4   25.01    1.24 
  -4  -5   4   24.15    1.24 
   4  -5  -4   23.33    1.40 
  -4   5   4   24.75    1.54 
  -4  -5  -4   25.34    1.20 
   4  -5   4   24.84    1.64 
  -5  -5   4   38.36    1.70 
  -5  -5   4   35.71    1.65 
   5  -5  -4   40.69    1.90 
  -5  -5  -4   35.12    1.57 
   5  -5   4   33.42    2.08 
  -5   5   4   36.48    1.86 
  -6  -5   4    2.96    0.79 
  -6  -5   4    2.49    0.69 
   6  -5  -4    3.78    0.96 
  -6   5   4    3.71    0.91 
  -7  -5   4    4.09    0.98 
  -7   5   4    7.89    1.23 
  -8  -5   4    5.21    1.13 
  -8   5   4    4.48    1.23 
   0  -5  -5  220.09    6.13 
   0  -5   5  214.31    6.14 
  -1  -5   5  215.62    5.95 
   1  -5  -5  216.39    6.00 
  -1   5   5  191.11    5.49 
  -1  -5  -5  215.74    5.94 
   1  -5   5  219.71    6.08 
   2  -5  -5   59.13    2.26 
  -2  -5   5   62.65    2.19 
   2   5   5   62.74    1.92 
  -2  -5  -5   69.21    2.25 
   2  -5   5   64.70    2.45 
  -2   5   5   64.68    2.59 
  -3  -5   5    0.12    0.39 
   3  -5  -5    0.23    0.53 
  -3  -5   5    3.19    0.54 
   3  -5   5    0.98    0.69 
  -3   5   5    0.49    0.72 
  -3  -5  -5    0.66    0.48 
  -4  -5   5   20.36    1.18 
   4  -5  -5   20.69    1.35 
  -4  -5   5   18.85    1.17 
  -4   5   5   17.28    1.42 
   4  -5   5   16.96    1.61 
  -5  -5   5  128.72    4.04 
   5  -5  -5  127.42    4.20 
  -5  -5   5  132.27    4.06 
  -5   5   5  126.57    4.24 
   5  -5   5  121.96    4.53 
  -6  -5   5  118.39    3.93 
   6  -5  -5  119.76    4.14 
  -6  -5   5  113.01    3.91 
  -6   5   5  122.47    4.13 
  -7  -5   5  117.66    4.25 
  -7  -5   5  128.33    4.29 
  -7   5   5  126.29    4.44 
   0  -5   6    0.92    0.55 
   0  -5  -6    0.04    0.54 
  -1  -5   6    7.07    0.76 
   1  -5  -6    8.72    0.87 
  -1  -5  -6    7.49    0.83 
   1  -5   6    8.14    0.92 
  -1   5   6    8.99    1.13 
   2  -5  -6  289.79    8.08 
  -2  -5   6  290.35    8.01 
  -2   5   6  294.45    8.43 
   2  -5   6  286.88    8.33 
   3  -5  -6    3.65    0.73 
  -3  -5   6    3.25    0.61 
   3  -5   6    3.51    0.94 
  -3   5   6    3.55    0.89 
  -4  -5   6  252.97    7.18 
   4  -5  -6  257.25    7.36 
   4  -5   6  241.92    7.72 
  -4   5   6  263.72    7.52 
   5  -5  -6    9.10    1.16 
  -5  -5   6    7.38    0.91 
  -5  -5   6    5.72    0.90 
   5  -5   6    5.08    1.30 
  -5   5   6    5.87    1.07 
   6  -5  -6    0.86    0.91 
  -6  -5   6    0.75    0.72 
  -6  -5   6    0.37    0.83 
   6  -5   6    0.47    1.30 
  -6   5   6    0.13    0.92 
   0  -5   7   83.70    3.04 
   0   5   7   95.27    4.48 
  -1  -5   7  120.10    3.89 
   1  -5  -7  126.11    3.90 
   1  -5   7  120.84    4.06 
  -1   5   7  121.83    4.21 
  -2  -5   7    5.67    0.78 
   2  -5  -7    6.24    0.88 
   2  -5   7    5.88    1.04 
  -2   5   7    6.04    1.09 
  -3  -5   7    0.84    0.55 
   3  -5  -7    0.37    0.69 
  -3   5   7    0.42    0.82 
   3  -5   7   -0.17    0.87 
  -4  -5   7    2.96    0.69 
   4  -5  -7    2.93    0.86 
  -4   5   7    2.58    0.94 
   4  -5   7    2.37    1.06 
   5  -5  -7  131.81    4.37 
  -5  -5   7  126.65    4.11 
   5  -5   7  121.82    4.91 
  -5   5   7  127.98    4.41 
   0  -5   8   -0.29    0.63 
  -1  -5   8   11.46    1.08 
   1  -5   8   11.67    1.22 
  -2  -5   8    6.59    0.85 
   2  -5   8    4.93    1.04 
  -3  -5   8   88.54    3.05 
   3  -5  -8   85.87    3.21 
  -3   5   8   88.25    3.38 
   3  -5   8   87.98    3.56 
  -4  -5   8    1.06    0.67 
   4  -5  -8    0.23    0.85 
  -4   5   8    0.74    0.91 
   4  -5   8    1.06    1.07 
   0  -5   9    1.08    0.71 
  -1  -5   9    8.73    0.98 
   1  -5   9    8.18    1.10 
  -2  -5   9    1.95    0.71 
   2  -5   9    2.62    0.95 
   0  -6   0  442.39   11.68 
   0   6   0  460.53   11.96 
  -1   6   0    1.19    0.41 
   1   6   0    1.09    0.36 
  -1  -6   0    0.27    0.21 
   1  -6   0    2.08    0.32 
   2  -6   0    0.65    0.33 
  -2  -6   0    0.86    0.26 
  -2  -6   0    1.17    0.33 
  -3   6   0    0.00    0.45 
  -3  -6   0    0.07    0.30 
  -3   6   0    0.58    0.50 
  -3  -6   0    0.31    0.25 
   3  -6   0    0.28    0.39 
  -4   6   0    4.40    0.81 
  -4  -6   0    1.13    0.38 
   4  -6   0    0.51    0.47 
  -4   6   0    0.50    0.49 
  -5  -6   0    0.40    0.43 
   5  -6   0   -0.07    0.54 
  -5   6   0    0.13    0.53 
  -5   6   0   -0.20    0.67 
  -6   6   0  162.53    4.95 
  -6  -6   0  169.25    4.93 
  -6   6   0  161.84    5.50 
  -7  -6   0    0.26    0.64 
  -8  -6   0    0.67    0.82 
   0  -6  -1   -0.02    0.23 
   0   6  -1    0.22    0.34 
   0  -6   1    0.01    0.25 
   0  -6   1   -0.02    0.18 
   0  -6   1   -0.11    0.29 
   0   6   1    0.05    0.28 
  -1   6  -1    8.89    0.84 
  -1  -6   1    9.34    0.59 
  -1  -6   1    8.95    0.49 
   1   6   1    9.32    0.66 
   1  -6  -1    9.19    0.61 
  -1  -6  -1    8.90    0.54 
   1  -6   1    8.59    0.76 
   1  -6   1    9.39    0.51 
  -1   6   1    8.57    0.71 
   1   6  -1    9.96    0.75 
  -2   6  -1    2.19    0.55 
   2  -6  -1    0.59    0.35 
  -2  -6   1    0.47    0.29 
  -2  -6   1    0.49    0.24 
  -2  -6  -1    0.41    0.24 
  -2   6   1    0.25    0.38 
   2  -6   1    0.57    0.35 
   2  -6   1    0.14    0.31 
  -3   6  -1  211.88    5.99 
  -3  -6   1  225.51    6.00 
   3  -6  -1  218.54    6.07 
  -3  -6   1  220.31    5.90 
  -3   6  -1  216.48    6.42 
  -3   6   1  224.51    6.28 
  -3  -6  -1  223.48    5.93 
   3  -6   1  221.44    6.13 
  -3   6   1  210.76    6.24 
   3  -6   1  202.49    5.90 
  -4   6  -1    0.23    0.40 
   4  -6  -1    1.16    0.51 
  -4  -6   1    0.82    0.36 
  -4  -6   1    0.15    0.33 
  -4   6  -1    0.15    0.62 
  -4   6   1    1.03    0.56 
   4  -6   1    0.14    0.38 
  -4  -6  -1   -0.02    0.33 
  -4   6   1    0.28    0.49 
  -5  -6   1    5.53    0.63 
   5  -6  -1    6.84    0.88 
  -5   6   1    7.06    0.98 
  -5  -6  -1    6.64    0.71 
  -5   6   1    6.60    0.86 
   6  -6  -1    1.98    0.79 
  -6  -6   1    1.08    0.54 
  -6  -6  -1    1.06    0.55 
  -6   6   1    1.39    0.71 
  -7  -6   1   10.98    1.13 
  -7  -6  -1    9.78    1.07 
  -7   6   1   12.53    1.28 
  -8  -6   1    1.07    0.86 
  -8  -6  -1   -0.03    0.80 
  -8   6   1   -0.07    0.96 
   0   6   2   70.89    2.24 
   0   6  -2   68.61    2.46 
   0  -6   2   73.46    2.35 
   0  -6   2   73.17    2.26 
   0  -6   2   73.77    2.01 
   1   6   2    0.83    0.30 
  -1  -6   2    0.65    0.22 
   1  -6  -2    0.52    0.33 
  -1   6  -2    0.98    0.50 
  -1  -6   2    1.03    0.33 
  -1   6   2    0.70    0.32 
   1  -6   2    1.68    0.49 
   1  -6   2    0.57    0.22 
   1  -6   2    0.86    0.34 
  -1  -6  -2    0.76    0.30 
  -2   6  -2   48.56    2.12 
  -2  -6   2   51.56    1.60 
   2  -6  -2   50.52    1.83 
  -2  -6   2   52.37    1.76 
   2  -6   2   53.41    2.03 
  -2  -6  -2   52.17    1.67 
  -2   6   2   50.27    1.81 
   2   6  -2   48.61    1.88 
   2  -6   2   52.60    1.87 
  -3  -6   2    1.90    0.35 
  -3  -6   2    2.49    0.45 
   3  -6  -2    2.42    0.52 
  -3   6  -2    1.78    0.67 
  -3   6   2    3.54    0.73 
  -3   6   2    2.42    0.52 
   3  -6   2    2.60    0.60 
  -3  -6  -2    1.75    0.35 
  -4  -6   2   59.21    1.96 
  -4  -6   2   57.44    2.05 
   4  -6  -2   55.73    2.13 
  -4  -6  -2   60.75    1.99 
  -4   6   2   54.92    2.26 
  -4   6   2   57.44    2.26 
   5  -6  -2    0.04    0.59 
  -5  -6   2    0.32    0.42 
  -5   6   2    0.37    0.63 
  -5  -6  -2    1.55    0.52 
  -5   6   2    0.35    0.62 
  -6  -6   2   42.64    1.86 
   6  -6  -2   44.07    2.15 
  -6  -6  -2   45.42    1.90 
  -6   6   2   44.13    2.07 
  -7  -6   2    0.37    0.69 
  -7  -6  -2    0.37    0.71 
  -7   6   2    0.38    0.84 
  -8  -6   2   14.10    1.39 
  -8   6   2   13.26    1.53 
  -8  -6  -2   12.43    1.34 
   0  -6  -3    0.22    0.33 
   0   6   3    0.16    0.26 
   0  -6   3    0.39    0.21 
   0  -6   3    0.24    0.31 
   1  -6  -3  106.98    3.30 
  -1  -6   3  108.42    3.24 
  -1  -6   3  107.51    2.98 
   1   6   3  109.82    3.15 
  -1  -6  -3  112.09    3.21 
   1  -6   3  110.54    3.32 
  -1   6   3  107.72    3.11 
  -2  -6   3    0.87    0.34 
  -2  -6   3    0.53    0.26 
   2  -6  -3    0.16    0.41 
  -2  -6  -3    3.05    0.45 
   2  -6   3    0.71    0.43 
  -2   6   3    0.89    0.35 
  -3  -6   3   15.61    0.95 
  -3  -6   3   15.24    0.83 
   3  -6  -3   15.42    0.99 
   3  -6   3   13.58    1.14 
  -3   6   3   14.08    1.28 
  -3   6   3   14.20    0.95 
  -3  -6  -3   16.63    0.87 
   4  -6  -3    0.38    0.46 
  -4  -6   3    0.45    0.40 
  -4  -6   3    0.26    0.42 
  -4   6   3    0.54    0.63 
   4  -6   3    2.25    0.74 
  -4   6   3    0.22    0.46 
  -4  -6  -3    0.41    0.42 
  -5  -6   3   35.39    1.57 
  -5  -6   3   33.17    1.58 
   5  -6  -3   33.53    1.76 
  -5   6   3   32.56    1.80 
  -5  -6  -3   37.56    1.57 
   6  -6  -3    1.57    0.80 
  -6  -6   3    1.67    0.61 
  -6  -6   3    1.77    0.67 
  -6   6   3    1.64    0.78 
  -6  -6  -3    2.03    0.68 
   7  -6  -3   65.72    2.96 
  -7  -6   3   66.24    2.73 
  -7  -6  -3   70.90    2.77 
  -7   6   3   71.62    2.94 
  -8  -6   3    0.81    0.90 
  -8  -6  -3   -0.19    1.40 
  -8   6   3    0.35    1.03 
   0   6   4   27.02    0.97 
   0   6   4   32.43    0.99 
   0  -6   4   31.55    1.35 
   0  -6  -4   31.22    1.35 
   1  -6  -4    1.28    0.50 
  -1  -6   4    0.74    0.38 
   1   6   4    0.75    0.33 
   1   6   4    1.85    0.32 
  -1  -6  -4    1.57    0.43 
   1  -6   4    0.56    0.43 
   2  -6  -4   37.53    1.63 
  -2  -6   4   40.55    1.37 
  -2  -6   4   38.20    1.56 
   2   6   4   41.69    1.44 
  -2   6   4   39.74    1.89 
  -2  -6  -4   41.63    1.57 
   2  -6   4   40.22    1.75 
  -2   6   4   39.61    1.28 
  -3  -6   4    0.21    0.37 
   3  -6  -4   -0.03    0.43 
  -3  -6   4    0.32    0.39 
  -3   6   4    0.46    0.35 
  -3   6   4   -0.07    0.68 
  -3  -6  -4    0.06    0.40 
   3  -6   4    0.16    0.56 
  -4  -6   4   59.69    2.18 
  -4  -6   4   57.57    2.08 
   4  -6   4   56.41    2.50 
  -4  -6  -4   59.91    2.08 
   5  -6  -4    0.59    0.68 
  -5  -6   4    0.50    0.57 
  -5  -6   4    0.28    0.51 
  -5   6   4    1.02    0.79 
  -5  -6  -4    0.71    0.54 
  -6  -6   4   35.15    1.82 
  -6  -6   4   36.72    1.84 
   6  -6  -4   36.97    2.01 
  -6  -6  -4   36.32    1.78 
  -6   6   4   31.40    1.95 
  -7  -6   4    1.23    0.84 
   7  -6  -4    0.83    0.97 
  -7  -6   4    0.40    0.75 
  -7   6   4    0.24    0.90 
   0  -6  -5    0.75    0.52 
   0  -6   5    0.17    0.45 
   1  -6  -5   14.94    1.08 
  -1  -6   5   15.05    1.04 
   1  -6   5   16.04    1.17 
  -1  -6  -5   14.17    1.07 
   2  -6  -5    0.66    0.53 
  -2  -6   5    2.34    0.53 
   2   6   5    1.98    0.37 
   2  -6   5    1.02    0.64 
  -2  -6  -5    1.08    0.53 
  -2   6   5    1.36    0.81 
   3  -6  -5  105.18    3.36 
  -3  -6   5  101.50    3.27 
  -3  -6  -5  103.57    3.23 
   3  -6   5   99.07    3.61 
  -3   6   5   99.32    3.69 
   4  -6  -5    2.50    0.70 
  -4  -6   5    1.34    0.55 
  -4  -6   5    1.28    0.54 
   4  -6   5    1.16    0.87 
  -4  -6  -5    1.35    0.58 
  -4   6   5    2.27    0.87 
  -5  -6   5    4.18    0.79 
  -5  -6   5    3.50    0.77 
   5  -6  -5    2.80    0.78 
  -5   6   5    2.98    0.84 
   5  -6   5    2.71    1.08 
   6  -6  -5    0.67    0.86 
  -6  -6   5    0.80    0.77 
  -6  -6   5    0.97    0.73 
  -6   6   5    0.80    0.91 
   7  -6  -5    9.16    1.38 
  -7  -6   5   10.02    1.21 
  -7  -6   5    9.47    1.24 
  -7   6   5   10.53    1.39 
   0  -6  -6  169.51    5.11 
   0  -6   6  173.58    5.20 
   1  -6  -6    2.09    0.65 
  -1  -6   6    2.08    0.59 
   1  -6   6    3.41    0.76 
  -1   6   6    1.43    0.86 
  -1  -6  -6    1.62    0.64 
  -2  -6   6    4.62    0.71 
   2  -6  -6    3.02    0.68 
   2  -6   6    4.18    0.88 
  -2  -6  -6    4.39    0.77 
  -2   6   6    3.39    0.94 
   3  -6  -6    1.40    0.64 
  -3  -6   6    2.52    0.63 
   3  -6   6    1.90    0.91 
  -3   6   6    1.69    0.91 
  -4  -6   6    3.51    0.71 
   4  -6  -6    4.12    0.85 
   4  -6   6    3.16    1.09 
  -4   6   6    3.28    0.97 
  -5  -6   6    2.01    0.72 
   5  -6  -6    2.32    0.84 
  -5   6   6    1.71    0.91 
   5  -6   6    2.94    1.17 
   6  -6  -6  104.10    3.83 
  -6  -6   6   96.62    3.58 
  -6  -6   6  109.20    3.75 
  -6   6   6  104.17    3.89 
   0  -6  -7    0.18    0.67 
   0  -6   7   -0.50    0.61 
  -1  -6   7    9.21    1.00 
   1  -6  -7    8.30    0.98 
   1  -6   7    7.72    1.05 
  -1   6   7    8.05    1.22 
   2  -6  -7    2.52    0.74 
  -2  -6   7    1.96    0.67 
  -2   6   7    3.20    1.05 
   2  -6   7    3.15    0.94 
   3  -6  -7  103.54    3.52 
  -3  -6   7  104.92    3.45 
   3  -6   7  100.60    3.96 
  -3   6   7  100.44    3.82 
   4  -6  -7    0.12    0.75 
  -4  -6   7    0.55    0.63 
  -4   6   7    0.15    0.88 
   4  -6   7   -0.03    1.04 
  -5  -6   7    6.87    0.99 
   5  -6  -7    6.45    1.12 
  -5   6   7    7.46    1.24 
   5  -6   7   11.27    1.73 
   0  -6   8   46.64    2.19 
  -1  -6   8    0.37    0.67 
   1  -6   8    0.50    0.78 
   2  -6  -8   21.64    1.66 
  -2  -6   8   22.80    1.52 
  -2   6   8   21.79    1.84 
   2  -6   8   24.06    1.90 
   3  -6  -8   -0.21    0.80 
  -3  -6   8    0.18    0.65 
   3  -6   8    0.12    0.99 
  -3   6   8   -0.19    0.97 
   4  -6  -8   23.04    1.70 
  -4  -6   8   23.36    1.57 
  -4   6   8   18.25    1.67 
   4  -6   8   22.08    2.01 
   0  -6   9    0.03    0.74 
  -1  -6   9   24.63    1.64 
   1  -6   9   28.48    1.89 
   0   7   0    0.19    0.34 
   0  -7   0    0.36    0.25 
  -1  -7   0    1.50    0.39 
   1  -7   0    0.13    0.26 
  -1   7   0    0.16    0.41 
  -1  -7   0    0.09    0.21 
   1   7   0    0.05    0.36 
   2   7   0   41.82    1.60 
  -2   7   0   36.89    1.70 
  -2  -7   0   38.34    1.42 
   2  -7   0   40.19    1.46 
  -2  -7   0   39.63    1.35 
  -3   7   0    0.42    0.54 
  -3   7   0    1.10    0.58 
   3  -7   0    1.24    0.46 
  -3  -7   0    1.40    0.36 
  -4   7   0   93.14    3.07 
   4  -7   0   90.75    2.98 
  -4   7   0   89.82    3.35 
  -4  -7   0   94.40    2.86 
  -5  -7   0    0.04    0.40 
   5  -7   0   -0.29    0.55 
  -5   7   0    0.08    0.58 
  -5   7   0    0.43    0.74 
  -6  -7   0    4.77    0.70 
   6  -7   0    5.24    0.91 
  -6   7   0    5.23    0.89 
  -7  -7   0    0.21    0.63 
  -8  -7   0    0.41    0.81 
   0  -7   1   88.39    2.67 
   0  -7  -1   87.53    2.59 
   0   7  -1   86.57    2.90 
   0  -7   1   88.98    2.48 
   0   7   1   87.58    2.78 
   1   7   1    2.99    0.49 
  -1   7  -1    3.21    0.61 
  -1  -7   1    2.22    0.31 
  -1  -7   1    2.42    0.39 
   1  -7  -1    2.33    0.39 
   1  -7   1    2.89    0.35 
  -1   7   1    2.62    0.49 
  -1  -7  -1    2.97    0.37 
   1   7  -1    5.58    0.67 
   1  -7   1    2.22    0.41 
   2   7   1   65.65    2.23 
  -2  -7   1   69.18    2.02 
  -2  -7   1   69.82    2.15 
   2  -7  -1   65.87    2.18 
  -2   7  -1   65.38    2.52 
  -2  -7  -1   65.73    2.05 
   2  -7   1   64.54    2.22 
   2   7  -1   62.16    2.28 
   2  -7   1   65.04    2.07 
  -2   7   1   65.52    2.37 
  -3  -7   1    1.50    0.43 
   3  -7  -1    1.27    0.48 
  -3   7  -1    1.22    0.52 
  -3  -7   1    1.07    0.32 
  -3   7  -1    0.86    0.59 
  -3   7   1    0.85    0.61 
  -3   7   1    0.33    0.48 
   3  -7   1    0.92    0.42 
  -3  -7  -1    0.97    0.35 
  -4  -7   1   48.76    1.72 
  -4   7  -1   45.38    2.30 
   4  -7  -1   47.41    1.89 
  -4   7   1   48.21    2.07 
   4  -7   1   45.17    1.75 
  -4   7   1   46.12    2.09 
  -4  -7  -1   49.71    1.75 
   5  -7  -1    5.31    0.84 
  -5  -7   1    5.15    0.68 
  -5   7   1    5.42    0.87 
  -5  -7  -1    4.59    0.66 
  -5   7   1    3.90    0.92 
  -6  -7   1   51.71    2.11 
   6  -7  -1   55.01    2.35 
  -6   7   1   52.82    2.26 
  -6  -7  -1   52.33    2.13 
  -7  -7   1    5.99    0.94 
  -7   7   1    3.97    1.01 
  -7  -7  -1    3.47    0.81 
  -8  -7   1   42.67    2.26 
  -8  -7  -1   42.90    2.33 
   0  -7  -2    0.59    0.30 
   0  -7   2    0.36    0.20 
   0   7  -2    0.04    0.47 
   0   7   2    0.12    0.31 
   0  -7   2    1.30    0.45 
   0  -7   2    0.14    0.31 
   1   7   2   47.06    1.70 
  -1  -7   2   49.76    1.49 
  -1  -7   2   49.09    1.69 
   1  -7  -2   47.90    1.71 
  -1   7  -2   46.02    2.01 
   1  -7   2   46.05    1.45 
   1   7  -2   45.09    1.91 
  -1   7   2   47.65    1.74 
   1  -7   2   48.89    2.12 
   1  -7   2   46.70    1.74 
  -1  -7  -2   49.76    1.63 
  -2   7  -2  172.06    5.44 
   2  -7  -2  179.98    5.08 
  -2  -7   2  179.69    5.02 
  -2  -7   2  180.97    4.83 
   2   7   2  176.23    5.04 
   2  -7   2  175.96    5.10 
  -2   7   2  178.41    5.11 
  -2  -7  -2  176.74    4.91 
  -3  -7   2   71.30    2.36 
   3  -7  -2   69.67    2.41 
  -3  -7   2   69.83    2.19 
  -3  -7  -2   70.62    2.25 
  -3   7   2   67.52    2.46 
  -3   7   2   71.45    2.69 
   3  -7   2   67.38    2.47 
  -4  -7   2  141.26    4.18 
   4  -7  -2  149.33    4.41 
  -4  -7   2  147.08    4.32 
  -4   7   2  143.54    4.61 
  -4  -7  -2  144.04    4.22 
  -4   7   2  142.69    4.50 
   5  -7  -2   39.31    1.86 
  -5  -7   2   38.00    1.63 
  -5  -7  -2   40.58    1.67 
  -5   7   2   37.38    1.91 
   6  -7  -2    0.15    0.76 
  -6  -7   2    0.32    0.59 
  -6  -7  -2   -0.30    0.58 
  -6   7   2    0.14    0.75 
   7  -7  -2   29.53    1.97 
  -7  -7   2   25.33    1.66 
  -7   7   2   29.38    1.90 
  -7  -7  -2   27.49    1.72 
  -8  -7   2   77.32    3.22 
  -8   7   2   77.11    3.32 
  -8  -7  -2   76.15    3.17 
   0  -7  -3    1.72    0.46 
   0   7   3    1.33    0.37 
   0  -7   3    1.44    0.43 
   1  -7  -3  439.09   11.58 
  -1  -7   3  422.87   11.23 
  -1  -7   3  435.57   11.53 
   1   7   3  440.97   11.46 
  -1  -7  -3  428.47   11.47 
  -1   7   3  446.99   11.44 
   1  -7   3  421.06   11.58 
   2  -7  -3    5.64    0.66 
  -2  -7   3    7.78    0.56 
  -2  -7   3    6.60    0.65 
   2   7   3    7.55    0.66 
  -2  -7  -3    7.76    0.67 
   2  -7   3    8.13    0.79 
  -2   7   3    6.76    0.67 
  -3  -7   3    0.17    0.41 
   3  -7  -3    0.61    0.46 
  -3  -7   3    0.40    0.33 
  -3  -7  -3    0.25    0.35 
  -3   7   3    0.32    0.69 
  -3   7   3    0.62    0.43 
   3  -7   3    0.91    0.61 
  -4  -7   3    2.07    0.52 
  -4  -7   3    2.64    0.51 
   4  -7  -3    2.40    0.61 
  -4   7   3    2.74    0.86 
  -4   7   3    2.54    0.63 
  -4  -7  -3    3.08    0.57 
   5  -7  -3  237.04    6.73 
  -5  -7   3  224.09    6.47 
  -5  -7   3  219.87    6.56 
  -5  -7  -3  232.99    6.51 
  -5   7   3  229.39    6.82 
  -6  -7   3    2.00    0.70 
   6  -7  -3    0.45    0.81 
  -6  -7  -3    2.54    0.75 
  -6   7   3    1.07    0.86 
  -7  -7   3  243.64    7.29 
   7  -7  -3  251.92    7.51 
  -7  -7  -3  235.95    7.26 
  -7   7   3  258.55    7.48 
  -8  -7   3    1.05    0.98 
  -8  -7  -3    0.97    1.02 
  -8   7   3    0.39    1.11 
   0  -7  -4   -0.05    0.42 
   0   7   4    0.23    0.27 
   0  -7   4    0.65    0.46 
  -1  -7   4  105.30    3.22 
   1   7   4   94.69    2.92 
   1  -7  -4   99.77    3.22 
  -1  -7  -4  103.77    3.15 
   1  -7   4   98.49    3.23 
  -1   7   4   99.35    2.82 
   2  -7  -4  181.12    5.27 
  -2  -7   4  174.35    4.96 
  -2  -7   4  182.22    5.21 
   2   7   4  181.87    5.05 
  -2  -7  -4  176.14    5.12 
   2  -7   4  180.49    5.36 
  -2   7   4  181.81    4.93 
   3  -7  -4  105.90    3.43 
  -3  -7   4  107.36    3.37 
  -3  -7   4  106.28    3.15 
  -3  -7  -4  107.19    3.28 
   3  -7   4  100.62    3.58 
  -3   7   4  103.93    3.78 
  -3   7   4  107.25    3.17 
  -4  -7   4  194.26    5.71 
   4  -7  -4  199.49    5.78 
  -4  -7   4  196.63    5.53 
  -4  -7  -4  195.55    5.57 
  -4   7   4  192.00    6.06 
   4  -7   4  190.87    6.02 
   5  -7  -4   76.12    2.89 
  -5  -7   4   78.80    2.75 
  -5  -7   4   81.05    2.87 
  -5   7   4   79.21    3.06 
  -5  -7  -4   78.18    2.73 
  -6  -7   4   -0.17    0.64 
   6  -7  -4    0.09    0.80 
  -6  -7   4    0.81    0.69 
  -6   7   4   -0.12    0.85 
  -6  -7  -4    0.84    0.73 
   7  -7  -4   38.41    2.26 
  -7  -7   4   37.07    2.08 
  -7   7   4   41.92    2.33 
   0  -7  -5  145.82    4.43 
   0  -7   5  145.22    4.48 
  -1  -7   5    6.54    0.79 
   1  -7  -5    6.19    0.81 
   1   7   5    5.24    0.44 
   1  -7   5    5.07    0.78 
  -1  -7  -5    6.00    0.78 
   2   7   5   66.32    2.15 
  -2  -7   5   67.01    2.44 
   2  -7  -5   68.00    2.48 
  -2   7   5   69.22    2.86 
  -2  -7  -5   67.76    2.41 
   2  -7   5   66.37    2.63 
   3  -7  -5    1.08    0.59 
  -3  -7   5    1.31    0.56 
   3  -7   5    1.05    0.76 
  -3   7   5    2.14    0.93 
  -3  -7  -5    1.78    0.58 
   4  -7  -5   55.10    2.31 
  -4  -7   5   57.27    2.28 
  -4  -7   5   56.51    2.13 
  -4   7   5   58.79    2.68 
   4  -7   5   57.37    2.72 
  -4  -7  -5   58.38    2.22 
   5  -7  -5    3.56    0.87 
  -5  -7   5    4.69    0.81 
  -5  -7   5    4.82    0.83 
  -5   7   5    4.29    1.06 
  -5  -7  -5    5.23    1.32 
   6  -7  -5   97.55    3.60 
  -6  -7   5   89.46    3.35 
  -6  -7   5   96.35    3.52 
  -6   7   5   98.04    3.69 
  -7  -7   5    2.89    0.99 
   7  -7  -5    1.71    1.04 
  -7  -7   5    1.97    0.93 
  -7   7   5    2.02    1.07 
   0  -7   6    0.60    0.61 
   0  -7  -6    0.23    0.64 
  -1  -7   6    0.09    0.54 
   1  -7  -6    0.25    0.60 
  -1  -7  -6    0.09    0.60 
   1  -7   6   -0.06    0.63 
  -2  -7   6    9.90    1.01 
   2  -7  -6    9.80    1.00 
   2  -7   6   11.92    1.26 
  -2   7   6    9.26    1.24 
  -2  -7  -6   11.37    1.08 
   3  -7  -6   17.47    1.32 
  -3  -7   6   17.72    1.30 
  -3  -7  -6   15.14    1.41 
   3  -7   6   15.98    1.53 
  -3   7   6   21.23    1.79 
   4  -7  -6   20.82    1.48 
  -4  -7   6   18.70    1.41 
   4  -7   6   18.12    1.72 
  -4   7   6   21.87    1.81 
   5  -7  -6    0.04    0.76 
  -5  -7   6    0.51    0.68 
  -5   7   6    0.38    0.93 
   5  -7   6    0.62    1.12 
  -6  -7   6    8.05    1.16 
   6  -7  -6    6.36    1.20 
  -6   7   6    8.24    1.35 
   0  -7  -7   11.23    1.15 
   0  -7   7   10.89    1.17 
   1  -7  -7    0.84    0.71 
  -1  -7   7    0.64    0.67 
  -1  -7  -7    0.03    1.25 
  -1   7   7    1.15    0.99 
   1  -7   7    0.38    0.75 
  -2  -7   7   41.84    2.04 
   2  -7  -7   42.31    2.00 
  -2   7   7   40.93    2.47 
   2  -7   7   44.40    2.36 
  -3  -7   7    1.25    0.70 
   3  -7  -7    1.55    0.74 
   3  -7   7    0.96    1.00 
  -3   7   7    1.36    1.00 
  -4  -7   7   22.90    1.60 
   4  -7  -7   25.41    1.70 
   4  -7   7   26.28    2.32 
  -4   7   7   20.79    1.87 
   5  -7  -7    5.68    1.08 
  -5  -7   7    5.84    0.99 
   5  -7   7    5.29    1.47 
  -5   7   7    5.00    1.19 
   0  -7   8    0.32    0.76 
  -1  -7   8   23.86    1.67 
  -1   7   8   21.15    2.41 
   1  -7   8   23.70    1.81 
   2  -7  -8  108.14    3.75 
  -2  -7   8  108.06    3.75 
   2  -7   8  111.53    4.13 
  -2   7   8  102.26    4.15 
  -3  -7   8   18.05    1.53 
   3  -7  -8   17.51    1.54 
   3  -7   8   18.62    1.81 
  -3   7   8   19.15    1.79 
   0   8   0 1000.00   24.95 
   0  -8   0  910.47   24.53 
   1  -8   0    0.07    0.30 
   1   8   0   -0.04    0.40 
  -1   8   0   -0.08    0.44 
  -1  -8   0   -0.09    0.24 
  -2   8   0  241.90    6.88 
  -2  -8   0  237.60    6.38 
   2   8   0  234.41    6.67 
   2  -8   0  229.10    6.44 
  -3  -8   0    0.99    0.38 
  -3   8   0    0.54    0.60 
   3  -8   0    0.08    0.42 
  -3   8   0    0.13    0.54 
   4  -8   0  129.61    3.90 
  -4   8   0  125.35    4.36 
  -4   8   0  123.01    4.04 
  -4  -8   0  130.60    3.79 
  -5   8   0    0.34    0.74 
   5  -8   0    0.65    0.62 
  -5   8   0    0.41    0.65 
  -5  -8   0    0.01    0.45 
  -6  -8   0  466.62   12.64 
  -7  -8   0    0.44    0.72 
  -8  -8   0  122.10    4.33 
   0   8   1    0.36    0.37 
   0   8  -1    0.26    0.46 
   0  -8   1    0.21    0.24 
   0  -8   1    1.75    0.39 
   0  -8  -1    0.08    0.28 
  -1  -8   1   88.77    2.71 
   1  -8  -1   89.23    2.70 
   1   8   1   89.91    2.88 
  -1  -8   1   91.06    2.57 
  -1   8  -1   83.69    3.04 
   1  -8   1   86.99    2.56 
  -1  -8  -1   86.61    2.62 
   1   8  -1   88.19    3.00 
  -1   8   1   86.53    2.93 
   2  -8  -1  195.43    5.51 
   2   8   1  195.78    5.62 
  -2   8  -1  192.09    5.93 
  -2  -8   1  200.72    5.35 
  -2  -8   1  198.65    5.50 
  -2   8   1  198.32    5.77 
   2   8  -1  188.20    5.70 
   2  -8   1  195.26    5.39 
  -2  -8  -1  199.87    5.40 
  -3  -8   1  349.78    9.57 
  -3   8  -1  368.74   10.24 
  -3   8  -1  339.68    9.76 
   3  -8  -1  374.29    9.75 
  -3  -8  -1  361.08    9.62 
   3  -8   1  362.84    9.62 
  -3   8   1  364.82   10.04 
  -3   8   1  362.27   10.01 
   4  -8  -1  211.88    5.93 
  -4   8  -1  194.67    6.45 
  -4  -8   1  205.43    5.76 
  -4   8   1  206.54    6.15 
  -4   8   1  209.51    6.27 
  -4  -8  -1  206.00    5.79 
  -5  -8   1   72.03    2.48 
   5  -8  -1   74.42    2.69 
  -5   8   1   69.41    2.96 
  -5   8   1   71.80    2.74 
  -5  -8  -1   70.72    2.50 
  -6  -8   1    0.52    0.59 
   6  -8  -1    0.46    0.78 
  -6  -8  -1    0.68    0.63 
  -6   8   1    0.22    0.80 
  -7  -8   1   39.13    1.98 
   7  -8  -1   40.03    2.20 
  -7   8   1   41.57    2.15 
  -7  -8  -1   38.90    2.01 
  -8  -8   1   74.32    3.06 
  -8  -8  -1   71.83    3.04 
   0  -8   2    1.59    0.44 
   0  -8   2    1.01    0.27 
   0   8  -2    2.56    0.66 
   0   8   2    0.79    0.40 
   0  -8  -2    1.16    0.39 
  -1  -8   2  246.18    6.36 
  -1  -8   2  233.02    6.57 
   1   8   2  245.04    6.67 
   1  -8  -2  232.40    6.57 
  -1   8  -2  232.70    6.98 
   1  -8   2  239.73    6.64 
  -1  -8  -2  241.48    6.52 
   1  -8   2  237.37    6.42 
  -1   8   2  238.74    6.69 
  -2  -8   2    2.85    0.51 
   2  -8  -2    3.05    0.55 
   2   8   2    2.63    0.50 
  -2  -8   2    3.61    0.43 
   2  -8   2    3.32    0.58 
  -2  -8  -2    3.81    0.49 
  -2   8   2    3.02    0.57 
  -3  -8   2    0.49    0.35 
   3  -8  -2    0.53    0.43 
  -3  -8   2    0.48    0.45 
  -3   8   2    0.26    0.49 
  -3   8   2    0.21    0.66 
  -3  -8  -2    0.61    0.35 
  -4  -8   2    1.37    0.57 
   4  -8  -2    0.67    0.55 
  -4   8   2    0.70    0.61 
  -4   8   2    0.29    0.76 
  -4  -8  -2    0.69    0.47 
  -5  -8   2  133.23    4.16 
   5  -8  -2  139.74    4.38 
  -5  -8  -2  138.16    4.20 
  -5   8   2  138.39    4.51 
   6  -8  -2    0.89    0.81 
  -6  -8   2    0.61    0.66 
  -6   8   2    0.48    0.83 
  -6  -8  -2    0.21    0.61 
  -7  -8   2  156.43    5.17 
   7  -8  -2  174.37    5.40 
  -7  -8  -2  157.02    5.18 
  -7   8   2  170.49    5.34 
  -8  -8   2    5.86    1.16 
  -8  -8  -2    5.11    1.19 
  -8   8   2    5.48    1.26 
   0   8   3    0.21    0.35 
   0  -8   3    0.13    0.41 
   0  -8  -3    0.03    0.40 
   1   8   3   23.30    1.12 
   1  -8  -3   24.81    1.25 
  -1  -8   3   23.29    1.21 
  -1  -8   3   24.04    0.92 
   1  -8   3   21.73    1.25 
  -1  -8  -3   24.23    1.15 
  -1   8   3   24.20    1.13 
  -2  -8   3    1.91    0.37 
  -2  -8   3    1.09    0.45 
   2   8   3    3.20    0.53 
   2  -8  -3    1.32    0.53 
   2  -8   3    2.71    0.64 
  -2   8   3    1.46    0.46 
  -2  -8  -3    0.87    0.42 
   3  -8  -3  122.54    3.87 
  -3  -8   3  125.61    3.85 
  -3  -8   3  127.89    3.64 
  -3  -8  -3  127.86    3.74 
  -3   8   3  125.11    4.25 
   3  -8   3  122.68    3.99 
  -3   8   3  121.77    3.84 
   4  -8  -3    3.95    0.75 
  -4  -8   3    3.35    0.59 
  -4  -8   3    4.01    0.71 
  -4   8   3    4.07    1.01 
  -4  -8  -3    4.45    0.67 
  -5  -8   3   59.36    2.40 
   5  -8  -3   62.49    2.50 
  -5  -8   3   62.15    2.30 
  -5   8   3   59.47    2.65 
  -5  -8  -3   61.66    2.32 
   6  -8  -3    1.47    0.83 
  -6  -8   3    0.62    0.67 
  -6   8   3    0.52    0.88 
  -6  -8  -3    1.22    0.72 
  -7  -8   3    0.39    0.84 
   7  -8  -3    1.11    0.98 
  -7  -8  -3    0.06    0.89 
  -7   8   3    0.57    1.00 
   0  -8   4   16.31    1.13 
   0  -8  -4   14.55    1.05 
   0   8   4   15.77    0.84 
   1   8   4  124.27    3.75 
  -1  -8   4  134.80    4.04 
   1  -8  -4  133.43    4.05 
  -1  -8  -4  130.81    3.94 
  -1   8   4  126.43    3.67 
   1  -8   4  130.16    4.07 
  -2  -8   4    1.87    0.58 
   2  -8  -4    1.68    0.61 
   2   8   4    2.00    0.48 
  -2   8   4    1.76    0.44 
   2  -8   4    1.96    0.63 
  -2  -8  -4    1.68    0.50 
   3  -8  -4    0.86    0.60 
  -3  -8   4    1.35    0.58 
  -3  -8   4    0.73    0.43 
   3  -8   4    1.81    0.75 
  -3  -8  -4    0.76    0.48 
  -3   8   4    0.39    0.86 
   4  -8  -4    4.31    0.78 
  -4  -8   4    3.81    0.64 
  -4  -8   4    2.57    0.65 
  -4   8   4    3.27    1.02 
  -4  -8  -4    2.45    0.62 
  -5  -8   4   89.96    3.18 
  -5  -8   4   85.56    2.99 
   5  -8  -4   87.49    3.19 
  -5   8   4   85.04    3.40 
  -5  -8  -4   88.69    3.02 
  -6  -8   4    1.64    0.81 
   6  -8  -4    1.92    0.87 
  -6  -8   4    2.23    0.83 
  -6   8   4    3.47    1.06 
  -6  -8  -4    2.84    0.85 
   7  -8  -4   90.44    3.47 
  -7  -8   4   82.40    3.33 
  -7   8   4   83.94    3.48 
  -7  -8  -4   80.84    3.25 
   0  -8   5    0.68    0.59 
   0  -8  -5    0.32    0.53 
  -1  -8   5   88.46    3.15 
   1  -8  -5   88.91    3.13 
  -1  -8  -5   97.86    3.13 
   1  -8   5   88.31    3.21 
   2  -8  -5  101.43    3.41 
  -2  -8   5  103.06    3.42 
  -2  -8  -5  101.98    3.35 
  -2   8   5  100.71    3.80 
   2  -8   5  103.85    3.59 
  -3  -8   5  187.30    5.76 
   3  -8  -5  196.51    5.79 
   3  -8   5  201.66    6.10 
  -3  -8  -5  195.93    5.69 
  -3   8   5  190.59    6.22 
  -4  -8   5  114.82    3.80 
   4  -8  -5  111.45    3.76 
  -4  -8  -5  110.86    3.67 
  -4   8   5  117.96    4.22 
   4  -8   5  110.37    4.15 
  -5  -8   5   51.88    2.31 
   5  -8  -5   49.62    2.29 
  -5  -8   5   52.02    2.17 
  -5  -8  -5   50.23    2.18 
  -5   8   5   45.92    2.49 
  -6  -8   5    0.36    0.79 
   6  -8  -5    0.36    0.84 
  -6  -8   5    0.12    0.76 
  -6   8   5    0.60    0.97 
   0  -8   6  564.51   15.26 
   0  -8  -6  559.23   15.14 
  -1  -8   6    1.91    0.70 
   1  -8  -6    2.58    0.75 
  -1  -8  -6    1.34    0.71 
   1  -8   6    2.64    0.82 
  -2  -8   6  186.30    5.60 
   2  -8  -6  187.74    5.55 
   2  -8   6  180.51    5.79 
  -2  -8  -6  178.44    5.51 
  -2   8   6  178.79    5.94 
   3  -8  -6    0.82    0.65 
  -3  -8   6    1.10    0.68 
   3  -8   6    0.91    0.91 
  -3  -8  -6    0.67    0.73 
  -3   8   6    0.71    0.99 
   4  -8  -6  114.36    3.89 
  -4  -8   6  112.93    3.90 
   4  -8   6  115.43    4.40 
  -4   8   6  115.05    4.29 
   5  -8  -6    2.14    0.87 
  -5  -8   6    2.34    0.85 
  -5   8   6    2.22    1.07 
  -6  -8   6  376.75   10.74 
   6  -8  -6  380.81   10.80 
  -6   8   6  373.71   10.93 
   0  -8  -7    0.54    0.80 
   0  -8   7    0.40    0.77 
  -1  -8   7   63.43    2.73 
   1  -8  -7   68.70    2.65 
  -1   8   7   60.11    2.98 
  -1  -8  -7   66.78    2.76 
   1  -8   7   63.11    2.84 
  -2  -8   7  148.90    4.85 
   2  -8  -7  153.15    4.79 
  -2   8   7  149.02    5.23 
   2  -8   7  147.40    5.09 
   3  -8  -7  271.44    7.92 
  -3  -8   7  283.36    8.03 
   3  -8   7  267.90    8.40 
  -3   8   7  269.75    8.36 
  -4  -8   7  132.78    4.40 
   4  -8  -7  133.51    4.42 
   4  -8   7  128.75    5.00 
  -4   8   7  126.68    4.70 
   0  -8   8   10.28    1.27 
   1  -8  -8  139.49    4.68 
  -1  -8   8  138.72    4.73 
  -1   8   8  149.27    5.22 
   1  -8   8  143.55    4.91 
  -2  -8   8   -0.10    0.76 
   2  -8  -8   -0.11    0.80 
   2  -8   8    0.26    0.99 
  -2   8   8    0.35    1.19 
  -3  -8   8    0.76    0.82 
   3  -8  -8    0.46    0.84 
   3  -8   8    0.41    1.17 
  -3   8   8    0.07    1.17 
   0   9   0    0.26    0.44 
   0  -9   0    0.19    0.28 
  -1  -9   0    0.10    0.28 
   1  -9   0    0.05    0.32 
   1   9   0    0.24    0.42 
  -1   9   0    0.81    0.54 
   2  -9   0    1.88    0.47 
  -2  -9   0    1.99    0.41 
  -2   9   0    1.34    0.63 
   2   9   0    1.58    0.53 
  -3   9   0    0.59    0.66 
  -3  -9   0    1.78    0.44 
   3  -9   0    0.52    0.47 
  -3   9   0    0.39    0.69 
   3   9   0    0.19    0.51 
  -4  -9   0   14.73    0.98 
  -4   9   0   12.97    1.23 
  -4   9   0   13.01    1.40 
   4  -9   0   14.95    1.14 
  -5   9   0    0.39    0.83 
  -5  -9   0    0.01    0.51 
   5  -9   0    0.17    0.68 
  -6  -9   0    7.93    0.96 
  -7  -9   0    0.23    0.77 
  -8  -9   0    1.52    0.98 
   0  -9  -1  236.73    6.41 
   0   9  -1  233.05    6.84 
   0   9   1  230.18    6.69 
   0  -9   1  237.46    6.29 
  -1   9  -1   11.25    1.20 
   1   9   1   10.80    0.95 
  -1  -9   1   14.75    0.71 
   1  -9  -1   10.05    0.78 
   1   9  -1   10.79    1.08 
  -1   9   1    9.69    0.99 
   1  -9   1   11.92    0.72 
  -1  -9  -1   12.34    0.75 
  -2  -9   1    1.44    0.36 
  -2   9  -1    0.96    0.67 
   2  -9  -1    1.78    0.50 
   2   9   1    1.85    0.52 
  -2  -9  -1    1.57    0.36 
   2   9  -1    1.01    0.54 
  -2   9   1    1.47    0.58 
   2  -9   1    1.45    0.45 
   3  -9  -1    0.73    0.49 
  -3  -9   1    1.34    0.43 
   3   9   1    0.98    0.53 
  -3   9  -1    0.93    0.79 
  -3   9   1    0.90    0.62 
  -3   9   1    1.13    0.77 
  -3  -9  -1    1.44    0.44 
  -4  -9   1    3.13    0.57 
   4  -9  -1    1.59    0.61 
  -4  -9  -1    3.64    0.59 
  -4   9   1    1.69    0.75 
  -4   9   1    1.37    0.87 
  -5  -9   1   24.61    1.36 
   5  -9  -1   26.10    1.60 
  -5  -9  -1   24.97    1.37 
  -5   9   1   26.51    1.76 
   6  -9  -1  133.51    4.34 
  -6  -9   1  128.79    4.14 
  -6  -9  -1  127.43    4.15 
  -6   9   1  127.73    4.32 
  -7  -9   1    2.45    0.83 
  -7  -9  -1    3.54    0.94 
  -8  -9   1    6.43    1.20 
  -8  -9  -1    6.16    1.24 
   0  -9   2   -0.13    0.26 
   0   9   2    0.14    0.40 
   0  -9   2    1.32    0.49 
   0  -9  -2    0.73    0.37 
  -1  -9   2    1.19    0.45 
   1  -9  -2    0.82    0.44 
   1   9   2    1.31    0.47 
  -1  -9   2    1.51    0.35 
  -1  -9  -2    0.74    0.40 
  -1   9   2    0.95    0.50 
   2  -9  -2  235.18    6.67 
  -2  -9   2  236.42    6.41 
  -2  -9   2  240.94    6.66 
   2   9   2  235.89    6.72 
  -2  -9  -2  238.08    6.53 
  -2   9   2  235.18    6.80 
   3  -9  -2  202.44    5.73 
  -3  -9   2  203.07    5.53 
   3   9   2  192.22    5.77 
  -3  -9  -2  195.82    5.59 
  -3   9   2  204.66    6.12 
  -3   9   2  193.29    5.91 
  -4  -9   2  189.12    5.30 
   4  -9  -2  183.29    5.43 
  -4  -9  -2  186.27    5.35 
  -4   9   2  179.48    5.80 
   5  -9  -2    3.32    0.81 
  -5  -9   2    2.33    0.63 
  -5  -9  -2    3.63    0.71 
  -5   9   2    3.58    1.00 
  -6  -9   2   -0.07    0.63 
   6  -9  -2    0.31    0.76 
  -6   9   2    0.19    0.87 
  -6  -9  -2    1.48    0.72 
   7  -9  -2    1.85    0.99 
  -7  -9   2    2.54    0.89 
  -7  -9  -2    3.60    0.97 
  -7   9   2    2.80    1.07 
   0  -9  -3    2.45    0.57 
   0  -9   3    2.33    0.59 
   0   9   3    1.94    0.51 
   1  -9  -3  464.19   12.13 
  -1  -9   3  452.48   12.13 
   1   9   3  437.87   12.04 
  -1  -9  -3  441.75   12.01 
   1  -9   3  457.69   12.17 
  -1   9   3  450.01   12.05 
   2   9   3    0.55    0.45 
  -2  -9   3    0.40    0.34 
   2  -9  -3    1.03    0.57 
  -2  -9   3    0.68    0.53 
   2  -9   3    1.02    0.59 
  -2   9   3    0.50    0.46 
  -2  -9  -3    0.69    0.40 
  -3  -9   3    0.96    0.44 
   3  -9  -3    0.62    0.52 
   3   9   3    1.16    0.51 
  -3  -9   3    0.43    0.52 
  -3  -9  -3    1.07    0.48 
  -3   9   3    0.92    0.56 
  -3   9   3    1.07    0.82 
  -4  -9   3    0.01    0.45 
  -4  -9   3    0.36    0.59 
   4  -9  -3    0.19    0.57 
  -4   9   3    0.04    0.88 
  -4  -9  -3   -0.10    0.47 
   5  -9  -3  299.60    8.19 
  -5  -9   3  278.36    7.97 
  -5   9   3  280.44    8.42 
  -5  -9  -3  281.63    8.02 
  -6  -9   3    0.89    0.75 
   6  -9  -3    0.22    0.78 
  -6   9   3    0.42    0.92 
  -6  -9  -3    1.43    0.79 
  -7  -9   3  233.75    7.26 
   7  -9  -3  247.29    7.38 
  -7   9   3  251.06    7.44 
  -7  -9  -3  237.92    7.29 
   0   9   4    0.11    0.37 
   0  -9  -4    0.64    0.55 
   0  -9   4    0.01    0.52 
  -1  -9   4    2.27    0.64 
   1   9   4    2.53    0.52 
   1  -9  -4    2.16    0.65 
  -1  -9  -4    4.51    0.65 
  -1   9   4    2.83    0.50 
   1  -9   4    2.70    0.69 
   2  -9  -4  205.63    5.98 
  -2  -9   4  206.61    5.96 
  -2   9   4  199.42    6.00 
  -2  -9  -4  198.17    5.81 
   2  -9   4  203.65    6.05 
   3  -9  -4  123.71    3.97 
  -3  -9   4  122.54    3.97 
  -3  -9  -4  123.14    3.83 
   3  -9   4  121.91    4.13 
  -3   9   4  124.16    4.43 
  -4  -9   4  203.76    5.87 
  -4  -9   4  203.47    6.13 
   4  -9  -4  209.50    6.11 
  -4  -9  -4  204.32    5.99 
  -4   9   4  210.35    6.60 
   5  -9  -4    4.64    0.88 
  -5  -9   4    3.15    0.77 
  -5  -9   4    4.56    0.89 
  -5  -9  -4    3.83    0.79 
  -5   9   4    4.28    1.11 
  -6  -9   4    0.71    0.78 
   6  -9  -4    1.83    0.90 
  -6   9   4    1.89    1.07 
  -6  -9  -4   -0.22    0.76 
  -7  -9   4    0.53    0.94 
   7  -9  -4    1.07    1.00 
  -7  -9  -4    1.15    0.98 
  -7   9   4    1.24    1.14 
   0  -9  -5  128.04    4.13 
   0  -9   5  130.07    4.25 
   1  -9  -5   16.43    1.31 
  -1  -9   5   14.30    1.31 
  -1  -9  -5   15.70    1.22 
   1  -9   5   14.63    1.38 
  -2  -9   5    2.15    0.72 
   2  -9  -5    1.81    0.70 
  -2  -9  -5    2.35    0.67 
   2  -9   5    1.70    0.77 
  -3  -9   5    1.44    0.70 
   3  -9  -5    2.11    0.73 
   3  -9   5    2.09    0.89 
  -3  -9  -5    1.98    0.70 
  -3   9   5    2.56    1.11 
   4  -9  -5    1.71    0.77 
  -4  -9   5    5.62    0.92 
  -4   9   5    1.15    1.10 
  -4  -9  -5    2.43    0.78 
  -5  -9   5    7.70    1.08 
   5  -9  -5    5.47    0.98 
  -5  -9  -5    9.46    1.11 
  -5   9   5    7.42    1.31 
   6  -9  -5   90.20    3.50 
  -6  -9   5   95.76    3.63 
  -6  -9   5   86.74    3.42 
  -6   9   5  100.30    3.82 
   0  -9  -6   -0.10    0.72 
   0  -9   6    0.43    0.73 
  -1  -9   6    1.05    0.71 
   1  -9  -6    0.68    0.72 
   1  -9   6    1.65    0.81 
  -1  -9  -6    0.96    0.76 
  -2  -9   6    5.44    0.97 
   2  -9  -6    2.81    0.77 
  -2  -9  -6    6.75    1.02 
   2  -9   6    4.34    1.01 
  -2   9   6    3.66    1.18 
   3  -9  -6    1.02    0.72 
  -3  -9   6    0.75    0.72 
  -3  -9  -6    0.63    0.77 
   3  -9   6    0.60    0.97 
  -3   9   6    2.07    1.11 
  -4  -9   6    6.44    1.04 
   4  -9  -6    6.00    0.97 
  -4  -9  -6    8.39    1.16 
  -4   9   6    6.62    1.33 
   4  -9   6    6.33    1.36 
  -5  -9   6    0.62    0.85 
   5  -9  -6    0.54    0.84 
  -5   9   6    0.54    1.06 
   0  -9  -7  114.37    3.92 
   0  -9   7  105.17    3.98 
  -1  -9   7    0.43    0.78 
   1  -9  -7    0.52    0.80 
   1  -9   7    1.06    0.92 
  -1   9   7    0.11    1.04 
  -1  -9  -7    3.33    1.01 
   2  -9  -7    6.86    1.06 
  -2  -9   7    7.50    1.09 
   2  -9   7    7.42    1.28 
  -2   9   7    7.08    1.42 
  -2  -9  -7    6.67    1.26 
   3  -9  -7    1.32    0.84 
  -3  -9   7    1.98    0.88 
   3  -9   7    0.75    1.14 
  -3   9   7    1.38    1.21 
  -4  -9   7    2.60    0.92 
   4  -9  -7    1.81    0.89 
  -4   9   7    2.12    1.22 
   4  -9   7    3.59    1.41 
   0  -9   8    0.50    0.92 
   1  -9  -8    3.89    1.06 
  -1  -9   8    5.96    1.14 
   1  -9   8    4.83    1.19 
  -1   9   8    3.80    1.41 
   2  -9  -8   82.30    3.22 
  -2  -9   8   82.36    3.35 
  -2   9   8   84.32    3.79 
   2  -9   8   79.04    3.61 
   0  10   0  122.78    4.05 
   0 -10   0  124.27    3.60 
  -1 -10   0    0.97    0.38 
   1 -10   0   -0.05    0.37 
   1  10   0    0.30    0.49 
  -1  10   0    0.72    0.64 
  -2  10   0   72.21    2.92 
   2  10   0   71.80    2.75 
  -2 -10   0   77.61    2.39 
   2 -10   0   73.74    2.45 
   3 -10   0    0.24    0.49 
  -3  10   0    0.28    0.77 
   3  10   0   -0.09    0.54 
  -3 -10   0    0.12    0.41 
  -3  10   0   -0.03    0.66 
  -4  10   0   54.94    2.74 
  -4  10   0   59.78    2.59 
   4 -10   0   60.25    2.24 
  -4 -10   0   57.57    2.11 
  -5 -10   0    0.16    0.55 
  -6 -10   0   47.75    2.14 
  -7 -10   0    0.29    0.80 
   0 -10   1    0.17    0.32 
   0 -10  -1    0.35    0.39 
   0  10   1    0.15    0.50 
   0  10  -1    0.46    0.68 
  -1 -10   1   51.46    1.71 
   1  10   1   48.81    2.05 
  -1  10  -1   47.72    2.29 
   1 -10  -1   52.25    1.87 
   1  10  -1   46.98    2.16 
   1 -10   1   54.05    1.75 
  -1  10   1   48.45    2.14 
  -1 -10  -1   49.91    1.78 
   2 -10  -1    5.38    0.70 
   2  10   1    4.56    0.75 
  -2 -10   1    5.07    0.57 
  -2  10  -1    5.98    1.04 
  -2 -10  -1    5.65    0.59 
  -2  10   1    5.61    0.86 
   2 -10   1    5.24    0.64 
  -3 -10   1  122.65    3.64 
   3  10   1  115.96    3.94 
   3 -10  -1  128.17    3.80 
  -3  10   1  122.70    4.18 
  -3 -10  -1  121.60    3.69 
  -3  10   1  123.00    4.14 
   4  10   1    1.58    0.71 
  -4 -10   1    0.65    0.48 
   4 -10  -1    1.59    0.62 
  -4  10   1    1.02    0.80 
  -4 -10  -1    1.28    0.49 
  -4  10   1    1.19    0.92 
  -5 -10   1   33.18    1.61 
   5 -10  -1   35.51    1.78 
  -5  10   1   31.73    1.97 
  -5 -10  -1   33.15    1.64 
  -6 -10   1    3.73    0.82 
   6 -10  -1    3.89    0.95 
  -6 -10  -1    3.67    0.83 
  -6  10   1    3.64    1.14 
  -7 -10   1   29.25    1.87 
  -7 -10  -1   29.58    1.88 
   0 -10  -2  208.63    5.74 
   0 -10   2  201.41    5.49 
   0  10   2  195.10    5.91 
  -1 -10   2    6.18    0.55 
   1 -10  -2    6.28    0.73 
   1  10   2    5.71    0.75 
  -1  10   2    6.78    0.83 
  -1 -10  -2    4.92    0.60 
   2  10   2   12.91    1.08 
  -2 -10   2   12.71    0.80 
   2 -10  -2   13.10    1.06 
  -2  10   2   11.92    1.14 
  -2 -10  -2   12.37    0.89 
   3  10   2    3.37    0.70 
  -3 -10   2    3.91    0.58 
   3 -10  -2    3.89    0.69 
  -3 -10  -2    3.15    0.56 
  -3  10   2    3.13    0.99 
  -3  10   2    3.38    0.79 
   4 -10  -2   18.31    1.32 
  -4 -10   2   19.86    1.15 
  -4  10   2   21.82    1.87 
  -4 -10  -2   18.64    1.13 
  -5 -10   2    4.98    0.79 
   5 -10  -2    5.70    0.89 
  -5 -10  -2    5.47    0.81 
  -5  10   2    4.95    1.14 
   6 -10  -2  128.49    4.18 
  -6 -10   2  120.50    4.04 
  -6 -10  -2  118.00    4.05 
  -6  10   2  118.39    4.29 
   7 -10  -2    1.16    1.01 
  -7 -10   2    1.11    0.91 
  -7 -10  -2    0.90    0.88 
  -7  10   2    0.95    1.02 
   0 -10   3    0.08    0.52 
   0 -10  -3    0.05    0.48 
   0  10   3    0.35    0.47 
   1  10   3   10.12    0.97 
  -1 -10   3   11.49    1.10 
   1 -10  -3   11.43    1.02 
  -1 -10  -3   10.78    0.94 
   1 -10   3   13.31    1.19 
  -1  10   3   10.80    0.98 
  -2 -10   3    3.25    0.50 
  -2 -10   3    3.43    0.70 
   2  10   3    2.27    0.62 
   2 -10  -3    3.42    0.66 
  -2 -10  -3    3.44    0.61 
  -2  10   3    2.81    0.67 
  -3 -10   3  164.12    4.74 
  -3 -10   3  169.34    5.73 
   3 -10  -3  166.14    5.01 
  -3  10   3  167.01    5.47 
  -3 -10  -3  163.56    4.89 
  -4 -10   3    1.54    0.58 
   4 -10  -3    0.86    0.65 
  -4  10   3    1.37    1.05 
  -4 -10  -3    0.76    0.54 
   5 -10  -3    1.66    0.75 
  -5 -10  -3    2.67    0.74 
  -5  10   3    1.58    1.05 
   6 -10  -3    1.79    0.89 
  -6 -10   3    1.44    0.82 
  -6  10   3    1.91    1.09 
  -6 -10  -3    1.06    0.81 
  -7 -10   3   12.69    1.43 
   7 -10  -3   12.53    1.43 
  -7  10   3   12.06    1.56 
  -7 -10  -3   11.32    1.41 
   0 -10  -4   93.34    3.19 
   0 -10   4   95.20    3.31 
   1 -10  -4    2.00    0.68 
  -1 -10   4    0.49    0.62 
   1 -10   4    1.28    0.66 
  -1 -10  -4    0.09    0.53 
  -2 -10   4   16.51    1.31 
   2 -10  -4   13.26    1.22 
   2 -10   4   15.62    1.39 
  -2 -10  -4   15.98    1.15 
   3 -10  -4    0.38    0.63 
  -3 -10   4    0.56    0.67 
  -3 -10  -4    0.12    0.55 
  -3  10   4    0.28    0.98 
  -4 -10   4   27.38    1.72 
   4 -10  -4   28.73    1.63 
  -4 -10   4   27.95    1.47 
  -4  10   4   28.19    2.19 
  -4 -10  -4   27.02    1.54 
   5 -10  -4    0.13    0.67 
  -5 -10   4    0.75    0.71 
  -5  10   4    0.10    0.99 
  -5 -10  -4    0.51    0.71 
  -6 -10   4   82.63    3.11 
   6 -10  -4   80.95    3.18 
  -6  10   4   81.02    3.46 
  -6 -10  -4   80.35    3.18 
   0 -10   5    0.13    0.65 
   0 -10  -5    0.01    0.66 
   1 -10  -5   52.68    2.32 
  -1 -10   5   57.12    2.41 
   1 -10   5   53.64    2.45 
  -1 -10  -5   49.46    2.23 
  -2 -10   5    0.09    0.68 
   2 -10  -5    0.14    0.60 
  -2 -10  -5    0.29    0.64 
   2 -10   5    0.40    0.76 
   3 -10  -5   35.05    1.85 
  -3 -10   5   33.81    1.89 
  -3  10   5   30.05    2.29 
  -3 -10  -5   36.58    1.81 
  -4 -10   5    1.01    0.77 
   4 -10  -5    0.45    0.68 
  -4  10   5    0.51    1.08 
  -4 -10  -5    0.38    0.73 
   5 -10  -5   23.67    1.68 
  -5 -10   5   23.39    1.82 
  -5 -10  -5   21.34    1.67 
  -5  10   5   22.28    1.96 
   6 -10  -5    3.04    0.97 
  -6 -10  -5    3.41    1.11 
  -6  10   5    2.41    1.22 
   0 -10   6   27.55    1.92 
   0 -10  -6   28.10    1.79 
  -1 -10   6    0.25    0.74 
   1 -10  -6    0.16    0.77 
   1 -10   6    0.48    0.83 
  -1 -10  -6    0.27    0.76 
  -2 -10   6   46.14    2.35 
   2 -10  -6   44.93    2.17 
  -2 -10  -6   44.73    2.26 
   2 -10   6   46.57    2.51 
  -2  10   6   44.61    2.65 
   3 -10  -6    0.66    0.76 
  -3 -10   6    1.23    0.85 
   3 -10   6    0.84    1.03 
  -3 -10  -6    0.71    0.82 
  -3  10   6    0.51    1.16 
  -4 -10   6   39.75    2.29 
   4 -10  -6   44.94    2.19 
  -4  10   6   39.88    2.67 
  -4 -10  -6   42.11    2.22 
   5 -10  -6    1.05    0.89 
  -5 -10   6    0.10    0.89 
  -5  10   6    0.61    1.18 
   0 -10  -7    0.17    0.90 
   0 -10   7    0.17    0.89 
  -1 -10   7   18.78    1.83 
   1 -10  -7   19.43    1.66 
   1 -10   7   19.64    1.80 
  -1 -10  -7   19.78    1.71 
   2 -10  -7    1.16    0.90 
  -2 -10   7    1.39    0.88 
  -2 -10  -7    1.30    0.98 
   2 -10   7    1.56    1.08 
  -2  10   7    1.26    1.20 
  -3 -10   7   47.64    2.54 
   3 -10  -7   50.87    2.39 
   3 -10   7   46.63    2.91 
  -3  10   7   42.68    2.87 
   0 -10   8   88.45    3.67 
   0 -10  -8   87.32    3.56 
  -1 -10   8    3.08    1.10 
   1 -10  -8    2.79    1.07 
   1 -10   8    2.63    1.19 
   0 -11   0    0.49    0.40 
   0  11   0    0.23    0.60 
  -1 -11   0    0.40    0.39 
  -1  11   0   -0.02    0.64 
   1 -11   0    0.19    0.42 
   1  11   0    0.09    0.60 
  -2 -11   0  346.24    9.46 
  -2  11   0  371.41   10.19 
   2 -11   0  345.01    9.53 
   2  11   0  346.89    9.96 
   3 -11   0    1.08    0.57 
  -3  11   0    0.94    0.88 
  -3  11   0    0.09    0.74 
  -3 -11   0    1.16    0.51 
  -4  11   0  244.73    7.71 
  -4 -11   0  246.31    6.94 
  -5 -11   0    0.13    0.56 
  -6 -11   0   -0.14    0.68 
  -7 -11   0    0.46    0.87 
   0  11   1  148.19    4.78 
   0  11  -1  157.19    6.19 
   0 -11   1  144.05    4.24 
   0 -11  -1  152.06    4.40 
  -1  11  -1  162.04    5.58 
   1 -11  -1  165.53    4.85 
  -1 -11   1  167.59    4.70 
   1  11   1  158.83    5.14 
  -1  11   1  172.36    5.29 
   1 -11   1  168.01    4.73 
  -1 -11  -1  171.15    4.81 
   2 -11  -1   62.05    2.34 
   2  11   1   66.67    2.64 
  -2 -11   1   67.39    2.20 
  -2  11   1   64.56    2.72 
  -2 -11  -1   65.25    2.25 
  -3 -11   1    0.25    0.44 
   3 -11  -1    0.19    0.55 
   3  11   1    0.39    0.60 
  -3  11   1    0.34    0.72 
  -3 -11  -1   -0.10    0.44 
  -4 -11   1   24.07    1.30 
   4 -11  -1   25.47    1.47 
  -4 -11  -1   20.60    1.30 
  -4  11   1   21.98    1.94 
  -5 -11   1  151.57    4.88 
   5 -11  -1  179.10    5.06 
  -5  11   1  160.53    5.29 
  -5 -11  -1  156.67    4.93 
  -6 -11   1   79.88    3.06 
  -6 -11  -1   82.23    3.06 
  -7 -11   1   82.04    3.26 
  -7 -11  -1   83.18    3.28 
   0 -11  -2   -0.06    0.45 
   0  11   2    0.25    0.57 
   1  11   2   56.82    2.33 
  -1 -11   2   57.17    1.90 
   1 -11  -2   58.74    2.14 
  -1 -11  -2   57.59    2.09 
  -1  11   2   54.24    2.34 
   2  11   2    7.32    0.92 
   2 -11  -2    7.77    0.86 
  -2 -11   2    7.74    0.71 
  -2  11   2    6.83    0.98 
  -2 -11  -2    6.97    0.75 
  -3 -11   2  125.91    3.72 
   3 -11  -2  122.45    3.91 
  -3 -11  -2  120.92    3.78 
   4 -11  -2    2.58    0.72 
  -4 -11   2    3.12    0.66 
  -4  11   2    3.30    1.12 
  -4 -11  -2    2.84    0.67 
   5 -11  -2   64.75    2.53 
  -5 -11   2   61.26    2.44 
  -5 -11  -2   61.22    2.45 
  -5  11   2   61.57    2.92 
  -6 -11   2    2.24    0.85 
   6 -11  -2    1.61    0.89 
  -6  11   2    0.61    1.06 
  -6 -11  -2    1.36    0.81 
  -7 -11   2    6.49    1.16 
   7 -11  -2    6.57    1.22 
  -7 -11  -2    9.61    1.33 
  -7  11   2    7.14    1.76 
   0 -11  -3    0.62    0.51 
   1 -11  -3    7.15    0.88 
  -1 -11  -3    5.81    0.74 
   2 -11  -3    3.12    0.73 
  -2 -11  -3    3.06    0.63 
   3 -11  -3    1.64    0.66 
  -3 -11   3    1.43    0.54 
  -3 -11  -3    1.42    0.57 
  -3  11   3    1.99    1.04 
   4 -11  -3    0.03    0.66 
  -4 -11   3    0.99    0.59 
  -4  11   3    1.01    1.11 
  -4 -11  -3    0.90    0.63 
  -5 -11   3    5.84    0.90 
   5 -11  -3    7.25    1.01 
  -5  11   3    6.66    1.35 
  -5 -11  -3    6.92    0.98 
   6 -11  -3    0.26    0.83 
  -6 -11   3    1.18    0.87 
  -6  11   3    0.37    1.09 
  -6 -11  -3    0.50    0.81 
   0 -11   4    0.49    0.69 
   0 -11  -4    0.19    0.61 
   1 -11  -4   22.59    1.50 
  -1 -11   4   23.65    1.62 
  -1 -11  -4   24.14    1.43 
   2 -11  -4    4.84    0.89 
  -2 -11   4    3.47    0.83 
  -2 -11  -4    3.45    0.74 
   3 -11  -4   94.29    3.29 
  -3 -11  -4   91.32    3.19 
  -3  11   4   92.17    3.83 
   4 -11  -4    6.47    0.99 
  -4  11   4    5.37    1.39 
  -4 -11  -4    6.07    0.92 
  -5 -11   4   30.76    1.80 
   5 -11  -4   30.63    1.86 
  -5 -11  -4   30.91    1.83 
  -5  11   4   25.93    2.24 
  -6 -11   4    2.89    1.01 
   6 -11  -4    3.49    1.01 
  -6  11   4    3.49    1.31 
  -6 -11  -4    2.34    1.01 
   0 -11   5  101.92    3.74 
   0 -11  -5  101.26    3.58 
   1 -11  -5  144.16    4.68 
  -1 -11   5  141.91    4.74 
   1 -11   5  146.09    4.83 
  -1 -11  -5  139.24    4.58 
  -2 -11   5   46.97    2.34 
   2 -11  -5   44.65    2.16 
  -2 -11  -5   43.02    2.07 
   3 -11  -5    0.96    0.79 
  -3 -11   5    0.44    0.78 
  -3  11   5    0.12    1.17 
  -3 -11  -5    0.90    0.78 
   4 -11  -5   11.88    1.20 
  -4 -11   5   11.82    1.31 
  -4 -11  -5   13.85    1.32 
  -4  11   5   12.84    1.68 
   5 -11  -5   92.09    3.46 
  -5  11   5   91.08    3.95 
  -5 -11  -5   93.68    3.50 
   0 -11  -6   -0.37    0.84 
   0 -11   6   -0.07    0.88 
  -1 -11   6    0.70    0.85 
   1 -11  -6    2.60    0.95 
  -1 -11  -6    1.47    0.86 
   1 -11   6    1.27    0.95 
   2 -11  -6  230.62    6.98 
  -2 -11   6  236.81    7.20 
  -2  11   6  226.70    7.47 
   2 -11   6  236.20    7.30 
  -2 -11  -6  228.95    6.98 
  -3 -11   6    0.07    0.89 
   3 -11  -6    3.80    0.96 
  -3  11   6    3.55    1.37 
  -3 -11  -6    2.41    0.98 
  -4 -11   6  210.51    6.72 
   4 -11  -6  219.83    6.60 
  -4 -11  -6  212.95    6.61 
  -4  11   6  214.24    7.16 
   0 -11   7  109.75    4.26 
   0 -11  -7  109.93    4.09 
  -1 -11   7  110.24    4.21 
   1 -11  -7  106.85    3.98 
  -1 -11  -7  109.93    4.07 
   1 -11   7  107.02    4.27 
  -2 -11   7   21.16    1.95 
   2 -11  -7   18.69    1.66 
  -2 -11  -7   19.29    1.72 
   2 -11   7   17.21    1.80 
  -2  11   7   19.09    2.06 
  -3 -11   7   -0.19    0.95 
   3 -11  -7    0.32    0.90 
   3 -11   7    0.25    1.22 
  -3 -11  -7    1.12    1.60 
  -3  11   7    0.00    1.34 
   0 -12   0   31.59    1.40 
   0  12   0   30.91    1.94 
  -1  12   0    0.33    0.78 
  -1 -12   0    3.07    0.57 
   1 -12   0    0.17    0.46 
   1  12   0    0.64    0.62 
  -2  12   0   89.56    3.55 
   2 -12   0   87.35    2.94 
  -2 -12   0   88.21    2.85 
  -3 -12   0    0.09    0.48 
  -3  12   0    0.51    0.84 
   3 -12   0    0.06    0.56 
  -4 -12   0   45.82    1.94 
  -5 -12   0    0.43    0.64 
  -6 -12   0   29.03    1.78 
   0 -12   1    0.39    0.42 
   0  12   1    0.19    0.67 
   0 -12  -1    0.47    0.50 
  -1 -12   1   10.10    0.82 
   1  12   1    8.72    1.09 
   1 -12  -1    8.78    0.86 
  -1 -12  -1    8.65    0.81 
   1 -12   1    8.80    0.85 
  -1  12   1    8.71    1.14 
   2 -12  -1  159.80    4.69 
  -2 -12   1  158.63    4.50 
   2  12   1  145.45    4.97 
  -2  12   1  152.34    5.12 
  -2 -12  -1  156.02    4.58 
   3 -12  -1    1.36    0.65 
  -3 -12   1    0.44    0.51 
   3  12   1    0.51    0.69 
  -3 -12  -1    0.49    0.50 
  -4 -12   1  144.26    4.53 
   4 -12  -1  157.27    4.65 
  -4 -12  -1  143.57    4.56 
  -4  12   1  155.06    5.16 
  -5 -12   1   10.41    1.06 
   5 -12  -1   13.58    1.39 
  -5 -12  -1    9.80    1.05 
  -6 -12   1    4.57    0.94 
  -6 -12  -1    8.08    1.13 
   0 -12  -2  178.81    5.28 
  -1 -12   2  167.26    4.91 
   1 -12  -2  168.60    5.03 
  -1 -12  -2  166.24    4.96 
  -2 -12   2   71.08    2.41 
   2 -12  -2   74.48    2.69 
  -2 -12  -2   72.25    2.56 
   3 -12  -2    4.22    0.80 
  -3 -12   2    4.51    0.70 
  -3 -12  -2    3.90    0.68 
  -4 -12   2   66.83    2.48 
   4 -12  -2   70.90    2.62 
  -4  12   2   68.17    3.19 
  -4 -12  -2   63.46    2.49 
  -5 -12   2   93.95    3.37 
   5 -12  -2  100.14    3.47 
  -5  12   2   98.62    3.97 
  -5 -12  -2   97.75    3.41 
   6 -12  -2  130.59    4.23 
  -6 -12   2  118.97    4.15 
  -6  12   2  120.38    4.45 
  -6 -12  -2  117.68    4.16 
   0 -12  -3    0.50    0.61 
   1 -12  -3  212.03    6.26 
  -1 -12  -3  212.13    6.19 
   2 -12  -3    0.38    0.63 
  -2 -12  -3    0.42    0.57 
   3 -12  -3  332.46    9.20 
  -3 -12   3  313.65    9.11 
  -3  12   3  338.86    9.78 
  -3 -12  -3  321.78    9.09 
  -4 -12   3    2.46    0.69 
   4 -12  -3    2.21    0.78 
  -4 -12  -3    2.25    0.73 
  -4  12   3    1.98    1.26 
  -5 -12   3  153.83    4.96 
   5 -12  -3  164.71    5.07 
  -5  12   3  171.48    5.66 
  -5 -12  -3  152.60    5.02 
   6 -12  -3    1.19    0.92 
  -6 -12   3    2.04    0.93 
  -6 -12  -3    0.82    0.90 
  -6  12   3    1.08    1.23 
   0 -12  -4  152.89    4.82 
   1 -12  -4  205.76    6.19 
  -1 -12  -4  203.63    6.10 
   2 -12  -4   80.10    3.05 
  -2 -12  -4   79.77    2.95 
   3 -12  -4    0.37    0.70 
  -3  12   4    0.74    1.16 
  -3 -12  -4    0.62    0.68 
   4 -12  -4   82.87    3.07 
  -4 -12  -4   77.19    3.00 
  -4  12   4   77.34    3.69 
   5 -12  -4  112.98    3.98 
  -5  12   4  114.48    4.58 
  -5 -12  -4  118.25    4.06 
   0 -12  -5    0.82    0.81 
  -1 -12   5    0.25    0.80 
   1 -12  -5    1.69    0.84 
  -1 -12  -5    1.12    0.81 
   2 -12  -5  195.18    5.99 
  -2 -12   5  190.91    6.43 
  -2 -12  -5  189.53    5.89 
   3 -12  -5    1.80    0.87 
  -3 -12  -5    1.38    0.85 
  -3  12   5    1.56    1.34 
   4 -12  -5  202.05    6.13 
  -4 -12  -5  191.64    6.09 
  -4  12   5  199.73    6.80 
   5 -12  -5    4.08    1.02 
  -5  12   5    3.73    1.49 
  -5 -12  -5    4.50    1.18 
   0 -12   6   24.88    2.08 
   0 -12  -6   19.78    1.70 
  -1 -12   6   11.04    1.39 
   1 -12  -6   11.22    1.31 
   1 -12   6   13.41    1.53 
  -1 -12  -6   11.04    1.32 
   2 -12  -6   31.92    2.08 
  -2 -12   6   35.09    2.27 
  -2 -12  -6   34.96    2.10 
  -2  12   6   31.65    2.54 
   3 -12  -6    1.40    0.89 
  -3 -12   6    0.92    1.01 
  -3 -12  -6    0.93    0.98 
  -3  12   6    0.67    1.34 
   0 -12   7   -0.55    1.08 
   0 -12  -7    0.68    1.07 
  -1 -12   7    0.68    1.01 
   1 -12  -7    0.95    1.04 
  -1 -12  -7    0.90    1.11 
   1 -12   7    0.90    1.17 
   0  13   0    0.40    0.84 
   0 -13   0    0.51    0.52 
  -1 -13   0   -0.03    0.47 
   1 -13   0    0.01    0.53 
  -1  13   0    0.12    0.82 
  -2  13   0  247.67    8.04 
   2 -13   0  251.24    7.15 
  -2 -13   0  258.43    7.10 
  -3 -13   0   -0.18    0.52 
  -4 -13   0  158.98    4.85 
  -5 -13   0    0.10    0.72 
  -6 -13   0    1.05    0.86 
   0 -13   1  168.29    5.01 
   0 -13  -1  179.93    5.16 
  -1 -13   1  107.00    3.38 
   1 -13  -1  111.58    3.54 
  -1 -13  -1  108.81    3.48 
   2 -13  -1   15.27    1.28 
  -2 -13   1   16.46    1.07 
  -2 -13  -1   15.43    1.13 
   3 -13  -1    0.03    0.65 
  -3 -13   1   -0.15    0.52 
  -3 -13  -1    0.16    0.57 
  -4 -13   1    2.83    0.75 
   4 -13  -1    2.00    0.77 
  -4 -13  -1    3.72    0.79 
  -4  13   1    2.88    1.29 
  -5 -13   1  113.09    3.89 
  -5 -13  -1  117.20    3.90 
  -6 -13   1   97.10    3.65 
  -6 -13  -1  103.00    3.69 
   0 -13  -2    0.25    0.59 
   1 -13  -2   15.79    1.26 
  -1 -13  -2   15.89    1.22 
   2 -13  -2    7.85    1.01 
  -2 -13   2    5.51    0.73 
  -2 -13  -2    5.86    0.81 
   3 -13  -2  148.61    4.64 
  -3 -13   2  147.78    4.46 
  -3 -13  -2  144.97    4.55 
   4 -13  -2    3.61    0.84 
  -4 -13   2    2.58    0.76 
  -4  13   2    3.45    1.36 
  -4 -13  -2    2.82    0.78 
  -5 -13   2   18.70    1.47 
   5 -13  -2   20.52    1.54 
  -5  13   2   20.34    1.96 
  -5 -13  -2   17.84    1.48 
  -6 -13   2    1.05    0.90 
   6 -13  -2    1.95    1.26 
  -6 -13  -2    1.12    0.85 
   0 -13  -3    0.86    0.68 
   1 -13  -3    2.98    0.81 
  -1 -13  -3    3.88    0.82 
   2 -13  -3    4.51    0.91 
  -2 -13  -3    3.36    0.75 
   3 -13  -3    1.18    0.75 
  -3 -13  -3    0.94    0.70 
  -3  13   3    0.32    1.13 
  -4 -13   3    1.40    0.73 
   4 -13  -3    1.31    0.78 
  -4 -13  -3    1.13    0.77 
  -4  13   3    1.74    1.34 
   5 -13  -3    3.40    0.93 
  -5 -13   3    5.07    0.95 
  -5 -13  -3    4.73    0.97 
  -5  13   3    3.51    1.43 
   0 -13  -4   -0.37    0.70 
   1 -13  -4    0.68    0.79 
  -1 -13  -4    1.90    0.76 
   2 -13  -4    3.58    0.93 
  -2 -13  -4    4.54    0.92 
   3 -13  -4  100.48    3.58 
  -3 -13  -4   97.51    3.52 
  -3  13   4   99.31    4.24 
   4 -13  -4    6.77    1.09 
  -4  13   4    4.50    1.55 
  -4 -13  -4    5.60    1.03 
   5 -13  -4    3.42    0.96 
  -5  13   4    2.86    1.44 
  -5 -13  -4    2.11    1.01 
   0 -13  -5   96.73    3.62 
   1 -13  -5  111.86    4.02 
  -1 -13  -5  109.51    3.93 
   2 -13  -5    8.98    1.20 
  -2 -13  -5    8.25    1.17 
   3 -13  -5   -0.11    0.81 
  -3  13   5    0.85    1.31 
  -3 -13  -5    1.91    0.92 
   4 -13  -5    0.85    0.87 
  -4  13   5    1.10    1.44 
  -4 -13  -5    2.15    1.02 
   0 -13  -6    0.47    0.96 
   1 -13  -6    1.35    0.97 
  -1 -13  -6    1.49    1.02 
   2 -13  -6  182.32    5.86 
  -2  13   6  172.04    6.39 
  -2 -13  -6  188.16    5.90 
   0 -14   0  196.79    5.74 
  -1 -14   0    0.75    0.60 
   1 -14   0   -0.13    0.59 
  -2 -14   0   24.69    1.41 
  -3 -14   0    0.25    0.60 
  -4 -14   0   12.74    1.17 
  -5 -14   0    0.06    0.78 
   0 -14  -1    1.36    0.66 
   1 -14  -1   19.37    1.35 
  -1 -14   1   18.42    1.20 
  -1 -14  -1   18.48    1.29 
  -2 -14   1    0.40    0.57 
   2 -14  -1    0.03    0.69 
  -2 -14  -1   -0.10    0.58 
  -3 -14   1  128.18    4.08 
   3 -14  -1  132.76    4.24 
  -3 -14  -1  129.67    4.16 
  -4 -14   1    1.41    0.74 
  -4 -14  -1    0.03    0.68 
  -5 -14   1   14.05    1.32 
  -5 -14  -1   13.40    1.27 
   0 -14  -2   77.01    2.86 
   1 -14  -2    0.34    0.70 
  -1 -14  -2    0.82    0.66 
   2 -14  -2   17.56    1.45 
  -2 -14  -2   16.71    1.32 
  -3 -14   2    1.58    0.70 
   3 -14  -2    0.97    0.75 
  -3 -14  -2    1.09    0.70 
   4 -14  -2   25.73    1.73 
  -4 -14   2   25.16    1.60 
  -4 -14  -2   26.18    1.67 
  -4  14   2   24.89    2.27 
   5 -14  -2    0.85    0.86 
  -5 -14   2    0.39    0.81 
  -5 -14  -2    3.55    0.95 
  -5  14   2    0.70    1.37 
   0 -14  -3    0.00    0.67 
   1 -14  -3   24.72    1.67 
  -1 -14  -3   24.55    1.61 
   2 -14  -3    1.09    0.80 
  -2 -14  -3    1.60    0.79 
   3 -14  -3   32.50    1.94 
  -3  14   3   36.33    2.76 
  -3 -14  -3   34.53    1.88 
   4 -14  -3    0.88    0.80 
  -4  14   3    0.64    1.36 
  -4 -14  -3    0.65    0.81 
   5 -14  -3    8.98    1.20 
  -5 -14   3    7.87    1.16 
  -5  14   3    7.80    1.70 
  -5 -14  -3    6.81    1.15 
   0 -14  -4   37.33    2.05 
   1 -14  -4    2.36    0.94 
  -1 -14  -4    1.66    0.87 
   2 -14  -4   16.99    1.52 
  -2 -14  -4   16.17    1.44 
   3 -14  -4    0.06    0.82 
  -3 -14  -4   -0.10    0.80 
  -3  14   4   -0.62    1.35 
   4 -14  -4   24.99    1.85 
  -4 -14  -4   27.53    1.87 
  -4  14   4   19.46    2.25 
   0 -14  -5    0.36    0.88 
   1 -14  -5   20.55    1.82 
  -1 -14  -5   23.46    1.81 
   2 -14  -5    0.11    0.91 
  -2 -14  -5    1.39    0.93 
   3 -14  -5   57.11    2.72 
  -3 -14  -5   66.36    2.83 
  -3  14   5   50.69    3.35 
   0 -14  -6   79.31    3.41 
   1 -14  -6   -0.02    1.01 
  -1 -14  -6    0.59    1.06 
   0 -15   0    1.23    0.73 
  -1 -15   0    0.16    0.67 
   1 -15   0   -0.25    0.68 
  -2 -15   0    3.67    0.82 
  -3 -15   0    1.26    0.74 
  -4 -15   0   12.22    1.21 
  -5 -15   0    0.13    0.82 
   0 -15  -1  149.03    4.68 
  -1 -15   1    5.01    0.88 
   1 -15  -1    4.55    0.88 
  -1 -15  -1    5.57    0.93 
  -2 -15   1    4.90    0.85 
   2 -15  -1    6.72    1.04 
  -2 -15  -1    5.47    0.91 
   3 -15  -1    0.72    0.99 
  -3 -15   1    0.79    0.71 
  -3 -15  -1    1.34    0.77 
  -4 -15   1    3.78    0.90 
  -4 -15  -1    3.52    0.91 
  -5 -15   1   12.35    1.35 
  -5 -15  -1   14.38    1.38 
   0 -15  -2    1.15    0.77 
   1 -15  -2    4.35    0.92 
  -1 -15  -2    3.94    0.89 
   2 -15  -2  163.71    5.18 
  -2 -15  -2  159.75    5.06 
   3 -15  -2  135.06    4.48 
  -3 -15  -2  137.56    4.48 
   4 -15  -2  139.17    4.55 
  -4 -15   2  135.15    4.45 
  -4  15   2  140.00    5.36 
  -4 -15  -2  135.18    4.56 
   0 -15  -3    1.97    0.89 
   1 -15  -3  330.63    9.46 
  -1 -15  -3  327.30    9.39 
   2 -15  -3    0.12    0.84 
  -2 -15  -3    0.94    0.84 
   3 -15  -3    0.62    0.84 
  -3  15   3    1.77    1.49 
  -3 -15  -3    2.15    0.90 
   4 -15  -3    0.42    0.88 
  -4  15   3    0.27    1.54 
  -4 -15  -3    1.08    0.91 
   0 -15  -4    0.94    0.88 
   1 -15  -4    5.02    1.07 
  -1 -15  -4    4.73    1.06 
   2 -15  -4  144.11    4.96 
  -2 -15  -4  151.20    4.94 
   3 -15  -4   82.12    3.30 
  -3 -15  -4   81.09    3.34 
  -3  15   4   92.09    4.22 
   0 -15  -5   92.94    3.69 
   1 -15  -5    7.17    1.31 
  -1 -15  -5    6.08    1.23 
   0 -16   0  430.18   11.82 
  -1 -16   0    0.21    0.77 
  -2 -16   0  189.33    5.76 
  -3 -16   0    0.85    0.81 
  -4 -16   0  120.74    4.17 
   0 -16  -1    0.50    0.78 
   1 -16  -1   63.49    2.71 
  -1 -16  -1   66.23    2.68 
  -2 -16   1   95.20    3.40 
   2 -16  -1   94.22    3.53 
  -2 -16  -1   99.72    3.48 
  -3 -16   1  177.24    5.60 
  -3 -16  -1  189.16    5.73 
  -4 -16   1  114.26    3.94 
  -4 -16  -1  111.14    4.00 
   0 -16  -2    1.79    0.89 
   1 -16  -2  119.44    4.13 
  -1 -16  -2  118.18    4.08 
   2 -16  -2    5.57    1.10 
  -2 -16  -2    4.96    1.05 
   3 -16  -2    0.31    0.84 
  -3 -16  -2    0.88    0.87 
  -3  16   2    0.30    1.45 
   0 -16  -3   -0.55    0.84 
   1 -16  -3   34.26    2.07 
  -1 -16  -3   30.60    1.97 
   2 -16  -3    0.53    0.93 
  -2 -16  -3    0.21    0.89 
   3 -16  -3   24.95    1.87 
  -3  16   3   25.85    2.54 
  -3 -16  -3   28.60    2.01 
   0 -16  -4    1.46    1.01 
   1 -16  -4   81.15    3.40 
  -1 -16  -4   77.28    3.26 
   2 -16  -4    3.95    1.15 
  -2 -16  -4    2.90    1.07 
  -1 -17   0   -0.19    0.85 
  -2 -17   0    9.74    1.22 
  -3 -17   0   -0.30    0.86 
   0 -17  -1   66.08    2.79 
   1 -17  -1    1.27    0.94 
  -1 -17  -1    0.53    0.89 
  -2 -17  -1    5.30    1.09 
  -3 -17   1   -0.06    0.85 
  -3 -17  -1    0.63    0.93 
   0 -17  -2    0.58    0.89 
   1 -17  -2    2.35    1.01 
  -1 -17  -2    2.91    1.01 
   2 -17  -2   77.24    3.22 
  -2 -17  -2   72.69    3.08 
   0 -17  -3    0.77    0.98 
   1 -17  -3  170.82    5.69 
  -1 -17  -3  174.83    5.66 
   0   0   0    0.00    0.00 
;
_shelx_hkl_checksum              16955
loop_
_space_group_symop_id
_space_group_symop_operation_xyz
1 x,y,z
2 1/2-x,-y,1/2+z
3 1/2+x,1/2-y,1/2-z
4 -x,1/2+y,-z
5 -x,-y,-z
6 1/2+x,y,1/2-z
7 1/2-x,1/2+y,1/2+z
8 x,1/2-y,z
loop_
_atom_site_label
_atom_site_type_symbol
_atom_site_fract_x
_atom_site_fract_y
_atom_site_fract_z
_atom_site_U_iso_or_equiv
_atom_site_adp_type
_atom_site_occupancy
_atom_site_site_symmetry_order
_atom_site_calc_flag
_atom_site_refinement_flags_posn
_atom_site_refinement_flags_adp
_atom_site_refinement_flags_occupancy
Sc3 Sc -0.00450(17) 0.59149(7) 0.17065(12) 0.00215(14) Uani 1 1 d . . .
W1 W 0.32973(3) 0.12423(2) 0.16485(3) 0.00046(8) Uani 0.9671(19) 1 d . . P
Sc1 Sc 0.32973(3) 0.12423(2) 0.16485(3) 0.00046(8) Uani 0.0329(19) 1 d . . P
W2 W 0.16335(4) 0.2500 0.50255(4) 0.00041(9) Uani 1 2 d S T P
Si4 Si 0.1677(2) 0.04373(12) 0.4623(2) 0.0016(3) Uani 1 1 d . . .
Si5 Si 0.0320(3) 0.2500 0.1185(3) 0.0015(4) Uani 1 2 d S T P
Si6 Si 0.2990(3) 0.2500 0.8570(3) 0.0016(4) Uani 1 2 d S T P
loop_
_atom_site_aniso_label
_atom_site_aniso_U_11
_atom_site_aniso_U_22
_atom_site_aniso_U_33
_atom_site_aniso_U_23
_atom_site_aniso_U_13
_atom_site_aniso_U_12
Sc3 0.0022(3) 0.0021(3) 0.0025(3) -0.0004(2) -0.00009(18) -0.0004(2)
W1 0.00052(9) 0.000389(8) 0.000450(8) 0.000010(4) -0.000035(4) 0.000020(4)
Sc1 0.00052(9) 0.000389(8) 0.000450(8) 0.000010(4) -0.000035(4) 0.000020(4)
W2 0.00044(12) 0.00043(12) 0.00038(12) 0.000 0.000030(13) 0.000
Si4 0.0021(7) 0.0012(7) 0.0015(6) 0.0001(5) -0.0002(5) 0.0000(5)
Si5 0.0008(10) 0.0022(9) 0.0017(8) 0.000 -0.0005(7) 0.000
Si6 0.0017(6) 0.0016(6) 0.0015(6) 0.000 0.0003(5) 0.000
loop_
_atom_type_symbol
_atom_type_description
_atom_type_scat_dispersion_real
_atom_type_scat_dispersion_imag
_atom_type_scat_source
Si Si 0.0817 0.0704 'International Tables Vol C Tables 4.2.6.8 and 6.1.1.4'
Sc Sc 0.2519 0.3716 'International Tables Vol C Tables 4.2.6.8 and 6.1.1.4'
W W -0.8490 6.8722 'International Tables Vol C Tables 4.2.6.8 and 6.1.1.4'
loop_
_citation_id
_citation_year
primary 2015
loop_
_geom_angle_atom_site_label_1
_geom_angle_atom_site_label_2
_geom_angle_atom_site_label_3
_geom_angle
_geom_angle_site_symmetry_1
_geom_angle_site_symmetry_3
_geom_angle_publ_flag
Si4 W1 Si5 91.72(5) . . yes
Si4 W1 Si6 148.77(5) . 1_554 yes
Si4 W1 Si4 95.67(5) . 2_554 yes
Si4 W1 Si5 90.55(5) . 3_555 yes
Si4 W1 Si4 118.19(5) . 6_555 yes
Si5 W1 Si6 57.55(6) . 1_554 yes
Si4 W1 Si5 117.72(5) 2_554 . yes
Si5 W1 Si5 94.52(5) . 3_555 yes
Si4 W1 Si5 149.78(5) 6_555 . yes
Si4 W1 Si6 94.46(4) 2_554 1_554 yes
Si5 W1 Si6 96.88(5) 3_555 1_554 yes
Si4 W1 Si6 92.24(5) 6_555 1_554 yes
Si4 W1 Si5 146.86(5) 2_554 3_555 yes
Si4 W1 Si4 58.79(4) 2_554 6_555 yes
Si4 W1 Si5 89.67(5) 6_555 3_555 yes
Si4 W2 Si5 84.53(3) . . yes
Si4 W2 Si6 95.38(3) . . yes
Si4 W2 Si6 92.79(3) . 3_456 yes
Si4 W2 Si5 87.49(3) . 3_555 yes
Si4 W2 Si4 168.00(4) . 8_555 yes
Si5 W2 Si6 178.00(6) . . yes
Si5 W2 Si6 93.52(6) . 3_456 yes
Si5 W2 Si5 89.47(6) . 3_555 yes
Si4 W2 Si5 84.53(3) 8_555 . yes
Si6 W2 Si6 88.49(6) . 3_456 yes
Si5 W2 Si6 88.53(6) 3_555 . yes
Si4 W2 Si6 95.38(3) 8_555 . yes
Si5 W2 Si6 177.02(7) 3_555 3_456 yes
Si4 W2 Si6 92.79(3) 8_555 3_456 yes
Si4 W2 Si5 87.49(3) 8_555 3_555 yes
Si5 Sc1 Si6 96.88(5) 3_555 1_554 yes
Si4 Sc1 Si6 92.24(5) 6_555 1_554 yes
Si4 Sc1 Si5 146.86(5) 2_554 3_555 yes
Si4 Sc1 Si4 58.79(4) 2_554 6_555 yes
Si4 Sc1 Si5 89.67(5) 6_555 3_555 yes
Si4 Sc1 Si5 117.72(5) 2_554 . yes
Si4 Sc1 Si5 91.72(5) . . yes
Si4 Sc1 Si6 148.77(5) . 1_554 yes
Si4 Sc1 Si4 95.67(5) . 2_554 yes
Si4 Sc1 Si5 90.55(5) . 3_555 yes
Si4 Sc1 Si4 118.19(5) . 6_555 yes
Si5 Sc1 Si6 57.55(6) . 1_554 yes
Si4 Sc1 Si6 94.46(4) 2_554 1_554 yes
Si5 Sc1 Si5 94.52(5) . 3_555 yes
Si4 Sc1 Si5 149.78(5) 6_555 . yes
Si4 Sc3 Si6 85.70(5) 8_555 2_564 yes
Si4 Sc3 Si4 137.59(6) 4_556 7_554 yes
Si4 Sc3 Si4 53.01(4) 4_556 8_555 yes
Si4 Sc3 Si6 133.90(6) 7_554 4_556 yes
Si4 Sc3 Si6 138.81(6) 8_555 4_556 yes
Si4 Sc3 Si4 84.58(5) 7_554 8_555 yes
Si4 Sc3 Si5 99.06(5) 3_455 4_555 yes
Si4 Sc3 Si4 82.26(5) 3_455 4_556 yes
Si4 Sc3 Si6 83.80(5) 3_455 4_556 yes
Si4 Sc3 Si4 108.16(5) 3_455 7_554 yes
Si4 Sc3 Si4 98.90(5) 3_455 8_555 yes
Si4 Sc3 Si5 139.16(6) 4_556 4_555 yes
Si5 Sc3 Si6 52.80(6) 4_555 4_556 yes
Si4 Sc3 Si5 81.15(5) 7_554 4_555 yes
Si4 Sc3 Si5 159.83(6) 8_555 4_555 yes
Si4 Sc3 Si6 87.20(6) 4_556 4_556 yes
Si4 Sc3 Si6 161.29(6) 3_455 2_564 yes
Si5 Sc3 Si6 80.20(5) 4_555 2_564 yes
Si4 Sc3 Si6 86.23(6) 4_556 2_564 yes
Si6 Sc3 Si6 80.95(5) 2_564 4_556 yes
Si4 Sc3 Si6 90.28(6) 7_554 2_564 yes
W1 Si4 W2 71.51(4) . . yes
W1 Si4 W1 141.13(6) . 2_555 yes
W1 Si4 Sc3 70.98(4) . 3_555 yes
W1 Si4 Sc3 143.07(7) . 4_546 yes
W1 Si4 Si4 135.71(6) . 5_556 yes
W1 Si4 W1 86.15(4) . 6_455 yes
W1 Si4 Sc3 89.13(5) . 7_545 yes
W1 Si4 Sc3 81.49(4) . 8_555 yes
W2 Si4 Sc1 71.51(4) . . yes
W1 Si4 W2 141.16(6) 2_555 . yes
W2 Si4 Sc3 129.03(5) . 3_555 yes
W2 Si4 Sc3 71.70(4) . 4_546 yes
W2 Si4 Si4 114.07(6) . 5_556 yes
W1 Si4 W2 68.48(4) 6_455 . yes
W2 Si4 Sc3 74.36(4) . 7_545 yes
W2 Si4 Sc3 131.72(6) . 8_555 yes
Sc1 Si4 Sc3 70.98(4) . 3_555 yes
Sc1 Si4 Sc3 143.07(7) . 4_546 yes
Sc1 Si4 Si4 135.71(6) . 5_556 yes
Sc1 Si4 Sc3 89.13(5) . 7_545 yes
Sc1 Si4 Sc3 81.49(4) . 8_555 yes
W1 Si4 Sc3 70.54(4) 2_555 3_555 yes
W1 Si4 Sc3 72.46(4) 2_555 4_546 yes
W1 Si4 Si4 61.64(5) 2_555 5_556 yes
W1 Si4 W1 121.21(5) 2_555 6_455 yes
W1 Si4 Sc3 84.15(4) 2_555 7_545 yes
W1 Si4 Sc3 82.82(5) 2_555 8_555 yes
Sc3 Si4 Sc3 134.01(6) 3_555 4_546 yes
Sc3 Si4 Si4 116.84(7) 3_555 5_556 yes
W1 Si4 Sc3 139.93(6) 6_455 3_555 yes
Sc3 Si4 Sc3 71.84(4) 3_555 7_545 yes
Sc3 Si4 Sc3 73.80(5) 3_555 8_555 yes
Sc3 Si4 Si4 64.97(5) 4_546 5_556 yes
W1 Si4 Sc3 83.35(4) 6_455 4_546 yes
Sc3 Si4 Sc3 78.16(5) 4_546 7_545 yes
Sc3 Si4 Sc3 126.99(6) 4_546 8_555 yes
W1 Si4 Si4 59.57(4) 6_455 5_556 yes
Sc3 Si4 Si4 135.16(7) 7_545 5_556 yes
Sc3 Si4 Si4 62.01(5) 8_555 5_556 yes
W1 Si4 Sc3 142.10(7) 6_455 7_545 yes
W1 Si4 Sc3 70.51(4) 6_455 8_555 yes
Sc3 Si4 Sc3 145.59(6) 7_545 8_555 yes
W1 Si5 W2 68.99(5) . . yes
W1 Si5 Si6 63.20(5) . 1_554 yes
W1 Si5 W1 136.26(9) . 3_455 yes
W1 Si5 W2 140.12(3) . 3_455 yes
W1 Si5 Sc3 71.80(4) . 4_545 yes
W1 Si5 Sc3 125.71(8) . 5_565 yes
W1 Si5 W1 86.29(3) . 6_455 yes
W1 Si5 W1 77.78(6) . 8_555 yes
W2 Si5 Sc1 68.99(5) . . yes
W2 Si5 Si6 117.17(9) . 1_554 yes
W1 Si5 W2 67.28(5) 3_455 . yes
W2 Si5 W2 127.06(8) . 3_455 yes
W2 Si5 Sc3 133.04(4) . 4_545 yes
W2 Si5 Sc3 133.04(4) . 5_565 yes
W1 Si5 W2 67.28(5) 6_455 . yes
W1 Si5 W2 68.99(5) 8_555 . yes
Sc1 Si5 Si6 63.20(5) . 1_554 yes
W2 Si5 Sc1 140.12(3) 3_455 . yes
Sc1 Si5 Sc3 71.80(4) . 4_545 yes
Sc1 Si5 Sc3 125.71(8) . 5_565 yes
W1 Si5 Si6 141.10(3) 3_455 1_554 yes
W2 Si5 Si6 115.77(9) 3_455 1_554 yes
Sc3 Si5 Si6 63.12(5) 4_545 1_554 yes
Sc3 Si5 Si6 63.12(5) 5_565 1_554 yes
W1 Si5 Si6 141.10(3) 6_455 1_554 yes
W1 Si5 Si6 63.20(5) 8_555 1_554 yes
W1 Si5 W2 72.12(5) 3_455 3_455 yes
W1 Si5 Sc3 144.87(8) 3_455 4_545 yes
W1 Si5 Sc3 85.58(3) 3_455 5_565 yes
W1 Si5 W1 77.66(6) 3_455 6_455 yes
W1 Si5 W1 86.29(3) 3_455 8_555 yes
W2 Si5 Sc3 73.42(5) 3_455 4_545 yes
W2 Si5 Sc3 73.42(5) 3_455 5_565 yes
W1 Si5 W2 72.12(5) 6_455 3_455 yes
W1 Si5 W2 140.12(3) 8_555 3_455 yes
Sc3 Si5 Sc3 91.06(6) 4_545 5_565 yes
W1 Si5 Sc3 85.58(3) 6_455 4_545 yes
W1 Si5 Sc3 125.71(8) 8_555 4_545 yes
W1 Si5 Sc3 144.87(8) 6_455 5_565 yes
W1 Si5 Sc3 71.80(4) 8_555 5_565 yes
W1 Si5 W1 136.26(9) 6_455 8_555 yes
W1 Si6 W2 140.38(4) 1_556 . yes
W2 Si6 Si5 115.17(9) . 1_556 yes
W2 Si6 Sc3 74.69(5) . 2_565 yes
W2 Si6 W2 132.05(8) . 3_556 yes
W2 Si6 Sc3 72.39(5) . 4_546 yes
W2 Si6 Sc3 72.39(5) . 5_566 yes
W2 Si6 Sc3 74.69(5) . 7_545 yes
W1 Si6 W2 140.38(4) 8_556 . yes
W1 Si6 Si5 59.25(5) 1_556 1_556 yes
W1 Si6 Sc3 140.79(8) 1_556 2_565 yes
W1 Si6 W2 68.59(5) 1_556 3_556 yes
W1 Si6 Sc3 70.80(3) 1_556 4_546 yes
W1 Si6 Sc3 122.76(8) 1_556 5_566 yes
W1 Si6 Sc3 83.40(3) 1_556 7_545 yes
W1 Si6 W1 74.39(5) 1_556 8_556 yes
Sc3 Si6 Si5 132.57(4) 2_565 1_556 yes
W2 Si6 Si5 112.79(9) 3_556 1_556 yes
Sc3 Si6 Si5 64.08(5) 4_546 1_556 yes
Sc3 Si6 Si5 64.08(5) 5_566 1_556 yes
Sc3 Si6 Si5 132.57(4) 7_545 1_556 yes
W1 Si6 Si5 59.25(5) 8_556 1_556 yes
W2 Si6 Sc3 73.38(5) 3_556 2_565 yes
Sc3 Si6 Sc3 147.07(8) 2_565 4_546 yes
Sc3 Si6 Sc3 77.31(4) 2_565 5_566 yes
Sc3 Si6 Sc3 94.78(7) 2_565 7_545 yes
W1 Si6 Sc3 83.40(3) 8_556 2_565 yes
W2 Si6 Sc3 131.82(4) 3_556 4_546 yes
W2 Si6 Sc3 131.82(4) 3_556 5_566 yes
W2 Si6 Sc3 73.38(5) 3_556 7_545 yes
W1 Si6 W2 68.59(5) 8_556 3_556 yes
Sc3 Si6 Sc3 92.03(7) 4_546 5_566 yes
Sc3 Si6 Sc3 77.31(4) 4_546 7_545 yes
W1 Si6 Sc3 122.76(8) 8_556 4_546 yes
Sc3 Si6 Sc3 147.07(8) 5_566 7_545 yes
W1 Si6 Sc3 70.80(3) 8_556 5_566 yes
W1 Si6 Sc3 140.79(8) 8_556 7_545 yes
loop_
_geom_bond_atom_site_label_1
_geom_bond_atom_site_label_2
_geom_bond_distance
_geom_bond_site_symmetry_2
_geom_bond_publ_flag
W1 Si4 2.4934(14) . yes
W1 Si5 2.5323(16) . yes
W1 Si6 2.6300(16) 1_554 yes
W1 Si4 2.5280(15) 2_554 yes
W1 Si5 2.5356(16) 3_555 yes
W1 Si4 2.5800(14) 6_555 yes
W2 Si4 2.6218(15) . yes
W2 Si5 2.740(2) . yes
W2 Si6 2.560(2) . yes
W2 Si6 2.564(2) 3_456 yes
W2 Si5 2.545(2) 3_555 yes
W2 Si4 2.6218(15) 8_555 yes
Sc1 Si4 2.4934(14) . yes
Sc1 Si5 2.5323(16) . yes
Sc1 Si6 2.6300(16) 1_554 yes
Sc1 Si4 2.5280(15) 2_554 yes
Sc1 Si5 2.5356(16) 3_555 yes
Sc1 Si4 2.5800(14) 6_555 yes
Sc3 Si4 2.8446(17) 8_555 yes
Sc3 Si6 2.7226(16) 2_564 yes
Sc3 Si4 2.8849(17) 3_455 yes
Sc3 Si5 2.8078(17) 4_555 yes
Sc3 Si4 2.7722(16) 4_556 yes
Sc3 Si6 2.7847(17) 4_556 yes
Sc3 Si4 2.6837(17) 7_554 yes
Si4 Si4 2.5077(19) 5_556 yes
Si5 Si6 2.487(3) 1_554 yes
