#------------------------------------------------------------------------------
#$Date: 2016-03-05 12:19:26 +0200 (Sat, 05 Mar 2016) $
#$Revision: 177864 $
#$URL: svn://www.crystallography.net/cod/cif/7/03/80/7038099.cif $
#------------------------------------------------------------------------------
#
# This file is available in the Crystallography Open Database (COD),
# http://www.crystallography.net/
#
# All data on this site have been placed in the public domain by the
# contributors.
#
data_7038099
loop_
_publ_author_name
'Nielsen, Morten B.'
'Xie, Weiwei'
'Cava, Robert J.'
_publ_section_title
;
 Ternary rare earth silicides RE2M3Si4 (RE = Sc, Y, Lu; M = Mo, W):
 crystal structure, coloring and electronic properties.
;
_journal_issue                   9
_journal_name_full
'Dalton transactions (Cambridge, England : 2003)'
_journal_page_first              3771
_journal_page_last               3777
_journal_paper_doi               10.1039/c5dt03976b
_journal_volume                  45
_journal_year                    2016
_chemical_formula_sum            'Mo3 Sc2 Si4'
_chemical_formula_weight         490.10
_chemical_name_systematic
; 
 ? 
;
_space_group_crystal_system      orthorhombic
_space_group_IT_number           62
_space_group_name_Hall           '-P 2ac 2n'
_space_group_name_H-M_alt        'P n m a'
_symmetry_space_group_name_Hall  '-P 2ac 2n'
_symmetry_space_group_name_H-M   'P n m a'
_audit_creation_method           SHELXL-2013
_cell_angle_alpha                90
_cell_angle_beta                 90
_cell_angle_gamma                90
_cell_formula_units_Z            4
_cell_length_a                   6.5175(5)
_cell_length_b                   12.6141(10)
_cell_length_c                   6.7628(5)
_cell_measurement_reflns_used    3423
_cell_measurement_temperature    300(2)
_cell_measurement_theta_max      29.60
_cell_measurement_theta_min      3.23
_cell_volume                     555.99(7)
_computing_cell_refinement       'Bruker SAINT'
_computing_data_collection       'Bruker APEX2'
_computing_data_reduction        'Bruker SAINT'
_computing_molecular_graphics    'Bruker SHELXTL'
_computing_publication_material  'Bruker SHELXTL'
_computing_structure_refinement  'SHELXL-2013 (Sheldrick, 2013)'
_computing_structure_solution    'SHELXS-97 (Sheldrick 2008)'
_diffrn_ambient_temperature      300(2)
_diffrn_measured_fraction_theta_full 1.000
_diffrn_measured_fraction_theta_max 0.983
_diffrn_measurement_device_type  'Bruker APEX-II CCD'
_diffrn_measurement_method       '\f and \w scans'
_diffrn_radiation_type           MoK\a
_diffrn_radiation_wavelength     0.71073
_diffrn_reflns_av_R_equivalents  0.0216
_diffrn_reflns_av_unetI/netI     0.0167
_diffrn_reflns_laue_measured_fraction_full 1.000
_diffrn_reflns_laue_measured_fraction_max 0.983
_diffrn_reflns_limit_h_max       9
_diffrn_reflns_limit_h_min       -9
_diffrn_reflns_limit_k_max       17
_diffrn_reflns_limit_k_min       -17
_diffrn_reflns_limit_l_max       9
_diffrn_reflns_limit_l_min       -9
_diffrn_reflns_number            4869
_diffrn_reflns_point_group_measured_fraction_full 1.000
_diffrn_reflns_point_group_measured_fraction_max 0.983
_diffrn_reflns_theta_full        25.242
_diffrn_reflns_theta_max         29.965
_diffrn_reflns_theta_min         3.230
_exptl_absorpt_coefficient_mu    9.612
_exptl_absorpt_correction_T_max  0.7459
_exptl_absorpt_correction_T_min  0.4825
_exptl_absorpt_correction_type   multi-scan
_exptl_crystal_colour            Metallic
_exptl_crystal_density_diffrn    5.855
_exptl_crystal_density_meas      ?
_exptl_crystal_density_method    'Not measured'
_exptl_crystal_description       Irregular
_exptl_crystal_F_000             896
_exptl_crystal_size_max          0.020
_exptl_crystal_size_mid          0.015
_exptl_crystal_size_min          0.006
_refine_diff_density_max         1.622
_refine_diff_density_min         -0.879
_refine_diff_density_rms         0.227
_refine_ls_extinction_coef       0.0033(4)
_refine_ls_extinction_expression Fc^*^=kFc[1+0.001xFc^2^\l^3^/sin(2\q)]^-1/4^
_refine_ls_extinction_method     SHELXL
_refine_ls_goodness_of_fit_ref   1.172
_refine_ls_hydrogen_treatment    undef
_refine_ls_matrix_type           full
_refine_ls_number_parameters     47
_refine_ls_number_reflns         823
_refine_ls_number_restraints     0
_refine_ls_restrained_S_all      1.172
_refine_ls_R_factor_all          0.0217
_refine_ls_R_factor_gt           0.0204
_refine_ls_shift/su_max          0.001
_refine_ls_shift/su_mean         0.000
_refine_ls_structure_factor_coef Fsqd
_refine_ls_weighting_details
'w=1/[\s^2^(Fo^2^)+(0.0278P)^2^+3.2822P] where P=(Fo^2^+2Fc^2^)/3'
_refine_ls_weighting_scheme      calc
_refine_ls_wR_factor_gt          0.0572
_refine_ls_wR_factor_ref         0.0581
_reflns_Friedel_coverage         0.000
_reflns_number_gt                781
_reflns_number_total             823
_reflns_threshold_expression     'I > 2\s(I)'
_cod_data_source_file            c5dt03976b3.cif
_cod_data_source_block           Sc2Mo3Si4
_cod_depositor_comments
;
The following automatic conversions were performed:

'_exptl_crystal_density_meas' value 'None' was changed to '?' - the
value is perceived as not measured.

Automatic conversion script
Id: cif_fix_values 4268 2015-11-12 08:31:59Z antanas 

 Adding full bibliography for 7038099--7038101.cif.
;
_cod_original_formula_sum        'Sc2 Mo3 Si4'
_cod_database_code               7038099
_shelx_space_group_comment
; 
The symmetry employed for this shelxl refinement is uniquely defined 
by the following loop, which should always be used as a source of 
symmetry information in preference to the above space-group names. 
They are only intended as comments. 
;
_shelxl_version_number           2013-4
_shelx_res_file
; 
TITL MBN037x in Pnma 
CELL 0.71073   6.51750  12.61410   6.76280  90.0000  90.0000  90.0000 
ZERR    4.00   0.00050   0.00100   0.00050   0.0000   0.0000   0.0000 
LATT  1 
SYMM 0.5-X, -Y, 0.5+Z 
SYMM -X, 0.5+Y, -Z 
SYMM 0.5+X, 0.5-Y, 0.5-Z 
SFAC SI SC MO 
UNIT 16 8 12 
TEMP 26.620 
  
L.S. 10 
ACTA 
  
WGHT    0.027800    3.282200 
EXTI    0.003331 
FVAR       0.09038 
MOLE   1 
MO1   3    0.171344    0.376185    0.665596    11.00000    0.00561    0.00419 = 
         0.00470    0.00010   -0.00035    0.00020 
MO2   3   -0.164515    0.250000    0.494482    10.50000    0.00443    0.00435 = 
         0.00381    0.00000    0.00030    0.00000 
SC3   2    0.004761    0.591738    0.829160    11.00000    0.00245    0.00225 = 
         0.00279   -0.00044   -0.00009   -0.00038 
SI4   1    0.166234    0.544151    0.462535    11.00000    0.00694    0.00601 = 
         0.00578    0.00076    0.00004   -0.00025 
SI5   1    0.200315    0.250000    0.358792    10.50000    0.00676    0.00631 = 
         0.00609    0.00000    0.00028    0.00000 
SI6   1   -0.031417    0.250000    0.877663    10.50000    0.00518    0.00654 = 
         0.00625    0.00000    0.00012    0.00000 
  
HKLF 4 
  
REM  MBN037x in Pnma 
REM R1 =  0.0204 for     781 Fo > 4sig(Fo)  and  0.0217 for all     823 data 
REM     47 parameters refined using      0 restraints 
  
END 
  
WGHT      0.0277      3.3023 
  
REM Highest difference peak  1.622,  deepest hole -0.879,  1-sigma level  0.227 
Q1    1   0.0072  0.6195  0.8365  11.00000  0.05    1.62 
Q2    1   0.0114  0.3322  0.4764  11.00000  0.05    0.50 
Q3    1  -0.0096  0.2500  0.9959  10.50000  0.05    0.49 
Q4    1  -0.0086  0.5088  0.9667  11.00000  0.05    0.49 
Q5    1   0.0271  0.2500  0.5564  10.50000  0.05    0.47 
Q6    1   0.1717  0.5483  0.9664  11.00000  0.05    0.46 
Q7    1  -0.0384  0.3091  0.9231  11.00000  0.05    0.46 
Q8    1   0.0015  0.5267  0.4028  11.00000  0.05    0.46 
Q9    1   0.0320  0.3194  0.8666  11.00000  0.05    0.45 
Q10   1  -0.0286  0.3185  0.7759  11.00000  0.05    0.43 
Q11   1  -0.0280  0.5168  0.6750  11.00000  0.05    0.43 
Q12   1   0.1584  0.4565  0.7780  11.00000  0.05    0.42 
Q13   1   0.1977  0.4777  0.5002  11.00000  0.05    0.42 
Q14   1   0.1878  0.3194  0.6674  11.00000  0.05    0.40 
Q15   1   0.1271  0.6786  0.8360  11.00000  0.05    0.40 
Q16   1   0.0402  0.4581  0.4790  11.00000  0.05    0.40 
Q17   1   0.0021  0.3803  0.8754  11.00000  0.05    0.40 
Q18   1   0.0054  0.6945  0.7390  11.00000  0.05    0.39 
Q19   1  -0.0093  0.5784  0.5124  11.00000  0.05    0.39 
Q20   1   0.1748  0.2930  0.5329  11.00000  0.05    0.38 
;
_shelx_res_checksum              77635
_shelx_hkl_file
; 
  -1   0   0    0.37    0.09 
  -2   0   0   75.56    2.35 
   2   0   0   88.15    2.32 
  -3   0   0   -1.06    0.07 
   3   0   0   -1.11    0.09 
   4   0   0    8.12    0.37 
  -4   0   0    8.25    0.31 
  -5   0   0    0.23    0.09 
   5   0   0    0.02    0.13 
   6   0   0  992.31   25.69 
  -6   0   0  963.88   25.41 
  -7   0   0    0.05    0.10 
   7   0   0    0.06    0.16 
   8   0   0   53.98    1.76 
  -8   0   0   53.60    1.55 
   9   0   0   -0.03    0.26 
  -9   0   0   -0.01    0.14 
   0   0  -1    0.11    0.05 
   0   0   1    0.04    0.04 
  -1   0  -1   65.01    1.85 
   1   0   1   66.67    1.86 
  -2   0   1  184.26    4.77 
  -3   0   1  862.28   24.93 
  -3   0  -1 1000.00   25.08 
   3   0   1  995.07   25.18 
   3   0  -1  990.11   25.35 
   4   0   1  134.07    3.58 
   4   0  -1  132.70    3.58 
  -4   0  -1  133.58    3.50 
  -4   0   1  129.93    3.53 
   4   0   1  134.79    3.50 
  -5   0  -1   56.88    1.56 
   5   0   1   54.67    1.65 
   5   0  -1   56.57    1.66 
  -5   0   1   56.89    1.58 
   6   0  -1    0.11    0.16 
  -6   0   1    0.11    0.10 
   6   0   1    0.09    0.15 
  -6   0  -1    0.06    0.09 
   7   0  -1   11.69    0.62 
  -7   0  -1   11.52    0.46 
   7   0   1   12.32    0.62 
  -7   0   1   12.16    0.47 
  -8   0  -1   46.46    1.64 
   8   0   1   49.71    1.63 
  -8   0  -1   47.55    1.41 
  -8   0   1   47.99    1.40 
   8   0  -1   47.67    1.61 
  -9   0  -1  185.98    4.95 
  -9   0  -1  181.63    5.18 
   9   0   1  189.94    5.21 
   9   0  -1  183.04    5.18 
  -9   0   1  182.63    4.91 
   0   0   2    0.76    0.15 
   0   0  -2    0.68    0.16 
   1   0   2  155.76    4.27 
  -1   0  -2  155.63    4.26 
  -2   0  -2   61.75    1.68 
   2   0   2   62.03    1.66 
  -2   0  -2   61.31    1.66 
   2   0  -2   61.01    1.69 
   2   0   2   62.41    1.69 
   3   0   2    1.32    0.15 
  -3   0  -2    1.34    0.12 
  -3   0  -2    1.60    0.18 
  -3   0   2    1.25    0.10 
   3   0   2    1.45    0.13 
   3   0  -2    1.43    0.17 
  -4   0   2   75.23    2.00 
   4   0   2   73.35    2.00 
  -4   0  -2   73.42    2.07 
   4   0   2   72.51    2.07 
   4   0  -2   73.44    2.08 
  -4   0  -2   74.97    2.00 
  -5   0   2   62.82    1.78 
   5   0   2   63.26    1.85 
  -5   0  -2   61.84    1.75 
   5   0   2   64.76    1.75 
  -5   0  -2   64.67    1.86 
   5   0  -2   62.39    1.85 
   6   0  -2    0.41    0.20 
  -6   0  -2    0.27    0.11 
  -6   0  -2    0.30    0.26 
  -6   0   2    0.34    0.13 
   7   0   2   73.91    2.25 
  -7   0  -2   73.34    2.26 
  -7   0   2   75.15    2.08 
  -7   0  -2   74.61    2.09 
   7   0  -2   75.20    2.25 
  -8   0  -2    5.23    0.34 
  -8   0   2    5.88    0.34 
   8   0   2    5.81    0.54 
  -8   0  -2    5.16    0.58 
   8   0  -2    5.25    0.51 
   0   0   3   -0.92    0.07 
  -1   0  -3   95.73    2.60 
  -1   0   3   98.00    2.57 
   1   0  -3   98.75    2.60 
   2   0   3   15.33    0.51 
  -2   0  -3   14.38    0.51 
  -2   0  -3   14.97    0.48 
   2   0  -3   14.89    0.51 
  -3   0  -3  294.82    7.45 
   3   0  -3  280.70    7.48 
   3   0   3  287.65    7.44 
   3   0   3  287.75    7.49 
  -3   0  -3  275.58    7.47 
  -4   0  -3    1.86    0.17 
   4   0   3    1.73    0.20 
   4   0   3    1.91    0.18 
  -4   0  -3    1.38    0.19 
  -4   0   3    1.94    0.15 
   5   0  -3    3.32    0.33 
  -5   0   3    2.60    0.21 
  -5   0  -3    3.41    0.34 
  -5   0  -3    3.20    0.23 
   5   0   3    2.59    0.24 
   5   0   3    2.95    0.31 
   6   0   3    4.66    0.40 
  -6   0   3    4.77    0.33 
   6   0  -3    5.42    0.42 
  -6   0  -3    4.73    0.43 
  -6   0  -3    4.44    0.29 
  -7   0  -3   59.84    1.90 
  -7   0  -3   59.95    1.75 
   7   0  -3   61.86    1.90 
   7   0   3   61.71    1.92 
  -7   0   3   59.09    1.76 
   8   0   3    3.11    0.42 
   8   0  -3    3.75    0.42 
  -8   0  -3    3.43    0.31 
  -8   0   3    3.39    0.30 
  -8   0  -3    3.25    0.44 
   0   0   4   41.73    1.14 
   0   0  -4   38.08    1.15 
   1   0  -4  228.97    5.93 
  -1   0   4  225.96    5.90 
   1   0   4  231.50    5.92 
  -1   0  -4  218.33    5.92 
  -2   0  -4   23.58    0.75 
  -2   0   4   22.36    0.68 
  -2   0  -4   21.77    0.70 
   2   0  -4   22.63    0.73 
  -3   0   4    1.75    0.16 
   3   0   4    1.87    0.18 
  -3   0  -4    1.88    0.22 
   3   0   4    1.66    0.19 
   3   0  -4    1.62    0.20 
  -3   0  -4    1.58    0.16 
   4   0  -4   59.33    1.73 
  -4   0  -4   59.47    1.67 
   4   0   4   58.05    1.67 
  -4   0  -4   60.06    1.74 
   4   0   4   57.18    1.73 
  -5   0  -4  146.00    3.90 
  -5   0  -4  142.32    3.97 
   5   0   4  144.49    3.98 
   5   0   4  145.50    3.90 
  -5   0   4  145.41    3.86 
   5   0  -4  145.70    3.98 
  -6   0   4    1.95    0.22 
   6   0   4    1.96    0.29 
   6   0   4    1.95    0.25 
  -6   0  -4    1.63    0.20 
   6   0  -4    2.62    0.32 
  -6   0  -4    1.89    0.32 
  -7   0  -4   76.48    2.22 
   7   0   4   78.70    2.39 
   7   0  -4   77.75    2.35 
  -7   0   4   75.98    2.25 
  -7   0  -4   79.58    2.40 
  -8   0   4    0.10    0.18 
  -8   0  -4   -0.06    0.38 
  -8   0  -4   -0.04    0.16 
   8   0   4    0.13    0.27 
   8   0  -4    0.05    0.26 
   0   0   5    0.04    0.10 
   0   0  -5    0.04    0.12 
   1   0   5   31.08    0.96 
  -1   0  -5   32.33    0.99 
   1   0  -5   31.12    0.98 
  -1   0   5   31.20    0.94 
   2   0   5  154.75    4.15 
  -2   0   5  155.55    4.10 
  -2   0  -5  149.30    4.15 
   2   0  -5  161.52    4.18 
  -3   0  -5  339.16    8.71 
   3   0  -5  323.25    8.68 
   3   0   5  326.98    8.66 
  -3   0  -5  333.29    8.65 
  -4   0  -5  136.79    3.74 
   4   0  -5  138.75    3.80 
  -4   0  -5  140.40    3.81 
   4   0   5  141.74    3.76 
   4   0   5  134.95    3.80 
  -5   0   5   14.52    0.54 
  -5   0  -5   16.62    0.60 
  -5   0  -5   13.63    0.71 
   5   0  -5   13.66    0.65 
   5   0   5   14.39    0.59 
   5   0   5   14.32    0.67 
  -6   0   5    0.05    0.14 
   6   0  -5    0.30    0.23 
  -6   0  -5    0.14    0.28 
  -6   0  -5    0.13    0.16 
   6   0   5    0.24    0.19 
   6   0   5    0.06    0.21 
  -7   0  -5    8.44    0.48 
  -7   0   5    8.65    0.50 
  -7   0  -5    9.54    0.76 
   7   0  -5    8.13    0.61 
   7   0   5    8.69    0.64 
   0   0  -6  791.67   21.44 
   0   0   6  867.05   21.44 
  -1   0   6    3.01    0.25 
   1   0   6    3.01    0.27 
   1   0  -6    2.88    0.32 
  -1   0  -6    3.31    0.33 
  -2   0   6   35.85    1.08 
   2   0  -6   36.30    1.16 
   2   0   6   34.71    1.12 
  -2   0  -6   36.81    1.17 
   3   0   6    4.57    0.34 
  -3   0  -6    3.89    0.40 
   3   0  -6    4.96    0.39 
   4   0  -6    7.18    0.48 
  -4   0  -6    8.17    0.55 
   4   0   6    6.62    0.41 
   5   0  -6    0.40    0.24 
  -5   0   6    0.26    0.14 
   5   0   6    0.47    0.20 
   5   0   6    0.62    0.24 
  -5   0  -6    0.58    0.30 
  -6   0  -6  446.94   11.59 
  -6   0   6  428.49   11.40 
   6   0  -6  432.01   11.53 
   6   0   6  445.14   11.47 
   6   0   6  427.49   11.56 
  -7   0  -6    7.09    0.69 
   0   0   7    0.01    0.15 
  -1   0   7   14.53    0.59 
   1   0   7   14.93    0.61 
  -2   0   7   63.77    1.82 
   2   0   7   62.26    1.87 
   3   0   7  261.52    6.97 
   4   0   7   33.36    1.14 
   5   0   7   27.25    1.01 
   6   0   7   10.63    0.60 
  -6   0   7    9.57    0.51 
   0   0   8    1.66    0.26 
   1   0   8   40.11    1.30 
  -1   0   8   39.40    1.28 
   2   0   8    5.09    0.44 
   3   0   8    0.49    0.24 
   4   0   8    4.55    0.44 
   0   0   9   -0.01    0.23 
  -1   0   9    0.08    0.23 
   1   0   9    0.20    0.24 
   2   0   9    1.84    0.33 
   0  -1   0    0.01    0.04 
   0   1   0    0.09    0.06 
   1  -1   0    0.11    0.10 
  -1   1   0    0.02    0.10 
  -2   1   0    3.46    0.35 
  -2  -1   0    3.48    0.23 
   2  -1   0    4.04    0.33 
   2   1   0    4.11    0.21 
   3  -1   0    0.35    0.09 
  -3   1   0    0.47    0.09 
   3   1   0    0.06    0.08 
   4   1   0   61.77    1.72 
   4  -1   0   60.05    1.73 
  -4   1   0   61.36    1.69 
  -4  -1   0   62.54    1.64 
   4   1   0   59.71    1.73 
  -5   1   0    0.41    0.11 
  -5  -1   0    0.16    0.07 
   5   1   0    0.03    0.12 
   5  -1   0   -0.05    0.13 
  -6   1   0    3.62    0.24 
  -6  -1   0    2.82    0.19 
   6  -1   0    3.22    0.32 
   6   1   0    2.09    0.26 
  -7   1   0    0.07    0.11 
   7  -1   0    0.03    0.17 
   7   1   0    0.13    0.17 
  -7  -1   0    0.27    0.11 
  -8  -1   0   11.80    0.47 
  -8   1   0   12.28    0.51 
   8  -1   0   12.86    0.69 
   8   1   0   12.40    0.68 
  -9  -1   0    0.00    0.13 
   9  -1   0    0.17    0.27 
   9   1   0    0.13    0.28 
  -9   1   0   -0.03    0.14 
  -9  -1   0    0.34    0.39 
   0   1  -1   77.71    2.13 
   0  -1   1   78.90    2.13 
   1   1   1    2.97    0.19 
  -1   1  -1    3.25    0.23 
  -1  -1  -1    3.00    0.19 
   1  -1   1    3.23    0.23 
  -2  -1  -1   83.22    2.14 
  -2   1   1   79.77    2.15 
   3   1   1    0.46    0.08 
  -3   1  -1    0.68    0.09 
   3   1   1    0.56    0.11 
  -3  -1   1    0.53    0.07 
   3  -1  -1    0.71    0.13 
   3   1  -1    0.50    0.10 
  -3  -1  -1    0.68    0.08 
  -3   1   1    0.54    0.10 
  -4   1  -1   63.34    1.70 
   4   1   1   60.58    1.75 
   4  -1  -1   62.77    1.77 
  -4  -1   1   59.75    1.68 
   4   1   1   61.10    1.69 
   4   1  -1   61.39    1.75 
  -4   1   1   61.00    1.73 
  -4  -1  -1   62.96    1.67 
   4  -1   1   63.73    1.67 
   4  -1   1   62.43    1.76 
  -5  -1   1   31.92    0.92 
  -5   1  -1   32.49    0.95 
   5  -1  -1   31.77    1.04 
   5   1   1   31.51    1.03 
   5   1   1   30.74    0.95 
  -5  -1  -1   32.12    0.92 
   5  -1   1   32.08    1.04 
  -5   1   1   31.98    0.97 
   5   1  -1   32.38    1.03 
   6   1   1   24.65    0.92 
   6  -1  -1   25.80    0.94 
  -6  -1   1   26.46    0.79 
  -6   1  -1   24.71    0.81 
   6  -1   1   26.72    0.93 
  -6   1   1   26.40    0.84 
   6   1  -1   26.97    0.94 
  -6  -1  -1   25.88    0.79 
  -7   1  -1    0.34    0.13 
   7  -1  -1    0.97    0.24 
  -7  -1   1    0.99    0.14 
   7   1   1    0.45    0.20 
  -7  -1  -1    0.32    0.29 
  -7   1   1    0.93    0.17 
   7  -1   1    0.22    0.19 
   7   1  -1    0.46    0.20 
  -7  -1  -1    0.27    0.11 
  -8   1  -1   32.76    1.06 
   8   1   1   34.47    1.26 
   8  -1  -1   32.21    1.23 
  -8  -1   1   33.73    1.02 
   8  -1   1   33.96    1.26 
  -8  -1  -1   33.81    1.04 
  -8   1   1   34.28    1.07 
  -8  -1  -1   34.14    1.29 
   8   1  -1   34.23    1.24 
  -9   1  -1    1.10    0.48 
  -9  -1  -1    1.38    0.47 
   0  -1   2    0.11    0.09 
   0  -1  -2    0.02    0.08 
   0   1  -2    0.14    0.09 
  -1   1  -2   59.33    1.80 
   1   1  -2   61.37    1.73 
   1  -1   2   57.95    1.80 
  -1  -1  -2   58.43    1.77 
   2   1   2  282.15    7.32 
   2  -1  -2  282.83    7.32 
   2   1   2  284.25    7.29 
   2  -1   2  282.31    7.28 
  -2  -1  -2  272.04    7.30 
  -2  -1  -2  284.18    7.28 
  -3   1  -2   54.65    1.53 
   3   1   2   53.42    1.49 
   3   1   2   53.87    1.54 
   3  -1  -2   54.28    1.54 
  -3   1  -2   54.89    1.49 
  -3   1   2   54.41    1.48 
  -3  -1  -2   53.80    1.48 
   3   1  -2   54.95    1.53 
   3  -1   2   54.27    1.53 
   3  -1   2   55.07    1.48 
  -3  -1  -2   53.61    1.53 
   4  -1  -2  205.95    5.48 
  -4   1  -2  209.64    5.41 
  -4  -1   2  204.66    5.37 
   4   1   2  209.64    5.41 
   4   1   2  204.94    5.47 
   4  -1   2  207.57    5.39 
  -4  -1  -2  205.15    5.47 
   4  -1   2  203.53    5.47 
  -4  -1  -2  211.22    5.40 
  -4   1   2  203.04    5.41 
   4   1  -2  205.38    5.46 
   5  -1  -2   29.68    1.01 
  -5   1  -2   30.83    0.93 
   5   1   2   31.04    1.01 
  -5  -1   2   31.01    0.92 
   5   1   2   30.67    0.92 
  -5   1   2   30.55    0.97 
  -5  -1  -2   30.46    0.90 
   5   1  -2   31.09    1.00 
  -5  -1  -2   29.61    1.01 
   5  -1   2   29.11    1.00 
  -6   1  -2    0.44    0.13 
  -6  -1   2    0.09    0.11 
   6   1   2    0.10    0.16 
   6  -1  -2    0.21    0.18 
  -6   1  -2    0.09    0.25 
  -6  -1  -2    0.19    0.10 
  -6   1   2    0.09    0.13 
  -6  -1  -2    0.21    0.24 
   6  -1   2    0.79    0.21 
   6   1  -2    0.16    0.18 
  -7  -1   2   33.58    1.01 
   7   1   2   33.30    1.20 
  -7   1  -2   33.49    1.24 
   7  -1  -2   34.37    1.20 
  -7   1  -2   34.24    1.06 
  -7  -1  -2   33.37    1.20 
   7   1  -2   34.08    1.19 
   7  -1   2   33.99    1.21 
  -7   1   2   34.27    1.07 
  -7  -1  -2   32.41    1.03 
  -8   1  -2   61.19    2.01 
  -8  -1   2   62.27    1.73 
   8  -1  -2   61.86    1.98 
  -8   1  -2   58.94    1.79 
   8   1   2   60.31    1.97 
  -8   1   2   61.42    1.78 
   8   1  -2   64.65    1.97 
   8  -1   2   61.08    1.99 
  -8  -1  -2   61.68    1.97 
  -8  -1  -2   60.04    1.76 
   0  -1   3    3.03    0.17 
   0   1   3    3.16    0.16 
  -1  -1   3  617.46   15.48 
   1   1   3  607.78   15.53 
   1  -1  -3  602.30   15.68 
   1  -1   3  588.43   15.46 
  -1   1   3  610.31   15.44 
  -1  -1  -3  544.68   15.34 
   2   1   3   12.02    0.40 
  -2  -1   3   11.80    0.37 
   2   1   3   11.56    0.43 
   2  -1  -3   11.58    0.44 
  -2   1  -3   11.03    0.41 
   2  -1   3   10.93    0.39 
   2   1  -3   11.51    0.41 
   2  -1   3   11.29    0.41 
  -2  -1  -3   11.86    0.43 
  -2  -1  -3   11.01    0.39 
   3   1   3    0.46    0.11 
  -3  -1   3    0.47    0.08 
  -3   1  -3    0.49    0.13 
  -3   1  -3    0.48    0.10 
   3   1   3    0.35    0.12 
   3   1  -3    0.59    0.13 
  -3  -1  -3    0.43    0.14 
   3  -1   3    0.72    0.13 
  -3  -1  -3    0.48    0.09 
   3  -1   3    0.44    0.10 
   4   1   3    1.65    0.17 
  -4   1  -3    1.34    0.19 
   4  -1  -3    1.54    0.20 
  -4   1  -3    1.22    0.14 
   4   1   3    1.41    0.19 
   4   1  -3    1.75    0.21 
  -4   1   3    1.38    0.14 
   4  -1   3    1.72    0.16 
  -4  -1  -3    1.31    0.20 
  -4  -1  -3    1.59    0.16 
   4  -1   3    1.63    0.19 
  -5   1  -3  178.97    4.77 
   5  -1  -3  182.07    4.87 
  -5  -1   3  180.13    4.73 
  -5   1  -3  173.75    4.83 
   5   1   3  178.50    4.87 
   5   1   3  182.62    4.78 
  -5  -1  -3  178.85    4.76 
  -5   1   3  177.17    4.77 
   5  -1   3  177.92    4.85 
   5  -1   3  181.19    4.76 
   5   1  -3  179.97    4.84 
  -5  -1  -3  186.63    4.86 
  -6   1  -3    0.54    0.14 
  -6  -1   3    0.74    0.16 
  -6   1  -3    1.10    0.29 
   6  -1  -3    0.68    0.22 
   6   1   3    0.75    0.22 
   6  -1   3    0.59    0.21 
  -6  -1  -3    0.84    0.24 
   6   1  -3    0.80    0.21 
  -6   1   3    0.94    0.19 
  -6  -1  -3    0.68    0.14 
   7  -1  -3  239.41    6.43 
  -7  -1   3  237.03    6.26 
  -7   1  -3  229.86    6.41 
  -7   1  -3  238.33    6.29 
   7   1   3  242.49    6.46 
   7   1  -3  246.08    6.43 
  -7  -1  -3  236.57    6.42 
   7  -1   3  235.53    6.44 
  -7   1   3  228.85    6.31 
  -7  -1  -3  236.48    6.27 
   8  -1  -3    0.33    0.26 
  -8   1  -3    0.27    0.33 
   8   1   3    0.61    0.29 
  -8   1  -3    0.34    0.17 
  -8  -1   3    0.56    0.16 
  -8   1   3    0.47    0.18 
  -8  -1  -3    0.25    0.16 
   8  -1   3    0.59    0.28 
  -8  -1  -3    0.28    0.33 
   8   1  -3    0.31    0.26 
   0  -1  -4    0.02    0.11 
   0   1   4   -0.10    0.08 
   0  -1   4   -0.14    0.08 
   1  -1  -4   95.00    2.55 
  -1  -1   4   95.86    2.51 
   1   1   4   93.79    2.52 
  -1   1  -4   90.49    2.51 
  -1  -1  -4   92.48    2.54 
   1   1  -4   98.12    2.53 
  -1  -1  -4   89.27    2.51 
  -1   1   4   94.89    2.50 
  -2   1  -4  197.38    5.20 
   2  -1  -4  204.86    5.24 
  -2   1  -4  191.47    5.18 
  -2  -1   4  197.65    5.17 
   2   1   4  196.26    5.20 
  -2  -1  -4  209.11    5.24 
   2  -1   4  193.77    5.19 
  -2  -1  -4  191.79    5.18 
   2   1  -4  195.39    5.20 
  -2   1   4  197.68    5.15 
   3   1   4   23.33    0.77 
  -3   1  -4   22.33    0.76 
  -3   1  -4   22.59    0.72 
  -3  -1   4   23.86    0.69 
   3   1   4   21.77    0.73 
   3  -1  -4   21.84    0.77 
   3  -1   4   21.94    0.72 
  -3  -1  -4   22.36    0.77 
  -3  -1  -4   22.52    0.72 
   3   1  -4   22.85    0.75 
   3  -1   4   22.18    0.75 
   4   1   4  245.79    6.49 
   4  -1  -4  244.45    6.48 
  -4   1  -4  240.66    6.46 
   4   1   4  240.08    6.42 
  -4   1  -4  245.15    6.42 
   4   1  -4  250.84    6.47 
   4  -1   4  241.58    6.47 
  -4   1   4  245.41    6.39 
  -4  -1  -4  241.85    6.41 
   4  -1   4  243.54    6.41 
  -4  -1  -4  244.27    6.48 
   5   1   4   55.96    1.69 
   5  -1  -4   54.84    1.69 
  -5  -1   4   56.14    1.54 
   5   1   4   54.38    1.60 
  -5   1  -4   55.31    1.68 
  -5   1  -4   54.27    1.60 
  -5   1   4   56.23    1.58 
   5   1  -4   54.82    1.66 
   5  -1   4   52.78    1.67 
  -5  -1  -4   54.02    1.69 
   5  -1   4   55.58    1.59 
  -5  -1  -4   55.03    1.59 
   6   1   4    0.34    0.20 
   6  -1  -4    0.12    0.20 
  -6   1  -4    0.11    0.14 
  -6  -1   4    0.07    0.12 
  -6   1  -4   -0.01    0.25 
   6   1   4    0.11    0.17 
  -6   1   4    0.07    0.14 
  -6  -1  -4    0.04    0.12 
   6  -1   4    0.01    0.18 
  -6  -1  -4    0.20    0.25 
   6   1  -4    0.08    0.19 
  -7  -1   4   26.55    0.92 
  -7   1  -4   25.89    1.10 
   7  -1  -4   27.53    1.06 
   7   1   4   27.23    1.07 
  -7   1  -4   26.26    0.92 
   7   1  -4   25.88    1.03 
   7  -1   4   26.38    1.07 
  -7   1   4   26.22    0.96 
  -7  -1  -4   26.17    0.90 
  -7  -1  -4   27.30    1.09 
  -8  -1   4   26.22    0.89 
   8  -1  -4   25.37    1.10 
  -8   1  -4   25.76    0.94 
   8   1   4   25.91    1.12 
  -8   1  -4   26.18    1.18 
   8  -1   4   25.88    1.13 
   8   1  -4   26.82    1.09 
  -8  -1  -4   25.48    0.92 
  -8  -1  -4   27.86    1.17 
  -8   1   4   26.46    0.95 
   0   1   5   36.35    1.05 
   0   1  -5   34.24    1.05 
   0  -1  -5   34.06    1.08 
   0  -1   5   35.80    1.05 
  -1  -1   5   13.50    0.49 
   1  -1  -5   13.83    0.54 
  -1   1  -5   14.17    0.53 
   1   1   5   13.24    0.49 
  -1   1   5   13.35    0.48 
   1  -1   5   13.43    0.51 
  -1  -1  -5   13.30    0.54 
   1   1  -5   14.50    0.52 
   2  -1  -5   29.83    0.96 
   2   1   5   29.61    0.91 
  -2   1  -5   27.69    0.91 
  -2  -1   5   29.15    0.88 
   2   1  -5   28.82    0.91 
  -2  -1  -5   28.18    0.93 
  -2   1   5   28.29    0.86 
   2  -1   5   28.97    0.91 
  -3  -1   5    1.29    0.16 
  -3   1  -5    1.19    0.22 
   3   1   5    1.36    0.19 
   3  -1  -5    1.87    0.24 
  -3  -1  -5    1.32    0.18 
   3  -1   5    1.27    0.19 
   3   1  -5    1.16    0.19 
  -3  -1  -5    1.38    0.25 
   4   1   5   33.98    1.08 
   4   1   5   34.82    1.15 
  -4   1  -5   35.43    1.14 
   4  -1  -5   34.11    1.13 
  -4   1  -5   32.38    1.07 
   4  -1   5   33.62    1.07 
   4   1  -5   34.22    1.11 
  -4  -1  -5   35.66    1.08 
  -4  -1  -5   35.32    1.16 
   4  -1   5   33.14    1.11 
  -5   1  -5    3.26    0.31 
   5   1   5    2.63    0.27 
   5   1   5    3.64    0.36 
  -5   1  -5    3.05    0.36 
   5  -1  -5    3.22    0.34 
  -5  -1  -5    3.17    0.37 
  -5   1   5    3.08    0.27 
   5   1  -5    3.01    0.35 
  -5  -1  -5    2.95    0.29 
   5  -1   5    2.97    0.32 
   5  -1   5    3.46    0.32 
  -6  -1   5   23.35    0.77 
   6   1   5   22.80    0.84 
  -6   1  -5   22.62    0.98 
   6  -1  -5   22.27    0.93 
  -6   1  -5   22.23    0.83 
   6   1   5   23.62    0.95 
  -6   1   5   22.77    0.82 
  -6  -1  -5   22.52    0.81 
   6  -1   5   22.37    0.83 
   6  -1   5   21.91    0.92 
  -6  -1  -5   23.63    1.00 
   6   1  -5   22.53    0.90 
  -7   1  -5    5.63    0.58 
   7   1   5    5.04    0.55 
   7  -1  -5    5.21    0.53 
  -7   1  -5    5.25    0.42 
  -7  -1   5    5.23    0.39 
  -7  -1  -5    6.35    0.62 
   7   1  -5    5.58    0.51 
  -7  -1  -5    5.53    0.40 
  -7   1   5    5.22    0.43 
   7  -1   5    5.46    0.56 
   0   1   6    0.09    0.13 
   0  -1  -6    0.38    0.18 
   0  -1   6    0.01    0.12 
   1  -1  -6    8.60    0.46 
  -1  -1   6    8.83    0.40 
   1   1   6    8.68    0.41 
  -1   1   6    8.34    0.39 
   1  -1   6    9.33    0.41 
  -1  -1  -6    8.94    0.48 
   2   1   6    6.13    0.36 
   2  -1  -6    6.62    0.43 
  -2  -1   6    7.76    0.35 
   2  -1   6    5.92    0.36 
  -2   1   6    5.91    0.33 
  -2  -1  -6    6.61    0.44 
   3   1   6    2.28    0.25 
   3  -1  -6    2.64    0.30 
  -3  -1  -6    2.60    0.32 
   3  -1   6    2.84    0.28 
   4  -1  -6   14.57    0.69 
   4   1   6   15.95    0.65 
   4  -1   6   16.56    0.65 
  -4  -1  -6   15.68    0.76 
  -5   1  -6    5.06    0.65 
   5  -1  -6    5.56    0.48 
   5   1   6    5.21    0.47 
   5   1   6    5.33    0.41 
   5  -1   6    5.26    0.46 
  -5   1   6    5.62    0.36 
  -5  -1  -6    5.23    0.57 
   5  -1   6    5.85    0.40 
   6   1   6    5.35    0.43 
   6  -1  -6    4.85    0.53 
   6   1   6    4.74    0.52 
  -6  -1   6    4.98    0.34 
  -6   1  -6    3.67    0.71 
  -6  -1  -6    5.77    0.57 
  -6  -1  -6    4.92    0.40 
  -6   1   6    4.75    0.38 
   6  -1   6    5.21    0.52 
   6  -1   6    5.10    0.44 
  -7  -1  -6    0.33    0.43 
   0  -1  -7    7.01    0.48 
   0   1   7    6.60    0.40 
   0  -1   7    6.97    0.40 
   1  -1  -7    0.87    0.23 
   1   1   7    1.24    0.22 
  -1  -1   7    1.07    0.20 
   1  -1   7    1.20    0.22 
  -1  -1  -7    0.75    0.22 
  -1   1   7    1.09    0.20 
   2  -1  -7   69.23    2.07 
   2   1   7   67.17    2.01 
  -2  -1   7   68.98    1.97 
   2  -1   7   70.31    2.03 
  -2   1   7   67.03    1.97 
  -2  -1  -7   71.22    2.10 
   3  -1  -7    0.89    0.27 
   3   1   7    0.90    0.23 
   3  -1   7    0.96    0.23 
  -3  -1  -7    1.11    0.29 
   4   1   7   34.30    1.17 
   4  -1  -7   34.56    1.21 
   4  -1   7   34.01    1.17 
  -4  -1  -7   34.48    1.25 
   5   1   7    5.78    0.47 
   5  -1  -7    6.51    0.55 
   5  -1   7    5.87    0.45 
  -5   1   7    5.47    0.39 
  -5  -1  -7    5.24    0.59 
  -6  -1   7    5.81    0.40 
   6  -1  -7    6.45    0.79 
   6   1   7    5.29    0.48 
   6  -1   7    5.95    0.51 
  -6  -1  -7    5.89    0.65 
  -6   1   7    5.49    0.42 
   0  -1   8   -0.07    0.18 
   0   1   8    0.03    0.19 
  -1  -1   8   25.35    0.92 
   1   1   8   24.73    0.92 
   1  -1   8   25.22    0.93 
  -1   1   8   25.46    0.90 
   2   1   8   54.96    1.72 
  -2  -1   8   54.70    1.67 
   2  -1   8   56.55    1.73 
   3   1   8    8.44    0.54 
   3  -1   8    8.11    0.52 
   4   1   8   27.01    1.04 
   4  -1   8   27.64    1.04 
   0  -1   9    0.64    0.26 
   0   1   9    0.41    0.24 
   1   1   9  104.64    3.04 
  -1  -1   9  107.48    3.03 
   1  -1   9  105.09    3.04 
  -1   1   9  104.86    3.00 
   2   1   9    6.50    0.54 
   2  -1   9    7.20    0.54 
   0   2   0   56.78    1.65 
   0  -2   0   52.46    1.61 
  -1   2   0   -0.01    0.14 
  -1  -2   0    0.07    0.07 
   1  -2   0    0.00    0.12 
  -1  -2   0    0.07    0.03 
   2  -2   0   45.25    1.57 
  -2   2   0   44.09    1.62 
   2   2   0   46.76    1.25 
   3  -2   0    0.18    0.10 
  -3   2   0    0.02    0.08 
  -3  -2   0    0.01    0.04 
   3   2   0   -0.05    0.08 
  -4   2   0   11.15    0.43 
   4  -2   0   11.59    0.46 
  -4  -2   0   11.21    0.34 
   4   2   0   10.89    0.44 
   4   2   0   10.89    0.42 
   5  -2   0    0.05    0.14 
   5   2   0    0.20    0.13 
  -5   2   0    0.05    0.10 
  -5  -2   0    0.23    0.07 
  -6  -2   0    4.06    0.20 
  -6   2   0    4.02    0.28 
   6   2   0    3.78    0.34 
   6  -2   0    4.37    0.37 
  -7  -2   0    0.13    0.09 
   7   2   0    0.09    0.18 
   7  -2   0   -0.05    0.18 
  -7   2   0    0.08    0.13 
  -8  -2   0   16.34    0.87 
  -8  -2   0   16.19    0.56 
  -8   2   0   15.66    0.63 
   8   2   0   16.44    0.79 
   8  -2   0   16.88    0.80 
  -9   2   0   -0.05    0.16 
   9   2   0    0.08    0.27 
   9  -2   0    0.06    0.28 
  -9  -2   0   -0.02    0.12 
  -9  -2   0    0.12    0.44 
   0  -2   1   -0.71    0.08 
   1   2   1   12.57    0.48 
  -1   2  -1   13.05    0.55 
   1  -2   1   13.03    0.55 
   1   2  -1   12.21    0.40 
  -1  -2  -1   12.39    0.47 
   2   2   1    2.46    0.16 
   2  -2  -1    2.19    0.18 
  -2   2   1    2.43    0.15 
  -2  -2  -1    2.32    0.17 
  -2  -2  -1    2.37    0.11 
  -3  -2   1   39.41    1.02 
   3  -2  -1   38.51    1.14 
  -3   2  -1   39.26    1.10 
   3   2   1   37.04    1.09 
   3   2   1   38.25    1.13 
   3  -2   1   37.59    1.12 
  -3   2   1   38.07    1.13 
   3   2  -1   37.77    1.11 
  -3  -2  -1   39.41    1.05 
   4   2   1    0.66    0.14 
  -4   2  -1    0.84    0.12 
   4   2   1    0.73    0.12 
   4  -2  -1    0.76    0.16 
  -4  -2   1    0.75    0.09 
  -4   2   1    0.47    0.13 
  -4  -2  -1    0.51    0.08 
   4   2  -1    0.60    0.13 
   4  -2   1    0.52    0.14 
  -4  -2  -1    0.30    0.16 
   4   2  -1    0.79    0.15 
   5   2   1   11.94    0.52 
   5  -2  -1   11.45    0.53 
  -5   2  -1   11.70    0.46 
   5   2   1   11.66    0.46 
  -5  -2   1   12.23    0.39 
  -5   2   1   11.94    0.48 
  -5  -2  -1   11.88    0.40 
   5  -2   1   11.80    0.53 
   5   2  -1   12.16    0.51 
  -6  -2   1   11.73    0.40 
  -6   2  -1   12.32    0.48 
   6  -2  -1   12.02    0.58 
   6   2   1   11.62    0.56 
  -6   2   1   11.13    0.49 
   6  -2   1   11.23    0.56 
  -6  -2  -1   11.20    0.62 
   6   2  -1   12.49    0.57 
  -6  -2  -1   11.96    0.42 
  -7  -2   1    3.56    0.21 
   7  -2  -1    3.72    0.41 
   7   2   1    3.50    0.36 
  -7   2  -1    4.06    0.29 
   7  -2   1    3.77    0.40 
  -7  -2  -1    3.89    0.24 
  -7  -2  -1    4.71    0.48 
   7   2  -1    3.43    0.40 
  -7   2   1    4.11    0.31 
   8  -2  -1    0.11    0.23 
  -8   2  -1    0.10    0.15 
   8   2   1    0.16    0.23 
  -8  -2   1    0.03    0.10 
  -8   2   1    0.16    0.15 
   8  -2   1    0.07    0.23 
  -8  -2  -1    0.35    0.31 
  -8  -2  -1    0.23    0.12 
   8   2  -1    0.10    0.23 
   0   2  -2   70.73    2.07 
   0  -2  -2   71.60    2.12 
   0  -2   2   70.66    2.07 
   1   2   2    0.11    0.06 
   2   2   2    0.20    0.08 
   2  -2  -2    0.15    0.10 
   2   2   2    0.17    0.09 
  -2  -2  -2    0.12    0.10 
  -2   2   2    0.29    0.07 
  -2  -2  -2    0.12    0.06 
   2  -2   2    0.10    0.06 
   3   2   2   13.37    0.50 
   3  -2  -2   12.99    0.50 
  -3   2  -2   13.28    0.46 
   3   2   2   12.48    0.45 
  -3  -2   2   13.68    0.44 
   3   2  -2   13.08    0.47 
  -3  -2  -2   13.66    0.51 
   3  -2   2   13.35    0.43 
  -3   2   2   12.86    0.45 
   3   2  -2   13.33    0.43 
  -3  -2  -2   13.06    0.42 
   3  -2   2   12.90    0.47 
   4   2   2    0.91    0.16 
   4   2   2    0.93    0.13 
  -4   2  -2    0.99    0.13 
  -4  -2   2    0.80    0.08 
  -4  -2   2    0.91    0.12 
   4  -2  -2    1.18    0.19 
   4  -2   2    0.92    0.11 
  -4   2   2    1.23    0.15 
  -4  -2  -2    0.84    0.10 
   4  -2   2    1.11    0.16 
  -4  -2  -2    0.96    0.18 
   4   2  -2    0.94    0.15 
   4   2  -2    1.04    0.12 
  -5   2  -2    0.46    0.12 
  -5  -2   2    0.67    0.11 
   5   2   2    0.24    0.14 
   5   2   2    0.44    0.13 
   5  -2   2    0.42    0.16 
  -5   2   2    0.41    0.15 
  -5  -2  -2    0.37    0.19 
   5   2  -2    0.33    0.15 
  -5  -2  -2    0.47    0.10 
  -6   2  -2   25.50    0.84 
  -6  -2   2   25.03    0.77 
   6   2   2   26.09    0.93 
   6  -2  -2   25.59    0.94 
  -6   2   2   25.33    0.87 
  -6  -2  -2   25.17    0.93 
   6  -2   2   25.48    0.94 
   6   2  -2   25.34    0.92 
  -6  -2  -2   25.43    0.79 
  -7  -2   2    6.33    0.29 
  -7   2  -2    6.06    0.36 
   7   2   2    6.44    0.48 
   7  -2  -2    6.75    0.50 
  -7   2   2    6.36    0.39 
   7  -2   2    6.40    0.49 
  -7  -2  -2    6.62    0.32 
   7   2  -2    5.88    0.48 
  -7  -2  -2    6.80    0.52 
  -8   2  -2    0.12    0.40 
  -8   2  -2    0.11    0.15 
   8   2   2    0.26    0.24 
  -8  -2   2    0.08    0.11 
   8  -2  -2    0.27    0.24 
   8   2  -2    0.10    0.24 
   8  -2   2    0.07    0.25 
  -8   2   2    0.00    0.15 
  -8  -2  -2    0.07    0.26 
  -8  -2  -2    0.00    0.12 
   0   2   3   -0.10    0.06 
   0  -2  -3   -0.06    0.09 
  -1  -2   3    0.20    0.07 
   1  -2  -3    0.20    0.10 
   1   2   3    0.28    0.08 
  -1  -2  -3    0.34    0.10 
   1  -2   3    0.12    0.06 
  -1   2   3    0.07    0.06 
  -1  -2  -3    0.11    0.06 
   2   2   3    4.06    0.21 
  -2   2  -3    4.41    0.22 
   2   2   3    3.86    0.24 
  -2  -2   3    4.09    0.19 
   2  -2  -3    4.13    0.26 
  -2   2  -3    4.13    0.23 
   2  -2   3    4.01    0.22 
   2   2  -3    4.25    0.20 
  -2  -2  -3    4.21    0.27 
  -2  -2  -3    4.16    0.20 
   2   2  -3    4.56    0.22 
  -3   2  -3   31.45    0.99 
   3   2   3   33.03    0.99 
  -3   2  -3   35.11    1.00 
   3   2   3   33.68    1.04 
   3  -2  -3   33.92    1.05 
  -3  -2   3   33.52    0.96 
   3  -2   3   34.38    1.01 
   3   2  -3   33.66    0.95 
  -3  -2  -3   34.10    0.97 
  -3  -2  -3   33.85    1.04 
   3  -2   3   33.77    0.98 
   3   2  -3   33.92    1.01 
  -3   2   3   32.13    0.97 
   4   2   3   10.38    0.41 
   4  -2  -3    9.72    0.47 
  -4   2  -3    9.81    0.45 
   4   2   3   10.14    0.47 
  -4   2  -3    9.65    0.40 
   4  -2   3   10.51    0.45 
   4   2  -3   10.02    0.44 
   4  -2   3   10.35    0.39 
  -4  -2  -3   10.41    0.39 
  -4   2   3   10.11    0.40 
  -4  -2  -3   10.43    0.48 
  -5  -2   3    3.79    0.20 
   5   2   3    3.64    0.27 
  -5   2  -3    4.19    0.40 
  -5   2  -3    3.54    0.26 
   5  -2  -3    3.61    0.35 
   5   2   3    3.75    0.33 
  -5  -2  -3    3.29    0.37 
  -5   2   3    3.89    0.29 
   5  -2   3    4.01    0.26 
  -5  -2  -3    3.87    0.24 
   5   2  -3    3.34    0.31 
   5  -2   3    3.78    0.33 
   6   2   3    4.79    0.41 
  -6   2  -3    5.14    0.51 
  -6   2  -3    4.55    0.32 
   6  -2  -3    6.12    0.45 
  -6  -2   3    5.12    0.30 
   6   2   3    5.05    0.34 
  -6  -2  -3    5.33    0.29 
  -6  -2  -3    4.99    0.45 
   6  -2   3    4.83    0.42 
   6   2  -3    5.28    0.41 
  -6   2   3    5.09    0.38 
  -7   2  -3    3.41    0.46 
  -7   2  -3    2.80    0.27 
   7  -2  -3    2.57    0.34 
   7   2   3    2.36    0.34 
  -7  -2   3    2.41    0.23 
  -7  -2  -3    1.75    0.34 
   7  -2   3    2.58    0.35 
  -7  -2  -3    2.45    0.24 
   7   2  -3    2.50    0.34 
  -7   2   3    2.31    0.28 
   8  -2  -3    1.27    0.32 
  -8   2  -3    1.34    0.23 
   8   2   3    1.32    0.32 
  -8  -2   3    1.53    0.18 
  -8   2  -3    1.89    0.44 
   8   2  -3    1.83    0.34 
  -8   2   3    1.42    0.24 
  -8  -2  -3    0.66    0.35 
  -8  -2  -3    1.33    0.20 
   8  -2   3    1.39    0.34 
   0  -2  -4    7.47    0.35 
   0  -2   4    6.71    0.30 
   0   2   4    7.00    0.30 
   1  -2  -4   30.37    0.94 
  -1  -2   4   31.07    0.90 
   1   2   4   32.61    0.91 
  -1   2  -4   29.98    0.89 
   1   2  -4   29.60    0.89 
  -1  -2  -4   30.45    0.94 
  -1  -2  -4   29.95    0.90 
  -1   2   4   30.31    0.88 
   1  -2   4   31.08    0.91 
  -2  -2   4    3.55    0.21 
   2  -2  -4    4.22    0.29 
  -2   2  -4    3.71    0.26 
   2   2   4    3.54    0.23 
  -2  -2  -4    4.76    0.32 
  -2   2   4    3.66    0.20 
   2  -2   4    3.63    0.23 
   2  -2   4    3.60    0.23 
  -2  -2  -4    3.52    0.22 
   2   2  -4    3.09    0.24 
  -3   2  -4    0.47    0.12 
   3   2   4    0.46    0.15 
   3   2   4    0.47    0.13 
  -3  -2   4    0.62    0.11 
  -3   2  -4    0.61    0.16 
   3  -2  -4    0.69    0.17 
   3  -2   4    0.54    0.13 
   3   2  -4    0.60    0.14 
   3  -2   4    0.53    0.13 
  -3  -2  -4    0.51    0.19 
   4  -2  -4   16.20    0.66 
   4   2   4   16.36    0.66 
  -4   2  -4   16.32    0.63 
   4   2   4   15.96    0.59 
  -4   2  -4   15.96    0.59 
  -4   2   4   16.79    0.58 
   4  -2   4   15.51    0.58 
   4   2  -4   16.23    0.62 
  -4  -2  -4   16.02    0.57 
   4  -2   4   15.97    0.62 
  -4  -2  -4   17.06    0.68 
   5  -2  -4   13.32    0.63 
   5   2   4   13.65    0.63 
   5   2   4   13.27    0.55 
  -5   2  -4   13.32    0.64 
  -5   2  -4   13.31    0.54 
  -5  -2  -4   13.18    0.66 
  -5  -2  -4   13.37    0.52 
   5  -2   4   13.75    0.53 
  -5   2   4   13.82    0.54 
   5   2  -4   13.69    0.59 
   5  -2   4   13.51    0.60 
  -6   2  -4   16.99    0.80 
   6  -2  -4   17.35    0.78 
   6   2   4   17.49    0.78 
  -6   2  -4   17.15    0.67 
   6   2   4   17.02    0.67 
  -6  -2   4   17.57    0.60 
   6  -2   4   17.73    0.77 
  -6   2   4   17.21    0.70 
  -6  -2  -4   16.91    0.80 
  -6  -2  -4   18.81    0.64 
   6   2  -4   17.85    0.74 
  -7   2  -4    7.28    0.44 
  -7  -2   4    6.92    0.40 
   7  -2  -4    7.79    0.59 
   7   2   4    7.36    0.56 
   7   2  -4    6.81    0.53 
  -7  -2  -4    7.17    0.62 
  -7   2   4    7.23    0.49 
  -7  -2  -4    7.35    0.39 
   7  -2   4    7.13    0.57 
  -8  -2   4    0.23    0.15 
  -8   2  -4    0.17    0.19 
   8   2   4    0.66    0.30 
  -8   2  -4    0.15    0.38 
   8  -2  -4    0.15    0.27 
  -8   2   4    0.22    0.21 
  -8  -2  -4    0.43    0.40 
   8  -2   4    0.02    0.28 
  -8  -2  -4    0.18    0.16 
   8   2  -4    0.27    0.28 
   0   2   5    0.08    0.10 
   0  -2   5    0.07    0.10 
   0  -2  -5   -0.03    0.12 
   1  -2  -5   46.48    1.41 
  -1  -2   5   46.85    1.36 
   1   2   5   46.82    1.37 
  -1   2   5   48.16    1.34 
  -1  -2  -5   47.96    1.42 
  -2  -2   5   44.34    1.30 
   2  -2  -5   45.94    1.38 
   2   2   5   45.35    1.33 
  -2  -2  -5   44.46    1.31 
   2  -2   5   45.00    1.33 
  -2   2   5   45.32    1.27 
  -2  -2  -5   44.63    1.36 
  -3   2  -5    3.67    0.36 
   3  -2  -5    4.28    0.34 
   3   2   5    3.95    0.28 
  -3  -2   5    4.11    0.26 
   3  -2   5    4.30    0.30 
  -3  -2  -5    4.59    0.39 
   3   2  -5    3.86    0.29 
  -3  -2  -5    4.16    0.28 
   3  -2   5    4.37    0.29 
   4   2   5   21.56    0.82 
  -4   2  -5   19.78    0.79 
   4  -2  -5   21.03    0.82 
   4   2   5   21.85    0.76 
   4  -2   5   20.76    0.74 
  -4   2   5   21.79    0.73 
  -4  -2  -5   22.32    0.74 
  -4  -2  -5   21.07    0.86 
   4  -2   5   20.49    0.77 
   4   2  -5   21.49    0.77 
  -5   2  -5   14.19    0.71 
   5   2   5   14.38    0.60 
   5   2   5   14.60    0.68 
   5  -2  -5   13.91    0.68 
   5   2  -5   14.40    0.63 
   5  -2   5   14.77    0.59 
   5  -2   5   14.06    0.65 
  -5  -2  -5   14.19    0.58 
  -5  -2  -5   14.52    0.72 
  -5   2   5   14.81    0.58 
  -6   2  -5    7.74    0.62 
  -6  -2   5    7.74    0.36 
   6  -2  -5    7.71    0.56 
   6   2   5    7.39    0.54 
  -6   2  -5    7.18    0.45 
   6   2   5    7.51    0.46 
   6   2  -5    7.24    0.49 
  -6  -2  -5    7.00    0.63 
  -6   2   5    7.43    0.44 
  -6  -2  -5    7.05    0.41 
   6  -2   5    7.42    0.54 
   7   2   5   17.87    0.87 
   7  -2  -5   16.15    0.85 
  -7   2  -5   17.99    0.95 
  -7  -2   5   18.57    0.68 
  -7   2  -5   17.12    0.73 
  -7  -2  -5   16.67    0.69 
   7   2  -5   17.39    0.82 
   7  -2   5   15.89    0.85 
  -7  -2  -5   16.37    0.94 
  -7   2   5   17.98    0.78 
   0  -2  -6   21.61    0.79 
   0   2   6   21.68    0.73 
   0  -2   6   21.45    0.74 
   1  -2  -6   32.83    1.11 
  -1  -2   6   33.76    1.05 
   1   2   6   33.06    1.05 
   1  -2   6   34.36    1.07 
  -1  -2  -6   34.46    1.13 
  -1   2   6   34.16    1.03 
  -2  -2   6   45.29    1.33 
   2  -2  -6   45.47    1.43 
   2   2   6   45.16    1.37 
   2  -2   6   43.64    1.36 
  -2  -2  -6   46.77    1.44 
  -2   2   6   44.17    1.31 
   3   2   6    4.23    0.33 
   3  -2  -6    3.77    0.38 
  -3  -2   6    3.93    0.29 
  -3  -2  -6    3.82    0.41 
   3  -2   6    4.12    0.33 
   4  -2  -6   26.56    0.99 
   4   2   6   26.31    0.92 
  -4  -2  -6   25.86    1.03 
   4  -2   6   26.35    0.91 
   5  -2  -6   24.37    0.97 
   5   2   6   23.69    0.89 
  -5  -2  -6   24.50    0.87 
  -5   2   6   23.48    0.85 
   5  -2   6   23.92    0.87 
  -5  -2  -6   23.26    1.03 
   6   2   6    8.71    0.62 
  -6  -2   6    8.37    0.42 
   6   2   6    9.03    0.54 
   6  -2  -6    8.76    0.64 
  -6  -2  -6    9.26    0.75 
  -6  -2  -6    9.05    0.50 
   6  -2   6    8.84    0.53 
  -6   2   6    8.80    0.50 
  -7  -2  -6    5.70    0.68 
   0  -2  -7    0.03    0.19 
   0   2   7    0.04    0.15 
   0  -2   7    0.06    0.15 
   1   2   7   13.06    0.56 
  -1  -2   7   12.60    0.55 
   1  -2  -7   13.49    0.63 
  -1   2   7   12.51    0.52 
   1  -2   7   12.98    0.57 
  -1  -2  -7   11.32    0.62 
   2  -2  -7   19.64    0.84 
  -2  -2   7   18.80    0.72 
   2   2   7   19.99    0.76 
  -2  -2  -7   20.85    0.87 
   2  -2   7   19.15    0.75 
   3  -2  -7   54.75    1.78 
   3   2   7   57.79    1.75 
   3  -2   7   58.34    1.74 
  -3  -2  -7   58.76    1.83 
   4  -2  -7    8.30    0.60 
   4   2   7    8.00    0.49 
   4  -2   7    7.53    0.48 
  -4  -2  -7    8.18    0.63 
   5  -2  -7   15.46    0.81 
   5   2   7   15.35    0.72 
   5  -2   7   16.00    0.72 
  -5  -2  -7   17.96    0.94 
  -5   2   7   15.24    0.67 
  -6  -2  -7    0.39    0.48 
   0  -2   8  115.94    3.25 
   0   2   8  115.55    3.23 
   1   2   8    5.45    0.42 
  -1  -2   8    5.18    0.40 
  -1   2   8    6.32    0.42 
   1  -2   8    5.57    0.42 
   2   2   8    1.25    0.26 
  -2  -2   8    1.09    0.24 
   2  -2   8    1.42    0.27 
   3   2   8    0.50    0.24 
   3  -2   8    0.59    0.24 
   4   2   8    0.30    0.24 
   4  -2   8    0.37    0.24 
   0  -2   9   -0.02    0.23 
   0   2   9   -0.04    0.23 
  -1  -2   9   -0.02    0.23 
   1   2   9    0.06    0.24 
   1  -2   9    0.05    0.24 
  -1   2   9    0.20    0.24 
   2   2   9    4.60    0.44 
  -2  -2   9    3.63    0.49 
   2  -2   9    4.94    0.46 
   0   3   0   -0.77    0.15 
   0  -3   0   -0.70    0.14 
  -1   3   0    0.01    0.16 
   1  -3   0    0.00    0.15 
  -1  -3   0    0.24    0.11 
  -2  -3   0  288.39    7.45 
  -3  -3   0   -0.04    0.04 
   3  -3   0   -0.04    0.12 
  -3   3   0   -0.22    0.09 
   3   3   0   -0.21    0.08 
   3   3   0   -0.12    0.10 
   4   3   0  143.16    3.87 
   4   3   0  146.65    3.89 
  -4  -3   0  149.32    3.76 
   4  -3   0  146.79    3.90 
  -4   3   0  139.63    3.88 
   5   3   0    0.08    0.15 
   5  -3   0   -0.01    0.15 
  -5   3   0    0.03    0.11 
  -6  -3   0    0.12    0.07 
   6  -3   0    0.11    0.17 
   6   3   0    0.13    0.15 
  -6   3   0    0.12    0.13 
   7  -3   0    0.10    0.20 
   7   3   0    0.15    0.19 
  -7  -3   0    0.14    0.32 
  -8   3   0   97.98    2.78 
  -8  -3   0   99.38    2.92 
   8   3   0   97.76    2.92 
  -8  -3   0  100.70    2.66 
   8  -3   0   98.67    2.94 
   0   3  -1   39.64    1.22 
   0  -3   1   37.83    1.19 
  -1   3  -1  114.96    3.22 
  -1  -3   1  113.35    3.00 
  -1  -3  -1  111.79    3.08 
   1  -3   1  110.40    3.21 
   2  -3  -1  446.96   11.83 
   2   3   1  477.01   12.03 
   2   3   1  450.40   11.87 
  -2  -3  -1  479.29   11.90 
  -2  -3  -1  464.26   11.86 
  -2   3   1  420.66   11.80 
   3  -3  -1    0.17    0.12 
  -3   3  -1    0.09    0.08 
   3   3   1    0.43    0.11 
   3   3   1    0.05    0.08 
   3   3  -1    0.10    0.08 
  -3  -3  -1    0.28    0.05 
   3   3  -1    0.11    0.11 
  -3  -3  -1    0.19    0.12 
   3  -3   1    0.11    0.10 
  -3   3   1    0.08    0.11 
  -4  -3   1  163.97    4.29 
   4   3   1  159.57    4.39 
   4   3   1  165.43    4.43 
   4  -3  -1  170.25    4.45 
  -4   3  -1  167.53    4.41 
  -4  -3  -1  170.48    4.32 
   4   3  -1  164.85    4.41 
   4   3  -1  164.17    4.40 
  -4   3   1  164.92    4.44 
  -4  -3  -1  166.08    4.42 
   4  -3   1  167.49    4.43 
   5   3   1   85.34    2.37 
   5  -3  -1   85.43    2.44 
  -5  -3   1   86.34    2.26 
   5   3   1   84.04    2.43 
  -5   3  -1   86.16    2.39 
   5   3  -1   85.22    2.41 
   5  -3   1   84.69    2.43 
  -5   3   1   90.11    2.42 
  -5  -3  -1   85.74    2.42 
  -5  -3  -1   87.60    2.29 
  -6   3  -1   12.74    0.53 
  -6  -3   1   13.05    0.41 
   6  -3  -1   12.93    0.62 
   6   3   1   13.53    0.61 
  -6  -3  -1   12.81    0.44 
  -6   3   1   13.23    0.55 
   6  -3   1   13.58    0.63 
   6   3  -1   13.51    0.60 
  -6  -3  -1   13.19    0.63 
   7  -3  -1   30.42    1.13 
  -7  -3   1   30.54    0.88 
   7   3   1   30.31    1.12 
  -7   3  -1   31.46    1.02 
   7   3  -1   30.85    1.11 
  -7  -3  -1   31.09    0.92 
  -7  -3  -1   31.24    1.13 
   7  -3   1   31.91    1.15 
  -7   3   1   31.34    1.03 
   8  -3  -1  102.00    2.97 
  -8  -3   1   99.52    2.66 
  -8   3  -1   96.87    2.79 
   8   3   1  101.68    2.95 
  -8  -3  -1  100.16    2.70 
  -8  -3  -1   95.19    2.91 
   8  -3   1  100.86    2.97 
  -8   3   1  100.52    2.81 
   8   3  -1   98.51    2.93 
   0  -3   2    0.13    0.06 
   0  -3  -2    0.17    0.09 
   0   3  -2    0.15    0.06 
   1  -3  -2  429.76   11.50 
   1   3   2  450.39   11.54 
  -1  -3   2  447.80   11.52 
   1  -3   2  437.74   11.52 
  -1  -3  -2  434.89   11.56 
   1   3  -2  439.07   11.50 
  -1  -3  -2  454.36   11.59 
   2  -3  -2    0.11    0.11 
   2   3   2    0.02    0.07 
   2   3   2    0.19    0.09 
  -2  -3   2    0.10    0.07 
   2   3  -2    0.14    0.08 
   2  -3   2   -0.09    0.06 
  -2  -3  -2    0.31    0.11 
  -2   3   2    0.30    0.08 
   3   3   2   38.07    1.10 
  -3  -3   2   39.04    1.09 
   3  -3  -2   38.05    1.15 
   3   3   2   38.33    1.14 
  -3   3  -2   37.54    1.10 
  -3  -3   2   35.63    1.00 
   3   3  -2   37.79    1.10 
   3  -3   2   37.77    1.06 
   3  -3   2   38.04    1.11 
   3   3  -2   39.80    1.09 
  -3  -3  -2   39.65    1.14 
  -3   3   2   37.58    1.11 
  -3  -3  -2   38.33    1.06 
   4  -3  -2    1.88    0.23 
   4   3   2    1.44    0.16 
   4   3   2    2.21    0.23 
  -4  -3   2    2.13    0.19 
  -4   3  -2    1.87    0.18 
   4   3  -2    2.06    0.18 
   4  -3   2    2.03    0.16 
   4  -3   2    2.09    0.23 
   4   3  -2    1.88    0.20 
  -4  -3  -2    1.95    0.14 
  -4   3   2    2.50    0.24 
  -4  -3  -2    2.10    0.23 
   5   3   2  254.44    6.72 
  -5   3  -2  260.84    6.73 
   5  -3  -2  254.76    6.81 
   5   3   2  256.50    6.80 
  -5  -3   2  249.47    6.63 
  -5  -3  -2  259.43    6.77 
   5  -3   2  255.89    6.79 
  -5  -3  -2  258.70    6.66 
  -5   3   2  249.16    6.78 
   5   3  -2  257.61    6.77 
  -6  -3   2    0.07    0.08 
   6  -3  -2    0.06    0.17 
  -6   3  -2    0.02    0.13 
   6   3   2    0.13    0.16 
   6  -3   2    0.14    0.18 
  -6  -3  -2    0.11    0.09 
   6   3  -2    0.01    0.16 
  -6   3   2    0.13    0.15 
  -6  -3  -2    0.04    0.18 
   7   3   2   42.17    1.42 
   7  -3  -2   41.12    1.42 
  -7  -3   2   42.99    1.18 
  -7   3  -2   42.34    1.32 
  -7  -3  -2   40.85    1.40 
   7  -3   2   43.24    1.45 
  -7   3   2   41.36    1.33 
   7   3  -2   42.54    1.41 
  -7  -3  -2   42.58    1.23 
   8   3   2    1.04    0.30 
  -8   3  -2    0.95    0.43 
   8  -3  -2    1.01    0.29 
  -8   3  -2    0.91    0.21 
  -8  -3   2    1.26    0.14 
  -8  -3  -2    0.67    0.30 
   8   3  -2    1.48    0.31 
  -8   3   2    1.26    0.23 
   8  -3   2    0.88    0.30 
  -8  -3  -2    1.01    0.16 
   0  -3  -3   17.58    0.60 
   0   3   3   17.94    0.55 
   1   3   3   18.93    0.58 
   1  -3  -3   19.19    0.63 
  -1  -3   3   18.44    0.58 
  -1   3   3   18.36    0.55 
   1   3  -3   18.42    0.57 
  -1  -3  -3   19.41    0.57 
  -1  -3  -3   18.01    0.60 
   2  -3  -3   18.36    0.63 
  -2  -3   3   17.22    0.56 
   2   3   3   17.19    0.60 
   2   3   3   17.30    0.57 
  -2  -3  -3   18.64    0.63 
   2  -3   3   17.70    0.56 
   2   3  -3   17.32    0.56 
  -2  -3  -3   18.13    0.56 
   2  -3   3   18.07    0.58 
   3   3   3    0.41    0.14 
  -3   3  -3    0.31    0.11 
   3  -3  -3    0.15    0.14 
  -3   3  -3   -0.06    0.11 
  -3  -3   3    0.05    0.09 
   3   3   3   -0.07    0.09 
   3   3  -3    0.13    0.09 
  -3  -3  -3    0.19    0.16 
   3  -3   3    0.20    0.10 
   3   3  -3   -0.03    0.10 
  -3  -3  -3   -0.02    0.07 
   3  -3   3   -0.06    0.10 
  -3   3   3   -0.10    0.08 
   4  -3  -3    3.81    0.33 
  -4   3  -3    4.12    0.26 
  -4   3  -3    3.77    0.34 
  -4  -3   3    3.84    0.23 
   4   3   3    3.86    0.31 
   4   3   3    4.21    0.26 
  -4  -3  -3    4.16    0.35 
   4   3  -3    3.84    0.28 
   4  -3   3    4.01    0.24 
   4  -3   3    3.66    0.29 
  -4   3   3    3.78    0.26 
  -4  -3  -3    3.66    0.22 
   4   3  -3    3.82    0.23 
   5  -3  -3   14.94    0.67 
  -5  -3   3   15.93    0.48 
   5   3   3   15.35    0.58 
  -5   3  -3   15.98    0.69 
   5   3   3   14.94    0.64 
  -5   3  -3   15.80    0.59 
   5   3  -3   15.61    0.61 
  -5  -3  -3   15.43    0.66 
  -5   3   3   14.62    0.61 
   5  -3   3   15.02    0.64 
  -5  -3  -3   16.50    0.54 
   6  -3  -3    7.92    0.52 
  -6   3  -3    7.29    0.41 
  -6  -3   3    7.94    0.34 
   6   3   3    8.07    0.50 
   6   3   3    7.72    0.42 
  -6   3  -3    7.71    0.58 
  -6  -3  -3    7.37    0.51 
   6   3  -3    7.80    0.47 
  -6  -3  -3    7.77    0.35 
  -6   3   3    8.21    0.47 
   6  -3   3    7.41    0.49 
  -7   3  -3   13.97    0.80 
  -7   3  -3   13.24    0.60 
   7  -3  -3   14.02    0.73 
   7   3   3   14.55    0.72 
  -7  -3   3   13.41    0.48 
  -7   3   3   13.19    0.63 
  -7  -3  -3   14.00    0.54 
   7   3  -3   14.43    0.68 
  -7  -3  -3   14.82    0.75 
   7  -3   3   14.01    0.72 
   8  -3  -3    1.29    0.33 
  -8   3  -3    1.78    0.49 
  -8   3  -3    1.29    0.23 
  -8  -3   3    1.86    0.17 
   8   3   3    1.11    0.31 
  -8   3   3    0.87    0.23 
   8   3  -3    1.02    0.30 
  -8  -3  -3    1.37    0.20 
   8  -3   3    1.37    0.34 
  -8  -3  -3    0.49    0.33 
   0  -3  -4    0.06    0.11 
   0  -3   4    0.03    0.08 
   0   3   4   -0.08    0.07 
   1   3   4  119.52    3.24 
   1  -3  -4  125.12    3.30 
  -1  -3   4  119.41    3.24 
  -1  -3  -4  120.14    3.24 
  -1  -3  -4  121.66    3.29 
   1  -3   4  123.19    3.25 
  -1   3   4  121.90    3.21 
  -2   3  -4    0.54    0.13 
   2  -3  -4    0.71    0.16 
   2   3   4    0.60    0.13 
  -2  -3   4    0.52    0.11 
   2   3  -4    0.64    0.12 
  -2   3   4    0.64    0.10 
   2  -3   4    0.69    0.12 
  -2  -3  -4    0.61    0.11 
   2  -3   4    0.85    0.13 
  -2  -3  -4    0.82    0.19 
   3   3   4    0.39    0.15 
  -3   3  -4    0.24    0.10 
   3   3   4    0.31    0.13 
   3  -3  -4    0.33    0.15 
  -3   3  -4    0.18    0.15 
  -3  -3   4    0.35    0.11 
  -3   3   4    0.26    0.10 
   3   3  -4    0.62    0.13 
   3  -3   4    0.11    0.11 
  -3  -3  -4    0.43    0.19 
   3  -3   4    0.19    0.12 
  -3  -3  -4    0.22    0.10 
   4   3   4    6.56    0.35 
  -4   3  -4    6.36    0.40 
   4  -3  -4    6.19    0.42 
   4   3   4    6.63    0.41 
  -4   3  -4    6.62    0.35 
  -4  -3  -4    6.66    0.44 
  -4   3   4    6.89    0.34 
   4  -3   4    6.36    0.33 
   4  -3   4    6.32    0.37 
  -4  -3  -4    6.92    0.33 
   4   3  -4    6.73    0.37 
  -5   3  -4   95.90    2.66 
   5   3   4   94.91    2.74 
   5   3   4   96.42    2.66 
  -5   3  -4   92.09    2.69 
   5  -3  -4   96.91    2.75 
   5  -3   4   95.00    2.61 
   5  -3   4   93.15    2.70 
  -5  -3  -4   95.62    2.61 
   5   3  -4   94.42    2.67 
  -5  -3  -4   94.72    2.73 
  -5   3   4   96.82    2.66 
  -6   3  -4    0.92    0.20 
   6   3   4    1.02    0.21 
  -6  -3   4    1.14    0.15 
  -6   3  -4    0.80    0.28 
   6  -3  -4    0.90    0.27 
   6   3   4    1.23    0.26 
   6  -3   4    1.06    0.25 
   6   3  -4    1.12    0.24 
  -6   3   4    0.74    0.22 
  -6  -3  -4    1.23    0.19 
  -6  -3  -4    0.92    0.31 
   7  -3  -4   21.06    0.95 
  -7   3  -4   21.38    0.83 
  -7   3  -4   20.90    0.99 
  -7  -3   4   21.44    0.74 
   7   3   4   21.67    0.94 
  -7  -3  -4   21.35    1.01 
   7  -3   4   21.28    0.95 
  -7  -3  -4   21.45    0.77 
  -7   3   4   22.18    0.89 
   7   3  -4   21.93    0.90 
  -8  -3   4    0.58    0.15 
  -8   3  -4    0.68    0.23 
   8   3   4    0.48    0.30 
  -8   3  -4    0.44    0.39 
   8  -3  -4    0.64    0.31 
   8  -3   4    1.46    0.38 
  -8   3   4    0.40    0.23 
  -8  -3  -4    0.34    0.39 
  -8  -3  -4    0.51    0.18 
   8   3  -4    0.91    0.31 
   0   3   5    0.20    0.11 
   0  -3   5    0.02    0.09 
   0  -3  -5   -0.03    0.14 
   1  -3  -5  127.60    3.53 
  -1  -3   5  131.68    3.48 
   1   3   5  129.62    3.48 
  -1  -3  -5  131.66    3.55 
   1  -3   5  130.46    3.49 
  -1   3   5  127.04    3.45 
   2   3   5  144.36    3.88 
  -2  -3   5  143.87    3.86 
   2  -3  -5  147.45    3.95 
   2  -3   5  144.27    3.88 
  -2  -3  -5  144.18    3.87 
  -2   3   5  143.80    3.82 
  -2  -3  -5  143.99    3.93 
  -3  -3   5    0.78    0.15 
   3   3   5    0.81    0.17 
   3  -3  -5    0.53    0.20 
   3  -3   5    0.83    0.16 
  -3  -3  -5    0.73    0.24 
  -3  -3  -5    0.74    0.15 
   4   3   5   41.86    1.38 
   4  -3  -5   41.85    1.39 
   4   3   5   42.36    1.31 
  -4  -3  -5   46.24    1.44 
   4  -3   5   42.10    1.29 
  -4   3   5   41.49    1.29 
  -4  -3  -5   42.76    1.29 
   5   3   5   39.79    1.33 
   5  -3  -5   39.46    1.34 
   5   3   5   39.01    1.25 
  -5  -3  -5   39.30    1.36 
   5  -3   5   38.14    1.21 
  -5   3   5   37.35    1.22 
  -5  -3  -5   38.94    1.21 
   6   3   5    0.01    0.21 
  -6  -3   5    0.18    0.12 
   6  -3  -5    0.06    0.25 
   6   3   5    0.10    0.20 
  -6  -3  -5    0.01    0.32 
  -6  -3  -5    0.35    0.17 
  -6   3   5    0.07    0.18 
  -7  -3   5   76.27    2.09 
   7   3   5   71.90    2.32 
   7  -3  -5   74.92    2.34 
   7   3   5   74.38    2.21 
  -7  -3  -5   71.29    2.14 
  -7   3   5   73.99    2.25 
  -7  -3  -5   73.83    2.36 
   0   3   6    0.19    0.13 
   0  -3  -6    0.43    0.19 
   0  -3   6    0.05    0.13 
   1   3   6    0.56    0.16 
   1  -3  -6    0.32    0.19 
  -1  -3   6    0.28    0.14 
  -1   3   6    0.99    0.16 
   1  -3   6    0.24    0.14 
  -1  -3  -6    0.50    0.20 
   2  -3  -6  160.69    4.40 
   2   3   6  156.31    4.32 
  -2  -3   6  158.52    4.30 
  -2  -3  -6  168.14    4.42 
   2  -3   6  158.19    4.32 
  -3  -3   6   10.26    0.47 
   3   3   6   10.13    0.49 
   3  -3  -6   10.49    0.56 
  -3  -3  -6   10.51    0.58 
   3  -3   6   10.65    0.50 
   4   3   6  156.16    4.23 
   4  -3  -6  159.32    4.31 
  -4   3   6  159.00    4.21 
  -4  -3  -6  154.75    4.25 
  -4  -3  -6  135.43    4.30 
   4  -3   6  164.27    4.22 
   5   3   6    0.05    0.19 
   5  -3  -6    0.12    0.25 
  -5   3   6    0.32    0.18 
  -5  -3  -6    0.10    0.17 
   5  -3   6    0.92    0.22 
  -5  -3  -6    0.00    0.30 
  -6  -3   6    0.85    0.17 
   6  -3  -6    1.13    0.33 
   6   3   6    0.88    0.27 
   6   3   6    0.94    0.29 
   6  -3   6    0.99    0.27 
  -6   3   6    0.78    0.24 
  -6  -3  -6    1.11    0.23 
  -6  -3  -6    1.06    0.40 
   0  -3  -7   64.00    1.95 
   0  -3   7   64.10    1.88 
   0   3   7   64.09    1.86 
   1  -3  -7   61.61    1.88 
   1   3   7   61.45    1.81 
  -1  -3   7   61.94    1.80 
  -1  -3  -7   61.50    1.90 
  -1   3   7   60.33    1.77 
   1  -3   7   61.53    1.82 
   2  -3  -7  101.31    2.92 
   2   3   7  101.17    2.84 
  -2  -3   7  100.13    2.80 
  -2  -3  -7  100.92    2.94 
   2  -3   7   99.51    2.84 
  -3  -3   7    0.15    0.18 
   3  -3  -7    0.23    0.26 
   3   3   7    0.01    0.17 
  -3  -3  -7    0.40    0.29 
   3  -3   7    0.19    0.19 
   4   3   7   72.64    2.19 
   4  -3  -7   73.53    2.27 
  -4  -3  -7   73.84    2.30 
   4  -3   7   74.23    2.18 
  -4   3   7   74.59    2.16 
   5   3   7   71.80    2.18 
   5  -3  -7   72.44    2.26 
   5  -3   7   71.84    2.15 
  -5   3   7   70.93    2.14 
  -5  -3  -7   72.52    2.30 
  -6  -3  -7   19.89    1.13 
   0  -3   8    0.06    0.19 
   0  -3  -8    0.19    0.31 
   0   3   8    0.15    0.19 
   1  -3  -8   88.59    2.61 
   1   3   8   87.41    2.52 
  -1  -3   8   88.05    2.51 
  -1   3   8   88.36    2.49 
   1  -3   8   88.14    2.54 
  -1  -3  -8   83.03    2.59 
   2  -3  -8    6.54    0.59 
  -2  -3   8    5.89    0.42 
   2   3   8    5.94    0.46 
   2  -3   8    6.15    0.46 
  -2  -3  -8    5.82    0.60 
   3  -3  -8   63.25    1.98 
   3   3   8   61.38    1.90 
   3  -3   8   60.72    1.89 
  -3  -3  -8   59.83    2.02 
   4   3   8    0.48    0.26 
   4  -3  -8    0.22    0.32 
  -4   3   8    0.49    0.23 
   4  -3   8    0.31    0.24 
  -4  -3  -8    0.54    0.40 
   0  -3   9   29.74    1.10 
   0   3   9   29.86    1.08 
  -1  -3   9    2.05    0.32 
   1   3   9    2.07    0.34 
   1  -3   9    1.75    0.32 
  -2  -3   9    6.74    0.50 
   2   3   9    7.17    0.53 
   2  -3   9    6.09    0.54 
   0   4   0   82.26    2.49 
   0  -4   0   72.77    2.38 
  -1  -4   0   -0.01    0.12 
   1  -4   0   -0.19    0.16 
  -1   4   0   -0.05    0.20 
   2   4   0    3.82    0.24 
   2   4   0    4.55    0.24 
   2  -4   0    3.85    0.22 
  -2  -4   0    4.33    0.22 
  -2  -4   0    4.27    0.14 
  -3  -4   0   -0.47    0.11 
   3   4   0   -0.24    0.09 
   3   4   0   -0.19    0.11 
  -3  -4   0   -0.27    0.03 
  -3   4   0   -0.34    0.10 
   3  -4   0   -0.26    0.12 
   4   4   0    4.41    0.31 
  -4   4   0    4.21    0.30 
   4  -4   0    4.89    0.32 
  -4  -4   0    4.70    0.16 
   4   4   0    4.60    0.29 
   5   4   0    0.01    0.13 
  -5   4   0    0.06    0.13 
   5  -4   0    0.25    0.16 
   5   4   0    0.06    0.16 
  -5  -4   0   -0.07    0.21 
   6   4   0   55.11    1.68 
   6  -4   0   52.42    1.69 
  -6  -4   0   56.06    1.48 
  -6   4   0   55.74    1.65 
  -6  -4   0   54.98    1.69 
   7   4   0    0.03    0.19 
  -7  -4   0   -0.02    0.27 
  -7  -4   0    0.12    0.08 
   7  -4   0    0.00    0.21 
  -7   4   0   -0.04    0.15 
   8  -4   0   -0.05    0.24 
  -8  -4   0    0.30    0.34 
   8   4   0   -0.02    0.22 
  -8   4   0    0.17    0.17 
  -8  -4   0    0.06    0.10 
   0   4  -1    0.68    0.16 
   1   4  -1   14.94    0.49 
   2   4   1  299.19    7.82 
   2   4   1  311.73    7.82 
   2  -4  -1  296.21    7.82 
  -2  -4  -1  313.88    7.85 
   2   4  -1  281.24    7.83 
  -2   4   1  288.43    7.85 
  -2  -4  -1  313.75    7.81 
   3   4   1    6.38    0.31 
   3   4   1    6.56    0.30 
   3  -4  -1    7.07    0.34 
  -3   4  -1    6.27    0.31 
  -3  -4  -1    6.28    0.22 
   3   4  -1    6.29    0.28 
   3   4  -1    5.84    0.32 
  -3  -4  -1    6.74    0.33 
  -3   4   1    6.24    0.35 
   4   4   1  178.37    4.76 
   4   4   1  181.10    4.78 
  -4   4  -1  177.03    4.78 
   4  -4  -1  180.51    4.80 
  -4   4   1  180.89    4.81 
  -4  -4  -1  183.71    4.77 
   4   4  -1  170.81    4.77 
   4  -4   1  182.26    4.79 
   4   4  -1  177.89    4.76 
  -4  -4  -1  181.11    4.66 
  -5  -4   1    5.96    0.19 
   5  -4  -1    5.59    0.39 
   5   4   1    5.29    0.36 
  -5   4  -1    5.79    0.35 
   5   4   1    5.96    0.35 
   5  -4   1    5.71    0.38 
  -5   4   1    5.82    0.36 
  -5  -4  -1    6.38    0.40 
   5   4  -1    6.15    0.37 
   5   4  -1    5.63    0.35 
  -5  -4  -1    6.06    0.23 
  -6   4  -1   30.36    1.00 
   6  -4  -1   29.52    1.05 
  -6  -4   1   29.47    0.82 
   6   4   1   29.73    1.04 
   6   4  -1   29.34    1.02 
  -6  -4  -1   29.74    0.86 
  -6  -4  -1   30.65    1.04 
  -6   4   1   29.53    1.00 
   6  -4   1   29.28    1.05 
  -7  -4   1    9.27    0.31 
   7   4   1    8.81    0.54 
   7  -4  -1    9.07    0.58 
  -7   4  -1    8.76    0.48 
  -7  -4  -1    9.00    0.58 
   7   4  -1    9.67    0.55 
  -7  -4  -1    8.75    0.35 
  -7   4   1    8.75    0.48 
   7  -4   1    8.76    0.56 
  -8  -4   1   57.97    1.91 
  -8   4  -1   57.68    1.78 
   8  -4  -1   59.64    1.94 
  -8  -4   1   59.83    1.61 
   8   4   1   58.33    1.91 
  -8  -4  -1   59.68    1.66 
   8  -4   1   61.16    1.95 
   8   4  -1   60.14    1.91 
  -8   4   1   61.84    1.81 
  -8  -4  -1   56.45    1.87 
   0   4   2  637.30   16.98 
   0  -4  -2  676.80   16.97 
   0  -4   2  642.94   17.02 
   0   4  -2  647.22   17.09 
  -1   4  -2  327.89    8.44 
  -1  -4   2  331.44    8.46 
   1  -4  -2  332.96    8.49 
   1   4   2  323.82    8.45 
  -1  -4  -2  315.49    8.46 
   1   4  -2  328.77    8.46 
   1  -4   2  327.11    8.44 
  -1  -4  -2  322.91    8.43 
  -2  -4   2   47.02    1.29 
   2   4   2   44.48    1.30 
   2   4   2   45.57    1.28 
   2  -4  -2   46.30    1.32 
   2  -4   2   44.28    1.25 
   2   4  -2   46.27    1.29 
  -2   4   2   45.85    1.29 
  -2  -4  -2   45.80    1.25 
  -2  -4  -2   45.05    1.30 
   3   4   2   24.90    0.80 
  -3   4  -2   25.60    0.78 
  -3  -4   2   25.58    0.66 
   3  -4  -2   25.13    0.82 
   3   4   2   23.73    0.76 
  -3  -4   2   24.03    0.77 
   3  -4   2   24.76    0.72 
   3   4  -2   23.73    0.74 
   3  -4   2   24.36    0.76 
  -3  -4  -2   24.17    0.71 
  -3   4   2   24.47    0.79 
  -3  -4  -2   24.24    0.79 
   3   4  -2   25.09    0.77 
   4   4   2   32.86    1.01 
   4   4   2   33.44    1.06 
   4  -4  -2   32.71    1.07 
  -4  -4   2   33.59    1.01 
  -4   4  -2   34.12    1.03 
   4  -4   2   32.89    1.04 
  -4  -4  -2   33.08    1.06 
   4  -4   2   33.22    0.95 
  -4   4   2   32.55    1.06 
   4   4  -2   32.55    1.01 
   4   4  -2   34.48    1.02 
  -4  -4  -2   33.76    0.95 
   5   4   2  156.50    4.22 
   5  -4  -2  158.33    4.29 
   5   4   2  158.05    4.28 
  -5   4  -2  155.98    4.22 
  -5  -4  -2  156.53    4.26 
   5   4  -2  156.95    4.23 
  -5   4   2  156.70    4.28 
  -5  -4  -2  156.31    4.13 
   5  -4   2  157.84    4.27 
  -6  -4   2  265.60    6.79 
   6  -4  -2  259.77    7.05 
   6   4   2  262.90    7.04 
   6   4   2  257.94    6.96 
  -6   4  -2  270.21    6.97 
   6  -4   2  264.99    7.04 
  -6   4   2  264.11    7.00 
  -6  -4  -2  255.80    7.01 
   6   4  -2  264.66    7.00 
  -6  -4  -2  262.25    6.86 
   7   4   2   69.78    2.16 
  -7  -4   2   72.06    1.87 
   7  -4  -2   71.88    2.18 
  -7   4  -2   71.29    2.07 
   7  -4   2   69.39    2.17 
  -7  -4  -2   71.00    1.95 
   7   4  -2   72.64    2.14 
  -7  -4  -2   66.81    2.13 
  -7   4   2   69.13    2.08 
   8  -4  -2   16.94    0.86 
  -8  -4   2   17.17    0.52 
   8   4   2   16.66    0.84 
  -8   4  -2   16.06    0.71 
   8   4  -2   17.10    0.82 
   8  -4   2   17.53    0.88 
  -8   4   2   16.53    0.71 
  -8  -4  -2   17.15    0.60 
   0  -4  -3   -0.35    0.11 
   0   4  -3   -0.27    0.07 
   0   4   3   -0.18    0.08 
   0  -4   3   -0.30    0.08 
   1   4   3   88.11    2.36 
   1  -4  -3   87.77    2.40 
  -1  -4   3   86.90    2.36 
  -1  -4  -3   86.19    2.39 
   1  -4   3   87.92    2.36 
  -1  -4  -3   88.72    2.35 
   1   4  -3   85.60    2.35 
  -1   4   3   88.54    2.33 
  -2  -4   3    5.69    0.27 
   2  -4  -3    5.83    0.33 
   2   4   3    5.49    0.27 
  -2  -4  -3    5.50    0.33 
   2  -4   3    5.40    0.25 
   2   4  -3    5.40    0.26 
  -2   4   3    5.10    0.26 
  -2  -4  -3    5.32    0.24 
   3   4   3  795.17   20.19 
  -3   4  -3  791.64   20.02 
  -3   4  -3  724.07   20.19 
  -3  -4   3  765.62   20.13 
   3  -4  -3  759.49   20.06 
   3   4   3  786.27   20.27 
   3  -4   3  754.48   20.13 
   3   4  -3  782.03   20.19 
   3   4  -3  765.12   20.22 
   3  -4   3  790.35   20.10 
  -3  -4  -3  800.44   20.08 
  -3  -4  -3  798.99   20.17 
  -3   4   3  763.54   20.16 
  -4  -4   3    0.42    0.12 
   4   4   3    0.63    0.17 
  -4   4  -3    0.63    0.20 
   4   4   3    0.36    0.13 
   4  -4  -3    0.62    0.18 
  -4   4  -3    0.38    0.14 
  -4   4   3    0.59    0.15 
  -4  -4  -3    0.40    0.18 
   4  -4   3    0.43    0.15 
   4   4  -3    0.43    0.13 
   4  -4   3    0.51    0.12 
   4   4  -3    0.39    0.13 
  -4  -4  -3    0.43    0.10 
   5  -4  -3   47.02    1.48 
  -5   4  -3   46.24    1.47 
  -5  -4   3   46.87    1.26 
   5   4   3   47.50    1.47 
   5   4   3   46.12    1.40 
  -5   4  -3   47.31    1.41 
  -5  -4  -3   45.86    1.33 
   5   4  -3   46.29    1.41 
   5  -4   3   47.19    1.45 
  -5  -4  -3   46.78    1.47 
  -5   4   3   45.87    1.45 
   6  -4  -3    4.36    0.44 
   6   4   3    4.79    0.36 
  -6  -4   3    4.53    0.24 
  -6   4  -3    4.41    0.34 
   6   4   3    4.65    0.40 
   6   4  -3    5.04    0.39 
  -6  -4  -3    5.22    0.46 
  -6  -4  -3    4.65    0.27 
   6  -4   3    4.63    0.42 
  -6   4   3    3.80    0.39 
   7   4   3   27.71    1.07 
  -7   4  -3   27.83    0.98 
   7  -4  -3   27.29    1.09 
  -7   4  -3   27.83    1.15 
  -7  -4   3   27.54    0.80 
   7  -4   3   29.17    1.10 
   7   4  -3   27.78    1.04 
  -7   4   3   26.69    1.01 
  -7  -4  -3   27.78    1.10 
  -7  -4  -3   27.41    0.89 
   8  -4  -3    0.80    0.31 
   8   4   3    0.81    0.29 
  -8   4  -3    1.47    0.26 
  -8   4  -3    1.00    0.47 
  -8  -4   3    1.14    0.12 
  -8  -4  -3    0.37    0.35 
   8  -4   3    0.66    0.32 
  -8  -4  -3    1.20    0.19 
  -8   4   3    0.81    0.24 
   8   4  -3    0.86    0.30 
   0  -4  -4  263.42    6.90 
   0  -4   4  258.48    6.85 
   0   4   4  264.47    6.84 
  -1  -4   4  167.99    4.47 
   1   4   4  173.08    4.48 
   1  -4  -4  166.83    4.52 
  -1   4   4  172.01    4.44 
   1  -4   4  171.34    4.48 
  -1  -4  -4  158.80    4.45 
  -1  -4  -4  174.17    4.53 
   2   4   4   57.98    1.62 
  -2  -4   4   55.48    1.59 
   2  -4  -4   58.23    1.68 
  -2   4   4   57.01    1.55 
   2   4  -4   54.87    1.59 
  -2  -4  -4   57.15    1.59 
   2  -4   4   56.23    1.60 
  -2  -4  -4   57.58    1.66 
   3  -4  -4    3.99    0.34 
   3   4   4    3.55    0.26 
  -3  -4   4    3.65    0.24 
  -3  -4  -4    3.87    0.24 
   3   4  -4    3.85    0.25 
  -3  -4  -4    4.03    0.37 
  -3   4   4    3.83    0.26 
   3  -4   4    3.70    0.25 
  -4  -4   4   58.98    1.68 
   4  -4  -4   58.62    1.80 
   4   4   4   58.95    1.73 
   4   4   4   60.65    1.80 
  -4   4   4   60.18    1.74 
   4   4  -4   59.59    1.68 
   4  -4   4   60.02    1.70 
  -4  -4  -4   59.97    1.69 
  -4  -4  -4   61.03    1.81 
   5  -4  -4   74.46    2.23 
   5   4   4   74.54    2.22 
  -5   4  -4   66.68    2.27 
   5   4   4   76.41    2.15 
  -5  -4  -4   77.83    2.23 
   5  -4   4   73.17    2.17 
  -5   4   4   76.09    2.16 
  -5  -4  -4   76.19    2.09 
   5  -4   4   74.95    2.09 
  -6   4  -4  176.08    4.75 
   6  -4  -4  172.97    4.85 
  -6  -4   4  177.55    4.59 
   6   4   4  175.95    4.75 
   6   4   4  176.80    4.85 
  -6  -4  -4  172.77    4.67 
  -6  -4  -4  179.60    4.85 
  -6   4   4  174.21    4.80 
   6  -4   4  169.36    4.81 
   7   4   4   64.85    2.07 
   7   4   4   68.17    2.31 
  -7  -4   4   65.24    1.81 
  -7   4  -4   66.11    1.97 
   7  -4  -4   63.98    2.08 
  -7  -4  -4   64.50    2.10 
   7  -4   4   62.98    2.07 
  -7   4   4   63.53    2.01 
  -7  -4  -4   65.75    1.88 
   0  -4  -5    0.07    0.15 
   0  -4   5    0.05    0.12 
   0   4   5    0.01    0.10 
  -1  -4   5   29.29    0.93 
   1  -4  -5   29.37    1.00 
   1   4   5   28.73    0.93 
  -1  -4  -5   31.79    1.02 
  -1   4   5   30.17    0.90 
   1  -4   5   31.09    0.95 
   2  -4  -5  156.95    4.24 
  -2  -4   5  153.67    4.15 
   2   4   5  153.31    4.17 
   2  -4   5  153.86    4.16 
  -2  -4  -5  155.96    4.15 
  -2  -4  -5  158.74    4.23 
   3   4   5   11.87    0.50 
  -3  -4   5   11.61    0.47 
   3  -4  -5   11.28    0.57 
  -3  -4  -5   10.90    0.59 
  -3  -4  -5   11.46    0.48 
  -3   4   5   12.44    0.50 
   3  -4   5   12.49    0.49 
   4   4   5  117.01    3.24 
   4  -4  -5  114.13    3.31 
  -4  -4  -5  117.83    3.35 
   4  -4   5  118.01    3.22 
  -4   4   5  115.56    3.23 
  -4  -4  -5  121.71    3.21 
   5   4   5    3.83    0.37 
   5  -4  -5    4.50    0.47 
   5   4   5    4.24    0.42 
  -5  -4  -5    4.52    0.46 
   5  -4   5    4.08    0.34 
  -5  -4  -5    4.63    0.32 
  -5   4   5    4.50    0.37 
   6   4   5   21.56    0.93 
   6  -4  -5   21.13    0.96 
  -6  -4   5   20.96    0.68 
   6   4   5   21.44    0.84 
  -6  -4  -5   20.78    1.01 
  -6  -4  -5   21.53    0.78 
  -6   4   5   22.01    0.87 
   7   4   5   17.20    0.86 
  -7  -4   5   16.75    0.61 
   7   4   5   18.24    0.77 
   7  -4  -5   16.79    0.90 
  -7  -4  -5   15.50    0.66 
  -7  -4  -5   16.01    0.94 
  -7   4   5   15.72    0.80 
   0  -4   6  102.87    2.79 
   0   4   6   99.25    2.76 
   0  -4  -6   99.57    2.84 
   1   4   6    2.16    0.23 
   1  -4  -6    2.40    0.29 
  -1  -4   6    2.11    0.24 
   1  -4   6    1.65    0.22 
  -1   4   6    2.08    0.21 
  -1  -4  -6    2.45    0.30 
   2  -4  -6    1.35    0.26 
  -2  -4   6    1.61    0.21 
   2   4   6    1.70    0.22 
   2  -4   6    1.25    0.20 
  -2  -4  -6    1.99    0.30 
   3  -4  -6    3.92    0.45 
   3   4   6    4.24    0.34 
  -3  -4   6    4.26    0.32 
  -3  -4  -6    4.30    0.44 
   3  -4   6    4.27    0.34 
   4  -4  -6    5.18    0.49 
   4   4   6    4.11    0.36 
  -4   4   6    4.97    0.37 
  -4  -4  -6    5.39    0.52 
   4  -4   6    4.79    0.38 
  -4  -4  -6    4.63    0.36 
   5  -4  -6    1.71    0.34 
   5   4   6    2.27    0.30 
  -5  -4  -6    1.64    0.41 
   5  -4   6    1.61    0.26 
  -5   4   6    1.66    0.27 
  -5  -4  -6    1.58    0.25 
   6   4   6   61.61    1.88 
   6  -4  -6   62.46    1.99 
  -6  -4  -6   59.85    1.81 
  -6  -4  -6   54.45    2.03 
  -6   4   6   61.16    1.88 
   0   4   7    0.09    0.15 
   0  -4   7    0.04    0.16 
   0  -4  -7   -0.02    0.20 
   1   4   7    0.42    0.18 
   1  -4  -7    0.31    0.22 
  -1  -4   7    0.29    0.18 
  -1  -4  -7    0.37    0.24 
  -1   4   7    0.41    0.17 
   1  -4   7    0.53    0.19 
  -2  -4   7   66.46    1.91 
   2   4   7   65.62    1.93 
   2  -4  -7   63.21    2.01 
   2  -4   7   64.60    1.93 
  -2  -4  -7   65.58    2.05 
   3  -4  -7    0.54    0.29 
   3   4   7    0.23    0.19 
  -3  -4   7    0.07    0.18 
  -3  -4  -7    0.39    0.32 
   3  -4   7    0.33    0.20 
   4  -4  -7   79.71    2.46 
   4   4   7   80.68    2.37 
  -4   4   7   79.44    2.35 
  -4  -4  -7   81.45    2.49 
   4  -4   7   80.06    2.35 
   5   4   7    0.24    0.25 
   5  -4  -7    0.37    0.30 
  -5   4   7    0.53    0.23 
  -5  -4  -7    0.77    0.41 
   5  -4   7    0.47    0.24 
   0  -4   8  225.32    6.05 
   0   4   8  226.12    6.02 
   0  -4  -8  221.64    6.13 
  -1  -4   8   89.55    2.62 
   1   4   8   92.00    2.63 
   1  -4  -8   91.04    2.73 
  -1   4   8   91.77    2.74 
   1  -4   8   94.08    2.65 
  -1  -4  -8   89.58    2.73 
   2   4   8    4.24    0.41 
  -2  -4   8    5.07    0.42 
   2  -4  -8    4.29    0.48 
   2  -4   8    4.89    0.44 
  -2  -4  -8    4.73    0.52 
   3  -4  -8    2.54    0.42 
   3   4   8    2.37    0.34 
  -3  -4  -8    2.84    0.47 
   3  -4   8    2.71    0.35 
   4   4   8    0.94    0.29 
   4  -4  -8    1.67    0.39 
  -4  -4  -8    0.83    0.42 
  -4   4   8    1.07    0.27 
   4  -4   8    1.00    0.28 
   0  -4   9    0.03    0.24 
   0  -4  -9    0.06    0.40 
   0   4   9    0.18    0.24 
   1   4   9    7.83    0.55 
  -1  -4   9    6.87    0.54 
   1  -4   9    7.30    0.54 
  -1  -4  -9    7.58    0.83 
   0   5   0    0.09    0.11 
   1   5   0   -0.19    0.09 
   2  -5   0  534.17   14.45 
   2   5   0  588.02   14.53 
   2   5   0  511.56   14.28 
  -2  -5   0  571.78   14.42 
   3  -5   0    0.12    0.12 
  -3  -5   0    0.37    0.13 
  -3   5   0    0.07    0.11 
   3   5   0    0.64    0.12 
   4  -5   0  286.02    7.43 
  -4   5   0  264.73    7.43 
   4   5   0  290.52    7.40 
  -4  -5   0  288.14    7.39 
   4   5   0  277.46    7.43 
  -4  -5   0  283.76    7.27 
   5   5   0    0.40    0.16 
  -5  -5   0   -0.08    0.21 
   5   5   0    0.19    0.17 
  -5  -5   0    0.16    0.05 
  -5   5   0    0.11    0.14 
   5  -5   0   -0.07    0.16 
   6  -5   0    1.52    0.26 
  -6   5   0    1.12    0.21 
  -6  -5   0    1.41    0.11 
   6   5   0    1.38    0.23 
  -6  -5   0    1.80    0.31 
  -7  -5   0    0.00    0.07 
   7   5   0    0.16    0.20 
   7  -5   0    0.13    0.21 
  -7  -5   0   -0.01    0.23 
  -7   5   0    0.05    0.17 
  -8  -5   0  230.13    6.28 
  -8   5   0  227.94    6.21 
   8   5   0  237.70    6.32 
  -8  -5   0  227.65    6.00 
   8  -5   0  230.81    6.35 
   0  -5   1  199.89    5.44 
   0   5  -1  200.43    5.44 
   0   5   1  197.47    5.44 
   0  -5  -1  234.31    5.49 
   1  -5  -1  311.75    7.95 
  -1   5  -1  304.04    7.91 
  -1  -5   1  290.41    7.96 
   1   5   1  314.36    7.96 
   1   5  -1  293.50    7.96 
  -1  -5  -1  321.29    7.94 
   1  -5   1  305.66    7.92 
   2   5   1   52.01    1.46 
   2  -5  -1   51.95    1.48 
  -2   5  -1   53.05    1.42 
  -2  -5  -1   53.41    1.40 
  -2  -5  -1   51.94    1.46 
  -2   5   1   52.53    1.52 
   2   5  -1   49.69    1.50 
   2  -5   1   54.27    1.44 
   3   5   1   -0.01    0.10 
   3  -5  -1    0.01    0.13 
  -3  -5   1    0.00    0.15 
  -3   5  -1   -0.02    0.12 
   3   5   1   -0.02    0.10 
  -3  -5  -1    0.09    0.13 
   3   5  -1    0.04    0.14 
   3  -5   1   -0.03    0.11 
   3   5  -1    0.02    0.09 
  -3   5   1   -0.01    0.14 
  -3  -5  -1   -0.07    0.05 
   4   5   1    4.38    0.29 
   4  -5  -1    4.60    0.33 
   4   5   1    4.80    0.31 
  -4   5  -1    4.79    0.32 
  -4  -5  -1    4.73    0.19 
   4   5  -1    4.81    0.28 
   4   5  -1    4.39    0.32 
  -4   5   1    4.78    0.34 
  -4  -5  -1    5.76    0.36 
   4  -5   1    4.45    0.31 
   5   5   1  251.10    6.59 
  -5   5  -1  240.60    6.58 
   5  -5  -1  246.18    6.61 
   5   5   1  243.74    6.57 
   5   5  -1  246.10    6.57 
  -5  -5  -1  249.49    6.43 
   5   5  -1  250.31    6.57 
  -5  -5  -1  255.26    6.58 
  -5   5   1  246.89    6.59 
   5  -5   1  248.52    6.60 
   6  -5  -1   65.26    1.97 
   6   5   1   63.71    1.94 
   6   5   1   63.86    1.91 
  -6   5  -1   65.61    1.92 
  -6  -5   1   65.84    1.94 
  -6  -5  -1   63.72    1.75 
   6  -5   1   66.16    1.97 
   6   5  -1   64.48    1.92 
  -6  -5  -1   63.77    1.92 
  -6   5   1   65.44    1.93 
   7  -5  -1   86.97    2.61 
   7   5   1   87.60    2.60 
  -7  -5   1   89.55    2.59 
  -7   5  -1   87.06    2.53 
  -7  -5   1   88.51    2.31 
   7   5  -1   88.01    2.58 
  -7  -5  -1   88.08    2.36 
   7  -5   1   91.41    2.63 
  -7  -5  -1   86.08    2.56 
  -7   5   1   86.07    2.53 
   8   5   1   12.64    0.73 
  -8  -5   1   13.50    0.42 
  -8   5  -1   15.15    0.66 
   8  -5  -1   12.66    0.75 
  -8  -5   1   13.63    0.80 
  -8  -5  -1   14.05    0.49 
  -8   5   1   13.97    0.65 
   8   5  -1   13.81    0.74 
   8  -5   1   13.80    0.78 
   0  -5  -2    0.00    0.10 
   0  -5   2    0.11    0.08 
   0   5  -2    0.02    0.07 
   0   5   2    0.32    0.08 
   1  -5  -2   39.60    1.13 
  -1  -5   2   39.76    1.12 
  -1   5  -2   37.51    1.08 
   1   5   2   38.70    1.10 
   1   5  -2   39.26    1.11 
  -1  -5  -2   36.10    1.10 
   2   5   2   56.45    1.67 
   2   5   2   58.40    1.66 
   2  -5  -2   60.65    1.70 
  -2  -5   2   57.34    1.66 
   2   5  -2   58.11    1.67 
  -2  -5  -2   60.47    1.61 
   2  -5   2   58.43    1.62 
  -2   5   2   59.85    1.67 
  -2  -5  -2   65.85    1.70 
   3  -5  -2  104.13    2.87 
  -3  -5   2  101.05    2.84 
  -3  -5   2  107.86    2.71 
   3   5   2  101.62    2.83 
  -3   5  -2  107.84    2.85 
   3   5   2  104.36    2.86 
  -3  -5  -2  105.11    2.86 
  -3  -5  -2  105.25    2.77 
   3  -5   2  103.60    2.81 
   3   5  -2  103.23    2.85 
   3  -5   2  105.64    2.78 
  -3   5   2  107.21    2.87 
   3   5  -2  100.34    2.79 
  -4  -5   2   37.37    1.14 
  -4   5  -2   35.61    1.14 
   4   5   2   37.10    1.13 
   4  -5  -2   37.85    1.18 
   4   5   2   36.95    1.16 
  -4  -5  -2   36.88    1.16 
  -4   5   2   36.58    1.19 
  -4  -5  -2   37.19    1.04 
   4  -5   2   37.08    1.14 
   4   5  -2   38.22    1.14 
   4   5  -2   36.05    1.10 
   5  -5  -2   39.40    1.31 
  -5  -5   2   41.48    1.24 
  -5   5  -2   38.59    1.25 
   5   5   2   40.32    1.29 
   5   5   2   40.29    1.25 
   5  -5   2   40.61    1.28 
   5   5  -2   40.01    1.24 
  -5   5   2   40.76    1.30 
   5   5  -2   42.42    1.25 
  -5  -5  -2   39.47    1.14 
  -5  -5  -2   40.03    1.28 
   6   5   2    1.08    0.23 
   6  -5  -2    1.28    0.26 
   6   5   2    0.71    0.20 
  -6   5  -2    0.95    0.22 
   6  -5   2    0.82    0.23 
  -6  -5  -2    1.27    0.14 
  -6  -5  -2    0.70    0.25 
   6   5  -2    1.02    0.22 
  -6   5   2    1.41    0.25 
   7   5   2    0.52    0.23 
   7  -5  -2    0.74    0.27 
  -7   5  -2    0.31    0.20 
   7  -5   2    0.40    0.25 
   7   5  -2    0.25    0.21 
  -7   5   2    0.71    0.22 
  -7  -5  -2   -0.01    0.27 
  -7  -5  -2    0.39    0.12 
   8   5   2   18.01    0.87 
   8  -5  -2   17.76    0.88 
  -8   5  -2   16.84    0.76 
  -8  -5   2   17.24    0.93 
  -8  -5  -2   17.91    0.61 
  -8   5   2   17.27    0.76 
   8   5  -2   17.59    0.84 
   8  -5   2   18.57    0.91 
   0   5   3   12.21    0.41 
   0  -5   3   11.06    0.41 
   0  -5  -3   12.04    0.47 
   0   5  -3   10.70    0.40 
   1   5   3   10.16    0.39 
   1  -5  -3   10.37    0.44 
  -1  -5   3   10.55    0.40 
   1   5  -3   10.98    0.40 
  -1  -5  -3   10.45    0.43 
  -1   5   3   10.65    0.37 
   1  -5   3    9.97    0.38 
   2  -5  -3    3.59    0.29 
   2   5   3    4.42    0.24 
  -2  -5   3    3.21    0.23 
  -2  -5  -3    3.50    0.20 
   2  -5   3    3.42    0.21 
   2   5  -3    3.37    0.23 
  -2   5   3    3.72    0.24 
  -2  -5  -3    3.68    0.31 
  -3   5  -3    1.48    0.21 
  -3  -5   3    1.41    0.17 
   3   5   3    1.19    0.17 
   3  -5  -3    1.41    0.20 
   3   5   3    1.34    0.17 
  -3  -5  -3    1.77    0.24 
  -3   5   3    1.36    0.18 
  -3  -5  -3    1.37    0.14 
   3  -5   3    1.43    0.17 
   3   5  -3    1.54    0.17 
   3  -5   3    1.46    0.15 
  -4  -5   3    0.08    0.12 
  -4   5  -3    0.01    0.14 
   4   5   3    0.08    0.12 
   4  -5  -3    0.16    0.17 
  -4   5  -3    0.04    0.22 
   4   5   3    0.04    0.13 
  -4  -5  -3    0.13    0.19 
   4  -5   3    0.12    0.14 
   4  -5   3    0.00    0.10 
  -4  -5  -3    0.05    0.08 
  -4   5   3    0.06    0.14 
   4   5  -3    0.06    0.13 
   4   5  -3    0.08    0.12 
  -5   5  -3    0.05    0.16 
   5   5   3    0.09    0.15 
   5   5   3    0.06    0.15 
   5  -5  -3    0.11    0.18 
  -5   5  -3    0.16    0.27 
   5   5  -3    0.56    0.17 
  -5  -5  -3    0.18    0.21 
  -5  -5  -3    0.06    0.09 
   5  -5   3    0.18    0.17 
  -5   5   3    0.50    0.20 
   6   5   3    4.37    0.36 
   6  -5  -3    4.01    0.40 
  -6   5  -3    3.69    0.36 
   6   5   3    2.62    0.32 
  -6  -5  -3    3.59    0.41 
   6   5  -3    3.55    0.37 
   6  -5   3    3.57    0.41 
  -6  -5  -3    3.38    0.24 
  -6   5   3    3.57    0.36 
   7  -5  -3    3.79    0.41 
  -7   5  -3    2.10    0.45 
  -7   5  -3    2.40    0.29 
   7   5   3    2.26    0.33 
  -7  -5  -3    2.33    0.42 
   7  -5   3    3.02    0.38 
  -7  -5  -3    2.70    0.24 
   7   5  -3    2.56    0.33 
  -7   5   3    2.67    0.34 
   8  -5  -3    0.19    0.28 
  -8   5  -3   -0.01    0.47 
  -8   5  -3    0.00    0.20 
   8   5   3    0.24    0.27 
   8  -5   3    0.06    0.31 
  -8   5   3    0.07    0.21 
  -8  -5  -3    0.04    0.13 
   8   5  -3    0.05    0.26 
  -8  -5  -3    0.23    0.37 
   0   5   4    0.10    0.09 
   0  -5  -4    0.02    0.13 
   0  -5   4    0.13    0.10 
   1   5   4   17.36    0.61 
   1  -5  -4   18.13    0.67 
  -1  -5   4   18.86    0.62 
   1  -5   4   19.45    0.62 
   1   5  -4   18.92    0.62 
  -1  -5  -4   17.27    0.67 
  -1   5   4   18.26    0.58 
  -2  -5   4   25.25    0.81 
   2   5   4   24.24    0.81 
   2  -5  -4   24.98    0.88 
  -2   5   4   26.41    0.82 
  -2  -5  -4   25.99    0.80 
   2   5  -4   25.31    0.80 
   2  -5   4   25.61    0.81 
  -2  -5  -4   25.31    0.87 
  -3  -5   4  187.51    5.03 
   3  -5  -4  187.72    5.11 
   3   5   4  186.58    5.05 
   3   5  -4  191.32    5.03 
  -3  -5  -4  193.83    5.13 
  -3  -5  -4  192.14    5.01 
   3  -5   4  187.68    5.02 
   4  -5  -4   47.39    1.51 
   4   5   4   46.70    1.49 
   4   5   4   46.07    1.43 
  -4  -5   4   47.59    1.40 
   4  -5   4   48.19    1.39 
  -4   5   4   48.05    1.45 
  -4  -5  -4   49.68    1.53 
   4   5  -4   48.21    1.40 
  -4  -5  -4   47.52    1.39 
   5   5   4   23.57    0.86 
   5  -5  -4   23.63    0.94 
   5   5   4   23.69    0.92 
  -5  -5  -4   24.53    0.95 
  -5  -5  -4   24.07    0.79 
  -5   5   4   24.68    0.90 
   6  -5  -4    2.25    0.35 
   6   5   4    2.50    0.30 
   6   5   4    2.25    0.32 
  -6  -5   4    2.33    0.17 
  -6   5   4    1.95    0.31 
  -6  -5  -4    2.62    0.40 
  -6  -5  -4    2.32    0.23 
   7   5   4    1.20    0.31 
   7  -5  -4    1.79    0.36 
   7   5   4    2.41    0.35 
  -7  -5  -4    1.25    0.43 
  -7   5   4    1.19    0.29 
  -7  -5  -4    1.43    0.20 
   0   5   5  199.19    5.17 
   0  -5  -5  195.49    5.25 
   0  -5   5  192.45    5.19 
   1  -5  -5  162.74    4.47 
  -1  -5   5  158.29    4.40 
   1   5   5  162.32    4.40 
   1  -5   5  168.16    4.42 
  -1  -5  -5  171.18    4.49 
  -1   5   5  166.63    4.36 
  -2  -5   5   59.97    1.76 
   2   5   5   60.87    1.77 
   2  -5  -5   62.39    1.85 
  -2   5   5   60.97    1.77 
  -2  -5  -5   63.10    1.85 
   2  -5   5   61.66    1.77 
  -2  -5  -5   61.71    1.75 
  -3  -5   5    0.17    0.14 
   3  -5  -5    0.33    0.22 
   3   5   5    0.24    0.16 
   3  -5   5    0.23    0.14 
  -3  -5  -5    0.28    0.22 
  -3   5   5    0.18    0.14 
  -3  -5  -5    0.13    0.12 
  -4  -5   5   10.24    0.48 
   4  -5  -5   11.51    0.61 
   4   5   5   10.97    0.52 
  -4   5   5   12.30    0.54 
   4  -5   5   10.57    0.50 
  -4  -5  -5   10.02    0.66 
  -4  -5  -5   12.03    0.49 
   5   5   5   72.50    2.21 
   5  -5  -5   72.17    2.22 
   5   5   5   70.60    2.13 
  -5   5   5   74.12    2.16 
  -5  -5  -5   70.32    2.25 
  -5  -5  -5   72.67    2.07 
   5  -5   5   74.25    2.09 
   6   5   5   88.65    2.58 
  -6  -5   5   89.27    2.39 
   6  -5  -5   86.53    2.68 
   6   5   5   87.00    2.67 
  -6   5   5   90.14    2.64 
  -6  -5  -5   89.45    2.72 
  -6  -5  -5   90.15    2.51 
   7   5   5   79.84    2.56 
   7   5   5   82.83    2.47 
   7  -5  -5   82.78    2.59 
  -7  -5   5   83.45    2.26 
  -7  -5  -5   84.27    2.37 
  -7   5   5   80.63    2.53 
  -7  -5  -5   83.91    2.62 
   0  -5  -6   -0.03    0.17 
   0   5   6    0.08    0.13 
   0  -5   6    0.17    0.15 
  -1  -5   6   17.35    0.66 
   1   5   6   17.20    0.65 
   1  -5  -6   17.80    0.73 
   1  -5   6   17.08    0.66 
  -1  -5  -6   16.53    0.74 
  -1   5   6   17.19    0.62 
   2  -5  -6  168.09    4.64 
   2   5   6  169.91    4.55 
  -2  -5   6  164.62    4.53 
  -2  -5  -6  175.65    4.67 
   2  -5   6  165.42    4.54 
   3   5   6    4.52    0.36 
   3  -5  -6    5.14    0.48 
  -3  -5   6    4.14    0.33 
  -3  -5  -6    4.53    0.48 
  -3   5   6    5.14    0.37 
   3  -5   6    4.72    0.35 
   4   5   6  136.59    3.81 
   4  -5  -6  136.00    3.89 
  -4  -5  -6  139.31    3.77 
  -4  -5  -6  139.45    3.91 
  -4   5   6  138.69    3.80 
   4  -5   6  135.93    3.78 
   5   5   6   13.95    0.63 
   5  -5  -6   12.27    0.72 
  -5  -5  -6   12.04    0.56 
   5  -5   6   12.23    0.58 
  -5   5   6   11.56    0.62 
  -5  -5  -6    8.47    0.76 
   6  -5  -6    0.14    0.30 
   6   5   6    0.04    0.24 
  -6   5   6    0.00    0.24 
  -6  -5  -6   -0.16    0.41 
  -6  -5  -6    0.20    0.20 
   0  -5  -7   56.80    1.80 
   0  -5   7   56.48    1.72 
   0   5   7   57.45    1.69 
  -1  -5   7   45.95    1.45 
   1  -5  -7   47.58    1.55 
   1   5   7   47.82    1.45 
   1  -5   7   46.82    1.46 
  -1  -5  -7   46.99    1.56 
  -1   5   7   46.24    1.41 
   2   5   7    0.31    0.19 
   2  -5  -7    0.06    0.25 
  -2  -5   7    0.05    0.18 
  -2  -5  -7    0.50    0.28 
   2  -5   7    0.16    0.19 
  -3  -5   7    0.15    0.19 
   3   5   7    0.05    0.19 
   3  -5  -7    0.07    0.29 
   3  -5   7    0.04    0.19 
  -3  -5  -7    0.38    0.32 
   4   5   7    0.21    0.23 
   4  -5  -7    0.12    0.29 
  -4  -5  -7    0.20    0.34 
  -4   5   7    0.28    0.22 
   4  -5   7    0.41    0.23 
   5  -5  -7   62.34    2.08 
   5   5   7   61.92    1.98 
   5  -5   7   63.67    1.95 
  -5  -5  -7   66.70    2.15 
  -5   5   7   64.59    1.99 
   0   5   8    0.05    0.20 
   0  -5   8    0.09    0.20 
   0  -5  -8    0.27    0.33 
   1   5   8    2.17    0.30 
   1  -5  -8    2.94    0.43 
  -1  -5   8    2.68    0.33 
  -1  -5  -8    2.98    0.42 
   1  -5   8    2.37    0.31 
   2   5   8    1.14    0.27 
  -2  -5   8    0.93    0.26 
   2  -5  -8    0.91    0.34 
   2  -5   8    1.11    0.27 
  -2  -5  -8    1.01    0.36 
  -3  -5   8   46.39    1.46 
   3  -5  -8   45.61    1.59 
   3   5   8   45.66    1.50 
   3  -5   8   46.87    1.50 
  -3  -5  -8   40.21    1.62 
   4  -5  -8    1.39    0.41 
  -4  -5  -8    1.53    0.47 
   0  -5   9   -0.08    0.24 
   0  -5  -9    0.08    0.37 
   0   5   9    0.39    0.26 
   0   6   0  677.51   17.49 
   1  -6   0    0.64    0.11 
  -1   6   0    0.65    0.11 
   2  -6   0   19.03    0.61 
   2   6   0   19.29    0.66 
   2   6   0   18.08    0.59 
  -2  -6   0   17.98    0.59 
   3   6   0    0.00    0.09 
  -3   6   0    0.11    0.13 
  -3  -6   0    0.06    0.13 
   3   6   0    0.01    0.13 
   3  -6   0    0.07    0.11 
   4  -6   0   25.04    0.86 
   4   6   0   24.81    0.87 
   4   6   0   25.12    0.83 
  -4   6   0   25.52    0.88 
  -4  -6   0   24.64    0.69 
  -4  -6   0   27.14    0.84 
  -5  -6   0    0.01    0.17 
   5   6   0    0.01    0.13 
   5  -6   0    0.04    0.17 
   5   6   0    0.12    0.18 
  -5  -6   0    0.02    0.05 
  -5   6   0    0.11    0.16 
  -6  -6   0  210.87    5.49 
  -6  -6   0  200.96    5.28 
  -6   6   0  202.10    5.51 
   6   6   0  203.28    5.50 
   6  -6   0  202.85    5.54 
   6   6   0  203.25    5.49 
  -7  -6   0    0.04    0.07 
   7   6   0    0.13    0.21 
  -7   6   0    0.09    0.19 
  -7  -6   0    0.12    0.22 
   7  -6   0    0.22    0.23 
   8  -6   0    0.67    0.29 
   8   6   0    0.47    0.26 
  -8   6   0    0.60    0.23 
  -8  -6   0    0.43    0.09 
  -8  -6   0    0.44    0.27 
   0   6  -1    0.09    0.09 
   0  -6  -1    0.20    0.11 
   0  -6   1    0.13    0.09 
   0   6   1    0.05    0.09 
  -1   6  -1    0.30    0.09 
   1  -6  -1    0.34    0.11 
  -1  -6   1    0.52    0.12 
   1   6   1    0.53    0.13 
   1   6  -1    0.66    0.13 
  -1  -6  -1    0.47    0.12 
   1  -6   1    0.26    0.09 
  -1   6   1    0.42    0.11 
  -2   6  -1    0.66    0.09 
   2  -6  -1    0.53    0.13 
   2   6   1    0.45    0.10 
   2   6   1    0.63    0.14 
   2  -6   1    0.56    0.09 
   2  -6   1    0.58    0.12 
  -2   6   1    0.75    0.17 
   2   6  -1    0.43    0.13 
  -2  -6  -1    0.78    0.16 
   3  -6  -1  264.50    6.88 
  -3  -6   1  263.19    6.75 
   3   6   1  253.94    6.88 
   3   6   1  266.39    6.86 
  -3  -6   1  283.46    6.82 
  -3   6  -1  226.78    6.87 
  -3  -6  -1  270.70    6.86 
   3  -6   1  266.29    6.77 
   3  -6   1  265.63    6.85 
  -3  -6  -1  259.39    6.76 
  -3   6   1  268.18    6.92 
   3   6  -1  239.05    6.89 
   3   6  -1  266.93    6.82 
   4  -6  -1    0.42    0.17 
  -4  -6   1    0.28    0.17 
  -4   6  -1    0.62    0.18 
   4   6   1    0.81    0.17 
   4   6   1    0.56    0.15 
  -4  -6  -1    0.77    0.08 
   4   6  -1    0.46    0.18 
   4  -6   1    0.70    0.17 
  -4  -6  -1    0.46    0.18 
  -4   6   1    0.35    0.17 
   4   6  -1    0.81    0.15 
   5   6   1    1.06    0.20 
  -5   6  -1    0.78    0.20 
  -5  -6   1    1.16    0.25 
   5   6   1    1.00    0.21 
   5  -6  -1    1.33    0.24 
   5   6  -1    0.93    0.19 
  -5   6   1    0.71    0.19 
   5  -6   1    0.86    0.21 
   5   6  -1    1.05    0.22 
  -5  -6  -1    0.87    0.23 
  -5  -6  -1    1.19    0.12 
   6  -6  -1    3.00    0.35 
   6   6   1    2.09    0.29 
  -6   6  -1    2.31    0.28 
  -6  -6   1    3.82    0.40 
   6   6   1    2.62    0.30 
  -6  -6  -1    2.25    0.30 
  -6  -6  -1    2.73    0.17 
   6  -6   1    2.64    0.32 
   6   6  -1    2.99    0.30 
  -6   6   1    2.74    0.31 
  -7   6  -1    0.01    0.18 
   7   6   1    0.03    0.21 
  -7  -6   1    0.10    0.32 
  -7  -6  -1    0.26    0.28 
   7  -6   1   -0.02    0.22 
  -7  -6  -1    0.15    0.09 
  -7   6   1    0.12    0.19 
   7   6  -1    0.06    0.20 
  -8   6  -1    1.01    0.26 
   8   6   1    1.06    0.30 
   8  -6  -1    0.95    0.32 
  -8  -6   1    1.18    0.42 
  -8   6   1    1.26    0.27 
   8   6  -1    0.70    0.28 
  -8  -6  -1    1.03    0.14 
  -8  -6  -1    0.19    0.30 
   8  -6   1    0.77    0.31 
   0  -6  -2   16.81    0.59 
   0   6  -2   17.37    0.57 
   0   6   2   16.90    0.56 
   0  -6   2   18.11    0.57 
  -1  -6   2    1.84    0.19 
   1   6   2    1.40    0.16 
  -1   6  -2    1.74    0.15 
   1  -6   2    1.81    0.15 
  -1   6   2    1.89    0.16 
   1   6  -2    1.61    0.17 
  -1  -6  -2    2.32    0.22 
   2  -6  -2   69.84    1.99 
   2   6   2   70.62    1.97 
  -2  -6   2   69.86    1.99 
  -2  -6  -2   75.45    1.99 
  -2   6   2   71.40    1.99 
   2  -6   2   68.82    1.92 
   2   6  -2   68.66    1.98 
  -3  -6   2    4.87    0.17 
   3  -6  -2    4.62    0.33 
  -3  -6   2    4.72    0.31 
   3   6   2    4.98    0.30 
  -3  -6   2    5.08    0.31 
  -3   6  -2    4.43    0.31 
   3   6  -2    4.93    0.32 
   3   6  -2    4.49    0.24 
  -3  -6  -2    4.96    0.33 
  -3  -6  -2    4.71    0.22 
   3  -6   2    4.53    0.28 
   3  -6   2    4.87    0.23 
  -3   6   2    4.78    0.34 
   4  -6  -2   65.24    1.92 
  -4   6  -2   64.24    1.90 
   4   6   2   66.36    1.91 
   4   6   2   66.66    1.89 
  -4  -6   2   62.94    1.89 
   4  -6   2   66.72    1.88 
   4   6  -2   64.39    1.90 
  -4   6   2   64.36    1.94 
  -4  -6  -2   67.70    1.91 
   4   6  -2   65.21    1.84 
  -4  -6  -2   65.67    1.78 
   5  -6  -2    0.42    0.20 
  -5   6  -2    0.76    0.20 
   5   6   2    0.44    0.18 
  -5  -6   2    0.07    0.16 
   5   6   2    0.24    0.16 
   5   6  -2    0.03    0.17 
   5  -6   2    0.34    0.18 
  -5  -6  -2    0.15    0.08 
   5   6  -2    0.10    0.14 
  -5   6   2    0.06    0.17 
  -5  -6  -2    0.19    0.22 
   6  -6  -2   10.35    0.61 
   6   6   2   10.11    0.55 
   6   6   2   11.20    0.58 
  -6   6  -2   11.15    0.56 
  -6  -6  -2   11.70    0.63 
   6  -6   2    9.90    0.58 
  -6  -6  -2   10.41    0.39 
  -6   6   2   11.02    0.56 
   6   6  -2   10.28    0.54 
  -7  -6   2    0.30    0.33 
  -7   6  -2    0.26    0.21 
   7   6   2    0.42    0.23 
   7  -6  -2    0.45    0.26 
  -7  -6  -2    0.22    0.11 
   7   6  -2    0.23    0.21 
  -7   6   2    0.30    0.21 
  -7  -6  -2    0.48    0.31 
   7  -6   2    0.47    0.26 
   8   6   2   16.39    0.84 
  -8  -6   2   16.65    0.91 
  -8   6  -2   16.78    0.77 
   8  -6  -2   16.68    0.88 
   8   6  -2   16.84    0.83 
  -8   6   2   16.56    0.76 
  -8  -6  -2   16.68    0.58 
   8  -6   2   17.42    0.90 
   0  -6   3    0.23    0.10 
   0   6   3    0.11    0.09 
   0   6  -3    0.19    0.09 
   0  -6  -3    0.16    0.13 
  -1  -6   3  176.05    4.75 
   1   6   3  178.32    4.74 
  -1   6  -3  173.50    4.72 
   1  -6  -3  181.93    4.78 
   1   6  -3  179.19    4.74 
  -1   6   3  184.93    4.70 
  -1   6   3  177.44    4.74 
   1  -6   3  176.63    4.72 
  -1  -6  -3  184.34    4.78 
   2  -6  -3    1.04    0.19 
   2   6   3    0.62    0.13 
  -2  -6   3    0.76    0.14 
  -2  -6  -3    0.97    0.20 
   2  -6   3    0.96    0.13 
   2   6  -3    0.93    0.15 
  -2   6   3    1.04    0.16 
   3   6   3    8.08    0.42 
   3   6   3    7.71    0.38 
   3  -6  -3    7.79    0.45 
  -3  -6   3    8.40    0.40 
   3   6  -3    8.42    0.40 
  -3  -6  -3    8.53    0.34 
   3  -6   3    8.76    0.36 
  -3  -6  -3    8.84    0.48 
  -3   6   3    9.33    0.43 
   4   6   3    0.53    0.17 
   4  -6  -3    0.56    0.20 
   4   6   3    0.45    0.16 
  -4  -6   3    0.63    0.17 
   4  -6   3    0.53    0.13 
  -4  -6  -3    0.63    0.12 
   4   6  -3    0.64    0.18 
  -4   6   3    0.47    0.19 
  -4  -6  -3    0.47    0.20 
   5   6   3   56.17    1.73 
   5   6   3   55.74    1.69 
   5  -6  -3   54.97    1.75 
  -5  -6   3   57.11    1.66 
  -5  -6  -3   55.54    1.74 
   5   6  -3   59.23    1.76 
  -5  -6  -3   54.83    1.58 
  -5   6   3   55.34    1.75 
   6   6   3    3.50    0.35 
   6  -6  -3    4.47    0.48 
   6   6   3    4.18    0.42 
  -6  -6  -3    4.14    0.26 
  -6  -6  -3    4.93    0.48 
  -6   6   3    4.30    0.43 
   7  -6  -3   81.31    2.51 
   7   6   3   82.73    2.42 
   7   6   3   82.05    2.48 
  -7   6   3   85.09    2.44 
  -7  -6  -3   81.02    2.26 
  -7  -6  -3   77.45    2.48 
   8  -6  -3    0.10    0.28 
   8   6   3    0.26    0.28 
  -8  -6  -3    0.12    0.38 
  -8   6   3    0.26    0.24 
  -8  -6  -3    0.20    0.14 
   0   6   4    0.26    0.11 
   0  -6  -4    0.76    0.17 
   0  -6   4    0.17    0.11 
   1  -6  -4    1.57    0.21 
  -1  -6   4    1.60    0.18 
   1   6   4    1.31    0.16 
  -1  -6  -4    1.44    0.21 
   1  -6   4    1.73    0.18 
   1   6  -4    1.64    0.18 
  -1   6   4    1.49    0.16 
   2  -6  -4   49.09    1.49 
   2   6   4   48.26    1.42 
  -2  -6   4   49.26    1.42 
  -2  -6  -4   48.81    1.47 
   2  -6   4   45.43    1.39 
   2   6  -4   48.61    1.42 
  -3  -6   4    0.25    0.14 
   3  -6  -4    0.18    0.19 
   3   6   4    0.11    0.14 
  -3  -6  -4    0.15    0.21 
  -3  -6  -4    0.05    0.10 
   3   6  -4    0.32    0.14 
   3  -6   4    0.15    0.12 
  -3   6   4    0.07    0.15 
   4  -6  -4   67.85    2.07 
   4   6   4   69.59    2.06 
  -4  -6   4   70.12    1.98 
   4   6   4   69.32    2.01 
   4  -6   4   67.45    1.94 
  -4   6   4   69.22    2.03 
  -4  -6  -4   70.25    2.10 
   4   6  -4   70.31    1.98 
  -4  -6  -4   67.28    1.93 
   5  -6  -4    0.45    0.23 
   5   6   4    0.45    0.21 
   5   6   4    0.53    0.20 
  -5  -6  -4    0.49    0.31 
  -5   6   4    0.60    0.23 
  -5  -6  -4    0.60    0.14 
   6   6   4    6.95    0.52 
  -6  -6   4    7.23    0.26 
   6   6   4    6.96    0.49 
   6  -6  -4    6.32    0.56 
  -6   6   4    5.73    0.52 
  -6  -6  -4    6.50    0.36 
  -6  -6  -4    6.78    0.60 
   7   6   4    1.64    0.33 
   7   6   4    1.53    0.32 
   7  -6  -4    2.02    0.39 
  -7  -6  -4    1.30    0.40 
  -7   6   4    1.68    0.33 
  -7  -6  -4    1.61    0.22 
   0   6   5   -0.01    0.11 
   0  -6  -5   -0.01    0.15 
   0  -6   5    0.03    0.12 
  -1  -6   5    1.81    0.21 
   1   6   5    2.03    0.22 
   1  -6  -5    1.93    0.26 
  -1   6   5    2.19    0.21 
   1  -6   5    2.75    0.26 
  -1  -6  -5    3.14    0.32 
   2  -6  -5    3.26    0.36 
  -2  -6   5    2.73    0.26 
   2   6   5    2.97    0.27 
  -2  -6  -5    3.49    0.37 
   2  -6   5    2.93    0.27 
   3   6   5   84.33    2.36 
   3  -6  -5   82.35    2.43 
  -3  -6   5   81.52    2.33 
  -3  -6  -5   85.06    2.44 
  -3   6   5   82.49    2.35 
   3  -6   5   81.31    2.32 
  -3  -6  -5   82.30    2.31 
   3   6  -5   82.20    2.32 
   4   6   5    2.67    0.30 
   4  -6  -5    3.48    0.38 
  -4  -6   5    2.28    0.26 
  -4   6   5    2.73    0.31 
  -4  -6  -5    2.65    0.26 
   4  -6   5    2.68    0.27 
   4   6  -5    2.29    0.26 
  -4  -6  -5    2.06    0.39 
   5   6   5    0.01    0.19 
   5  -6  -5    0.12    0.24 
   5  -6   5    0.16    0.20 
  -5  -6  -5    0.07    0.34 
  -5   6   5    0.01    0.21 
  -5  -6  -5    0.20    0.15 
   6   6   5    2.14    0.32 
   6   6   5    2.14    0.34 
   6  -6  -5    2.34    0.39 
  -6  -6  -5    2.66    0.27 
  -6  -6  -5    1.76    0.45 
  -6   6   5    1.82    0.35 
   7   6   5    0.99    0.32 
   7   6   5    0.79    0.31 
   7  -6  -5    0.83    0.36 
  -7   6   5    0.82    0.33 
  -7  -6  -5    0.64    0.45 
  -7  -6  -5    1.07    0.22 
   0   6   6  195.60    5.16 
   0  -6   6  195.78    5.20 
   0  -6  -6  189.22    5.25 
   1  -6  -6    4.17    0.39 
   1   6   6    3.84    0.31 
  -1  -6   6    3.60    0.31 
  -1  -6  -6    4.08    0.41 
   1  -6   6    3.46    0.32 
  -1   6   6    4.03    0.30 
   2   6   6    1.20    0.21 
  -2  -6   6    1.27    0.21 
   2  -6  -6    1.11    0.27 
   2  -6   6    1.40    0.22 
  -2  -6  -6    1.14    0.28 
  -3  -6   6    3.70    0.33 
   3  -6  -6    3.82    0.42 
   3   6   6    3.96    0.35 
  -3  -6  -6    3.53    0.42 
  -3  -6  -6    4.59    0.36 
   3  -6   6    3.80    0.34 
   4  -6  -6    3.52    0.42 
  -4  -6   6    3.33    0.32 
   4   6   6    3.42    0.35 
  -4   6   6    3.12    0.34 
   4  -6   6    3.07    0.32 
  -4  -6  -6    3.84    0.47 
  -4  -6  -6    3.06    0.30 
   5  -6  -6    4.82    0.49 
   5   6   6    4.50    0.42 
   5  -6   6    4.70    0.40 
  -5   6   6    4.65    0.47 
  -5  -6  -6    4.82    0.38 
   6  -6  -6   98.25    3.02 
   6   6   6   97.41    2.91 
  -6  -6  -6  101.60    2.83 
  -6   6   6  100.77    2.97 
   0   6   7    1.35    0.23 
   0  -6   7    0.15    0.19 
   0  -6  -7    0.24    0.24 
   1  -6  -7    0.57    0.26 
   1   6   7    0.98    0.22 
  -1  -6   7    0.65    0.21 
  -1  -6  -7    0.71    0.28 
   1  -6   7    0.71    0.21 
   2  -6  -7    4.62    0.51 
   2   6   7    4.60    0.39 
  -2  -6   7    4.76    0.39 
  -2  -6  -7    4.14    0.46 
   2  -6   7    4.93    0.39 
  -3  -6   7   89.38    2.55 
   3   6   7   88.06    2.58 
   3  -6  -7   89.42    2.69 
  -3  -6  -7   87.47    2.72 
   3  -6   7   89.43    2.57 
   4  -6  -7    0.01    0.29 
   4   6   7    0.37    0.24 
  -4  -6  -7    0.04    0.34 
   4  -6   7    0.02    0.21 
   5   6   7    3.21    0.40 
   5  -6  -7    3.24    0.47 
  -5  -6  -7    3.71    0.54 
   5  -6   7    2.63    0.35 
  -5   6   7    2.41    0.38 
   0  -6  -8   17.83    0.92 
   0  -6   8   19.44    0.80 
   0   6   8   19.39    0.77 
  -1  -6   8    0.17    0.22 
   1   6   8    0.18    0.22 
   1  -6  -8    0.17    0.33 
   1  -6   8    0.15    0.22 
  -1  -6  -8    0.38    0.33 
   2  -6  -8   23.19    1.04 
  -2  -6   8   21.89    0.89 
   2   6   8   22.87    0.91 
  -2  -6  -8   23.83    1.05 
   2  -6   8   22.26    0.91 
  -3  -6   8    0.09    0.23 
   3   6   8    0.06    0.25 
   3  -6  -8    0.00    0.32 
   3  -6   8    0.24    0.25 
  -3  -6  -8    0.22    0.35 
   0   7   0   -0.35    0.11 
   1  -7   0    0.06    0.09 
   1  -7   0    0.27    0.10 
  -1  -7   0    0.12    0.10 
  -1   7   0    0.29    0.10 
   1   7   0   -0.02    0.10 
  -2  -7   0   59.68    1.65 
   2   7   0   61.33    1.73 
   2  -7   0   59.95    1.62 
   2   7   0   58.33    1.64 
   2  -7   0   59.02    1.67 
  -2   7   0   59.65    1.62 
  -3   7   0    0.13    0.14 
  -3  -7   0    0.10    0.15 
   3  -7   0    0.21    0.13 
   3   7   0    0.15    0.15 
   3   7   0    0.06    0.09 
   4  -7   0  149.71    4.09 
  -4   7   0  152.16    4.13 
   4   7   0  151.29    4.06 
  -4  -7   0  151.38    4.05 
   4   7   0  150.71    4.12 
   5  -7   0    0.50    0.19 
  -5   7   0    0.14    0.17 
   5   7   0    0.00    0.18 
  -5  -7   0    0.01    0.20 
   5   7   0    0.10    0.15 
   6  -7   0    1.95    0.29 
  -6   7   0    1.18    0.25 
   6   7   0    1.72    0.28 
  -6  -7   0    1.57    0.11 
   6   7   0    1.60    0.25 
   7  -7   0    0.09    0.23 
  -7  -7   0    0.11    0.25 
  -7   7   0    0.41    0.23 
   7   7   0    0.35    0.23 
  -7  -7   0    0.45    0.08 
  -8   7   0    0.53    0.25 
   8   7   0    0.06    0.26 
  -8  -7   0   -0.04    0.29 
   8  -7   0    0.18    0.28 
  -8  -7   0    0.09    0.08 
   0   7  -1   12.84    0.48 
   0   7   1   13.17    0.49 
   0  -7   1   13.66    0.49 
   1   7   1   21.89    0.73 
   1  -7  -1   21.26    0.70 
  -1   7  -1   22.77    0.69 
  -1   7   1   23.07    0.70 
   1  -7   1   23.12    0.69 
   1   7  -1   21.79    0.74 
  -1  -7  -1   21.13    0.69 
   2  -7  -1   64.08    1.87 
  -2   7  -1   68.88    1.81 
  -2  -7   1   61.98    1.80 
   2   7   1   66.93    1.90 
   2  -7   1   67.15    1.81 
  -2   7   1   67.27    1.80 
   2  -7   1   68.30    1.84 
  -2   7   1   68.61    1.93 
   2   7  -1   64.55    1.80 
  -2  -7  -1   70.35    1.87 
   2   7  -1   66.53    1.92 
  -3  -7   1    0.27    0.09 
   3   7   1    0.40    0.15 
  -3   7  -1    0.19    0.15 
   3  -7  -1    0.49    0.16 
   3   7   1    0.30    0.11 
   3   7  -1    0.46    0.17 
   3  -7   1    0.39    0.10 
  -3  -7  -1    0.38    0.17 
   3  -7   1    0.61    0.14 
  -3   7   1    0.63    0.19 
  -4  -7   1   61.94    1.64 
   4   7   1   56.46    1.67 
   4   7   1   56.91    1.70 
   4  -7  -1   57.05    1.70 
  -4   7  -1   51.20    1.70 
   4  -7   1   56.98    1.68 
   4   7  -1   58.59    1.64 
  -4   7   1   58.07    1.72 
   4   7  -1   57.02    1.72 
  -4  -7  -1   57.54    1.68 
  -4  -7  -1   56.26    1.54 
  -5   7  -1    0.53    0.21 
   5   7   1    0.38    0.16 
  -5  -7   1    0.52    0.22 
   5  -7  -1    0.34    0.20 
   5   7   1    0.31    0.19 
   5   7  -1    0.49    0.17 
  -5  -7  -1    0.51    0.24 
  -5   7   1    0.83    0.22 
   5  -7   1    0.61    0.20 
   5   7  -1    0.21    0.20 
  -5  -7  -1    0.43    0.08 
   6   7   1    8.31    0.53 
   6   7   1    7.94    0.50 
  -6   7  -1    9.40    0.54 
   6  -7  -1    8.84    0.56 
  -6  -7   1    8.31    0.52 
   6   7  -1    8.40    0.49 
  -6  -7  -1    8.24    0.31 
  -6   7   1    9.07    0.52 
   6   7  -1    9.29    0.78 
   6  -7   1    9.05    0.55 
  -6  -7  -1    8.31    0.57 
  -7  -7   1   15.50    0.74 
  -7   7  -1   15.49    0.73 
   7   7   1   15.15    0.74 
   7  -7  -1   14.39    0.75 
   7   7  -1   15.73    0.73 
  -7   7   1   15.17    0.71 
   7  -7   1   15.15    0.78 
  -7  -7  -1   15.98    0.80 
  -7  -7  -1   15.06    0.49 
   8   7   1   38.73    1.42 
  -8  -7   1   38.99    1.38 
   8  -7  -1   39.65    1.46 
  -8   7  -1   37.07    1.35 
   8   7  -1   39.78    1.40 
  -8  -7  -1   39.15    1.11 
   8  -7   1   38.16    1.45 
  -8   7   1   40.63    1.36 
   0   7   2   -0.02    0.09 
   0   7  -2    0.35    0.11 
   0  -7   2    0.39    0.11 
   0  -7  -2    0.07    0.12 
   1  -7  -2   40.97    1.22 
   1   7   2   40.93    1.21 
  -1  -7   2   39.78    1.22 
  -1   7  -2   40.14    1.17 
  -1  -7  -2   41.68    1.21 
   1  -7   2   40.89    1.18 
  -1   7   2   41.72    1.18 
   1   7  -2   41.22    1.22 
   2  -7  -2   78.62    2.23 
  -2  -7   2   78.29    2.24 
   2   7   2   77.53    2.21 
  -2   7  -2   79.80    2.15 
  -2   7   2   80.92    2.26 
   2  -7   2   79.36    2.16 
  -2  -7  -2   82.94    2.23 
   2   7  -2   79.14    2.24 
   3   7   2    7.20    0.38 
   3  -7  -2    7.51    0.41 
  -3  -7   2    6.14    0.39 
   3   7   2    7.17    0.37 
   3  -7   2    6.71    0.30 
   3   7  -2    5.66    0.38 
  -3  -7  -2    7.81    0.43 
  -3   7   2    7.34    0.44 
   4   7   2   73.88    2.06 
   4   7   2   70.89    2.05 
   4  -7  -2   72.19    2.08 
  -4  -7   2   65.99    2.05 
  -4  -7  -2   75.28    2.07 
   4   7  -2   67.27    2.06 
  -4  -7  -2   73.48    1.93 
   4  -7   2   65.87    2.24 
  -4   7   2   73.33    2.11 
  -5  -7   2   28.15    0.96 
   5   7   2   27.80    0.98 
   5  -7  -2   27.80    1.01 
   5   7   2   27.60    0.97 
  -5  -7   2   27.03    0.97 
  -5  -7  -2   27.55    1.00 
  -5   7   2   28.70    1.02 
  -5  -7  -2   28.36    0.83 
   5   7  -2   27.32    0.98 
   5  -7   2   27.18    0.98 
   6   7   2    0.08    0.21 
  -6  -7   2    0.34    0.30 
   6  -7  -2    0.04    0.22 
   6   7   2    0.08    0.19 
   6  -7   2    0.04    0.22 
  -6   7   2    0.20    0.20 
  -6  -7  -2    0.25    0.10 
  -6  -7  -2    0.06    0.29 
   7   7   2   27.97    1.16 
  -7  -7   2   30.04    1.13 
   7  -7  -2   28.22    1.15 
   7   7   2   30.15    1.14 
  -7  -7  -2   28.99    0.89 
   7  -7   2   30.58    1.16 
  -7  -7  -2   28.50    1.16 
  -7   7   2   31.39    1.10 
   8  -7  -2   20.58    1.01 
   8   7   2   20.79    0.99 
  -8  -7   2   22.40    1.01 
  -8   7   2   23.62    0.93 
   8  -7   2   22.04    1.04 
  -8  -7  -2   22.12    1.04 
  -8  -7  -2   21.99    0.71 
   0   7  -3    6.01    0.31 
   0   7   3    5.95    0.30 
   0  -7  -3    6.31    0.35 
   0  -7   3    6.38    0.32 
   1   7   3  302.22    7.79 
   1  -7  -3  297.69    7.82 
  -1   7  -3  286.67    7.76 
  -1  -7   3  293.85    7.80 
   1   7  -3  295.06    7.80 
  -1  -7  -3  307.55    7.83 
  -1   7   3  309.61    7.76 
   1  -7   3  287.07    7.77 
  -2  -7   3   23.59    0.79 
   2  -7  -3   22.87    0.83 
   2   7   3   23.78    0.78 
   2  -7   3   22.90    0.74 
  -2  -7  -3   22.92    0.81 
   2   7  -3   24.17    0.80 
  -2   7   3   22.51    0.80 
   3  -7  -3    0.46    0.18 
  -3  -7   3    0.18    0.15 
   3   7   3    0.29    0.14 
  -3  -7  -3    0.44    0.24 
   3   7  -3    0.28    0.16 
   3  -7   3    0.30    0.12 
  -3   7   3    0.29    0.17 
  -4  -7   3    8.22    0.44 
   4   7   3    7.92    0.44 
   4  -7  -3    8.42    0.52 
   4   7   3    8.34    0.46 
   4   7  -3    8.15    0.45 
  -4  -7  -3    8.47    0.54 
  -4  -7  -3    8.14    0.35 
   4  -7   3    8.16    0.46 
  -4   7   3    7.69    0.49 
   5  -7  -3   81.48    2.42 
   5   7   3   80.41    2.36 
  -5  -7   3   82.33    2.35 
   5   7   3   79.44    2.39 
  -5  -7  -3   82.81    2.41 
   5   7  -3   86.59    2.37 
  -5   7   3   80.98    2.43 
  -5  -7  -3   79.86    2.24 
   6  -7  -3    3.86    0.42 
   6   7   3    3.82    0.43 
   6   7   3    3.10    0.34 
  -6  -7  -3    3.99    0.47 
  -6   7   3    3.53    0.38 
  -6  -7  -3    3.52    0.25 
   7   7   3  153.11    4.35 
   7  -7  -3  149.12    4.37 
   7   7   3  154.95    4.30 
  -7  -7  -3  158.55    4.38 
  -7   7   3  154.33    4.30 
  -7  -7  -3  153.80    4.11 
   0  -7   4    0.03    0.11 
   0   7  -4    0.17    0.11 
   0   7   4    0.25    0.12 
   0  -7  -4    0.32    0.15 
  -1  -7   4  146.71    3.91 
   1  -7  -4  140.56    3.94 
   1   7   4  146.88    3.90 
   1   7  -4  147.12    3.91 
   1  -7   4  140.32    3.88 
  -1   7   4  146.10    3.86 
  -1  -7  -4  146.67    3.96 
   2  -7  -4   85.96    2.47 
  -2  -7   4   86.24    2.42 
   2   7   4   85.15    2.41 
   2   7  -4   87.79    2.42 
  -2  -7  -4   88.77    2.47 
   2  -7   4   83.75    2.38 
   3   7   4   56.76    1.68 
   3  -7  -4   56.17    1.75 
  -3  -7   4   56.37    1.68 
   3   7  -4   55.10    1.67 
  -3  -7  -4   56.73    1.62 
  -3   7   4   56.07    1.70 
   3  -7   4   57.15    1.64 
  -3  -7  -4   60.15    1.75 
   4  -7  -4  135.90    3.73 
   4   7   4  134.12    3.66 
  -4  -7   4  136.25    3.65 
  -4  -7  -4  135.49    3.58 
   4  -7   4  131.84    3.58 
  -4  -7  -4  112.35    3.70 
  -4   7   4  136.70    3.70 
   4   7  -4  139.98    3.65 
  -5  -7   4  101.29    2.81 
   5   7   4   95.91    2.81 
   5   7   4   95.88    2.76 
   5  -7  -4   96.79    2.82 
  -5   7   4   96.61    2.82 
  -5  -7  -4   91.96    2.83 
  -5  -7  -4   95.38    2.65 
   6   7   4    0.14    0.23 
   6   7   4    0.06    0.22 
   6  -7  -4    0.11    0.26 
  -6  -7  -4    0.02    0.35 
  -6   7   4    0.42    0.27 
  -6  -7  -4   -0.02    0.12 
   7   7   4   52.00    1.76 
   7  -7  -4   51.97    1.81 
   7   7   4   53.31    1.71 
  -7  -7  -4   50.80    1.53 
  -7   7   4   51.13    1.73 
  -7  -7  -4   50.67    1.80 
   0   7   5   86.97    2.39 
   0  -7  -5   83.81    2.46 
   0  -7   5   87.15    2.42 
  -1  -7   5    1.32    0.20 
   1  -7  -5    1.55    0.25 
   1   7   5    1.16    0.18 
  -1  -7  -5    0.95    0.23 
   1  -7   5    1.26    0.19 
  -1   7   5    1.25    0.18 
   2  -7  -5   68.97    2.09 
   2   7   5   68.69    2.02 
  -2  -7   5   68.12    2.02 
   2  -7   5   69.48    2.01 
   2   7  -5   69.71    2.01 
  -2  -7  -5   74.67    2.13 
  -3  -7   5    0.81    0.20 
   3   7   5    0.82    0.20 
   3  -7  -5    0.41    0.23 
  -3  -7  -5    0.85    0.28 
   3  -7   5    0.75    0.18 
   3   7  -5    0.88    0.20 
  -4  -7   5   73.62    2.13 
   4  -7  -5   73.30    2.23 
   4   7   5   73.19    2.16 
  -4   7   5   71.82    2.18 
  -4  -7  -5   70.91    2.08 
   4  -7   5   72.87    2.10 
   4   7  -5   74.23    2.13 
  -4  -7  -5   76.87    2.27 
   5  -7  -5    0.00    0.25 
   5   7   5    0.09    0.20 
  -5  -7  -5    0.06    0.14 
  -5   7   5    0.07    0.24 
  -5  -7  -5    0.09    0.32 
   6   7   5   51.04    1.61 
   6  -7  -5   48.61    1.71 
  -6   7   5   51.06    1.70 
  -6  -7  -5   50.07    1.49 
  -6  -7  -5   42.17    1.72 
   0  -7   6    0.05    0.16 
   0  -7  -6    0.01    0.18 
   0   7   6    0.09    0.15 
   1  -7  -6    0.56    0.23 
  -1  -7   6    0.25    0.17 
   1   7   6    0.37    0.17 
  -1   7   6    0.27    0.25 
  -1  -7  -6    0.48    0.24 
   1  -7   6    0.33    0.18 
  -2  -7   6   10.19    0.50 
   2   7   6    8.99    0.48 
   2  -7  -6    9.10    0.58 
   2  -7   6    9.46    0.49 
  -2  -7  -6    9.46    0.62 
   3  -7  -6   33.87    1.24 
   3   7   6   33.37    1.13 
  -3  -7   6   33.16    1.11 
   3  -7   6   32.83    1.10 
  -3  -7  -6   32.53    1.25 
  -4  -7   6   20.50    0.80 
   4  -7  -6   20.14    0.93 
   4   7   6   20.47    0.84 
  -4  -7  -6   20.54    0.97 
  -4  -7  -6   22.29    0.79 
   4  -7   6   19.72    0.79 
   5  -7  -6    0.45    0.31 
   5   7   6    0.39    0.24 
  -5  -7  -6    0.38    0.37 
   5  -7   6    0.30    0.23 
  -5  -7  -6    0.24    0.18 
  -5   7   6    0.17    0.27 
  -6  -7  -6    1.69    0.50 
   0  -7   7    5.93    0.43 
   0  -7  -7    5.79    0.53 
   0   7   7    6.24    0.40 
   1  -7  -7    0.41    0.27 
   1   7   7    0.64    0.21 
  -1  -7   7    0.65    0.23 
   1  -7   7    0.95    0.24 
  -1  -7  -7    0.68    0.29 
   2   7   7   45.71    1.46 
   2  -7  -7   46.42    1.58 
  -2  -7   7   45.24    1.45 
   2  -7   7   44.52    1.45 
   3   7   7    0.72    0.25 
   3  -7  -7    0.67    0.33 
  -3  -7   7    0.61    0.24 
  -3  -7  -7    0.71    0.35 
   3  -7   7    0.68    0.23 
   4  -7  -7   22.02    1.03 
   4   7   7   22.60    0.93 
  -4  -7  -7   21.59    1.12 
   4  -7   7   23.21    0.90 
   0  -7  -8    0.21    0.34 
   0  -7   8    0.08    0.23 
   0   7   8    0.09    0.21 
   1  -7  -8   14.71    0.85 
  -1  -7   8   15.10    0.73 
   1   7   8   13.23    0.68 
  -1  -7  -8   14.64    0.83 
   1  -7   8   16.76    0.73 
   2   7   8   60.72    1.90 
   2  -7  -8   61.12    2.04 
  -2  -7   8   59.50    1.90 
   2  -7   8   59.36    1.90 
  -2  -7  -8   64.84    2.08 
   3   7   8    1.16    0.30 
  -3  -7   8    1.99    0.34 
   3  -7  -8    0.94    0.40 
   3  -7   8    0.67    0.27 
  -3  -7  -8    0.81    0.39 
   0   8   0  729.21   18.44 
   0  -8   0  695.97   18.56 
   1  -8   0   -0.17    0.09 
  -1   8   0   -0.01    0.10 
  -1  -8   0   -0.13    0.12 
   1  -8   0   -0.19    0.10 
   1   8   0   -0.23    0.13 
   2  -8   0  151.41    4.00 
   2   8   0  150.30    4.11 
  -2  -8   0  160.50    4.03 
   2  -8   0  147.19    4.04 
  -2   8   0  150.16    4.00 
   3  -8   0    0.12    0.13 
   3   8   0    0.11    0.10 
  -3  -8   0    0.23    0.18 
   3   8   0    0.61    0.18 
  -4  -8   0   42.82    1.35 
   4  -8   0   44.68    1.39 
   4   8   0   47.18    1.43 
   4   8   0   45.66    1.35 
   5   8   0   -0.01    0.19 
   5   8   0    0.02    0.15 
  -5   8   0    0.11    0.19 
  -5  -8   0   -0.03    0.22 
   6   8   0  268.90    7.15 
  -6   8   0  266.33    7.17 
   6   8   0  267.62    7.13 
   6  -8   0  264.86    7.17 
   7   8   0    1.39    0.28 
  -7   8   0    0.09    0.22 
  -7  -8   0    0.39    0.27 
   7  -8   0    0.21    0.25 
  -8   8   0   89.08    2.66 
   8   8   0   89.69    2.70 
   8  -8   0   88.94    2.75 
   0  -8   1    0.10    0.11 
   0   8  -1    0.23    0.12 
   0   8   1    0.04    0.12 
   0  -8  -1   -0.02    0.11 
   1  -8  -1   36.50    1.11 
  -1   8  -1   37.80    1.10 
  -1  -8   1   37.02    1.15 
   1   8   1   37.51    1.16 
   1   8  -1   37.34    1.15 
   1  -8   1   37.67    1.10 
  -1   8   1   38.62    1.11 
  -1  -8  -1   37.60    1.11 
   2  -8  -1  112.93    3.17 
  -2   8  -1  116.01    3.11 
   2  -8  -1  118.19    3.11 
   2   8   1  117.12    3.22 
  -2  -8  -1  124.94    3.18 
   2  -8   1  119.93    3.12 
  -2   8   1  118.69    3.11 
   2   8  -1  118.19    3.23 
   2  -8   1  106.98    3.28 
   3   8   1  226.08    5.91 
   3  -8  -1  221.75    5.93 
  -3  -8   1  220.19    5.86 
   3   8   1  217.83    5.96 
   3   8  -1  224.53    5.88 
   3   8  -1  219.48    5.98 
  -3  -8  -1  237.43    5.92 
   3  -8   1  219.02    5.90 
   4   8   1  135.97    3.68 
   4  -8  -1  136.21    3.71 
  -4  -8   1  125.20    3.62 
   4   8   1  137.92    3.73 
   4   8  -1  137.55    3.74 
  -4   8   1  137.12    3.73 
   4   8  -1  133.31    3.63 
   4  -8   1  134.96    3.68 
  -4  -8  -1  136.24    3.69 
   5   8   1   41.26    1.40 
   5  -8  -1   43.82    1.42 
   5   8   1   43.85    1.37 
  -5  -8  -1   42.14    1.38 
   5  -8   1   45.49    1.40 
   5   8  -1   44.87    1.41 
  -5   8   1   41.96    1.40 
   5   8  -1   43.17    1.34 
  -6  -8   1    0.15    0.20 
   6   8   1    1.01    0.23 
   6  -8  -1    0.72    0.25 
   6   8   1    0.82    0.26 
   6   8  -1    0.74    0.22 
  -6  -8  -1    0.66    0.30 
   6  -8   1    0.68    0.25 
   6   8  -1    1.05    0.26 
  -6   8   1    0.65    0.23 
   7   8   1    9.44    0.60 
   7  -8  -1    9.97    0.65 
  -7  -8  -1    9.78    0.35 
   7   8  -1    8.90    0.58 
   7  -8   1    9.80    0.66 
  -7  -8  -1    9.23    0.67 
  -7   8   1    9.52    0.59 
   8  -8  -1   37.02    1.41 
   8   8   1   36.46    1.36 
  -8   8   1   37.32    1.32 
   8   8  -1   36.79    1.35 
   8  -8   1   35.22    1.40 
   0   8  -2    6.51    0.33 
   0  -8   2    6.37    0.33 
   0   8   2    7.00    0.34 
   1  -8  -2  160.14    4.23 
   1   8   2  149.17    4.22 
  -1   8  -2  159.39    4.19 
  -1  -8   2  152.30    4.24 
   1  -8   2  159.50    4.20 
   1   8  -2  158.39    4.24 
  -1   8   2  158.33    4.19 
  -1  -8  -2  165.20    4.23 
   2  -8  -2    6.77    0.39 
  -2   8  -2    6.88    0.31 
   2   8   2    6.17    0.36 
  -2  -8   2    6.78    0.39 
  -2  -8  -2    6.81    0.38 
   2  -8   2    7.10    0.32 
   2   8  -2    7.04    0.40 
   3  -8  -2    2.90    0.32 
  -3  -8   2    2.22    0.26 
   3   8   2    2.27    0.26 
  -3  -8  -2    3.51    0.34 
   3   8  -2    2.25    0.26 
  -4  -8   2    0.13    0.18 
   4  -8  -2    0.16    0.19 
   4   8   2    0.18    0.15 
   4   8   2    0.22    0.18 
  -4  -8  -2    0.18    0.24 
   4   8  -2    0.18    0.20 
  -4   8   2    0.13    0.18 
   5  -8  -2   69.60    2.08 
   5   8   2   66.18    2.04 
  -5  -8   2   67.14    2.04 
   5   8   2   69.36    2.05 
  -5  -8  -2   70.00    2.06 
  -5  -8  -2   69.21    1.87 
   5   8  -2   68.95    2.05 
  -5   8   2   67.13    2.07 
   6   8   2    1.83    0.29 
   6   8   2    1.67    0.31 
   6  -8  -2    1.90    0.34 
  -6  -8  -2    1.76    0.38 
  -6  -8  -2    1.76    0.18 
  -6   8   2    1.95    0.30 
   7   8   2  106.78    3.14 
   7  -8  -2  109.18    3.18 
   7   8   2  106.62    3.12 
  -7  -8  -2  105.16    3.15 
  -7  -8  -2  103.32    2.88 
  -7   8   2  113.59    3.12 
   0  -8  -3   -0.01    0.14 
   0   8   3    0.04    0.11 
   0   8  -3   -0.02    0.10 
   0  -8   3    0.04    0.11 
  -1   8  -3   19.10    0.65 
  -1  -8   3   19.50    0.70 
   1   8   3   19.48    0.68 
   1  -8  -3   18.49    0.71 
   1  -8   3   18.94    0.66 
   1   8  -3   19.48    0.70 
  -1   8   3   19.17    0.65 
  -1  -8  -3   20.06    0.72 
   2  -8  -3    1.51    0.24 
   2   8   3    1.26    0.19 
  -2  -8   3    1.72    0.23 
   2  -8   3    1.79    0.19 
   2   8  -3    1.73    0.23 
  -2  -8  -3    1.92    0.25 
   3   8   3  124.46    3.40 
   3  -8  -3  125.59    3.43 
  -3  -8   3  121.26    3.41 
   3   8  -3  122.58    3.42 
   3  -8   3  122.67    3.32 
   4  -8  -3    5.37    0.47 
  -4  -8   3    5.19    0.41 
   4   8   3    6.62    0.41 
   4   8  -3    5.63    0.43 
  -4   8   3    5.44    0.46 
  -4  -8  -3    5.55    0.52 
   5   8   3   50.27    1.60 
  -5  -8   3   51.06    1.60 
   5   8   3   51.75    1.63 
   5  -8  -3   51.13    1.65 
  -5   8   3   51.26    1.66 
  -5  -8  -3   53.68    1.46 
   5   8  -3   52.10    1.61 
  -5  -8  -3   46.67    1.63 
   6   8   3    2.96    0.36 
   6   8   3    3.12    0.36 
   6  -8  -3    3.71    0.43 
  -6  -8  -3    3.50    0.47 
  -6   8   3    3.18    0.39 
  -6  -8  -3    3.15    0.24 
   7   8   3   -0.08    0.28 
   7  -8  -3    0.45    0.31 
   7   8   3   -0.02    0.24 
  -7  -8  -3   -0.03    0.38 
  -7  -8  -3    0.03    0.12 
  -7   8   3   -0.06    0.23 
   0  -8   4   36.45    1.12 
   0   8  -4   36.21    1.11 
   0   8   4   35.56    1.09 
   0  -8  -4   33.99    1.14 
  -1  -8   4   54.33    1.60 
   1   8   4   53.94    1.57 
   1  -8  -4   52.57    1.62 
  -1   8   4   54.73    1.54 
   1  -8   4   52.95    1.57 
   1   8  -4   52.72    1.59 
  -1  -8  -4   54.17    1.64 
  -2  -8   4    1.67    0.22 
   2   8   4    2.48    0.26 
   2  -8  -4    2.12    0.28 
   2   8  -4    1.57    0.22 
  -2  -8  -4    2.55    0.32 
   2  -8   4    1.82    0.21 
   3   8   4    0.51    0.18 
  -3  -8   4    0.19    0.17 
   3  -8  -4    0.54    0.23 
   3  -8   4    0.21    0.15 
  -3  -8  -4    0.39    0.25 
   3   8  -4    0.43    0.18 
  -4  -8   4    3.49    0.35 
   4   8   4    3.59    0.36 
   4  -8  -4    4.12    0.44 
   4  -8   4    3.28    0.30 
  -4  -8  -4    2.06    0.38 
   4   8  -4    3.59    0.34 
  -5  -8   4   31.63    1.09 
   5   8   4   30.98    1.12 
   5  -8  -4   31.05    1.19 
  -5   8   4   30.55    1.19 
   5   8  -4   33.95    1.11 
  -5  -8  -4   30.96    0.99 
   6   8   4    3.97    0.41 
   6  -8  -4    4.07    0.46 
   6   8   4    3.63    0.40 
  -6  -8  -4    2.43    0.47 
  -6  -8  -4    3.80    0.29 
  -6   8   4    4.09    0.47 
   7  -8  -4   32.69    1.34 
   7   8   4   33.94    1.25 
   7   8   4   34.23    1.30 
  -7   8   4   35.32    1.30 
  -7  -8  -4   30.46    1.36 
  -7  -8  -4   32.39    1.06 
   0   8   5    0.07    0.14 
   0  -8   5    0.07    0.15 
   0  -8  -5    0.00    0.17 
   1  -8  -5   56.42    1.72 
   1   8   5   57.25    1.65 
  -1  -8   5   57.20    1.67 
  -1   8   5   56.42    1.61 
   1  -8   5   55.95    1.65 
  -1  -8  -5   50.09    1.71 
  -2  -8   5   25.76    0.89 
   2  -8  -5   24.33    0.94 
   2   8   5   25.09    0.87 
  -2  -8  -5   22.70    0.94 
   2  -8   5   23.44    0.84 
   2   8  -5   25.78    0.88 
   3   8   5   84.71    2.46 
  -3  -8   5   86.78    2.47 
   3  -8  -5   83.72    2.54 
   3  -8   5   83.59    2.42 
   3   8  -5   86.66    2.46 
  -3  -8  -5   88.30    2.56 
   4   8   5   39.23    1.33 
   4  -8  -5   40.04    1.40 
  -4  -8   5   40.10    1.32 
   4  -8   5   38.25    1.25 
   4   8  -5   41.44    1.32 
  -4  -8  -5   42.20    1.44 
   5   8   5   31.02    1.14 
   5  -8  -5   30.55    1.21 
  -5  -8  -5   32.48    1.03 
   6   8   5    0.49    0.28 
   6  -8  -5    0.83    0.36 
  -6  -8  -5   -0.11    0.38 
  -6   8   5    0.27    0.31 
  -6  -8  -5    0.58    0.18 
   0  -8   6  315.39    8.55 
   0  -8  -6  327.73    8.63 
   0   8   6  327.52    8.52 
  -1  -8   6   12.43    0.59 
   1  -8  -6   12.91    0.66 
   1   8   6   12.88    0.58 
  -1  -8  -6   12.81    0.67 
   1  -8   6   13.04    0.59 
   2   8   6  111.45    3.15 
  -2  -8   6  115.99    3.17 
   2  -8  -6  108.33    3.24 
   2  -8   6  114.12    3.15 
  -3  -8   6    2.56    0.31 
   3   8   6    2.42    0.31 
   3  -8  -6    2.11    0.37 
   3  -8   6    1.99    0.27 
  -3  -8  -6    2.00    0.38 
   4   8   6   55.54    1.72 
  -4  -8   6   54.64    1.69 
   4  -8  -6   53.60    1.80 
   4  -8   6   53.59    1.66 
  -4  -8  -6   52.85    1.85 
   5  -8  -6   11.95    0.77 
   5   8   6   10.77    0.64 
  -5  -8  -6   10.84    0.82 
   0  -8  -7    0.07    0.28 
   0  -8   7    0.12    0.21 
   0   8   7    0.25    0.20 
  -1  -8   7   28.55    1.04 
   1  -8  -7   28.93    1.13 
   1   8   7   27.57    1.00 
   1  -8   7   27.64    1.03 
  -1  -8  -7   29.39    1.15 
   2   8   7  119.18    3.36 
   2  -8  -7  118.54    3.48 
  -2  -8   7  120.27    3.37 
   2  -8   7  118.09    3.36 
   3  -8  -7  159.77    4.55 
   3   8   7  158.73    4.44 
  -3  -8   7  161.64    4.43 
   3  -8   7  160.52    4.42 
   4  -8  -7   89.74    2.74 
   4   8   7   92.04    2.65 
  -4  -8   7   91.29    2.60 
  -4  -8  -7   77.71    2.78 
   4  -8   7   91.40    2.60 
   0  -8   8   11.96    0.66 
   0   8   8   11.57    0.79 
   0  -8  -8   11.77    0.80 
  -1  -8   8   91.44    2.69 
   1   8   8   88.81    2.64 
   1  -8  -8   91.16    2.80 
   1  -8   8   89.22    2.68 
  -1  -8  -8   92.52    2.81 
  -2  -8   8    0.28    0.26 
   2   8   8    0.60    0.27 
   2  -8  -8    0.34    0.36 
  -2  -8  -8    0.40    0.36 
   2  -8   8    0.26    0.25 
   0  -9   0    0.39    0.12 
   0   9   0    0.38    0.14 
   1  -9   0    0.05    0.11 
  -1   9   0    0.32    0.12 
   1   9   0    0.61    0.16 
  -1  -9   0   -0.09    0.12 
   1  -9   0    0.21    0.12 
   2  -9   0    0.02    0.10 
   2  -9   0    0.11    0.13 
  -2   9   0   -0.02    0.10 
   2   9   0    0.25    0.16 
  -2  -9   0    0.24    0.15 
  -3  -9   0    0.22    0.20 
   3   9   0   -0.01    0.17 
   3   9   0    0.10    0.11 
   4   9   0    9.98    0.53 
  -4  -9   0    9.19    0.50 
   4   9   0    9.06    0.44 
   4  -9   0    9.36    0.49 
   5  -9   0    0.15    0.20 
   5   9   0   -0.03    0.16 
   5   9   0    0.06    0.21 
  -5  -9   0    0.04    0.24 
   6  -9   0    7.42    0.53 
   6   9   0    6.75    0.48 
  -6  -9   0    7.48    0.54 
   6   9   0    7.26    0.51 
  -7  -9   0    0.05    0.30 
   7  -9   0    0.09    0.27 
   7   9   0   -0.01    0.22 
   0  -9   1  257.41    6.72 
   0   9   1  251.35    6.71 
   0   9  -1  254.99    6.71 
   1  -9  -1    8.96    0.42 
  -1  -9   1    9.58    0.45 
   1   9   1    9.73    0.46 
  -1   9  -1    9.38    0.40 
  -1  -9  -1    9.86    0.43 
  -1   9   1    9.91    0.42 
   1   9  -1    9.78    0.45 
   1  -9   1    9.53    0.41 
  -2   9  -1   15.39    0.54 
   2   9   1   15.93    0.64 
   2  -9  -1   13.53    0.59 
  -2  -9  -1   15.63    0.59 
   2  -9   1   16.10    0.55 
   2   9  -1   16.42    0.65 
  -2   9   1   19.11    0.60 
   3  -9  -1    0.96    0.20 
   3   9   1    0.74    0.19 
  -3  -9  -1    1.33    0.26 
   3   9  -1    1.18    0.24 
   4   9   1    4.94    0.35 
   4  -9  -1    5.03    0.38 
   4   9   1    5.30    0.41 
   4   9  -1    4.61    0.40 
  -4  -9  -1    4.48    0.43 
   5  -9  -1   26.07    0.99 
   5   9   1   26.24    0.99 
   5   9   1   26.14    0.95 
  -5  -9  -1   26.62    0.98 
   5   9  -1   26.34    0.98 
   6   9   1  119.10    3.36 
   6  -9  -1  116.39    3.38 
   6   9   1  119.37    3.34 
   6   9  -1  114.98    3.32 
  -6  -9  -1  118.10    3.34 
   7  -9  -1    1.77    0.35 
   7   9   1    1.54    0.34 
   7   9   1    1.97    0.33 
  -7  -9  -1    1.23    0.38 
   0   9  -2   -0.01    0.12 
   0  -9   2    0.02    0.12 
   0   9   2    0.00    0.12 
   0  -9  -2    0.11    0.14 
   1   9   2   17.09    0.65 
  -1  -9   2   17.76    0.67 
  -1   9  -2   16.85    0.61 
   1  -9  -2   17.39    0.65 
   1   9  -2   16.45    0.65 
  -1   9   2   17.63    0.62 
  -1  -9  -2   17.69    0.65 
   1  -9   2   17.44    0.62 
  -2   9  -2  175.67    4.54 
  -2  -9   2  164.89    4.63 
   2  -9  -2  166.00    4.61 
   2   9   2  169.15    4.62 
  -2  -9  -2  178.68    4.59 
   2  -9   2  175.52    4.54 
   2   9  -2  167.31    4.64 
  -3  -9   2  179.71    5.05 
   3  -9  -2  192.31    5.03 
   3   9   2  186.73    5.03 
   3  -9   2  194.25    4.92 
  -3  -9  -2  182.42    5.02 
   3   9  -2  182.00    5.05 
   4   9   2  125.60    3.46 
   4   9   2  127.39    3.44 
  -4  -9   2  120.14    3.46 
   4  -9  -2  127.09    3.46 
   4   9  -2  119.45    3.47 
  -4  -9  -2  122.69    3.46 
  -5  -9   2    5.51    0.44 
   5   9   2    5.53    0.43 
   5   9   2    5.10    0.46 
   5  -9  -2    5.87    0.47 
  -5  -9  -2    5.21    0.52 
   5   9  -2    5.84    0.46 
   6   9   2    0.91    0.25 
  -6  -9   2    0.69    0.27 
   6   9   2    0.82    0.28 
   6  -9  -2    0.98    0.29 
  -6  -9  -2    1.07    0.35 
   6   9  -2    0.68    0.27 
   7  -9  -2    0.33    0.29 
   7   9   2    0.32    0.31 
   7   9   2    0.29    0.25 
  -7   9   2    0.32    0.41 
  -7  -9  -2    0.59    0.39 
   0   9   3    1.65    0.20 
   0  -9   3    2.00    0.23 
   0   9  -3    2.10    0.22 
   0  -9  -3    1.54    0.21 
  -1   9  -3  341.15    8.99 
   1   9   3  341.93    9.02 
   1  -9  -3  346.54    9.04 
  -1  -9   3  345.54    9.04 
  -1  -9  -3  354.89    9.05 
   1   9  -3  344.58    9.04 
  -1   9   3  336.74    8.98 
   1  -9   3  337.38    8.99 
   2  -9  -3    1.57    0.25 
  -2  -9   3    1.47    0.24 
   2   9   3    1.54    0.23 
   2  -9   3    1.80    0.21 
  -2  -9  -3    1.84    0.27 
   2   9  -3    1.57    0.24 
  -3  -9   3    1.72    0.27 
   3   9   3    2.21    0.27 
   3  -9  -3    2.06    0.29 
   3  -9   3    2.35    0.22 
  -3  -9  -3    2.02    0.29 
   3   9  -3    1.53    0.27 
  -4  -9   3    0.09    0.20 
   4  -9  -3    0.04    0.22 
   4   9   3   -0.04    0.18 
   4   9  -3    0.10    0.21 
  -4  -9  -3   -0.06    0.25 
   5   9   3  156.31    4.22 
   5   9   3  157.65    4.23 
   5  -9  -3  154.66    4.24 
  -5  -9   3  148.31    4.19 
  -5  -9  -3  140.61    4.23 
   5   9  -3  151.14    4.21 
   6  -9  -3    0.53    0.29 
   6   9   3    0.31    0.24 
  -6  -9  -3    0.37    0.35 
   7  -9  -3  146.20    4.19 
   7   9   3  145.58    4.15 
   7   9   3  142.93    4.12 
  -7  -9  -3  137.46    4.15 
  -7   9   3  153.14    4.54 
   0   9  -4    0.36    0.16 
   0  -9  -4    0.06    0.17 
   0   9   4    0.01    0.14 
   0  -9   4    0.53    0.18 
  -1  -9   4    6.52    0.40 
   1  -9  -4    5.18    0.41 
   1   9   4    5.13    0.35 
   1   9  -4    6.28    0.38 
   1  -9   4    6.03    0.36 
  -1  -9  -4    5.11    0.42 
  -1   9   4    5.46    0.34 
   2  -9  -4  119.44    3.59 
  -2  -9   4  130.70    3.60 
   2   9   4  131.62    3.57 
  -2  -9  -4  136.64    3.64 
   2   9  -4  132.32    3.59 
   2  -9   4  126.02    3.52 
  -3  -9   4  104.32    3.00 
   3  -9  -4  107.35    3.04 
   3   9   4  108.53    2.99 
   3   9  -4  103.81    3.00 
   3  -9   4  104.34    2.91 
  -3  -9  -4  105.86    3.02 
  -4  -9   4  153.01    4.36 
   4   9   4  154.50    4.36 
   4  -9  -4  158.86    4.41 
  -4  -9  -4  166.06    4.43 
   4   9  -4  158.74    4.37 
   5  -9  -4    1.71    0.35 
  -5  -9   4    2.14    0.32 
   5   9   4    1.65    0.30 
   5   9  -4    1.72    0.31 
  -5  -9  -4    0.67    0.35 
   6  -9  -4    0.43    0.30 
   6   9   4    0.09    0.26 
  -6  -9  -4    0.19    0.40 
   0  -9   5  102.12    2.89 
   0  -9  -5  103.22    2.94 
   0   9   5  103.29    2.86 
   1   9   5   12.99    0.57 
   1  -9  -5   13.49    0.64 
  -1  -9   5   13.72    0.60 
  -1  -9  -5   10.51    0.62 
   1   9  -5   13.34    0.59 
   1  -9   5   12.92    0.57 
   2   9   5    9.01    0.49 
   2  -9  -5    9.09    0.57 
  -2  -9   5   10.11    0.53 
   2   9  -5   10.62    0.53 
   2  -9   5    9.69    0.48 
  -2  -9  -5    8.62    0.57 
   3   9   5    1.57    0.27 
   3  -9  -5    1.36    0.31 
  -3  -9   5    2.10    0.31 
   3  -9   5    1.56    0.24 
   3   9  -5    1.95    0.30 
  -3  -9  -5    1.70    0.35 
   4   9   5    3.13    0.36 
   4  -9  -5    3.60    0.44 
  -4  -9   5    3.10    0.36 
   4  -9   5    3.29    0.33 
  -4  -9  -5    2.82    0.42 
   4   9  -5    2.93    0.36 
   5   9   5    1.67    0.32 
  -5  -9   5    2.00    0.33 
   5  -9  -5    1.67    0.38 
  -5  -9  -5    2.15    0.42 
   5   9  -5    1.63    0.38 
   6  -9  -5   65.95    2.16 
   6   9   5   64.46    2.08 
   0  -9  -6    0.51    0.24 
   0  -9   6    0.17    0.19 
   0   9   6   -0.02    0.17 
   1  -9  -6    3.18    0.38 
   1   9   6    2.97    0.31 
  -1  -9   6    3.61    0.36 
   1  -9   6    2.26    0.29 
  -1  -9  -6    2.14    0.34 
   2  -9  -6    2.63    0.36 
   2   9   6    3.62    0.35 
  -2  -9   6    3.65    0.36 
  -2  -9  -6    3.33    0.42 
   2  -9   6    3.75    0.37 
   3   9   6    0.79    0.25 
   3  -9  -6    0.75    0.33 
  -3  -9   6    0.71    0.26 
  -3  -9  -6    0.54    0.31 
   3  -9   6    0.63    0.23 
   4  -9  -6    4.29    0.51 
  -4  -9   6    3.80    0.40 
   4   9   6    4.11    0.42 
   4  -9   6    3.50    0.35 
  -4  -9  -6    3.11    0.48 
   5  -9  -6    2.63    0.46 
   5   9   6    1.71    0.34 
  -5  -9  -6    2.37    0.48 
   0  -9   7   91.12    2.67 
   0   9   7   89.76    2.61 
   0  -9  -7   91.89    2.76 
   1   9   7    0.44    0.24 
  -1  -9   7    0.12    0.22 
   1  -9  -7    0.49    0.30 
   1  -9   7    0.65    0.25 
  -1  -9  -7    0.48    0.30 
   2   9   7    0.38    0.24 
   2  -9  -7    0.36    0.31 
  -2  -9   7    0.19    0.24 
   2  -9   7    0.35    0.23 
  -2  -9  -7    0.15    0.31 
  -3  -9   7    1.07    0.30 
   3   9   7    0.80    0.28 
   3  -9  -7    1.60    0.41 
   3  -9   7    1.14    0.27 
  -3  -9  -7    0.31    0.35 
   0  -9  -8    0.17    0.36 
   0  -9   8   -0.01    0.26 
   1  -9  -8    0.76    0.39 
  -1  -9  -8    0.24    0.36 
   0  10   0   90.95    2.53 
  -1  10   0    0.14    0.13 
   1  10   0    1.88    0.24 
   1 -10   0    0.22    0.13 
  -2  10   0  121.13    3.31 
   2 -10   0  120.98    3.32 
   2  10   0  129.38    3.44 
   3 -10   0    0.19    0.15 
   3  10   0   -0.02    0.17 
   4 -10   0   74.88    2.22 
   4  10   0   78.01    2.41 
   4  10   0   76.04    2.27 
   5 -10   0    0.26    0.22 
   5  10   0    0.04    0.18 
   5  10   0    0.03    0.22 
  -5 -10   0   -0.01    0.30 
   6  10   0   21.11    0.89 
   6 -10   0   19.49    0.87 
   6  10   0   19.57    1.01 
  -6 -10   0   20.47    0.89 
  -7 -10   0    0.66    0.44 
   7 -10   0    0.07    0.27 
   0 -10   1    0.01    0.13 
   0  10   1    0.02    0.14 
   0 -10  -1    0.16    0.14 
   0  10  -1    0.07    0.13 
   1 -10  -1   59.88    1.74 
  -1 -10   1   60.75    1.78 
  -1  10  -1   59.69    1.73 
   1  10   1   57.55    1.77 
  -1 -10  -1   60.97    1.74 
   1  10  -1   60.65    1.79 
   1 -10   1   61.53    1.74 
  -1  10   1   62.81    1.74 
   2  10   1   11.09    0.54 
  -2  10  -1   11.80    0.45 
   2 -10  -1   10.51    0.51 
  -2 -10   1   11.23    0.53 
   2  10  -1   11.43    0.54 
   2 -10   1   11.47    0.45 
  -2 -10  -1   11.79    0.51 
   3  10   1   99.37    2.80 
   3 -10  -1   98.49    2.75 
  -3 -10  -1   93.15    2.74 
   3  10  -1  100.44    2.80 
   4  10   1    1.78    0.30 
   4  10   1    1.53    0.23 
   4 -10  -1    1.66    0.26 
   4  10  -1    1.45    0.26 
  -4 -10  -1    2.09    0.34 
   5  10   1   44.29    1.39 
   5  10   1   42.30    1.43 
   5 -10  -1   43.93    1.44 
  -5 -10  -1   39.68    1.41 
   5  10  -1   44.06    1.43 
   6  10   1    9.38    0.57 
   6 -10  -1    8.49    0.61 
   6  10   1    8.89    0.58 
  -6 -10   1    8.93    0.56 
  -6 -10  -1    7.81    0.63 
   6  10  -1    8.75    0.58 
   7  10   1   27.95    1.09 
   7 -10  -1   27.16    1.12 
   7  10   1   26.58    1.07 
  -7 -10  -1   26.04    1.12 
   0  10   2  215.91    5.83 
   0  10  -2  219.65    5.84 
   0 -10   2  218.63    5.84 
   0 -10  -2  222.67    5.82 
   1  10   2   13.43    0.57 
   1 -10  -2   12.91    0.56 
  -1 -10   2   12.36    0.56 
  -1  10  -2   13.44    0.53 
   1 -10   2   14.10    0.54 
  -1  10   2   13.72    0.54 
  -1 -10  -2   13.86    0.58 
   1  10  -2   12.14    0.56 
  -2  10  -2    3.51    0.26 
  -2 -10   2    3.58    0.34 
   2  10   2    3.27    0.32 
   2 -10  -2    3.28    0.35 
  -2 -10  -2    3.50    0.37 
   2  10  -2    2.76    0.30 
   2 -10   2    3.48    0.27 
   3 -10  -2    7.90    0.48 
  -3 -10   2    7.28    0.49 
   3  10   2    8.26    0.48 
   3  10  -2    8.49    0.52 
  -3 -10  -2    7.82    0.49 
   4 -10  -2    6.47    0.47 
  -4 -10   2    5.49    0.44 
   4  10   2    6.12    0.46 
  -4 -10  -2    4.77    0.50 
   4  10  -2    6.33    0.47 
   5  10   2   12.23    0.65 
   5  10   2   12.17    0.62 
   5 -10  -2   12.35    0.66 
  -5 -10   2   12.67    0.64 
   5  10  -2   11.67    0.64 
  -5 -10  -2   10.41    0.69 
  -6 -10   2  118.22    3.30 
   6  10   2  121.79    3.35 
   6 -10  -2  114.66    3.34 
   6  10   2  117.90    3.31 
   6  10  -2  113.35    3.29 
  -6 -10  -2  102.14    3.29 
   7 -10  -2    0.08    0.28 
   7  10   2    0.18    0.30 
   7  10   2    0.04    0.25 
  -7 -10  -2   -0.03    0.36 
   0  10  -3    0.06    0.14 
   0  10   3    0.20    0.16 
   0 -10   3    0.04    0.15 
   0 -10  -3    0.13    0.17 
  -1  10  -3    0.65    0.17 
   1 -10  -3    0.40    0.19 
   1  10   3    0.52    0.18 
  -1 -10   3    1.39    0.23 
  -1 -10  -3    0.61    0.21 
   1  10  -3    1.47    0.24 
  -1  10   3    0.52    0.18 
   1 -10   3    0.65    0.17 
  -2  10  -3    6.91    0.36 
   2  10   3    7.12    0.42 
   2 -10  -3    6.96    0.48 
  -2 -10   3    6.11    0.43 
  -2 -10  -3    6.75    0.48 
   2 -10   3    6.99    0.37 
   2  10  -3    6.50    0.44 
  -3 -10   3  152.41    4.50 
   3  10   3  168.51    4.50 
   3 -10  -3  167.11    4.51 
  -3 -10  -3  171.65    4.50 
   3  10  -3  155.36    4.51 
   3 -10   3  168.97    4.40 
   4  10   3    1.32    0.27 
  -4 -10   3    1.30    0.28 
   4 -10  -3    2.23    0.34 
  -4 -10  -3    0.59    0.31 
   4  10  -3    1.29    0.29 
   5  10   3    1.48    0.32 
  -5 -10   3    1.53    0.31 
   5 -10  -3    1.48    0.32 
   5  10  -3    1.14    0.30 
  -5 -10  -3    0.58    0.36 
   6  10   3    2.40    0.34 
   6  10   3    2.39    0.38 
  -6 -10   3    2.57    0.37 
   6 -10  -3    2.02    0.38 
  -6 -10  -3    1.46    0.44 
   0  10   4   61.30    1.77 
   0 -10  -4   59.45    1.81 
   0 -10   4   60.54    1.80 
   0  10  -4   59.18    1.78 
   1  10   4    0.26    0.18 
  -1 -10   4    0.39    0.19 
  -1  10  -4    0.39    0.16 
   1 -10  -4    0.40    0.21 
   1  10  -4    0.36    0.19 
  -1 -10  -4    0.20    0.21 
   1 -10   4    0.36    0.17 
   2  10   4    7.38    0.45 
   2 -10  -4    6.33    0.50 
  -2 -10   4    5.90    0.44 
   2  10  -4    7.07    0.46 
  -2 -10  -4    6.43    0.50 
   2 -10   4    7.15    0.40 
   3 -10  -4    1.00    0.29 
   3  10   4    1.11    0.26 
  -3 -10   4    0.48    0.22 
   3  10  -4    0.38    0.23 
  -3 -10  -4    0.66    0.28 
   3 -10   4    0.58    0.18 
  -4 -10   4   16.82    0.78 
   4 -10  -4   17.77    0.83 
   4  10   4   16.24    0.76 
   4  10  -4   17.90    0.79 
  -4 -10  -4   17.14    0.84 
   5 -10  -4    1.47    0.36 
   5  10   4    0.26    0.26 
  -5 -10   4    0.83    0.28 
   5  10  -4    0.86    0.30 
  -5 -10  -4    0.15    0.34 
   6 -10  -4   57.65    1.96 
   6  10   4   59.15    1.93 
   0  10   5    0.02    0.18 
   0 -10  -5   -0.05    0.21 
   0 -10   5    0.07    0.18 
   1 -10  -5   59.74    1.91 
   1  10   5   62.90    1.86 
  -1 -10   5   62.51    1.89 
   1  10  -5   61.87    1.88 
  -1 -10  -5   62.61    1.93 
   1 -10   5   62.25    1.86 
  -2 -10   5    0.34    0.23 
   2 -10  -5    0.20    0.25 
   2  10   5    0.10    0.20 
   2  10  -5    0.32    0.23 
   2 -10   5    0.27    0.18 
  -2 -10  -5    0.57    0.27 
   3 -10  -5    4.94    0.55 
  -3 -10   5    5.20    0.46 
   3  10   5    4.77    0.43 
   3 -10   5    4.54    0.39 
   3  10  -5    5.12    0.45 
  -3 -10  -5    4.80    0.55 
   4 -10  -5    0.49    0.32 
  -4 -10   5    0.86    0.29 
   4  10   5    0.45    0.24 
   4 -10   5    0.64    0.22 
   4  10  -5    1.20    0.31 
  -4 -10  -5    0.30    0.32 
   5  10   5   27.83    1.09 
  -5 -10   5   25.20    1.04 
   5 -10  -5   27.27    1.16 
  -5 -10  -5   27.33    1.20 
   5  10  -5   27.97    1.07 
   0 -10  -6    2.46    0.37 
   0 -10   6    2.13    0.31 
   0  10   6    2.58    0.31 
  -1 -10   6    0.42    0.23 
   1 -10  -6    0.78    0.28 
   1  10   6    0.29    0.22 
  -1 -10  -6    0.59    0.29 
   1 -10   6    0.97    0.24 
   2  10   6   58.41    1.80 
   2 -10  -6   57.19    1.90 
  -2 -10   6   58.26    1.84 
   2 -10   6   57.83    1.79 
   3 -10  -6    2.90    0.45 
   3  10   6    2.48    0.35 
  -3 -10   6    2.09    0.34 
  -3 -10  -6    1.64    0.39 
   3 -10   6    2.31    0.31 
  -4 -10   6   43.04    1.45 
   4  10   6   41.16    1.47 
   4 -10  -6   41.92    1.54 
   4 -10   6   43.17    1.38 
  -4 -10  -6   39.59    1.60 
   4  10  -6   43.21    1.46 
   0 -10   7    0.14    0.25 
   0 -10  -7    0.14    0.31 
  -1 -10   7   10.09    0.62 
   1 -10  -7    9.54    0.71 
   1  10   7   10.56    0.61 
  -1 -10  -7   11.18    0.73 
   1 -10   7    9.70    0.60 
   2 -10  -7    1.97    0.41 
  -2 -10   7    2.21    0.36 
   2  10   7    2.23    0.34 
  -2 -10  -7    2.01    0.41 
   2 -10   7    2.04    0.33 
  -3 -10   7   23.20    0.97 
   3  10   7   21.36    0.94 
   3 -10  -7   21.97    1.09 
   3 -10   7   22.17    0.92 
   1  11   0    0.56    0.20 
  -1  11   0    0.23    0.15 
   1 -11   0    0.40    0.16 
   2  11   0  219.25    5.85 
   2 -11   0  220.73    5.95 
  -2  11   0  211.33    5.73 
   3  11   0    0.31    0.21 
   4  11   0  122.69    3.48 
   5  11   0   -0.05    0.22 
   6  11   0    1.37    0.33 
   7  11   0    1.31    0.35 
   0  11   1   99.82    2.77 
   0  11  -1   99.55    2.77 
   0 -11   1   97.89    2.77 
   0 -11  -1   99.21    2.73 
  -1  11  -1   84.76    2.42 
   1 -11  -1   86.50    2.42 
   1  11   1   84.39    2.46 
  -1 -11   1   88.67    2.48 
  -1  11   1   87.79    2.41 
   1 -11   1   85.92    2.42 
  -1 -11  -1   85.48    2.42 
   1  11  -1   89.23    2.48 
  -2 -11   1   68.38    2.02 
   2  11   1   67.60    2.02 
  -2  11  -1   67.21    1.92 
   2 -11  -1   65.36    1.97 
  -2 -11  -1   71.10    1.97 
   2  11  -1   68.97    2.02 
   2 -11   1   67.71    1.92 
   3 -11  -1    0.08    0.18 
  -3 -11   1    0.58    0.20 
   3  11   1    0.37    0.21 
  -3 -11  -1    0.15    0.21 
   3  11  -1    0.56    0.22 
   4  11   1   17.28    0.75 
   4 -11  -1   16.28    0.72 
   4  11  -1   17.03    0.76 
   5  11   1   90.84    2.60 
   5  11   1   88.20    2.65 
   5 -11  -1   88.02    2.64 
  -5 -11   1   90.35    2.63 
   5  11  -1   91.40    2.64 
   6  11   1   49.18    1.56 
  -6 -11   1   44.74    1.51 
   6  11   1   45.98    1.51 
   6 -11  -1   46.21    1.57 
  -6 -11  -1   40.29    1.53 
   6  11  -1   47.11    1.53 
   0  11   2    0.11    0.16 
   0  11  -2    0.06    0.15 
   0 -11   2    0.07    0.16 
   0 -11  -2    0.01    0.17 
   1 -11  -2   60.61    1.80 
   1  11   2   60.06    1.82 
  -1 -11   2   60.33    1.83 
  -1  11  -2   62.38    1.78 
   1 -11   2   63.43    1.79 
   1  11  -2   60.76    1.83 
  -1  11   2   61.20    1.77 
  -1 -11  -2   59.69    1.80 
  -2  11  -2    3.22    0.27 
  -2 -11   2    3.61    0.35 
   2  11   2    3.31    0.34 
  -2 -11  -2    3.51    0.34 
   2 -11   2    3.05    0.27 
   2  11  -2    3.34    0.35 
   3 -11  -2   75.30    2.27 
   3  11   2   77.18    2.31 
  -3 -11   2   79.94    2.33 
   3  11  -2   78.00    2.33 
  -3 -11  -2   79.51    2.27 
  -4 -11   2    1.16    0.28 
   4 -11  -2    1.39    0.28 
   4  11   2    1.48    0.30 
  -4 -11  -2    0.49    0.30 
   4  11  -2    1.01    0.28 
   5 -11  -2   60.09    1.89 
  -5 -11   2   57.09    1.87 
   5  11   2   59.35    1.90 
   5  11  -2   60.50    1.90 
   6  11   2    0.71    0.31 
   6 -11  -2    0.58    0.30 
  -6 -11   2    0.82    0.30 
   6  11   2    0.73    0.27 
   6  11  -2    0.63    0.31 
  -6 -11  -2    0.43    0.38 
   0 -11   3    0.34    0.17 
   0 -11  -3    0.66    0.22 
   0  11   3    0.68    0.21 
   0  11  -3    0.52    0.19 
   1  11   3    2.08    0.28 
   1 -11  -3    2.81    0.30 
  -1  11  -3    2.28    0.25 
  -1 -11   3    2.07    0.28 
  -1  11   3    2.32    0.28 
   1 -11   3    2.18    0.25 
   1  11  -3    2.50    0.30 
  -1 -11  -3    1.72    0.28 
   2 -11  -3    6.11    0.48 
  -2 -11   3    6.18    0.45 
   2  11   3    6.66    0.45 
  -2  11  -3    6.35    0.37 
   2  11  -3    5.91    0.44 
  -2 -11  -3    6.85    0.49 
   2 -11   3    6.25    0.38 
   3  11   3    0.78    0.25 
  -3 -11   3    0.67    0.25 
   3 -11  -3    0.86    0.27 
   3 -11   3    1.14    0.20 
  -3 -11  -3    1.03    0.29 
   3  11  -3    0.50    0.25 
   4 -11  -3    1.36    0.32 
   4  11   3    1.08    0.29 
  -4 -11   3    1.35    0.30 
  -4 -11  -3    1.26    0.33 
   4  11  -3    0.87    0.29 
   5 -11  -3    6.27    0.57 
  -5 -11   3    6.56    0.53 
   5  11   3    6.92    0.55 
   5  11  -3    6.72    0.55 
   6  11   3    0.33    0.30 
   6 -11  -3    0.55    0.31 
  -6 -11   3    1.00    0.32 
  -6 -11  -3    0.11    0.38 
   6  11  -3    0.82    0.32 
   0 -11   4    0.09    0.18 
   0  11   4    0.08    0.19 
   0  11  -4    0.09    0.18 
   0 -11  -4    0.05    0.21 
   1 -11  -4   14.57    0.67 
   1  11   4   13.74    0.62 
  -1  11  -4   13.84    0.60 
  -1 -11   4   14.31    0.66 
  -1 -11  -4   13.89    0.67 
   1  11  -4   14.42    0.66 
   1 -11   4   14.27    0.61 
   2  11   4    2.49    0.31 
  -2 -11   4    2.19    0.33 
   2 -11  -4    1.53    0.30 
   2 -11   4    1.92    0.25 
   2  11  -4    2.34    0.33 
  -2 -11  -4    1.98    0.33 
  -3 -11   4   44.99    1.52 
   3  11   4   47.46    1.50 
   3 -11  -4   47.02    1.54 
   3 -11   4   46.25    1.40 
   3  11  -4   42.79    1.51 
  -3 -11  -4   42.92    1.53 
  -4 -11   4    8.52    0.59 
   4 -11  -4    9.34    0.64 
   4  11   4    8.60    0.57 
  -4 -11  -4    9.77    0.68 
   4  11  -4    9.20    0.60 
   5  11   4   20.54    0.92 
   5 -11  -4   20.86    0.97 
  -5 -11   4   19.41    0.91 
   5  11  -4   20.75    0.93 
  -5 -11  -4   20.70    1.00 
   0 -11   5   48.53    1.55 
   0 -11  -5   48.43    1.59 
   0  11   5   47.45    1.50 
   1 -11  -5   90.78    2.65 
  -1 -11   5   89.92    2.63 
   1  11   5   88.79    2.59 
   1  11  -5   89.17    2.62 
   1 -11   5   87.41    2.58 
  -1 -11  -5   91.50    2.66 
   2 -11  -5   37.63    1.35 
   2  11   5   37.91    1.28 
  -2 -11   5   36.80    1.31 
   2  11  -5   37.65    1.31 
   2 -11   5   36.29    1.23 
  -3 -11   5    0.24    0.26 
   3 -11  -5    0.78    0.34 
   3  11   5    0.48    0.26 
   3  11  -5    0.14    0.25 
  -3 -11  -5    0.18    0.29 
   3 -11   5    0.05    0.19 
   4  11   5    6.37    0.54 
  -4 -11   5    6.14    0.54 
   4 -11  -5    6.69    0.63 
  -4 -11  -5    6.27    0.66 
   4  11  -5    6.58    0.55 
  -5 -11   5   38.53    1.40 
   5  11   5   38.53    1.43 
   5 -11  -5   41.27    1.50 
   5  11  -5   39.59    1.42 
  -5 -11  -5   37.24    1.51 
   0  11   6    0.09    0.24 
   0 -11  -6    0.09    0.27 
   0 -11   6    0.19    0.23 
   1 -11  -6    1.44    0.35 
   1  11   6    1.30    0.29 
  -1 -11   6    1.57    0.31 
   1 -11   6    1.30    0.28 
  -1 -11  -6    1.64    0.36 
   2  11   6  118.07    3.38 
  -2 -11   6  118.38    3.43 
   2 -11  -6  116.56    3.47 
   2 -11   6  120.89    3.37 
  -3 -11   6    1.32    0.34 
   3 -11  -6    2.62    0.46 
   3  11   6    1.25    0.31 
   3  11  -6    1.63    0.35 
   3 -11   6    1.20    0.28 
  -3 -11  -6    0.67    0.36 
  -4 -11   6  106.26    3.12 
   4 -11  -6  103.89    3.18 
   4  11   6  106.77    3.14 
   4  11  -6  108.62    3.13 
   4 -11   6  104.84    3.04 
   0 -11   7   73.53    2.29 
   0 -11  -7   74.71    2.38 
   1  11   7   42.17    1.44 
   1 -11  -7   42.27    1.56 
  -1 -11   7   42.06    1.49 
   1 -11   7   42.19    1.47 
  -1 -11  -7   43.77    1.58 
  -2 -11   7   11.13    0.70 
   2 -11  -7   11.88    0.85 
   2  11   7   10.31    0.65 
  -2 -11  -7   12.25    0.82 
   2 -11   7   11.35    0.65 
   0  12   0    2.86    0.28 
   0 -12   0    2.48    0.26 
  -1  12   0    0.95    0.19 
   1  12   0    0.22    0.18 
   1 -12   0    0.85    0.19 
   2  12   0  137.14    3.82 
   3  12   0    0.04    0.21 
   4  12   0   93.58    2.75 
   5  12   0    0.15    0.25 
   6  12   0    9.12    0.65 
   0 -12   1    0.15    0.16 
   0  12  -1    0.11    0.16 
   0  12   1    0.10    0.17 
   1  12   1   28.51    1.00 
  -1 -12   1   30.57    1.03 
  -1  12  -1   27.96    0.95 
   1 -12   1   27.85    0.96 
  -1  12   1   27.86    0.94 
   1  12  -1   29.87    1.02 
   2  12   1   93.58    2.70 
  -2 -12   1   97.32    2.71 
  -2  12  -1   90.74    2.59 
   2 -12   1   90.73    2.60 
   2  12  -1   96.47    2.71 
  -3 -12   1    0.58    0.22 
   3  12   1    0.26    0.21 
   3  12  -1    0.46    0.22 
  -4 -12   1   85.48    2.56 
   4  12   1   87.66    2.58 
   4  12  -1   88.07    2.58 
  -5 -12   1   16.80    0.77 
   5  12   1   16.25    0.78 
   5  12  -1   15.00    0.75 
   6  12   1    7.95    0.62 
  -6 -12   1    7.83    0.58 
   6  12  -1    7.71    0.59 
   0 -12   2   43.97    1.39 
   0  12   2   43.11    1.37 
   0  12  -2   45.33    1.39 
   0 -12  -2   43.41    1.38 
  -1  12  -2   96.46    2.73 
  -1 -12   2   97.42    2.80 
   1  12   2   95.60    2.78 
   1 -12  -2   96.69    2.76 
   1  12  -2  100.00    2.80 
  -1  12   2   96.96    2.72 
   1 -12   2  100.19    2.75 
  -2 -12   2   49.29    1.56 
   2 -12  -2   43.95    1.51 
   2  12   2   48.55    1.55 
  -2  12  -2   48.00    1.45 
  -2 -12  -2   48.42    1.53 
   2  12  -2   50.89    1.57 
   2 -12   2   50.56    1.46 
   3  12   2    6.30    0.48 
   3 -12  -2    6.24    0.49 
  -3 -12   2    7.10    0.50 
  -3 -12  -2    6.93    0.52 
   3  12  -2    7.27    0.51 
   4 -12  -2   38.47    1.33 
   4  12   2   39.35    1.37 
  -4 -12   2   39.59    1.36 
  -4 -12  -2   39.07    1.33 
   4  12  -2   37.28    1.35 
  -5 -12   2   43.18    1.50 
   5 -12  -2   43.50    1.50 
   5  12   2   42.08    1.50 
   5  12  -2   44.52    1.51 
  -6 -12   2   31.16    1.19 
   6  12   2   29.33    1.19 
   6 -12  -2   29.38    1.21 
   6  12  -2   31.38    1.20 
   0 -12   3    0.06    0.18 
   0 -12  -3   -0.07    0.21 
   0  12  -3   -0.01    0.17 
   0  12   3    0.19    0.21 
  -1  12  -3  174.32    4.70 
  -1 -12   3  172.52    4.76 
   1  12   3  173.04    4.74 
   1 -12  -3  179.18    4.75 
  -1 -12  -3  168.85    4.73 
   1 -12   3  175.73    4.71 
   1  12  -3  171.18    4.76 
  -2 -12   3    1.77    0.31 
   2  12   3    1.93    0.31 
   2 -12  -3    1.69    0.29 
  -2  12  -3    2.12    0.25 
  -2 -12  -3    1.67    0.31 
   2 -12   3    2.12    0.26 
   2  12  -3    1.75    0.30 
   3  12   3   72.79    2.14 
   3 -12  -3   72.12    2.12 
  -3 -12   3   68.12    2.13 
  -3 -12  -3   65.50    2.11 
   3  12  -3   67.40    2.14 
   4 -12  -3    6.35    0.55 
   4  12   3    5.95    0.51 
  -4 -12   3    4.72    0.46 
  -4 -12  -3    4.48    0.48 
   4  12  -3    3.69    0.44 
   5 -12  -3  110.07    3.27 
   5  12   3  117.24    3.31 
  -5 -12   3  110.60    3.26 
   5  12  -3  111.55    3.28 
  -5 -12  -3  110.78    3.27 
   0  12  -4   25.71    0.94 
   0 -12   4   25.59    0.95 
   0  12   4   23.19    0.91 
   0 -12  -4   25.03    0.97 
  -1  12  -4  163.92    4.46 
   1  12   4  163.20    4.49 
   1 -12  -4  164.31    4.51 
  -1 -12   4  157.70    4.52 
   1  12  -4  160.21    4.51 
  -1 -12  -4  169.01    4.53 
   1 -12   4  164.76    4.47 
   2 -12  -4   51.74    1.68 
  -2 -12   4   50.57    1.67 
   2  12   4   51.24    1.64 
   2 -12   4   52.20    1.58 
   2  12  -4   49.65    1.66 
   3 -12  -4    0.69    0.30 
  -3 -12   4    0.49    0.28 
   3  12   4    0.76    0.27 
   3 -12   4    0.53    0.21 
  -3 -12  -4    0.47    0.31 
   3  12  -4    0.37    0.28 
   4 -12  -4   51.98    1.70 
   4  12   4   52.38    1.70 
  -4 -12   4   48.92    1.68 
  -4 -12  -4   49.69    1.73 
   4  12  -4   47.77    1.68 
   5 -12  -4   73.55    2.30 
  -5 -12   4   69.22    2.26 
   5  12   4   74.86    2.30 
  -5 -12  -4   71.31    2.32 
   5  12  -4   72.11    2.28 
   0  12   5    0.19    0.22 
   0 -12   5    0.08    0.22 
   0  12  -5   -0.11    0.20 
   0 -12  -5    0.02    0.26 
   1 -12  -5    3.11    0.40 
  -1 -12   5    2.50    0.36 
   1  12   5    2.89    0.35 
   1 -12   5    3.23    0.36 
  -1 -12  -5    2.52    0.38 
   1  12  -5    3.39    0.39 
  -2 -12   5  147.13    4.22 
   2 -12  -5  148.41    4.24 
   2  12   5  152.13    4.19 
   2  12  -5  146.82    4.22 
   2 -12   5  153.58    4.14 
   3 -12  -5    0.14    0.31 
   3  12   5    0.11    0.26 
  -3 -12   5    0.27    0.29 
   3 -12   5    0.28    0.22 
   3  12  -5    0.23    0.29 
  -3 -12  -5    0.34    0.33 
   4  12   5  143.03    3.96 
   4 -12  -5  144.76    3.99 
  -4 -12   5  128.75    3.92 
   4  12  -5  133.28    3.94 
   0 -12  -6    1.56    0.38 
   0 -12   6    1.32    0.30 
  -1 -12   6   19.79    0.91 
   1  12   6   20.43    0.87 
   1 -12  -6   20.71    0.98 
   1 -12   6   19.48    0.88 
  -1 -12  -6   22.81    1.00 
   2  12   6   38.99    1.40 
  -2 -12   6   40.29    1.46 
   2 -12  -6   39.96    1.50 
  -2 -12  -6   42.30    1.53 
   2 -12   6   40.75    1.39 
  -3 -12   6    2.09    0.38 
   3 -12  -6    2.38    0.47 
   3  12   6    2.26    0.39 
   3 -12   6    1.99    0.33 
  -3 -12  -6    0.57    0.37 
   3  12  -6    2.07    0.38 
   0  13   0    0.49    0.19 
   0 -13   0    0.48    0.19 
  -1  13   0    0.13    0.17 
  -1 -13   0    0.34    0.19 
   1  13   0    0.28    0.19 
   1 -13   0    0.12    0.17 
   2  13   0  120.79    3.41 
   3  13   0    2.07    0.32 
   4  13   0   49.40    1.64 
   5  13   0    0.24    0.27 
   6  13   0    1.64    0.36 
   0  13  -1  168.49    4.59 
   0  13   1  168.42    4.59 
   0 -13   1  170.03    4.60 
  -1  13  -1   38.44    1.23 
   1 -13  -1   38.96    1.23 
   1  13   1   39.27    1.29 
  -1 -13   1   40.84    1.31 
   1 -13   1   38.99    1.24 
  -1  13   1   36.74    1.21 
   1  13  -1   39.16    1.29 
  -2 -13   1    2.58    0.32 
   2  13   1    2.40    0.33 
  -2  13  -1    2.82    0.29 
   2  13  -1    2.64    0.33 
   3  13   1    0.29    0.23 
  -3 -13   1    0.26    0.23 
   3  13  -1    0.27    0.23 
   4  13   1    1.03    0.30 
  -4 -13   1    1.50    0.29 
   4  13  -1    1.14    0.29 
  -5 -13   1   57.13    1.84 
   5  13   1   57.53    1.86 
   5  13  -1   56.20    1.83 
  -6 -13   1   89.31    2.69 
   0 -13  -2    0.05    0.22 
   0 -13   2    0.00    0.18 
   0  13   2    0.26    0.20 
   0  13  -2    0.13    0.18 
  -1 -13   2    2.19    0.31 
  -1  13  -2    3.57    0.35 
   1 -13  -2    2.91    0.33 
   1  13   2    2.59    0.31 
   1  13  -2    2.72    0.33 
  -1 -13  -2    2.83    0.32 
   1 -13   2    3.65    0.33 
  -2 -13   2    0.68    0.24 
  -2  13  -2    0.82    0.20 
   2 -13  -2    0.74    0.26 
   2  13   2    1.15    0.27 
  -2 -13  -2    0.81    0.27 
   2 -13   2    1.07    0.22 
   2  13  -2    0.84    0.25 
   3 -13  -2  131.55    3.73 
   3  13   2  132.16    3.77 
  -3 -13   2  136.52    3.78 
   3  13  -2  139.25    3.80 
  -3 -13  -2  127.18    3.74 
   4 -13  -2    1.06    0.29 
  -4 -13   2    0.97    0.30 
   4  13   2    1.15    0.31 
  -4 -13  -2    0.88    0.34 
   4  13  -2    1.02    0.31 
   5 -13  -2    5.64    0.57 
  -5 -13   2    6.51    0.57 
   5  13   2    5.46    0.54 
   5  13  -2    6.23    0.58 
  -5 -13  -2    5.64    0.56 
   0 -13   3    0.68    0.23 
   0  13  -3    0.70    0.23 
   0 -13  -3    0.74    0.26 
   0  13   3    0.90    0.25 
   1  13   3    0.41    0.25 
  -1 -13   3    0.49    0.23 
  -1  13  -3    0.49    0.20 
   1 -13  -3    0.71    0.25 
   1  13  -3    0.73    0.24 
  -1 -13  -3    0.71    0.25 
   1 -13   3    0.69    0.23 
  -2 -13   3    9.00    0.57 
   2 -13  -3    8.85    0.59 
   2  13   3    9.43    0.59 
  -2  13  -3    8.97    0.48 
   2 -13   3    9.69    0.50 
   2  13  -3    9.92    0.59 
  -2 -13  -3    6.56    0.56 
   3 -13  -3    0.96    0.30 
  -3 -13   3    0.83    0.28 
   3  13   3    0.71    0.28 
  -3 -13  -3    0.85    0.32 
   3  13  -3    0.92    0.30 
  -4 -13   3    2.52    0.39 
   4  13   3    2.46    0.39 
   4 -13  -3    2.89    0.41 
   4  13  -3    2.47    0.40 
  -4 -13  -3    2.17    0.41 
   5 -13  -3    7.20    0.63 
  -5 -13   3    7.48    0.62 
   5  13   3    7.21    0.62 
   5  13  -3    6.62    0.62 
  -5 -13  -3    7.11    0.67 
   0  13   4    0.10    0.24 
   0 -13   4   -0.08    0.22 
   0  13  -4   -0.14    0.21 
   0 -13  -4   -0.06    0.25 
   1 -13  -4    6.55    0.54 
  -1  13  -4    5.49    0.43 
   1  13   4    5.69    0.50 
  -1 -13   4    5.89    0.49 
  -1 -13  -4    6.67    0.55 
   1 -13   4    5.72    0.44 
   1  13  -4    5.99    0.51 
   2  13   4    1.15    0.30 
   2 -13  -4    1.07    0.32 
  -2 -13   4    1.51    0.33 
   2  13  -4    1.06    0.31 
   2 -13   4    1.14    0.25 
  -2 -13  -4    0.59    0.31 
   3  13   4   73.45    2.22 
  -3 -13   4   68.06    2.22 
   3 -13  -4   73.66    2.22 
   3  13  -4   67.98    2.23 
   4 -13  -4    7.75    0.65 
  -4 -13   4    7.54    0.64 
   4  13   4    8.60    0.64 
  -4 -13  -4    6.69    0.69 
   4  13  -4    7.26    0.64 
   0  13  -5   61.18    1.95 
   0 -13  -5   64.11    2.00 
   0 -13   5   60.67    1.96 
  -1 -13   5   50.69    1.75 
   1  13   5   54.19    1.74 
   1 -13  -5   54.23    1.78 
   1  13  -5   52.56    1.75 
  -1 -13  -5   56.06    1.79 
   1 -13   5   53.70    1.72 
   2  13   5    0.28    0.28 
   2 -13  -5    0.50    0.34 
  -2 -13   5    0.50    0.30 
   2  13  -5    0.43    0.30 
  -2 -13  -5    0.63    0.32 
   2 -13   5    0.35    0.25 
   3 -13  -5    0.16    0.33 
  -3 -13   5    0.41    0.31 
   3  13   5   -0.02    0.28 
  -3 -13  -5   -0.06    0.31 
   3 -13   5   -0.01    0.23 
   3  13  -5    0.17    0.31 
   0 -13   6    0.01    0.26 
   0 -13  -6    0.38    0.35 
   1  13   6    1.65    0.35 
   1 -13  -6    1.83    0.40 
  -1 -13   6    2.08    0.39 
  -1 -13  -6    1.82    0.42 
   1 -13   6    1.51    0.34 
   0 -14   0  242.35    6.41 
   0  14   0  235.30    6.40 
  -1 -14   0   -0.02    0.19 
   1  14   0    0.08    0.20 
   1 -14   0    0.09    0.18 
  -1  14   0    0.05    0.18 
   2  14   0   12.40    0.64 
   3  14   0    0.15    0.22 
   4  14   0    3.36    0.40 
   5  14   0    0.11    0.28 
   0  14   1    0.20    0.19 
   0 -14   1    0.14    0.19 
   0  14  -1    0.10    0.18 
  -1  14  -1    9.98    0.51 
   1  14   1   10.78    0.57 
   1 -14  -1   10.48    0.59 
  -1 -14   1   10.84    0.58 
  -1  14   1   10.45    0.51 
   1 -14   1   10.20    0.53 
   1  14  -1   10.36    0.57 
   2  14   1    0.61    0.26 
  -2 -14   1    0.42    0.23 
   2  14  -1    0.43    0.24 
   3  14   1  118.93    3.47 
  -3 -14   1  122.78    3.48 
   3  14  -1  122.40    3.48 
  -4 -14   1    0.07    0.24 
   4  14   1    0.14    0.26 
   4  14  -1   -0.04    0.25 
   5  14   1   12.27    0.72 
  -5 -14   1   10.94    0.70 
   5  14  -1   11.30    0.71 
   0 -14   2   44.68    1.46 
   0  14  -2   43.95    1.45 
   0  14   2   46.76    1.46 
   1  14   2    0.88    0.26 
  -1 -14   2    0.91    0.26 
  -1  14  -2    1.00    0.24 
   1  14  -2    0.78    0.26 
   1 -14   2    1.06    0.25 
  -2 -14   2   15.12    0.73 
  -2  14  -2   14.10    0.63 
   2  14   2   14.16    0.70 
   2 -14   2   14.40    0.65 
   2  14  -2   15.81    0.74 
   3  14   2    2.10    0.35 
  -3 -14   2    2.01    0.33 
   3  14  -2    2.45    0.36 
  -4 -14   2   18.45    0.85 
   4  14   2   17.42    0.84 
   4  14  -2   17.45    0.85 
   5  14   2    0.66    0.33 
  -5 -14   2    0.80    0.32 
   5  14  -2    0.81    0.32 
   0  14   3   -0.01    0.22 
   0 -14   3    0.04    0.22 
   0 -14  -3    0.49    0.27 
   0  14  -3    0.15    0.23 
  -1  14  -3   23.84    0.93 
  -1 -14   3   24.91    1.00 
   1 -14  -3   23.90    0.99 
   1  14   3   25.01    0.99 
   1  14  -3   25.09    0.99 
  -1 -14  -3   27.07    1.00 
   1 -14   3   25.37    0.95 
   2 -14  -3    1.69    0.34 
   2  14   3    2.76    0.38 
  -2  14  -3    2.89    0.32 
  -2 -14   3    2.86    0.37 
   2  14  -3    2.92    0.38 
   2 -14   3    2.81    0.32 
   3 -14  -3    8.17    0.63 
   3  14   3    7.75    0.59 
  -3 -14   3    8.17    0.60 
   3  14  -3    8.35    0.60 
  -3 -14  -3    5.49    0.62 
   4 -14  -3    0.16    0.31 
   4  14   3    0.39    0.32 
  -4 -14   3    0.40    0.30 
   4  14  -3    0.61    0.33 
  -4 -14  -3    0.11    0.35 
   0 -14   4    7.83    0.55 
   0  14   4    7.80    0.61 
   0 -14  -4    7.96    0.60 
   0  14  -4    7.61    0.54 
   1 -14  -4    1.72    0.35 
  -1  14  -4    1.11    0.27 
   1  14   4    1.84    0.35 
  -1 -14   4    1.91    0.36 
  -1 -14  -4    1.08    0.33 
   1 -14   4    1.52    0.30 
   1  14  -4    1.67    0.34 
   2 -14  -4   11.37    0.72 
   2  14   4   11.51    0.68 
  -2 -14   4   10.57    0.68 
  -2 -14  -4   12.03    0.73 
   2 -14   4   10.88    0.60 
   2  14  -4   11.32    0.69 
  -3 -14   4    0.03    0.29 
   3 -14  -4    0.06    0.31 
   3  14   4    0.00    0.29 
  -3 -14  -4    0.11    0.33 
   3  14  -4    0.21    0.31 
   0  14  -5   -0.02    0.25 
   0 -14  -5    0.26    0.33 
   0 -14   5    0.05    0.27 
   1 -14  -5   11.74    0.73 
   1  14   5   11.24    0.68 
  -1 -14   5   11.51    0.72 
  -1 -14  -5   11.66    0.77 
   1 -14   5   12.53    0.69 
   1  14  -5   11.98    0.73 
  -2 -14   5    0.40    0.32 
   2 -14  -5    0.26    0.34 
   2  14   5    0.24    0.30 
   2 -14   5    0.29    0.27 
  -2 -14  -5    0.20    0.32 
   2  14  -5    0.30    0.33 
   0  15   0    0.95    0.24 
   0 -15   0    0.63    0.24 
  -1  15   0    0.01    0.18 
   1 -15   0    0.00    0.19 
  -1 -15   0    0.11    0.21 
   1  15   0    0.11    0.20 
  -2 -15   0    0.83    0.26 
   2  15   0    0.71    0.26 
  -3 -15   0    1.41    0.31 
   3  15   0    1.56    0.33 
  -4 -15   0    8.19    0.57 
   4  15   0    8.49    0.59 
   0 -15   1  133.38    3.69 
   0  15  -1  131.61    3.68 
   0  15   1  128.02    3.65 
   0 -15  -1  134.05    3.67 
  -1  15  -1    4.40    0.40 
  -1 -15   1    5.00    0.44 
   1  15   1    4.34    0.42 
   1 -15   1    4.26    0.42 
   1  15  -1    4.40    0.42 
   2  15   1    1.15    0.29 
  -2 -15   1    1.32    0.30 
   2  15  -1    1.33    0.31 
   3  15   1    0.92    0.31 
  -3 -15   1    0.52    0.27 
   3  15  -1    0.77    0.30 
   4  15   1    0.23    0.29 
  -4 -15   1    0.41    0.28 
   4  15  -1    0.66    0.32 
   0 -15   2    0.10    0.22 
   0  15  -2    0.09    0.21 
   0  15   2    0.08    0.23 
  -1  15  -2    1.21    0.27 
   1  15   2    1.08    0.28 
  -1 -15   2    1.41    0.31 
   1 -15   2    1.14    0.27 
   1  15  -2    1.18    0.29 
   2  15   2  118.42    3.39 
  -2 -15   2  115.96    3.40 
   2  15  -2  119.15    3.42 
   3  15   2  117.93    3.48 
  -3 -15   2  120.87    3.49 
   3  15  -2  122.97    3.51 
   4  15   2   90.44    2.77 
  -4 -15   2   92.91    2.77 
   4  15  -2   90.90    2.77 
   0 -15   3    1.89    0.32 
   0  15  -3    1.95    0.31 
   0  15   3    2.16    0.34 
  -1 -15   3  232.19    6.35 
  -1  15  -3  230.68    6.28 
   1  15   3  227.29    6.30 
   1 -15   3  235.22    6.29 
   1  15  -3  237.73    6.36 
   2  15   3    0.49    0.28 
  -2 -15   3    0.56    0.29 
  -2  15  -3    0.33    0.23 
   2 -15   3    0.59    0.25 
   2  15  -3    0.42    0.29 
   3  15   3    1.43    0.35 
  -3 -15   3    1.46    0.34 
   3  15  -3    1.40    0.35 
   0 -15  -4    0.23    0.29 
   0 -15   4    0.07    0.25 
   0  15  -4   -0.11    0.24 
  -1  15  -4    0.16    0.25 
  -1 -15   4    0.43    0.30 
   1 -15  -4    0.48    0.32 
   1  15   4    0.28    0.28 
  -1 -15  -4    0.29    0.34 
   1 -15   4    0.16    0.25 
   1  15  -4    0.25    0.29 
   2 -15  -4   85.76    2.66 
  -2 -15   4   84.95    2.66 
   2  15   4   85.85    2.64 
   2  15  -4   85.40    2.66 
  -2 -15  -4   90.65    2.68 
   2 -15   4   87.16    2.56 
   0 -16   0  196.45    5.28 
   0  16   0  190.27    5.26 
   1  16   0    0.11    0.24 
  -1 -16   0    0.00    0.23 
   2  16   0  158.30    4.46 
  -2 -16   0  161.48    4.47 
  -3 -16   0    0.06    0.25 
   3  16   0    0.32    0.27 
   0 -16  -1    0.31    0.25 
   0  16   1    0.27    0.23 
   0 -16   1    0.25    0.24 
   0  16  -1    0.20    0.23 
  -1 -16   1   42.16    1.42 
   1  16   1   40.33    1.39 
  -1  16  -1   41.98    1.37 
   1  16  -1   41.20    1.41 
  -1 -16  -1   41.76    1.40 
   1 -16   1   42.60    1.38 
   2  16   1   43.20    1.48 
  -2 -16   1   43.90    1.50 
   2  16  -1   44.00    1.51 
  -3 -16   1   80.95    2.48 
   3  16   1   79.73    2.47 
   3  16  -1   81.58    2.48 
   0 -16   2    3.76    0.40 
   0  16  -2    2.86    0.36 
   0  16   2    2.94    0.36 
  -1  16  -2   61.28    1.92 
   1  16   2   66.78    1.99 
  -1 -16   2   63.57    1.99 
   1  16  -2   61.52    1.98 
   1 -16   2   61.98    1.94 
   2  16   2   11.55    0.70 
  -2 -16   2   11.77    0.69 
   2  16  -2   12.22    0.70 
   3  16   2    1.28    0.35 
  -3 -16   2    1.30    0.34 
   3  16  -2    1.11    0.35 
   0  16  -3    0.28    0.26 
   0 -16   3    0.11    0.26 
   1  16   3   41.59    1.49 
  -1 -16   3   45.65    1.54 
  -1  16  -3   43.02    1.46 
   1  16  -3   45.43    1.54 
   1 -16   3   44.07    1.48 
  -2 -16   3    0.31    0.29 
   2  16   3    0.34    0.29 
   2  16  -3    0.35    0.30 
   0 -17   0    0.91    0.28 
   0  17   0    0.71    0.26 
  -1 -17   0    0.11    0.26 
   1  17   0    0.11    0.24 
  -2 -17   0   12.08    0.69 
   2  17   0   11.05    0.70 
   0  17  -1   36.00    1.27 
   0 -17  -1   37.05    1.29 
   0 -17   1   37.00    1.29 
   0  17   1   36.01    1.28 
   1  17   1    2.52    0.36 
  -1  17  -1    3.45    0.43 
  -1 -17   1    3.23    0.40 
  -1 -17  -1    2.79    0.38 
   1  17  -1    3.35    0.41 
   0 -17   2    0.11    0.27 
   0  17  -2    0.18    0.26 
  -1  17  -2    1.93    0.33 
   1  17   2    1.84    0.35 
  -1 -17   2    2.11    0.37 
   1 -17   2    1.86    0.35 
   1  17  -2    1.86    0.35 
   0   0   0    0.00    0.00 
;
_shelx_hkl_checksum              4525
loop_
_space_group_symop_id
_space_group_symop_operation_xyz
1 x,y,z
2 1/2-x,-y,1/2+z
3 1/2+x,1/2-y,1/2-z
4 -x,1/2+y,-z
5 -x,-y,-z
6 1/2+x,y,1/2-z
7 1/2-x,1/2+y,1/2+z
8 x,1/2-y,z
loop_
_atom_site_label
_atom_site_type_symbol
_atom_site_fract_x
_atom_site_fract_y
_atom_site_fract_z
_atom_site_U_iso_or_equiv
_atom_site_adp_type
_atom_site_occupancy
_atom_site_site_symmetry_order
_atom_site_calc_flag
_atom_site_refinement_flags_posn
_atom_site_refinement_flags_adp
_atom_site_refinement_flags_occupancy
Sc1 Sc -0.00476(9) 0.59174(5) 0.17084(9) 0.00250(15) Uani 1 1 d . . .
Mo1 Mo 0.32866(4) 0.12381(2) 0.16560(4) 0.00484(12) Uani 1 1 d . . .
Mo2 Mo 0.16452(6) 0.2500 0.50552(6) 0.00419(13) Uani 1 2 d S T P
Si4 Si 0.16623(14) 0.04415(8) 0.46254(15) 0.0062(2) Uani 1 1 d . . .
Si5 Si 0.0314(2) 0.2500 0.1223(2) 0.0064(3) Uani 1 2 d S T P
Si6 Si 0.2997(2) 0.2500 0.8588(2) 0.0060(3) Uani 1 2 d S T P
loop_
_atom_site_aniso_label
_atom_site_aniso_U_11
_atom_site_aniso_U_22
_atom_site_aniso_U_33
_atom_site_aniso_U_23
_atom_site_aniso_U_13
_atom_site_aniso_U_12
Sc1 0.0025(3) 0.0023(3) 0.0028(3) -0.00044(19) -0.00009(19) -0.0004(2)
Mo1 0.00561(17) 0.00419(18) 0.00470(18) 0.00010(9) -0.00035(9) 0.00020(9)
Mo2 0.0044(2) 0.0043(2) 0.0038(2) 0.000 0.00030(13) 0.000
Si4 0.0069(4) 0.0060(4) 0.0058(4) 0.0008(3) 0.0000(3) -0.0002(3)
Si5 0.0068(6) 0.0063(6) 0.0061(6) 0.000 0.0003(5) 0.000
Si6 0.0052(6) 0.0065(6) 0.0063(6) 0.000 0.0001(5) 0.000
loop_
_atom_type_symbol
_atom_type_description
_atom_type_scat_dispersion_real
_atom_type_scat_dispersion_imag
_atom_type_scat_source
Si Si 0.0817 0.0704 'International Tables Vol C Tables 4.2.6.8 and 6.1.1.4'
Sc Sc 0.2519 0.3716 'International Tables Vol C Tables 4.2.6.8 and 6.1.1.4'
Mo Mo -1.6832 0.6857 'International Tables Vol C Tables 4.2.6.8 and 6.1.1.4'
loop_
_citation_id
_citation_year
primary 2015
loop_
_geom_angle_atom_site_label_1
_geom_angle_atom_site_label_2
_geom_angle_atom_site_label_3
_geom_angle
_geom_angle_site_symmetry_1
_geom_angle_site_symmetry_3
_geom_angle_publ_flag
Si4 Mo1 Si5 91.25(4) . . yes
Si4 Mo1 Si6 148.78(4) . 1_554 yes
Si4 Mo1 Si4 96.08(3) . 2_554 yes
Si4 Mo1 Si5 91.08(4) . 3_555 yes
Si4 Mo1 Si4 118.67(3) . 6_555 yes
Si5 Mo1 Si6 58.01(4) . 1_554 yes
Si4 Mo1 Si5 118.43(3) 2_554 . yes
Si5 Mo1 Si5 94.03(3) . 3_555 yes
Si4 Mo1 Si5 149.84(4) 6_555 . yes
Si4 Mo1 Si6 94.59(3) 2_554 1_554 yes
Si5 Mo1 Si6 96.02(3) 3_555 1_554 yes
Si4 Mo1 Si6 91.84(4) 6_555 1_554 yes
Si4 Mo1 Si5 146.46(3) 2_554 3_555 yes
Si4 Mo1 Si4 58.47(3) 2_554 6_555 yes
Si4 Mo1 Si5 89.43(4) 6_555 3_555 yes
Si4 Mo2 Si5 84.02(2) . . yes
Si4 Mo2 Si6 95.91(2) . . yes
Si4 Mo2 Si6 92.52(2) . 3_456 yes
Si4 Mo2 Si5 87.60(2) . 3_555 yes
Si4 Mo2 Si4 167.22(4) . 8_555 yes
Si5 Mo2 Si6 178.27(4) . . yes
Si5 Mo2 Si6 92.59(4) . 3_456 yes
Si5 Mo2 Si5 88.63(4) . 3_555 yes
Si4 Mo2 Si5 84.02(2) 8_555 . yes
Si6 Mo2 Si6 89.14(4) . 3_456 yes
Si5 Mo2 Si6 89.63(4) 3_555 . yes
Si4 Mo2 Si6 95.91(2) 8_555 . yes
Si5 Mo2 Si6 178.77(5) 3_555 3_456 yes
Si4 Mo2 Si6 92.52(2) 8_555 3_456 yes
Si4 Mo2 Si5 87.60(2) 8_555 3_555 yes
Si4 Sc1 Si6 161.19(4) 3_455 2_564 yes
Si5 Sc1 Si6 80.74(4) 4_555 2_564 yes
Si4 Sc1 Si6 85.82(4) 4_556 2_564 yes
Si6 Sc1 Si6 81.15(3) 2_564 4_556 yes
Si4 Sc1 Si6 90.32(4) 7_554 2_564 yes
Si4 Sc1 Si6 85.73(3) 8_555 2_564 yes
Si4 Sc1 Si5 98.91(4) 3_455 4_555 yes
Si4 Sc1 Si4 82.44(3) 3_455 4_556 yes
Si4 Sc1 Si6 83.70(3) 3_455 4_556 yes
Si4 Sc1 Si4 108.26(4) 3_455 7_554 yes
Si4 Sc1 Si4 98.62(3) 3_455 8_555 yes
Si4 Sc1 Si5 139.68(4) 4_556 4_555 yes
Si5 Sc1 Si6 52.97(4) 4_555 4_556 yes
Si4 Sc1 Si5 80.79(4) 7_554 4_555 yes
Si4 Sc1 Si5 160.02(4) 8_555 4_555 yes
Si4 Sc1 Si6 87.55(4) 4_556 4_556 yes
Si4 Sc1 Si4 137.39(4) 4_556 7_554 yes
Si4 Sc1 Si4 52.73(3) 4_556 8_555 yes
Si4 Sc1 Si6 133.72(4) 7_554 4_556 yes
Si4 Sc1 Si6 139.02(4) 8_555 4_556 yes
Si4 Sc1 Si4 84.67(3) 7_554 8_555 yes
Mo1 Si4 Mo2 71.91(3) . . yes
Mo1 Si4 Mo1 140.71(4) . 2_555 yes
Mo1 Si4 Sc1 70.80(3) . 3_555 yes
Mo1 Si4 Sc1 143.26(4) . 4_546 yes
Mo1 Si4 Si4 135.82(5) . 5_556 yes
Mo1 Si4 Mo1 86.22(3) . 6_455 yes
Mo1 Si4 Sc1 89.05(3) . 7_545 yes
Mo1 Si4 Sc1 81.36(3) . 8_555 yes
Mo1 Si4 Mo2 140.66(4) 2_555 . yes
Mo2 Si4 Sc1 128.86(4) . 3_555 yes
Mo2 Si4 Sc1 71.47(3) . 4_546 yes
Mo2 Si4 Si4 114.74(4) . 5_556 yes
Mo1 Si4 Mo2 69.22(3) 6_455 . yes
Mo2 Si4 Sc1 73.92(3) . 7_545 yes
Mo2 Si4 Sc1 132.47(4) . 8_555 yes
Mo1 Si4 Sc1 70.26(3) 2_555 3_555 yes
Mo1 Si4 Sc1 72.48(3) 2_555 4_546 yes
Mo1 Si4 Si4 61.65(3) 2_555 5_556 yes
Mo1 Si4 Mo1 121.53(4) 2_555 6_455 yes
Mo1 Si4 Sc1 83.77(3) 2_555 7_545 yes
Mo1 Si4 Sc1 82.91(3) 2_555 8_555 yes
Sc1 Si4 Sc1 133.83(4) 3_555 4_546 yes
Sc1 Si4 Si4 116.37(4) 3_555 5_556 yes
Mo1 Si4 Sc1 139.66(4) 6_455 3_555 yes
Sc1 Si4 Sc1 71.74(3) 3_555 7_545 yes
Sc1 Si4 Sc1 73.53(3) 3_555 8_555 yes
Sc1 Si4 Si4 65.32(3) 4_546 5_556 yes
Mo1 Si4 Sc1 83.77(3) 6_455 4_546 yes
Sc1 Si4 Sc1 78.08(3) 4_546 7_545 yes
Sc1 Si4 Sc1 127.27(4) 4_546 8_555 yes
Mo1 Si4 Si4 59.87(3) 6_455 5_556 yes
Sc1 Si4 Si4 135.12(5) 7_545 5_556 yes
Sc1 Si4 Si4 61.95(3) 8_555 5_556 yes
Mo1 Si4 Sc1 142.47(4) 6_455 7_545 yes
Mo1 Si4 Sc1 70.48(3) 6_455 8_555 yes
Sc1 Si4 Sc1 145.22(4) 7_545 8_555 yes
Mo1 Si5 Mo2 69.29(3) . . yes
Mo1 Si5 Si6 62.95(4) . 1_554 yes
Mo1 Si5 Mo1 137.34(6) . 3_455 yes
Mo1 Si5 Mo2 139.57(2) . 3_455 yes
Mo1 Si5 Sc1 71.48(2) . 4_545 yes
Mo1 Si5 Sc1 125.13(5) . 5_565 yes
Mo1 Si5 Mo1 86.45(2) . 6_455 yes
Mo1 Si5 Mo1 78.18(4) . 8_555 yes
Mo2 Si5 Si6 117.03(6) . 1_554 yes
Mo1 Si5 Mo2 68.06(3) 3_455 . yes
Mo2 Si5 Mo2 128.39(5) . 3_455 yes
Mo2 Si5 Sc1 133.35(3) . 4_545 yes
Mo2 Si5 Sc1 133.35(3) . 5_565 yes
Mo1 Si5 Mo2 68.06(3) 6_455 . yes
Mo1 Si5 Mo2 69.29(3) 8_555 . yes
Mo1 Si5 Si6 140.74(2) 3_455 1_554 yes
Mo2 Si5 Si6 114.58(6) 3_455 1_554 yes
Sc1 Si5 Si6 62.69(3) 4_545 1_554 yes
Sc1 Si5 Si6 62.69(3) 5_565 1_554 yes
Mo1 Si5 Si6 140.74(2) 6_455 1_554 yes
Mo1 Si5 Si6 62.95(4) 8_555 1_554 yes
Mo1 Si5 Mo2 72.55(3) 3_455 3_455 yes
Mo1 Si5 Sc1 144.71(5) 3_455 4_545 yes
Mo1 Si5 Sc1 85.45(2) 3_455 5_565 yes
Mo1 Si5 Mo1 78.44(4) 3_455 6_455 yes
Mo1 Si5 Mo1 86.45(2) 3_455 8_555 yes
Mo2 Si5 Sc1 72.72(3) 3_455 4_545 yes
Mo2 Si5 Sc1 72.72(3) 3_455 5_565 yes
Mo1 Si5 Mo2 72.55(3) 6_455 3_455 yes
Mo1 Si5 Mo2 139.57(2) 8_555 3_455 yes
Sc1 Si5 Sc1 90.18(4) 4_545 5_565 yes
Mo1 Si5 Sc1 85.45(2) 6_455 4_545 yes
Mo1 Si5 Sc1 125.13(5) 8_555 4_545 yes
Mo1 Si5 Sc1 144.71(5) 6_455 5_565 yes
Mo1 Si5 Sc1 71.48(2) 8_555 5_565 yes
Mo1 Si5 Mo1 137.34(6) 6_455 8_555 yes
Mo1 Si6 Mo2 140.12(3) 1_556 . yes
Mo2 Si6 Si5 115.30(6) . 1_556 yes
Mo2 Si6 Sc1 74.42(3) . 2_565 yes
Mo2 Si6 Mo2 131.34(6) . 3_556 yes
Mo2 Si6 Sc1 72.12(3) . 4_546 yes
Mo2 Si6 Sc1 72.12(3) . 5_566 yes
Mo2 Si6 Sc1 74.42(3) . 7_545 yes
Mo1 Si6 Mo2 140.12(3) 8_556 . yes
Mo1 Si6 Si5 59.04(4) 1_556 1_556 yes
Mo1 Si6 Sc1 141.32(5) 1_556 2_565 yes
Mo1 Si6 Mo2 69.39(3) 1_556 3_556 yes
Mo1 Si6 Sc1 70.77(2) 1_556 4_546 yes
Mo1 Si6 Sc1 122.89(5) 1_556 5_566 yes
Mo1 Si6 Sc1 83.62(2) 1_556 7_545 yes
Mo1 Si6 Mo1 74.76(4) 1_556 8_556 yes
Sc1 Si6 Si5 132.70(2) 2_565 1_556 yes
Mo2 Si6 Si5 113.36(6) 3_556 1_556 yes
Sc1 Si6 Si5 64.34(3) 4_546 1_556 yes
Sc1 Si6 Si5 64.34(3) 5_566 1_556 yes
Sc1 Si6 Si5 132.70(2) 7_545 1_556 yes
Mo1 Si6 Si5 59.04(4) 8_556 1_556 yes
Mo2 Si6 Sc1 73.12(3) 3_556 2_565 yes
Sc1 Si6 Sc1 146.53(6) 2_565 4_546 yes
Sc1 Si6 Sc1 77.22(2) 2_565 5_566 yes
Sc1 Si6 Sc1 94.53(4) 2_565 7_545 yes
Mo1 Si6 Sc1 83.62(2) 8_556 2_565 yes
Mo2 Si6 Sc1 132.18(3) 3_556 4_546 yes
Mo2 Si6 Sc1 132.18(3) 3_556 5_566 yes
Mo2 Si6 Sc1 73.12(3) 3_556 7_545 yes
Mo1 Si6 Mo2 69.39(3) 8_556 3_556 yes
Sc1 Si6 Sc1 91.86(4) 4_546 5_566 yes
Sc1 Si6 Sc1 77.22(2) 4_546 7_545 yes
Mo1 Si6 Sc1 122.89(5) 8_556 4_546 yes
Sc1 Si6 Sc1 146.53(6) 5_566 7_545 yes
Mo1 Si6 Sc1 70.77(2) 8_556 5_566 yes
Mo1 Si6 Sc1 141.32(5) 8_556 7_545 yes
loop_
_geom_bond_atom_site_label_1
_geom_bond_atom_site_label_2
_geom_bond_distance
_geom_bond_site_symmetry_2
_geom_bond_publ_flag
Mo1 Si4 2.4826(10) . yes
Mo1 Si5 2.5245(11) . yes
Mo1 Si6 2.6219(11) 1_554 yes
Mo1 Si4 2.5250(11) 2_554 yes
Mo1 Si5 2.5174(11) 3_555 yes
Mo1 Si4 2.5693(10) 6_555 yes
Mo2 Si4 2.6129(10) . yes
Mo2 Si5 2.7330(14) . yes
Mo2 Si6 2.5464(14) . yes
Mo2 Si6 2.5486(14) 3_456 yes
Mo2 Si5 2.5426(14) 3_555 yes
Mo2 Si4 2.6129(10) 8_555 yes
Sc1 Si6 2.7179(11) 2_564 yes
Sc1 Si4 2.8896(12) 3_455 yes
Sc1 Si5 2.8188(12) 4_555 yes
Sc1 Si4 2.7596(12) 4_556 yes
Sc1 Si6 2.7786(11) 4_556 yes
Sc1 Si4 2.6857(11) 7_554 yes
Sc1 Si4 2.8411(12) 8_555 yes
Si4 Si4 2.4885(13) 5_556 yes
Si5 Si6 2.4967(19) 1_554 yes
