#------------------------------------------------------------------------------
#$Date: 2016-08-07 12:09:56 +0300 (Sun, 07 Aug 2016) $
#$Revision: 185456 $
#$URL: file:///home/coder/svn-repositories/cod/cif/7/03/98/7039848.cif $
#------------------------------------------------------------------------------
#
# This file is available in the Crystallography Open Database (COD),
# http://www.crystallography.net/
#
# All data on this site have been placed in the public domain by the
# contributors.
#
data_7039848
loop_
_publ_author_name
'Yin, Wenlong'
'Iyer, Abishek K.'
'Lin, Xinsong'
'Li, Chao'
'Yao, Jiyong'
'Mar, Arthur'
_publ_section_title
;
 Quaternary chalcogenides BaRE2In2Ch7 (RE = La-Nd; Ch = S, Se) containing
 InCh5 trigonal bipyramids.
;
_journal_issue                   31
_journal_name_full
'Dalton transactions (Cambridge, England : 2003)'
_journal_page_first              12329
_journal_page_last               12337
_journal_paper_doi               10.1039/c6dt02385a
_journal_volume                  45
_journal_year                    2016
_chemical_formula_structural     'Ba Ce2 In2 Se7'
_chemical_formula_sum            'Ba Ce2 In2 Se7'
_chemical_formula_weight         1199.94
_chemical_name_common            'barium cerium indium selenide (1/2/2/7)'
_chemical_name_systematic        'barium cerium indium selenide (1/2/2/7)'
_space_group_crystal_system      orthorhombic
_space_group_IT_number           55
_space_group_name_Hall           '-P 2 2ab'
_space_group_name_H-M_alt        'P b a m'
_symmetry_space_group_name_Hall  '-P 2 2ab'
_symmetry_space_group_name_H-M   'P b a m'
_audit_creation_method           SHELXL-2014/7
_cell_angle_alpha                90
_cell_angle_beta                 90
_cell_angle_gamma                90
_cell_formula_units_Z            2
_cell_length_a                   12.1364(7)
_cell_length_b                   12.8927(8)
_cell_length_c                   4.1741(3)
_cell_measurement_reflns_used    3321
_cell_measurement_temperature    296(2)
_cell_measurement_theta_max      30.72
_cell_measurement_theta_min      2.30
_cell_volume                     653.13(7)
_computing_cell_refinement       'Bruker SAINT 8.34A (Bruker, 2013)'
_computing_data_collection       'Bruker APEX 2 (Bruker, 2008)'
_computing_data_reduction        'Bruker SAINT 8.34A'
_computing_molecular_graphics    'ATOMS 5.1 (Dowty, 1999)'
_computing_publication_material  'SHELXL-2014/7 (Sheldrick, 2014)'
_computing_structure_refinement  'SHELXL-2014/7 (Sheldrick, 2014)'
_computing_structure_solution    'SHELXS-97 (Sheldrick, 2008)'
_diffrn_ambient_temperature      296(2)
_diffrn_measured_fraction_theta_full 1.000
_diffrn_measured_fraction_theta_max 1.000
_diffrn_measurement_device_type  'Bruker PLATFORM/SMART APEX II CCD'
_diffrn_measurement_method       '\w and \f scans'
_diffrn_radiation_type           MoK\a
_diffrn_radiation_wavelength     0.71073
_diffrn_reflns_av_R_equivalents  0.0538
_diffrn_reflns_av_unetI/netI     0.0318
_diffrn_reflns_Laue_measured_fraction_full 1.000
_diffrn_reflns_Laue_measured_fraction_max 1.000
_diffrn_reflns_limit_h_max       18
_diffrn_reflns_limit_h_min       -18
_diffrn_reflns_limit_k_max       19
_diffrn_reflns_limit_k_min       -19
_diffrn_reflns_limit_l_max       6
_diffrn_reflns_limit_l_min       -6
_diffrn_reflns_number            9158
_diffrn_reflns_point_group_measured_fraction_full 1.000
_diffrn_reflns_point_group_measured_fraction_max 1.000
_diffrn_reflns_theta_full        25.242
_diffrn_reflns_theta_max         33.250
_diffrn_reflns_theta_min         2.305
_diffrn_source                   'fine-focus sealed tube'
_exptl_absorpt_coefficient_mu    32.729
_exptl_absorpt_correction_T_max  0.377
_exptl_absorpt_correction_T_min  0.274
_exptl_absorpt_correction_type   numerical
_exptl_absorpt_process_details   'SHELXL-2014/7 (Sheldrick, 2014)'
_exptl_crystal_colour            black
_exptl_crystal_density_diffrn    6.102
_exptl_crystal_description       prism
_exptl_crystal_F_000             1016
_exptl_crystal_size_max          0.059
_exptl_crystal_size_mid          0.044
_exptl_crystal_size_min          0.042
_refine_diff_density_max         1.787
_refine_diff_density_min         -2.328
_refine_diff_density_rms         0.369
_refine_ls_extinction_coef       0.00141(14)
_refine_ls_extinction_expression Fc^*^=kFc[1+0.001xFc^2^\l^3^/sin(2\q)]^-1/4^
_refine_ls_extinction_method     'SHELXL-2014/7 (Sheldrick 2014'
_refine_ls_goodness_of_fit_ref   1.148
_refine_ls_hydrogen_treatment    undef
_refine_ls_matrix_type           full
_refine_ls_number_parameters     40
_refine_ls_number_reflns         1403
_refine_ls_number_restraints     0
_refine_ls_restrained_S_all      1.148
_refine_ls_R_factor_all          0.0357
_refine_ls_R_factor_gt           0.0274
_refine_ls_shift/su_max          0.000
_refine_ls_shift/su_mean         0.000
_refine_ls_structure_factor_coef Fsqd
_refine_ls_weighting_details
'w=1/[\s^2^(Fo^2^)+(0.0211P)^2^+1.8173P] where P=(Fo^2^+2Fc^2^)/3'
_refine_ls_weighting_scheme      calc
_refine_ls_wR_factor_gt          0.0562
_refine_ls_wR_factor_ref         0.0590
_reflns_Friedel_coverage         0.000
_reflns_number_gt                1195
_reflns_number_total             1403
_reflns_threshold_expression     'I > 2\s(I)'
_cod_data_source_file            c6dt02385a2.cif
_cod_data_source_block           pbam
_cod_depositor_comments
'Adding full bibliography for 7039846--7039853.cif.'
_cod_database_code               7039848
_shelx_shelxl_version_number     2014/7
_shelx_space_group_comment
;
The symmetry employed for this shelxl refinement is uniquely defined
by the following loop, which should always be used as a source of
symmetry information in preference to the above space-group names.
They are only intended as comments.
;
_shelx_estimated_absorpt_t_min   0.248
_shelx_estimated_absorpt_t_max   0.340
_shelx_res_file
;

    pbam.res created by SHELXL-2014/7

TITL BaCe2In2Se7 Pbam ls5 final refinement
CELL 0.71073  12.13640  12.89270   4.17410  90.0000  90.0000  90.0000
ZERR    2.00   0.00070   0.00080   0.00030   0.0000   0.0000   0.0000
LATT  1
SYMM -X, -Y, Z
SYMM 0.5-X, 0.5+Y, -Z
SYMM 0.5+X, 0.5-Y, -Z
SFAC SE IN BA CE
UNIT 14 4 2 4
TEMP 23
SIZE 0.042 0.044 0.059

L.S. 4
ACTA

WGHT    0.021100    1.817300
EXTI    0.001411
FVAR       0.05511
BA    3    0.000000    0.500000    0.500000    10.25000    0.01972    0.02693 =
         0.01284    0.00000    0.00000    0.00617
CE    4    0.117335    0.141829    0.500000    10.50000    0.01555    0.01473 =
         0.01021    0.00000    0.00000    0.00068
IN    2    0.284796    0.377286    0.000000    10.50000    0.01896    0.01568 =
         0.01273    0.00000    0.00000    0.00259
SE1   1    0.359250    0.282614    0.500000    10.50000    0.01835    0.01714 =
         0.01141    0.00000    0.00000    0.00360
SE2   1    0.079230    0.304462    0.000000    10.50000    0.01427    0.01300 =
         0.01453    0.00000    0.00000    0.00038
SE3   1    0.287310    0.064781    0.000000    10.50000    0.01347    0.01327 =
         0.01578    0.00000    0.00000    0.00012
SE4   1    0.000000    0.000000    0.000000    10.25000    0.01477    0.01466 =
         0.01457    0.00000    0.00000   -0.00235
HKLF 4

REM  BaCe2In2Se7 Pbam ls5 final refinement
REM R1 =  0.0274 for    1195 Fo > 4sig(Fo)  and  0.0357 for all    1403 data
REM     40 parameters refined using      0 restraints

END

WGHT      0.0211      1.8144

REM Highest difference peak  1.787,  deepest hole -2.328,  1-sigma level  0.369
Q1    1   0.0739  0.4094  0.0000  10.50000  0.05    1.79
Q2    1   0.0487  0.6119  0.5000  10.50000  0.05    1.65
Q3    1  -0.0450  0.0611  0.0000  10.50000  0.05    1.65
Q4    1   0.1611  0.3008  0.0000  10.50000  0.05    1.54
Q5    1   0.4192  0.3384  0.0000  10.50000  0.05    1.48
Q6    1   0.3326  0.2478  0.0000  10.50000  0.05    1.43
Q7    1   0.0392  0.0570  0.0000  10.50000  0.05    1.38
Q8    1   0.3192  0.1427  0.5000  10.50000  0.05    1.32
Q9    1   0.1380  0.3715  0.0000  10.50000  0.05    1.32
Q10   1   0.4175  0.2961  0.5000  10.50000  0.05    1.32
Q11   1   0.2029  0.0597  0.0000  10.50000  0.05    1.32
Q12   1   0.0998  0.2368  0.0000  10.50000  0.05    1.29
Q13   1   0.0196  0.3258 -0.5000  10.50000  0.05    1.23
Q14   1   0.4850  0.3266  0.5000  10.50000  0.05    1.19
Q15   1   0.1087  0.1380  0.3053  11.00000  0.05    1.18
Q16   1   0.3784  0.3372  0.5000  10.50000  0.05    1.16
Q17   1   0.2418  0.3691  0.5000  10.50000  0.05    1.15
Q18   1   0.2408 -0.0035  0.0000  10.50000  0.05    1.14
Q19   1   0.3199  0.4599  0.0000  10.50000  0.05    1.12
Q20   1   0.3986 -0.0117  0.0000  10.50000  0.05    1.12
;
_shelx_res_checksum              16802
_shelx_hkl_file
;
  -1  -7  -6    6.49    1.98
   0  -7  -6   -0.29    0.96
  -3  -6  -6   33.11    4.26
  -2  -6  -6   14.27    2.00
  -1  -6  -6   -0.13    0.67
   0  -6  -6    8.52    1.59
   1  -6  -6    1.29    1.15
  -3  -5  -6    0.41    0.69
  -2  -5  -6   16.19    2.05
  -1  -5  -6    1.83    0.82
   0  -5  -6    0.55    0.69
   1  -5  -6    3.39    1.06
   2  -5  -6   27.94    3.85
  -4  -4  -6    5.68    2.16
  -3  -4  -6   -0.29    0.68
  -2  -4  -6   14.32    1.94
  -1  -4  -6    3.94    1.04
   0  -4  -6    3.94    1.09
   1  -4  -6    4.47    1.13
   2  -4  -6   19.25    2.25
   3  -4  -6    0.09    0.94
  -4  -3  -6    1.72    1.22
  -3  -3  -6   11.36    1.71
  -2  -3  -6    0.39    0.67
  -1  -3  -6    5.74    1.20
   0  -3  -6   -0.35    0.59
   1  -3  -6    8.63    1.46
   2  -3  -6    0.30    0.63
   3  -3  -6    7.86    2.00
   4  -3  -6    2.79    1.35
  -5  -2  -6    3.83    2.46
  -4  -2  -6   29.62    4.22
  -3  -2  -6    4.35    1.74
  -2  -2  -6    0.49    0.64
  -1  -2  -6   -0.57    0.52
   0  -2  -6    0.13    0.58
   1  -2  -6    0.21    0.58
   2  -2  -6    1.04    0.69
   3  -2  -6    7.38    1.35
   4  -2  -6   29.99    4.01
   5  -2  -6    5.79    2.58
  -5  -1  -6    2.39    1.52
  -4  -1  -6   17.77    3.19
  -3  -1  -6    3.25    1.52
  -2  -1  -6    1.33    0.70
  -1  -1  -6    0.77    0.62
   0  -1  -6    0.18    0.54
   1  -1  -6    0.48    0.65
   2  -1  -6    1.57    0.76
   3  -1  -6    7.43    1.41
   4  -1  -6   19.89    3.09
   5  -1  -6    1.09    1.15
   6  -1  -6    7.12    2.15
  -5   0  -6    0.07    0.94
  -4   0  -6    1.13    1.04
  -3   0  -6   -0.32    0.79
  -2   0  -6    0.22    0.56
  -1   0  -6    0.36    0.59
   0   0  -6  186.62    7.10
   1   0  -6    0.13    0.54
   2   0  -6    0.47    0.63
   3   0  -6    0.24    0.60
   4   0  -6    0.96    0.75
   5   0  -6   -0.09    0.76
   6   0  -6   -0.19    0.87
  -5   1  -6    1.57    1.26
  -4   1  -6   17.32    3.10
  -3   1  -6   10.61    2.50
  -2   1  -6    1.50    0.82
  -1   1  -6    0.15    0.58
   0   1  -6   -0.29    0.50
   1   1  -6    0.23    0.62
   2   1  -6    0.40    0.69
   3   1  -6    7.97    1.42
   4   1  -6   16.89    2.08
   5   1  -6    2.44    1.31
   6   1  -6    8.80    2.33
  -4   2  -6   27.61    4.12
  -3   2  -6    8.89    2.37
  -2   2  -6    1.08    1.20
  -1   2  -6    0.08    0.55
   0   2  -6   -0.19    0.51
   1   2  -6   -0.73    0.50
   2   2  -6   -0.08    0.58
   3   2  -6    6.19    1.27
   4   2  -6   33.98    2.99
   5   2  -6    5.36    1.14
   6   2  -6    3.06    1.41
  -4   3  -6    1.12    1.03
  -3   3  -6    9.82    2.37
  -2   3  -6    0.09    0.87
  -1   3  -6    8.22    1.44
   0   3  -6   -0.58    0.53
   1   3  -6    8.57    1.43
   2   3  -6    0.85    0.71
   3   3  -6   12.80    1.85
   4   3  -6    1.33    0.79
   5   3  -6    0.34    0.77
   6   3  -6   21.39    3.35
  -3   4  -6   -0.23    0.94
  -2   4  -6   20.75    3.51
  -1   4  -6    1.73    0.90
   0   4  -6    4.73    1.15
   1   4  -6    5.95    1.30
   2   4  -6   19.59    2.24
   3   4  -6    0.60    0.65
   4   4  -6    4.24    1.19
   5   4  -6    0.69    0.74
  -2   5  -6   12.56    3.08
  -1   5  -6    2.73    1.53
   0   5  -6    0.46    0.66
   1   5  -6    3.55    0.99
   2   5  -6   14.99    1.99
   3   5  -6    0.79    0.73
   4   5  -6   -0.63    0.97
   0   6  -6   13.79    2.61
   1   6  -6   -0.36    0.88
   2   6  -6   13.43    2.54
   1   7  -6    3.97    1.43
  -3 -12  -5    3.66    1.72
  -2 -12  -5    2.82    1.46
  -5 -11  -5    0.29    1.11
  -4 -11  -5    1.26    0.91
  -3 -11  -5   -0.32    0.59
  -2 -11  -5    9.21    1.58
  -1 -11  -5   17.25    2.16
   0 -11  -5    0.30    0.84
   1 -11  -5   15.67    2.78
   2 -11  -5    6.06    1.85
   3 -11  -5    0.45    1.00
  -6 -10  -5   10.25    1.99
  -5 -10  -5    3.22    1.03
  -4 -10  -5    8.29    1.44
  -3 -10  -5    4.83    1.20
  -2 -10  -5    2.50    0.92
  -1 -10  -5   11.80    1.72
   0 -10  -5    5.44    1.19
   1 -10  -5   13.24    2.69
   2 -10  -5    0.88    0.86
   3 -10  -5    7.56    2.01
   4 -10  -5   14.74    2.77
   5 -10  -5    0.93    1.11
   6 -10  -5    7.19    1.76
   7 -10  -5    0.33    0.98
  -7  -9  -5    2.41    1.59
  -6  -9  -5    4.88    1.26
  -5  -9  -5   23.07    2.46
  -4  -9  -5    3.00    0.97
  -3  -9  -5    0.55    0.63
  -2  -9  -5   37.77    3.09
  -1  -9  -5    3.64    1.02
   0  -9  -5    0.12    0.54
   1  -9  -5    6.10    1.76
   2  -9  -5   41.84    4.72
   3  -9  -5    1.15    1.07
   4  -9  -5    1.67    1.17
   5  -9  -5   25.07    2.52
   6  -9  -5    7.17    1.42
   7  -9  -5    5.20    1.17
   8  -9  -5    5.23    1.84
  -9  -8  -5    6.22    1.81
  -8  -8  -5    1.18    0.99
  -7  -8  -5    1.22    1.20
  -6  -8  -5    0.43    0.92
  -5  -8  -5   10.84    1.67
  -4  -8  -5    8.00    1.35
  -3  -8  -5    6.04    1.23
  -2  -8  -5    8.71    1.42
  -1  -8  -5   10.67    1.53
   0  -8  -5   13.63    1.77
   1  -8  -5    9.59    1.54
   2  -8  -5    7.93    2.01
   3  -8  -5   10.24    2.24
   4  -8  -5    5.39    1.67
   5  -8  -5   11.78    1.71
   6  -8  -5    0.89    0.67
   7  -8  -5    3.35    1.04
   8  -8  -5    1.94    0.81
  -9  -7  -5    0.18    0.92
  -8  -7  -5    6.19    1.30
  -7  -7  -5    4.10    1.55
  -6  -7  -5    4.85    1.67
  -5  -7  -5   52.69    3.18
  -4  -7  -5    0.16    0.52
  -3  -7  -5    1.87    0.79
  -2  -7  -5    2.00    0.76
  -1  -7  -5    7.53    1.30
   0  -7  -5    0.13    0.52
   1  -7  -5    8.39    1.41
   2  -7  -5    2.67    0.87
   3  -7  -5    1.94    1.00
   4  -7  -5   -0.01    0.69
   5  -7  -5   51.30    3.07
   6  -7  -5    2.78    0.95
   7  -7  -5    2.58    0.90
   8  -7  -5    3.62    1.02
   9  -7  -5    1.65    0.80
 -10  -6  -5    5.52    1.72
  -9  -6  -5    3.04    1.01
  -8  -6  -5    5.79    1.21
  -7  -6  -5    7.45    1.40
  -6  -6  -5   -0.11    0.77
  -5  -6  -5    6.47    1.25
  -4  -6  -5    0.04    0.53
  -3  -6  -5    1.83    0.75
  -2  -6  -5    0.43    0.55
  -1  -6  -5   50.70    3.02
   0  -6  -5   11.48    1.60
   1  -6  -5   49.29    2.88
   2  -6  -5    0.02    0.47
   3  -6  -5    2.01    1.13
   4  -6  -5    0.19    0.51
   5  -6  -5    3.35    0.92
   6  -6  -5    0.47    0.54
   7  -6  -5    3.46    0.96
   8  -6  -5    5.01    1.16
   9  -6  -5    4.34    1.11
  10  -6  -5    5.31    1.76
 -10  -5  -5   12.65    1.86
  -9  -5  -5    3.98    1.08
  -8  -5  -5    0.41    0.59
  -7  -5  -5   14.98    1.91
  -6  -5  -5   11.11    2.43
  -5  -5  -5    5.63    1.18
  -4  -5  -5   -0.56    0.42
  -3  -5  -5   24.29    2.33
  -2  -5  -5   23.27    2.29
  -1  -5  -5    0.05    0.46
   0  -5  -5   -0.26    0.39
   1  -5  -5   -0.14    0.40
   2  -5  -5   23.82    2.28
   3  -5  -5   16.35    1.80
   4  -5  -5   -0.17    0.45
   5  -5  -5    6.32    1.19
   6  -5  -5   15.45    1.86
   7  -5  -5   16.27    2.05
   8  -5  -5   -0.05    0.52
   9  -5  -5    4.90    1.15
  10  -5  -5   11.41    1.67
 -10  -4  -5   -0.10    0.62
  -9  -4  -5    5.52    1.22
  -8  -4  -5    2.93    0.90
  -7  -4  -5    1.94    0.70
  -6  -4  -5    4.97    1.08
  -5  -4  -5    5.27    1.11
  -4  -4  -5   27.65    2.50
  -3  -4  -5    0.85    0.55
  -2  -4  -5    9.10    1.44
  -1  -4  -5    8.63    1.35
   0  -4  -5    1.33    0.63
   1  -4  -5    7.62    1.30
   2  -4  -5    7.75    1.26
   3  -4  -5    1.01    0.45
   4  -4  -5   28.89    2.50
   5  -4  -5    4.01    0.97
   6  -4  -5    3.43    0.89
   7  -4  -5    1.55    0.69
   8  -4  -5    1.39    0.67
   9  -4  -5    7.68    1.36
  10  -4  -5   -0.23    0.51
  11  -4  -5    1.75    1.34
 -11  -3  -5    6.85    1.68
 -10  -3  -5    9.05    1.50
  -9  -3  -5    5.53    1.14
  -8  -3  -5   12.58    1.73
  -7  -3  -5   38.48    3.05
  -6  -3  -5    0.11    0.55
  -5  -3  -5   15.73    2.79
  -4  -3  -5    7.05    1.20
  -3  -3  -5    0.81    0.54
  -2  -3  -5   46.48    2.69
  -1  -3  -5   67.13    3.34
   0  -3  -5   -0.44    0.37
   1  -3  -5   60.87    3.21
   2  -3  -5   45.37    2.65
   3  -3  -5    1.50    0.49
   4  -3  -5    6.00    0.90
   5  -3  -5   22.77    2.19
   6  -3  -5    0.11    0.44
   7  -3  -5   34.43    2.83
   8  -3  -5   12.59    1.67
   9  -3  -5    6.19    1.26
  10  -3  -5   10.16    1.60
  11  -3  -5    4.77    1.66
 -11  -2  -5    6.29    1.28
 -10  -2  -5    0.36    0.61
  -9  -2  -5    0.18    0.56
  -8  -2  -5    1.52    0.69
  -7  -2  -5   13.88    1.74
  -6  -2  -5    1.41    0.61
  -5  -2  -5   -0.21    0.44
  -4  -2  -5    5.52    1.10
  -3  -2  -5    9.63    1.40
  -2  -2  -5   13.82    1.69
  -1  -2  -5   22.77    2.12
   0  -2  -5    3.36    0.89
   1  -2  -5   21.40    2.07
   2  -2  -5   10.83    1.48
   3  -2  -5    9.70    1.12
   4  -2  -5    4.16    0.75
   5  -2  -5    0.11    0.44
   6  -2  -5    2.38    0.75
   7  -2  -5   12.45    1.66
   8  -2  -5    3.42    0.93
   9  -2  -5    1.39    0.73
  10  -2  -5    0.21    0.58
  11  -2  -5   10.93    2.34
 -11  -1  -5    5.23    1.21
 -10  -1  -5   17.28    2.10
  -9  -1  -5    0.31    0.56
  -8  -1  -5   12.30    1.69
  -7  -1  -5    2.03    0.69
  -6  -1  -5    1.14    0.61
  -5  -1  -5   42.10    2.71
  -4  -1  -5    7.24    1.22
  -3  -1  -5   24.77    2.27
  -2  -1  -5    0.51    0.47
  -1  -1  -5   -0.10    0.38
   0  -1  -5   -0.10    0.35
   1  -1  -5    0.70    0.47
   2  -1  -5    0.81    0.52
   3  -1  -5   22.98    1.75
   4  -1  -5    6.38    0.94
   5  -1  -5   37.94    2.06
   6  -1  -5    0.72    0.55
   7  -1  -5    1.33    0.69
   8  -1  -5   15.76    1.86
   9  -1  -5    0.33    0.57
  10  -1  -5   21.74    2.37
  11  -1  -5    3.85    1.09
 -11   0  -5   -0.29    0.53
 -10   0  -5    5.07    1.22
  -9   0  -5    0.25    0.57
  -8   0  -5   60.42    3.38
  -7   0  -5    0.25    0.48
  -6   0  -5   13.62    1.68
  -5   0  -5   -0.38    0.42
  -4   0  -5   69.13    4.16
  -3   0  -5   -0.09    0.36
  -2   0  -5   19.19    1.95
  -1   0  -5    0.24    0.44
   0   0  -5    0.16    0.41
   1   0  -5   -0.17    0.33
   2   0  -5   19.74    1.58
   3   0  -5   -0.21    0.31
   4   0  -5   62.76    2.61
   5   0  -5    0.13    0.35
   6   0  -5   14.50    1.78
   7   0  -5   -0.14    0.47
   8   0  -5   63.12    3.45
   9   0  -5   -0.06    0.55
  10   0  -5    1.68    0.77
  11   0  -5    0.25    0.66
 -11   1  -5    3.63    1.04
 -10   1  -5   20.72    2.31
  -9   1  -5   -0.16    0.55
  -8   1  -5   15.82    1.74
  -7   1  -5    3.39    0.95
  -6   1  -5    1.47    0.66
  -5   1  -5   43.03    2.73
  -4   1  -5    8.42    1.35
  -3   1  -5   24.76    2.19
  -2   1  -5    0.12    0.44
  -1   1  -5    0.52    0.44
   0   1  -5    0.01    0.32
   1   1  -5    0.40    0.45
   2   1  -5    0.42    0.37
   3   1  -5   26.36    1.82
   4   1  -5    7.02    1.00
   5   1  -5   41.06    2.29
   6   1  -5    1.02    0.52
   7   1  -5    1.90    0.75
   8   1  -5   12.33    1.69
   9   1  -5    0.20    0.53
  10   1  -5   22.13    2.37
  11   1  -5    1.12    0.80
 -11   2  -5   11.64    1.78
 -10   2  -5    0.21    0.59
  -9   2  -5    1.82    0.78
  -8   2  -5    1.17    0.68
  -7   2  -5   12.51    1.68
  -6   2  -5    1.20    0.64
  -5   2  -5    0.17    0.47
  -4   2  -5    4.62    0.94
  -3   2  -5    9.02    1.28
  -2   2  -5   13.95    1.69
  -1   2  -5   19.58    1.99
   0   2  -5    3.36    0.85
   1   2  -5   21.57    2.13
   2   2  -5   12.08    1.23
   3   2  -5    9.17    1.08
   4   2  -5    2.54    0.65
   5   2  -5   -0.10    0.34
   6   2  -5    0.80    0.50
   7   2  -5   13.93    1.76
   8   2  -5    3.10    0.92
   9   2  -5    1.39    0.66
  10   2  -5    0.38    0.69
  11   2  -5   10.37    2.28
 -11   3  -5    3.87    1.61
 -10   3  -5   12.10    1.80
  -9   3  -5    8.82    1.49
  -8   3  -5   14.88    1.89
  -7   3  -5   43.14    2.93
  -6   3  -5    0.62    0.49
  -5   3  -5   17.12    1.89
  -4   3  -5    5.59    1.09
  -3   3  -5    1.68    0.69
  -2   3  -5   45.21    2.62
  -1   3  -5   64.33    3.24
   0   3  -5    0.35    0.47
   1   3  -5   67.80    2.86
   2   3  -5   42.85    2.10
   3   3  -5    1.18    0.49
   4   3  -5    3.66    0.69
   5   3  -5   18.26    1.59
   6   3  -5    0.36    0.41
   7   3  -5   37.26    2.38
   8   3  -5   10.01    1.56
   9   3  -5    8.22    1.44
  10   3  -5   14.58    1.85
 -11   4  -5    0.97    1.20
 -10   4  -5    0.09    0.60
  -9   4  -5    8.40    1.45
  -8   4  -5    2.95    0.89
  -7   4  -5    2.41    0.83
  -6   4  -5    4.26    1.04
  -5   4  -5    4.66    0.97
  -4   4  -5   27.50    2.41
  -3   4  -5    1.23    0.68
  -2   4  -5   11.06    1.45
  -1   4  -5    6.39    1.10
   0   4  -5    0.32    0.49
   1   4  -5    6.12    0.89
   2   4  -5   10.15    1.15
   3   4  -5    0.65    0.40
   4   4  -5   29.21    2.08
   5   4  -5    4.87    0.84
   6   4  -5    3.64    0.73
   7   4  -5    3.59    0.83
   8   4  -5    2.29    0.86
   9   4  -5    8.78    1.46
  10   4  -5    0.10    0.61
 -10   5  -5   11.87    1.77
  -9   5  -5    5.60    1.26
  -8   5  -5    1.18    0.75
  -7   5  -5   15.37    1.90
  -6   5  -5   18.14    2.03
  -5   5  -5    7.49    1.28
  -4   5  -5   -0.52    0.40
  -3   5  -5   19.01    2.01
  -2   5  -5   25.03    2.26
  -1   5  -5    0.28    0.44
   0   5  -5    0.06    0.37
   1   5  -5    0.08    0.44
   2   5  -5   25.66    1.85
   3   5  -5   18.62    1.61
   4   5  -5   -0.56    0.30
   5   5  -5    6.95    1.02
   6   5  -5   16.91    1.63
   7   5  -5   15.22    1.53
   8   5  -5   -0.44    0.47
   9   5  -5    4.00    1.04
  10   5  -5   13.15    2.31
 -10   6  -5    6.82    1.91
  -9   6  -5    6.19    1.34
  -8   6  -5    3.63    0.98
  -7   6  -5    4.67    1.16
  -6   6  -5   -0.33    0.47
  -5   6  -5    9.64    1.47
  -4   6  -5    0.31    0.51
  -3   6  -5    0.93    0.58
  -2   6  -5    0.50    0.58
  -1   6  -5   47.85    2.84
   0   6  -5   11.08    1.48
   1   6  -5   57.78    3.10
   2   6  -5    0.99    0.59
   3   6  -5    1.92    0.59
   4   6  -5   -0.15    0.30
   5   6  -5    7.23    1.06
   6   6  -5    0.14    0.44
   7   6  -5    6.76    1.07
   8   6  -5    3.96    0.83
   9   6  -5    2.27    0.85
  -9   7  -5   -0.07    0.68
  -8   7  -5    4.59    1.17
  -7   7  -5    2.50    0.88
  -6   7  -5    1.47    0.82
  -5   7  -5   56.97    3.23
  -4   7  -5    0.63    0.59
  -3   7  -5    1.78    0.73
  -2   7  -5    5.47    1.78
  -1   7  -5    8.23    1.26
   0   7  -5   -0.05    0.46
   1   7  -5    6.51    1.23
   2   7  -5    2.83    0.88
   3   7  -5    0.94    0.59
   4   7  -5    0.55    0.56
   5   7  -5   54.24    2.58
   6   7  -5    3.41    0.81
   7   7  -5    3.12    0.78
   8   7  -5    4.73    0.91
  -9   8  -5    8.83    2.35
  -8   8  -5    1.78    0.84
  -7   8  -5    6.72    1.32
  -6   8  -5    1.05    0.72
  -5   8  -5    8.87    1.38
  -4   8  -5    7.37    1.35
  -3   8  -5    6.99    1.30
  -2   8  -5    4.96    1.16
  -1   8  -5    7.78    1.28
   0   8  -5   10.43    1.53
   1   8  -5   10.73    1.53
   2   8  -5    4.68    1.06
   3   8  -5    5.30    1.18
   4   8  -5   10.18    1.58
   5   8  -5   11.16    1.62
   6   8  -5    0.70    0.68
   7   8  -5    5.06    1.20
   8   8  -5    1.44    0.76
   9   8  -5    6.72    2.63
  -8   9  -5    4.74    1.70
  -7   9  -5    4.74    1.22
  -6   9  -5    5.68    1.24
  -5   9  -5   31.46    2.90
  -4   9  -5    0.75    0.65
  -3   9  -5    2.11    0.80
  -2   9  -5   30.83    2.81
  -1   9  -5    6.14    1.90
   0   9  -5   -0.16    0.48
   1   9  -5    3.67    0.98
   2   9  -5   34.48    2.99
   3   9  -5    0.73    0.67
   4   9  -5    2.71    0.88
   5   9  -5   25.63    2.57
   6   9  -5    8.40    1.52
   7   9  -5    5.34    1.41
   8   9  -5    8.46    2.28
  -7  10  -5    0.57    1.26
  -6  10  -5    9.47    1.65
  -5  10  -5    3.42    1.04
  -4  10  -5   12.42    1.84
  -3  10  -5    7.28    1.39
  -2  10  -5    1.51    0.80
  -1  10  -5   12.27    2.73
   0  10  -5    6.48    1.19
   1  10  -5   11.24    1.61
   2  10  -5    2.26    0.83
   3  10  -5    6.47    1.27
   4  10  -5   11.88    1.75
   5  10  -5    3.16    0.98
   6  10  -5    6.69    1.65
  -5  11  -5    0.56    0.79
  -4  11  -5    1.33    0.76
  -3  11  -5   -0.43    0.63
  -2  11  -5    8.71    1.54
  -1  11  -5   17.47    3.38
   0  11  -5    0.24    0.95
   1  11  -5   16.97    2.03
   2  11  -5    7.95    1.48
   3  11  -5   -0.27    0.61
   4  11  -5    2.53    1.25
  -3  12  -5    2.69    1.51
  -2  12  -5    0.43    0.95
   1  12  -5    1.36    1.13
   2  12  -5    1.23    1.01
  -3 -15  -4    1.66    1.29
  -2 -15  -4    1.85    1.25
  -6 -14  -4    1.41    1.50
  -5 -14  -4    5.92    1.34
  -4 -14  -4    4.50    1.08
  -3 -14  -4    0.07    0.61
  -2 -14  -4    1.65    0.77
  -1 -14  -4    1.65    1.20
   0 -14  -4   45.31    5.08
   1 -14  -4    3.36    1.51
   2 -14  -4    1.23    1.06
   3 -14  -4    1.23    1.05
   4 -14  -4    4.22    1.15
   5 -14  -4    3.78    1.07
   6 -14  -4    2.73    1.28
  -8 -13  -4    0.67    0.77
  -7 -13  -4    6.10    1.14
  -6 -13  -4   12.63    1.47
  -5 -13  -4   41.63    3.46
  -4 -13  -4   12.09    1.76
  -3 -13  -4    0.01    0.57
  -2 -13  -4    0.34    0.58
  -1 -13  -4    3.39    0.90
   0 -13  -4   -0.40    0.70
   1 -13  -4    2.35    1.08
   2 -13  -4    0.99    0.83
   3 -13  -4   -0.01    0.77
   4 -13  -4   13.18    1.79
   5 -13  -4   35.69    3.08
   6 -13  -4   13.42    1.87
   7 -13  -4    3.61    1.06
   8 -13  -4   -0.43    0.95
  -9 -12  -4    5.55    1.86
  -8 -12  -4    0.82    0.64
  -7 -12  -4    9.27    1.27
  -6 -12  -4   10.35    1.35
  -5 -12  -4    0.80    0.56
  -4 -12  -4   12.74    1.84
  -3 -12  -4    2.72    0.94
  -2 -12  -4   13.44    1.78
  -1 -12  -4   19.55    2.14
   0 -12  -4   15.23    1.88
   1 -12  -4   23.33    3.34
   2 -12  -4   16.73    2.71
   3 -12  -4    5.18    1.16
   4 -12  -4   11.64    1.58
   5 -12  -4    0.00    0.55
   6 -12  -4   11.22    1.67
   7 -12  -4    7.66    1.40
   8 -12  -4    0.51    0.69
   9 -12  -4    4.40    1.59
 -10 -11  -4    7.29    2.29
  -9 -11  -4   16.30    2.15
  -8 -11  -4    2.05    0.98
  -7 -11  -4    1.19    0.60
  -6 -11  -4    3.71    0.82
  -5 -11  -4    5.27    0.91
  -4 -11  -4    3.07    0.95
  -3 -11  -4   17.56    2.04
  -2 -11  -4    1.16    0.62
  -1 -11  -4   31.91    2.60
   0 -11  -4    0.02    0.45
   1 -11  -4   30.14    3.72
   2 -11  -4    2.33    1.11
   3 -11  -4   15.19    1.82
   4 -11  -4    1.59    0.73
   5 -11  -4    4.58    0.97
   6 -11  -4    5.64    1.19
   7 -11  -4    1.13    0.65
   8 -11  -4    0.40    0.67
   9 -11  -4    9.36    1.53
 -10 -10  -4    0.44    0.69
  -9 -10  -4    0.06    0.59
  -8 -10  -4    0.23    0.56
  -7 -10  -4    1.58    0.62
  -6 -10  -4    3.67    0.75
  -5 -10  -4    0.17    0.40
  -4 -10  -4   12.68    1.25
  -3 -10  -4   29.22    2.59
  -2 -10  -4   18.29    2.01
  -1 -10  -4   22.16    2.20
   0 -10  -4    1.35    0.60
   1 -10  -4   20.65    2.03
   2 -10  -4   18.43    1.96
   3 -10  -4   24.62    2.31
   4 -10  -4   12.10    1.62
   5 -10  -4   -0.24    0.49
   6 -10  -4    2.49    0.79
   7 -10  -4    1.46    0.72
   8 -10  -4    0.30    0.54
   9 -10  -4    0.15    0.57
  10 -10  -4    0.10    0.63
 -11  -9  -4    7.58    1.43
 -10  -9  -4   15.13    2.01
  -9  -9  -4    3.17    1.00
  -8  -9  -4    1.14    0.71
  -7  -9  -4    6.19    0.93
  -6  -9  -4   28.36    2.09
  -5  -9  -4   11.52    1.29
  -4  -9  -4    1.61    0.54
  -3  -9  -4   21.32    2.17
  -2  -9  -4    6.69    1.16
  -1  -9  -4    1.36    0.63
   0  -9  -4    0.16    0.41
   1  -9  -4    0.40    0.44
   2  -9  -4    5.42    0.83
   3  -9  -4   23.89    2.21
   4  -9  -4    0.59    0.48
   5  -9  -4   11.63    1.62
   6  -9  -4   36.23    2.90
   7  -9  -4    7.63    1.31
   8  -9  -4    0.33    0.52
   9  -9  -4    3.77    0.97
  10  -9  -4   14.44    1.80
  11  -9  -4   13.21    2.66
 -12  -8  -4    1.70    0.91
 -11  -8  -4    1.44    0.85
 -10  -8  -4    9.28    1.59
  -9  -8  -4    4.90    1.14
  -8  -8  -4   35.58    2.94
  -7  -8  -4    8.84    1.09
  -6  -8  -4   10.18    1.18
  -5  -8  -4    9.19    1.11
  -4  -8  -4    3.40    0.67
  -3  -8  -4   21.70    1.65
  -2  -8  -4    1.39    0.60
  -1  -8  -4   25.02    2.22
   0  -8  -4   25.69    2.20
   1  -8  -4   26.02    2.22
   2  -8  -4    0.27    0.35
   3  -8  -4   24.63    2.16
   4  -8  -4    3.08    0.80
   5  -8  -4    7.01    1.19
   6  -8  -4    9.71    1.44
   7  -8  -4    6.98    1.15
   8  -8  -4   34.39    2.78
   9  -8  -4    3.35    0.95
  10  -8  -4    9.05    1.19
  11  -8  -4    1.19    0.61
  12  -8  -4    0.98    1.12
 -12  -7  -4    2.35    0.92
 -11  -7  -4    0.51    0.57
 -10  -7  -4   -0.19    0.50
  -9  -7  -4   34.76    2.87
  -8  -7  -4    6.37    1.20
  -7  -7  -4   42.71    2.17
  -6  -7  -4    4.29    0.76
  -5  -7  -4    0.79    0.42
  -4  -7  -4   -0.06    0.30
  -3  -7  -4   15.22    1.30
  -2  -7  -4    6.16    1.11
  -1  -7  -4   13.34    1.56
   0  -7  -4    0.31    0.39
   1  -7  -4   14.48    1.25
   2  -7  -4    8.00    0.94
   3  -7  -4   16.18    1.36
   4  -7  -4    0.31    0.43
   5  -7  -4    1.38    0.61
   6  -7  -4    3.87    0.91
   7  -7  -4   37.95    2.17
   8  -7  -4    5.83    0.88
   9  -7  -4   35.56    2.33
  10  -7  -4    0.39    0.48
  11  -7  -4    0.30    0.46
  12  -7  -4    2.28    0.89
  13  -7  -4    6.30    2.33
 -13  -6  -4    1.45    1.09
 -12  -6  -4    4.93    1.16
 -11  -6  -4    4.40    1.06
 -10  -6  -4    6.99    1.24
  -9  -6  -4    4.93    0.94
  -8  -6  -4   19.41    2.09
  -7  -6  -4   14.56    1.73
  -6  -6  -4    0.46    0.38
  -5  -6  -4   26.37    1.79
  -4  -6  -4    0.63    0.35
  -3  -6  -4  121.90    3.77
  -2  -6  -4   41.65    2.44
  -1  -6  -4    0.01    0.36
   0  -6  -4   23.35    2.09
   1  -6  -4    0.48    0.33
   2  -6  -4   48.49    2.02
   3  -6  -4  124.09    3.78
   4  -6  -4    0.48    0.43
   5  -6  -4   25.21    1.76
   6  -6  -4    0.37    0.36
   7  -6  -4   15.54    1.42
   8  -6  -4   20.35    1.68
   9  -6  -4    7.73    1.02
  10  -6  -4    8.19    1.05
  11  -6  -4    4.10    0.85
  12  -6  -4    6.07    1.33
  13  -6  -4    0.57    1.17
 -13  -5  -4    1.42    0.76
 -12  -5  -4    1.39    0.78
 -11  -5  -4    5.07    1.16
 -10  -5  -4    7.27    1.28
  -9  -5  -4    4.60    1.02
  -8  -5  -4    0.06    0.48
  -7  -5  -4   17.05    1.86
  -6  -5  -4   29.75    1.93
  -5  -5  -4   -0.01    0.28
  -4  -5  -4    0.48    0.31
  -3  -5  -4    1.13    0.41
  -2  -5  -4   46.23    1.95
  -1  -5  -4    6.61    1.05
   0  -5  -4    0.20    0.36
   1  -5  -4    8.29    0.91
   2  -5  -4   48.61    2.02
   3  -5  -4    1.14    0.42
   4  -5  -4    0.19    0.30
   5  -5  -4    0.15    0.30
   6  -5  -4   29.20    1.91
   7  -5  -4   17.81    1.51
   8  -5  -4    0.03    0.33
   9  -5  -4    4.37    0.83
  10  -5  -4   11.59    1.27
  11  -5  -4    4.16    0.84
  12  -5  -4    1.58    0.58
  13  -5  -4    0.87    0.71
 -14  -4  -4    5.26    1.76
 -13  -4  -4    1.66    0.74
 -12  -4  -4   52.50    3.33
 -11  -4  -4    3.20    0.92
 -10  -4  -4    1.88    0.70
  -9  -4  -4    1.98    0.69
  -8  -4  -4    0.57    0.46
  -7  -4  -4    0.92    0.54
  -6  -4  -4   37.96    1.90
  -5  -4  -4    3.07    0.59
  -4  -4  -4   12.19    1.14
  -3  -4  -4   -0.08    0.24
  -2  -4  -4   50.88    2.03
  -1  -4  -4   17.60    1.72
   0  -4  -4    7.90    0.88
   1  -4  -4   18.95    1.37
   2  -4  -4   53.11    2.09
   3  -4  -4   -0.10    0.22
   4  -4  -4   15.67    1.28
   5  -4  -4    3.64    0.64
   6  -4  -4   37.85    1.95
   7  -4  -4    0.34    0.36
   8  -4  -4    0.51    0.37
   9  -4  -4    3.64    0.69
  10  -4  -4    1.50    0.55
  11  -4  -4    1.49    0.60
  12  -4  -4   48.51    2.90
  13  -4  -4    1.70    0.81
 -14  -3  -4    2.13    1.26
 -13  -3  -4    4.29    1.08
 -12  -3  -4    1.33    0.76
 -11  -3  -4   15.11    1.79
 -10  -3  -4    0.00    0.37
  -9  -3  -4   51.77    2.89
  -8  -3  -4   32.22    2.60
  -7  -3  -4    7.85    1.24
  -6  -3  -4   86.33    2.97
  -5  -3  -4    2.17    0.50
  -4  -3  -4    7.28    0.87
  -3  -3  -4   36.60    1.66
  -2  -3  -4    0.76    0.35
  -1  -3  -4   18.35    1.73
   0  -3  -4   -0.01    0.22
   1  -3  -4   21.30    1.46
   2  -3  -4    0.96    0.37
   3  -3  -4   36.67    1.67
   4  -3  -4    4.15    0.67
   5  -3  -4    2.17    0.50
   6  -3  -4   82.99    3.03
   7  -3  -4    8.73    1.04
   8  -3  -4   32.32    2.12
   9  -3  -4   46.86    2.29
  10  -3  -4    0.37    0.36
  11  -3  -4   12.75    1.35
  12  -3  -4    1.44    0.57
  13  -3  -4    6.55    1.38
 -13  -2  -4   -0.32    0.54
 -12  -2  -4    1.59    0.72
 -11  -2  -4   12.53    1.66
 -10  -2  -4   20.62    2.08
  -9  -2  -4    4.18    0.97
  -8  -2  -4    0.52    0.42
  -7  -2  -4    8.64    1.22
  -6  -2  -4   19.80    1.89
  -5  -2  -4   11.22    1.05
  -4  -2  -4   95.49    3.04
  -3  -2  -4   11.41    1.02
  -2  -2  -4    1.74    0.44
  -1  -2  -4   -0.11    0.23
   0  -2  -4    0.14    0.23
   1  -2  -4    0.19    0.24
   2  -2  -4    1.15    0.39
   3  -2  -4   13.16    1.13
   4  -2  -4   91.75    3.02
   5  -2  -4   12.74    1.14
   6  -2  -4   16.26    1.69
   7  -2  -4   10.92    1.15
   8  -2  -4    0.92    0.43
   9  -2  -4    3.61    0.72
  10  -2  -4   19.90    1.67
  11  -2  -4   13.44    1.45
  12  -2  -4    0.39    0.46
  13  -2  -4    0.43    0.53
  14  -2  -4    0.95    1.56
 -14  -1  -4    0.85    1.71
 -13  -1  -4    8.02    1.43
 -12  -1  -4   10.20    1.50
 -11  -1  -4    5.36    1.11
 -10  -1  -4    4.96    1.05
  -9  -1  -4    3.16    0.78
  -8  -1  -4    2.71    0.80
  -7  -1  -4    2.37    0.74
  -6  -1  -4   19.47    1.86
  -5  -1  -4    8.83    0.92
  -4  -1  -4   56.66    2.16
  -3  -1  -4   16.78    1.23
  -2  -1  -4    3.69    0.58
  -1  -1  -4    1.20    0.36
   0  -1  -4    0.13    0.25
   1  -1  -4    1.05    0.36
   2  -1  -4    3.02    0.55
   3  -1  -4   15.08    1.19
   4  -1  -4   59.04    2.21
   5  -1  -4    8.67    0.91
   6  -1  -4   22.64    1.57
   7  -1  -4    1.90    0.48
   8  -1  -4    1.02    0.41
   9  -1  -4    4.23    0.73
  10  -1  -4    5.22    0.85
  11  -1  -4    3.49    0.75
  12  -1  -4   13.63    1.45
  13  -1  -4    7.38    1.14
  14  -1  -4   -0.12    0.71
 -14   0  -4   40.33    5.22
 -13   0  -4   -0.37    0.56
 -12   0  -4    8.61    1.41
 -11   0  -4    0.05    0.47
 -10   0  -4   42.79    2.86
  -9   0  -4    0.34    0.44
  -8   0  -4   35.60    2.68
  -7   0  -4   -0.29    0.32
  -6   0  -4   -0.21    0.29
  -5   0  -4   -0.03    0.24
  -4   0  -4    0.77    0.33
  -3   0  -4    0.32    0.27
  -2   0  -4    1.00    0.34
  -1   0  -4    0.22    0.19
   0   0  -4  548.72   12.22
   1   0  -4    0.01    0.22
   2   0  -4    0.38    0.25
   3   0  -4    0.29    0.27
   4   0  -4    0.91    0.34
   5   0  -4    0.06    0.27
   6   0  -4   -0.04    0.26
   7   0  -4    0.07    0.34
   8   0  -4   35.77    2.43
   9   0  -4    0.09    0.33
  10   0  -4   43.91    2.18
  11   0  -4    0.05    0.39
  12   0  -4   12.17    1.35
  13   0  -4   -0.16    0.43
  14   0  -4   36.53    3.41
 -13   1  -4    5.93    1.70
 -12   1  -4   12.79    1.69
 -11   1  -4    4.94    1.09
 -10   1  -4    4.21    0.95
  -9   1  -4    2.04    0.72
  -8   1  -4    1.84    0.64
  -7   1  -4    2.26    0.65
  -6   1  -4   24.37    2.08
  -5   1  -4    7.77    1.15
  -4   1  -4   52.45    2.09
  -3   1  -4   16.69    1.25
  -2   1  -4    3.09    0.54
  -1   1  -4    1.04    0.28
   0   1  -4   -0.18    0.18
   1   1  -4    0.64    0.29
   2   1  -4    4.01    0.61
   3   1  -4   15.22    1.22
   4   1  -4   53.81    2.16
   5   1  -4    8.43    0.92
   6   1  -4   24.76    1.67
   7   1  -4    1.80    0.49
   8   1  -4    2.16    0.67
   9   1  -4    5.12    1.02
  10   1  -4    5.24    0.81
  11   1  -4    6.12    0.98
  12   1  -4   10.80    1.28
  13   1  -4    6.45    1.02
  14   1  -4    0.88    0.90
 -13   2  -4   -0.02    0.92
 -12   2  -4    0.09    0.57
 -11   2  -4   14.41    1.80
 -10   2  -4   17.58    1.91
  -9   2  -4    4.29    0.93
  -8   2  -4    3.22    0.79
  -7   2  -4   12.01    1.53
  -6   2  -4   17.84    1.74
  -5   2  -4   11.21    1.39
  -4   2  -4   90.69    2.96
  -3   2  -4   12.30    1.07
  -2   2  -4    1.34    0.36
  -1   2  -4    0.13    0.18
   0   2  -4    0.29    0.21
   1   2  -4    0.01    0.22
   2   2  -4    2.06    0.46
   3   2  -4   12.80    1.12
   4   2  -4   91.95    3.08
   5   2  -4   13.31    1.18
   6   2  -4   12.88    1.22
   7   2  -4    9.51    1.05
   8   2  -4    1.91    0.69
   9   2  -4    5.00    0.98
  10   2  -4   19.38    1.94
  11   2  -4   16.18    1.87
  12   2  -4    1.50    0.67
  13   2  -4    1.31    0.72
  14   2  -4    0.47    0.89
 -13   3  -4    6.81    1.87
 -12   3  -4    2.36    1.25
 -11   3  -4   14.15    1.73
 -10   3  -4    0.21    0.47
  -9   3  -4   53.53    2.92
  -8   3  -4   32.56    2.57
  -7   3  -4    8.62    1.27
  -6   3  -4   86.84    3.77
  -5   3  -4    1.85    0.59
  -4   3  -4    4.35    0.66
  -3   3  -4   36.50    1.63
  -2   3  -4    1.34    0.40
  -1   3  -4   19.36    1.15
   0   3  -4   -0.15    0.16
   1   3  -4   22.38    1.51
   2   3  -4    1.02    0.34
   3   3  -4   35.21    1.67
   4   3  -4    5.34    0.75
   5   3  -4    2.04    0.49
   6   3  -4   88.66    3.07
   7   3  -4    9.00    1.07
   8   3  -4   33.55    1.84
   9   3  -4   50.46    2.88
  10   3  -4   -0.06    0.41
  11   3  -4   15.79    1.87
  12   3  -4    2.57    0.90
  13   3  -4    5.20    1.15
  14   3  -4    3.29    1.34
 -13   4  -4    1.70    1.17
 -12   4  -4   43.68    4.75
 -11   4  -4    2.16    0.73
 -10   4  -4    1.40    0.67
  -9   4  -4    4.31    0.95
  -8   4  -4    0.61    0.53
  -7   4  -4    0.67    0.51
  -6   4  -4   35.54    2.38
  -5   4  -4    2.52    0.71
  -4   4  -4   12.52    1.13
  -3   4  -4    0.11    0.27
  -2   4  -4   49.34    2.01
  -1   4  -4   17.49    1.28
   0   4  -4    7.14    0.71
   1   4  -4   17.08    1.08
   2   4  -4   49.91    2.07
   3   4  -4    0.41    0.31
   4   4  -4   14.83    1.28
   5   4  -4    2.99    0.60
   6   4  -4   36.66    1.82
   7   4  -4    0.64    0.38
   8   4  -4    0.12    0.35
   9   4  -4    2.45    0.76
  10   4  -4    4.40    0.97
  11   4  -4    1.45    0.68
  12   4  -4   50.87    3.03
  13   4  -4    3.85    1.01
  14   4  -4    5.24    1.80
 -13   5  -4    2.30    1.34
 -12   5  -4    0.65    0.85
 -11   5  -4    6.65    1.75
 -10   5  -4    9.20    1.44
  -9   5  -4    5.74    1.12
  -8   5  -4    0.68    0.51
  -7   5  -4   18.53    1.89
  -6   5  -4   25.83    2.25
  -5   5  -4    0.25    0.36
  -4   5  -4    0.47    0.43
  -3   5  -4    1.98    0.49
  -2   5  -4   51.23    2.01
  -1   5  -4    8.86    0.91
   0   5  -4    0.04    0.22
   1   5  -4   10.21    0.85
   2   5  -4   45.83    1.99
   3   5  -4    1.45    0.44
   4   5  -4    0.51    0.32
   5   5  -4   -0.02    0.28
   6   5  -4   27.70    1.89
   7   5  -4   23.15    1.75
   8   5  -4    0.29    0.34
   9   5  -4    5.49    0.87
  10   5  -4    8.44    1.37
  11   5  -4    4.48    1.06
  12   5  -4    1.49    0.73
  13   5  -4    1.24    0.80
 -12   6  -4    5.77    1.82
 -11   6  -4    4.02    1.48
 -10   6  -4    9.35    1.42
  -9   6  -4    8.37    1.37
  -8   6  -4   21.46    2.14
  -7   6  -4   13.97    1.68
  -6   6  -4    0.79    0.49
  -5   6  -4   28.99    2.40
  -4   6  -4   -0.26    0.29
  -3   6  -4  123.73    3.72
  -2   6  -4   47.84    1.99
  -1   6  -4    0.29    0.28
   0   6  -4   21.12    1.46
   1   6  -4    0.48    0.31
   2   6  -4   43.57    1.99
   3   6  -4  121.65    3.83
   4   6  -4   -0.04    0.30
   5   6  -4   24.59    1.77
   6   6  -4    0.58    0.41
   7   6  -4   16.31    1.48
   8   6  -4   20.10    1.65
   9   6  -4    6.71    0.97
  10   6  -4    9.99    1.51
  11   6  -4    3.95    1.02
  12   6  -4    7.29    1.34
  13   6  -4    4.32    1.51
 -12   7  -4    1.38    1.17
 -11   7  -4   -0.06    0.83
 -10   7  -4   -0.54    0.69
  -9   7  -4   36.65    2.89
  -8   7  -4    5.50    1.08
  -7   7  -4   39.97    2.70
  -6   7  -4    2.17    0.76
  -5   7  -4    2.00    0.72
  -4   7  -4   -0.19    0.37
  -3   7  -4   17.79    1.38
  -2   7  -4    6.30    0.81
  -1   7  -4   13.37    1.17
   0   7  -4   -0.11    0.24
   1   7  -4   13.95    1.24
   2   7  -4    6.49    0.85
   3   7  -4   17.36    1.76
   4   7  -4    0.16    0.29
   5   7  -4    1.37    0.48
   6   7  -4    2.16    0.57
   7   7  -4   39.64    2.15
   8   7  -4    7.27    1.06
   9   7  -4   38.54    2.45
  10   7  -4   -0.13    0.43
  11   7  -4    0.62    0.66
  12   7  -4    2.06    0.85
 -11   8  -4    1.38    1.19
 -10   8  -4    8.24    2.17
  -9   8  -4    3.00    0.93
  -8   8  -4   33.68    2.77
  -7   8  -4   10.80    1.52
  -6   8  -4   14.34    1.73
  -5   8  -4    8.45    1.31
  -4   8  -4    3.30    0.84
  -3   8  -4   20.52    1.99
  -2   8  -4    2.26    0.55
  -1   8  -4   26.57    1.77
   0   8  -4   23.88    1.66
   1   8  -4   23.42    1.64
   2   8  -4    1.22    0.43
   3   8  -4   19.30    1.91
   4   8  -4    3.25    0.83
   5   8  -4   12.94    1.61
   6   8  -4   11.09    1.19
   7   8  -4    6.62    0.99
   8   8  -4   31.50    2.19
   9   8  -4    3.53    0.76
  10   8  -4    9.41    1.25
  11   8  -4    2.90    0.93
  12   8  -4    1.68    1.13
 -11   9  -4   11.15    2.42
 -10   9  -4   11.28    2.44
  -9   9  -4    2.46    1.29
  -8   9  -4    0.55    0.52
  -7   9  -4    6.25    1.21
  -6   9  -4   33.53    2.69
  -5   9  -4   10.27    1.43
  -4   9  -4    0.74    0.50
  -3   9  -4   21.25    2.02
  -2   9  -4    6.84    0.89
  -1   9  -4    1.11    0.44
   0   9  -4    0.17    0.34
   1   9  -4    0.72    0.40
   2   9  -4    6.27    0.81
   3   9  -4   26.34    2.34
   4   9  -4    0.51    0.52
   5   9  -4    8.45    1.36
   6   9  -4   30.19    2.67
   7   9  -4    6.49    1.24
   8   9  -4    0.51    0.58
   9   9  -4    4.42    0.88
  10   9  -4   15.55    1.64
  11   9  -4    6.63    1.31
 -10  10  -4   -0.40    0.98
  -9  10  -4    2.93    1.35
  -8  10  -4    0.82    0.71
  -7  10  -4    3.18    0.91
  -6  10  -4    2.99    0.91
  -5  10  -4    0.11    0.49
  -4  10  -4   14.36    1.77
  -3  10  -4   31.52    2.63
  -2  10  -4   18.02    1.70
  -1  10  -4   19.97    1.61
   0  10  -4    2.13    0.59
   1  10  -4   20.50    1.62
   2  10  -4   15.77    1.38
   3  10  -4   25.76    2.37
   4  10  -4   12.32    1.67
   5  10  -4    0.88    0.61
   6  10  -4    3.93    0.98
   7  10  -4    2.63    0.88
   8  10  -4    1.42    0.84
   9  10  -4   -0.01    0.59
  10  10  -4    0.15    0.67
  11  10  -4   -0.47    1.29
  -9  11  -4   16.80    3.03
  -8  11  -4    1.48    1.03
  -7  11  -4    0.62    0.68
  -6  11  -4    4.65    1.07
  -5  11  -4    8.56    1.40
  -4  11  -4    2.97    0.94
  -3  11  -4   11.91    1.58
  -2  11  -4    1.14    0.67
  -1  11  -4   30.11    2.05
   0  11  -4   -0.42    0.31
   1  11  -4   32.23    2.12
   2  11  -4    2.02    0.56
   3  11  -4   12.94    1.50
   4  11  -4    2.69    0.87
   5  11  -4    5.29    1.13
   6  11  -4    3.92    1.02
   7  11  -4   -0.07    0.54
   8  11  -4    1.21    0.73
   9  11  -4   11.65    1.77
  10  11  -4    8.32    2.31
  -8  12  -4    0.78    1.02
  -7  12  -4    6.78    1.95
  -6  12  -4    7.80    1.48
  -5  12  -4    0.54    0.67
  -4  12  -4   12.41    1.75
  -3  12  -4    4.44    1.08
  -2  12  -4    9.25    1.50
  -1  12  -4   17.79    1.57
   0  12  -4   15.62    1.52
   1  12  -4   19.24    1.65
   2  12  -4   16.41    1.51
   3  12  -4    4.70    0.88
   4  12  -4    8.64    1.43
   5  12  -4    0.49    0.61
   6  12  -4   10.22    1.69
   7  12  -4    8.51    1.49
   8  12  -4    0.18    0.67
   9  12  -4    4.64    2.46
  -7  13  -4    9.83    3.59
  -6  13  -4   15.61    1.97
  -5  13  -4   39.17    3.20
  -4  13  -4   15.96    2.04
  -3  13  -4    0.46    0.63
  -2  13  -4    0.23    0.57
  -1  13  -4    4.64    1.11
   0  13  -4    0.37    0.43
   1  13  -4    4.67    0.87
   2  13  -4   -0.10    0.39
   3  13  -4    0.19    0.44
   4  13  -4   11.72    1.71
   5  13  -4   33.90    3.02
   6  13  -4   11.18    1.67
   7  13  -4    5.49    2.24
  -5  14  -4    5.28    1.35
  -4  14  -4    4.96    1.22
  -3  14  -4   -0.29    0.58
  -2  14  -4    0.92    0.74
  -1  14  -4    3.57    1.07
   0  14  -4   52.83    2.67
   1  14  -4    2.79    0.75
   2  14  -4    0.55    0.52
   3  14  -4   -0.06    0.46
   4  14  -4    1.22    0.85
   5  14  -4    4.35    1.61
  -3  15  -4    0.98    1.17
  -2  15  -4    1.00    0.79
  -1  15  -4    0.22    0.66
   0  15  -4    0.34    0.62
   1  15  -4   -0.25    0.52
   2  15  -4    1.24    0.78
   3  15  -4    1.65    0.80
  -4 -17  -3    8.59    2.49
  -3 -17  -3    1.34    1.20
  -2 -17  -3    3.05    1.50
   0 -17  -3   -0.36    0.97
   1 -17  -3   15.75    3.25
   2 -17  -3    6.30    1.39
   3 -17  -3    0.10    1.03
   4 -17  -3    8.65    2.52
  -6 -16  -3    2.28    0.99
  -5 -16  -3   -0.61    0.63
  -4 -16  -3   -0.88    0.49
  -3 -16  -3   21.46    2.32
  -2 -16  -3    7.65    1.35
  -1 -16  -3    3.71    1.41
   1 -16  -3    1.92    1.10
   2 -16  -3   12.42    1.81
   3 -16  -3   18.83    2.25
   4 -16  -3    0.54    0.67
   5 -16  -3    1.18    0.72
   6 -16  -3    1.46    0.74
  -8 -15  -3   -0.05    0.72
  -7 -15  -3    7.16    1.14
  -6 -15  -3    8.00    1.17
  -5 -15  -3   22.18    1.97
  -4 -15  -3   13.43    1.80
  -3 -15  -3   14.70    1.98
  -2 -15  -3    0.83    0.62
  -1 -15  -3    0.93    0.67
   0 -15  -3    0.23    0.76
   1 -15  -3    0.63    0.60
   2 -15  -3    0.21    0.54
   3 -15  -3   11.22    1.71
   4 -15  -3    8.50    1.47
   5 -15  -3   24.46    2.46
   6 -15  -3   11.96    1.77
   7 -15  -3    4.74    1.15
  -9 -14  -3    1.01    0.71
  -8 -14  -3   18.87    2.22
  -7 -14  -3    1.56    0.63
  -6 -14  -3    0.12    0.45
  -5 -14  -3    0.96    0.57
  -4 -14  -3   32.99    2.89
  -3 -14  -3    0.98    0.64
  -2 -14  -3    1.60    0.66
  -1 -14  -3    9.21    1.45
   0 -14  -3   27.47    2.39
   1 -14  -3    6.75    1.24
   2 -14  -3    1.31    0.61
   3 -14  -3    0.89    0.60
   4 -14  -3   27.28    2.52
   5 -14  -3    0.27    0.51
   6 -14  -3    0.73    0.57
   7 -14  -3    0.29    0.58
   8 -14  -3   18.78    2.12
   9 -14  -3    1.86    1.30
 -10 -13  -3   15.80    2.15
  -9 -13  -3    3.79    0.84
  -8 -13  -3   19.33    1.80
  -7 -13  -3    2.40    0.66
  -6 -13  -3    1.88    0.65
  -5 -13  -3    0.11    0.37
  -4 -13  -3    2.13    0.79
  -3 -13  -3   48.58    2.94
  -2 -13  -3    4.00    0.94
  -1 -13  -3    1.77    0.72
   0 -13  -3    0.08    0.34
   1 -13  -3    1.54    0.67
   2 -13  -3    5.18    1.14
   3 -13  -3   56.38    3.02
   4 -13  -3    3.17    0.85
   5 -13  -3    0.34    0.47
   6 -13  -3    2.45    0.84
   7 -13  -3    2.22    0.75
   8 -13  -3   14.58    1.82
   9 -13  -3    2.64    1.37
  10 -13  -3   12.77    2.60
 -11 -12  -3    2.59    0.98
 -10 -12  -3    3.31    0.98
  -9 -12  -3    4.60    0.93
  -8 -12  -3    6.47    1.03
  -7 -12  -3    6.20    1.00
  -6 -12  -3    2.75    0.65
  -5 -12  -3    7.16    1.04
  -4 -12  -3   21.59    1.74
  -3 -12  -3    5.84    1.13
  -2 -12  -3    1.57    0.68
  -1 -12  -3    3.99    0.91
   0 -12  -3    2.48    0.58
   1 -12  -3    4.58    0.79
   2 -12  -3    0.50    0.53
   3 -12  -3    6.76    1.18
   4 -12  -3   23.83    2.24
   5 -12  -3    7.94    1.31
   6 -12  -3    3.24    0.82
   7 -12  -3    7.28    1.30
   8 -12  -3    7.10    1.18
   9 -12  -3    7.74    1.43
  10 -12  -3    4.15    1.65
  11 -12  -3    4.59    1.71
 -12 -11  -3   -0.15    0.60
 -11 -11  -3   -0.20    0.56
 -10 -11  -3   -0.54    0.52
  -9 -11  -3   14.27    1.49
  -8 -11  -3    0.42    0.45
  -7 -11  -3   64.89    2.81
  -6 -11  -3    5.71    0.90
  -5 -11  -3    0.69    0.41
  -4 -11  -3    2.67    0.60
  -3 -11  -3    0.43    0.45
  -2 -11  -3   24.05    2.19
  -1 -11  -3   29.92    2.39
   0 -11  -3   -0.02    0.32
   1 -11  -3   36.49    1.85
   2 -11  -3   24.57    1.68
   3 -11  -3    0.06    0.35
   4 -11  -3    4.49    0.98
   5 -11  -3    0.85    0.54
   6 -11  -3    7.15    1.22
   7 -11  -3   60.33    3.23
   8 -11  -3   -0.20    0.39
   9 -11  -3   22.46    2.23
  10 -11  -3   -0.32    0.73
  11 -11  -3    0.15    0.61
  12 -11  -3    0.61    0.68
 -13 -10  -3    2.15    1.32
 -12 -10  -3   -0.14    0.51
 -11 -10  -3   26.72    2.63
 -10 -10  -3    0.93    0.61
  -9 -10  -3    3.41    0.73
  -8 -10  -3   -0.17    0.33
  -7 -10  -3    1.34    0.49
  -6 -10  -3   16.49    1.50
  -5 -10  -3    8.32    1.06
  -4 -10  -3   24.93    1.75
  -3 -10  -3   20.45    1.56
  -2 -10  -3    2.99    0.70
  -1 -10  -3   26.66    1.65
   0 -10  -3   17.40    1.40
   1 -10  -3   28.85    1.83
   2 -10  -3    5.63    0.80
   3 -10  -3   16.63    1.72
   4 -10  -3   25.83    2.22
   5 -10  -3    9.82    1.39
   6 -10  -3   17.04    1.82
   7 -10  -3    0.83    0.52
   8 -10  -3    0.82    0.46
   9 -10  -3    4.09    0.82
  10 -10  -3    3.06    0.93
  11 -10  -3   32.75    2.87
  12 -10  -3   -0.06    0.54
  13 -10  -3    2.61    1.15
 -14  -9  -3    1.40    1.09
 -13  -9  -3    0.60    0.68
 -12  -9  -3   -0.44    0.53
 -11  -9  -3    1.62    0.75
 -10  -9  -3    3.03    0.86
  -9  -9  -3   51.31    4.41
  -8  -9  -3   12.35    1.27
  -7  -9  -3   11.50    1.25
  -6  -9  -3   12.59    1.24
  -5  -9  -3   70.31    2.69
  -4  -9  -3    5.82    0.76
  -3  -9  -3    3.34    0.58
  -2  -9  -3   78.89    2.78
  -1  -9  -3   12.10    0.94
   0  -9  -3    0.07    0.26
   1  -9  -3   13.34    1.16
   2  -9  -3   79.68    2.76
   3  -9  -3    3.56    0.60
   4  -9  -3    6.01    1.05
   5  -9  -3   67.44    3.23
   6  -9  -3   15.65    1.35
   7  -9  -3   14.20    1.33
   8  -9  -3   13.06    1.29
   9  -9  -3   50.18    2.29
  10  -9  -3    3.60    0.72
  11  -9  -3    0.70    0.60
  12  -9  -3    0.09    0.59
  13  -9  -3    0.96    0.68
  14  -9  -3    2.65    1.41
 -14  -8  -3    0.26    0.67
 -13  -8  -3    1.48    0.71
 -12  -8  -3    0.94    0.65
 -11  -8  -3    7.75    1.34
 -10  -8  -3    4.23    1.02
  -9  -8  -3   19.84    2.05
  -8  -8  -3    2.88    0.66
  -7  -8  -3    8.04    0.99
  -6  -8  -3    4.72    0.75
  -5  -8  -3   26.87    1.76
  -4  -8  -3   21.39    1.53
  -3  -8  -3   12.10    1.07
  -2  -8  -3   16.07    1.26
  -1  -8  -3   22.14    1.24
   0  -8  -3   39.10    1.43
   1  -8  -3   22.49    1.38
   2  -8  -3   16.58    1.26
   3  -8  -3   15.02    1.18
   4  -8  -3   20.13    1.85
   5  -8  -3   27.50    1.61
   6  -8  -3    4.48    0.70
   7  -8  -3    7.47    0.92
   8  -8  -3    2.58    0.60
   9  -8  -3   17.17    1.48
  10  -8  -3    3.16    0.65
  11  -8  -3    8.24    1.39
  12  -8  -3    0.49    0.57
  13  -8  -3    0.91    0.62
  14  -8  -3   -0.29    0.63
 -15  -7  -3   10.46    2.47
 -14  -7  -3    1.63    0.77
 -13  -7  -3   63.63    3.58
 -12  -7  -3    0.50    0.56
 -11  -7  -3    0.10    0.46
 -10  -7  -3   -0.17    0.42
  -9  -7  -3    4.24    0.91
  -8  -7  -3   14.43    1.29
  -7  -7  -3    7.27    0.93
  -6  -7  -3    5.87    0.80
  -5  -7  -3  121.09    3.68
  -4  -7  -3    0.42    0.28
  -3  -7  -3    1.60    0.41
  -2  -7  -3    6.90    0.80
  -1  -7  -3   28.19    1.15
   0  -7  -3    0.03    0.17
   1  -7  -3   29.15    1.19
   2  -7  -3    9.06    0.88
   3  -7  -3    1.68    0.35
   4  -7  -3    0.33    0.22
   5  -7  -3  119.22    3.62
   6  -7  -3    5.87    0.79
   7  -7  -3    6.38    0.84
   8  -7  -3   14.31    1.30
   9  -7  -3    4.31    0.72
  10  -7  -3    0.04    0.32
  11  -7  -3    0.13    0.41
  12  -7  -3    0.68    0.55
  13  -7  -3   61.75    3.57
  14  -7  -3    0.30    0.69
 -15  -6  -3   -0.33    1.09
 -14  -6  -3    0.13    0.55
 -13  -6  -3   33.73    2.84
 -12  -6  -3   15.10    1.87
 -11  -6  -3   39.64    3.08
 -10  -6  -3   14.10    1.66
  -9  -6  -3    9.00    1.29
  -8  -6  -3    7.42    0.93
  -7  -6  -3   11.33    1.11
  -6  -6  -3    0.21    0.28
  -5  -6  -3   15.69    1.26
  -4  -6  -3    0.41    0.28
  -3  -6  -3    9.65    0.94
  -2  -6  -3    3.40    0.44
  -1  -6  -3  134.69    3.19
   0  -6  -3   23.99    1.08
   1  -6  -3  136.48    3.15
   2  -6  -3    3.69    0.48
   3  -6  -3    8.81    0.72
   4  -6  -3    0.22    0.19
   5  -6  -3   16.41    1.26
   6  -6  -3    0.05    0.25
   7  -6  -3   11.87    1.14
   8  -6  -3    8.30    0.98
   9  -6  -3    9.92    1.08
  10  -6  -3   13.11    1.27
  11  -6  -3   49.51    2.23
  12  -6  -3   13.86    1.76
  13  -6  -3   31.57    2.82
  14  -6  -3    0.82    0.69
  15  -6  -3    0.25    0.62
 -15  -5  -3   -0.14    0.88
 -14  -5  -3    4.47    1.11
 -13  -5  -3    0.88    0.61
 -12  -5  -3    0.73    0.58
 -11  -5  -3   15.96    1.80
 -10  -5  -3   22.40    2.13
  -9  -5  -3   15.17    1.67
  -8  -5  -3    0.50    0.44
  -7  -5  -3   40.62    1.86
  -6  -5  -3   44.13    1.84
  -5  -5  -3   19.66    1.41
  -4  -5  -3    0.19    0.21
  -3  -5  -3   55.63    2.03
  -2  -5  -3   59.25    1.71
  -1  -5  -3    0.16    0.16
   0  -5  -3    0.05    0.14
   1  -5  -3   -0.04    0.14
   2  -5  -3   56.92    1.71
   3  -5  -3   54.70    1.69
   4  -5  -3   -0.06    0.16
   5  -5  -3   20.29    1.06
   6  -5  -3   41.20    1.80
   7  -5  -3   42.08    1.86
   8  -5  -3    0.21    0.29
   9  -5  -3   14.87    1.28
  10  -5  -3   23.38    1.68
  11  -5  -3   15.65    1.41
  12  -5  -3    0.62    0.61
  13  -5  -3    0.99    0.60
  14  -5  -3    3.08    0.92
  15  -5  -3   -0.35    0.58
 -15  -4  -3    0.35    0.89
 -14  -4  -3   33.95    2.85
 -13  -4  -3    0.70    0.57
 -12  -4  -3   -0.02    0.47
 -11  -4  -3    3.29    0.83
 -10  -4  -3    0.54    0.47
  -9  -4  -3   24.33    2.13
  -8  -4  -3    7.31    1.12
  -7  -4  -3    7.16    0.81
  -6  -4  -3    9.29    0.93
  -5  -4  -3   18.78    1.32
  -4  -4  -3   67.42    2.30
  -3  -4  -3    2.46    0.45
  -2  -4  -3   28.07    1.04
  -1  -4  -3   22.02    0.95
   0  -4  -3    6.23    0.54
   1  -4  -3   22.07    0.91
   2  -4  -3   28.23    1.08
   3  -4  -3    2.85    0.39
   4  -4  -3   65.44    1.92
   5  -4  -3   17.51    0.96
   6  -4  -3   11.30    1.03
   7  -4  -3    6.05    0.78
   8  -4  -3    5.30    0.77
   9  -4  -3   27.55    1.68
  10  -4  -3    0.27    0.32
  11  -4  -3    4.61    0.77
  12  -4  -3    0.15    0.47
  13  -4  -3    0.33    0.57
  14  -4  -3   36.14    3.03
  15  -4  -3    0.28    0.61
 -15  -3  -3    7.34    1.85
 -14  -3  -3    2.62    1.26
 -13  -3  -3    0.43    0.50
 -12  -3  -3    6.33    1.16
 -11  -3  -3   19.84    1.94
 -10  -3  -3   27.33    2.25
  -9  -3  -3   17.25    1.71
  -8  -3  -3   34.63    2.09
  -7  -3  -3   90.54    2.90
  -6  -3  -3    2.00    0.43
  -5  -3  -3   53.25    1.93
  -4  -3  -3   19.81    1.28
  -3  -3  -3    6.74    0.70
  -2  -3  -3  128.59    2.92
  -1  -3  -3  174.35    3.69
   0  -3  -3    0.02    0.14
   1  -3  -3  168.44    3.65
   2  -3  -3  129.72    3.51
   3  -3  -3    5.71    0.56
   4  -3  -3   20.34    0.97
   5  -3  -3   52.25    1.64
   6  -3  -3    2.12    0.36
   7  -3  -3   94.79    3.04
   8  -3  -3   37.04    1.73
   9  -3  -3   13.92    1.22
  10  -3  -3   29.77    1.75
  11  -3  -3   15.97    1.39
  12  -3  -3    6.16    0.89
  13  -3  -3    0.89    0.60
  14  -3  -3    0.49    0.63
  15  -3  -3    8.56    1.48
  16  -3  -3    6.11    2.08
 -16  -2  -3    0.98    1.55
 -15  -2  -3    2.28    1.16
 -14  -2  -3    0.05    0.79
 -13  -2  -3    1.25    0.56
 -12  -2  -3   29.32    2.45
 -11  -2  -3   14.71    1.65
 -10  -2  -3    2.37    0.68
  -9  -2  -3    1.83    0.58
  -8  -2  -3    7.98    1.13
  -7  -2  -3   34.91    1.97
  -6  -2  -3    6.23    0.72
  -5  -2  -3    0.63    0.26
  -4  -2  -3    9.51    0.83
  -3  -2  -3   22.91    1.13
  -2  -2  -3   36.60    1.17
  -1  -2  -3   57.43    1.58
   0  -2  -3   15.08    0.77
   1  -2  -3   55.29    1.54
   2  -2  -3   36.35    1.14
   3  -2  -3   22.57    1.00
   4  -2  -3    9.15    0.71
   5  -2  -3    0.96    0.25
   6  -2  -3    6.02    0.61
   7  -2  -3   34.65    1.61
   8  -2  -3    8.40    0.91
   9  -2  -3    2.23    0.54
  10  -2  -3    2.20    0.54
  11  -2  -3   15.30    1.31
  12  -2  -3   27.23    1.91
  13  -2  -3    0.29    0.55
  14  -2  -3    0.86    0.65
  15  -2  -3    2.62    0.89
  16  -2  -3    0.81    1.05
 -16  -1  -3   11.32    2.33
 -15  -1  -3    1.15    1.08
 -14  -1  -3    8.90    1.97
 -13  -1  -3   21.59    2.14
 -12  -1  -3    8.28    1.27
 -11  -1  -3    8.11    1.22
 -10  -1  -3   41.84    2.42
  -9  -1  -3    0.68    0.44
  -8  -1  -3   30.15    1.99
  -7  -1  -3    7.61    1.00
  -6  -1  -3    5.52    0.66
  -5  -1  -3   93.21    2.80
  -4  -1  -3   22.01    1.14
  -3  -1  -3   68.42    1.79
  -2  -1  -3    0.71    0.20
  -1  -1  -3    0.19    0.15
   0  -1  -3    0.18    0.13
   1  -1  -3    0.05    0.12
   2  -1  -3    0.39    0.16
   3  -1  -3   68.10    2.21
   4  -1  -3   22.75    1.01
   5  -1  -3   94.16    2.48
   6  -1  -3    4.76    0.53
   7  -1  -3    7.42    0.69
   8  -1  -3   27.49    1.62
   9  -1  -3    1.84    0.48
  10  -1  -3   51.93    2.19
  11  -1  -3    9.96    1.09
  12  -1  -3    8.29    1.04
  13  -1  -3   23.19    2.35
  14  -1  -3    8.31    1.39
  15  -1  -3    0.62    0.67
  16  -1  -3    4.63    1.63
 -16   0  -3   35.83    4.28
 -15   0  -3   -0.12    0.75
 -14   0  -3   34.51    3.90
 -13   0  -3   -0.13    0.54
 -12   0  -3    0.62    0.48
 -11   0  -3    0.15    0.39
 -10   0  -3   11.62    1.39
  -9   0  -3    0.05    0.29
  -8   0  -3  139.15    5.04
  -7   0  -3   -0.10    0.28
  -6   0  -3   41.80    1.61
  -5   0  -3   -0.12    0.16
  -4   0  -3  168.16    4.31
  -3   0  -3    0.05    0.14
  -2   0  -3   58.85    1.63
  -1   0  -3    0.20    0.14
   0   0  -3    1.32    0.25
   1   0  -3    0.09    0.12
   2   0  -3   62.05    1.63
   3   0  -3    0.05    0.17
   4   0  -3  164.83    4.32
   5   0  -3    0.05    0.16
   6   0  -3   42.17    1.48
   7   0  -3    0.39    0.22
   8   0  -3  143.71    4.16
   9   0  -3    0.02    0.26
  10   0  -3   12.57    1.13
  11   0  -3   -0.06    0.29
  12   0  -3    1.09    0.45
  13   0  -3    0.10    0.43
  14   0  -3   31.73    2.74
  15   0  -3    0.18    0.56
  16   0  -3   31.43    3.00
 -16   1  -3    8.41    2.08
 -15   1  -3    1.40    0.99
 -14   1  -3    6.37    1.69
 -13   1  -3   16.46    2.67
 -12   1  -3    8.86    1.27
 -11   1  -3   12.84    1.46
 -10   1  -3   54.03    2.67
  -9   1  -3    0.69    0.46
  -8   1  -3   29.88    1.99
  -7   1  -3    7.72    1.05
  -6   1  -3    5.30    0.87
  -5   1  -3   94.03    2.76
  -4   1  -3   23.13    1.13
  -3   1  -3   68.73    2.17
  -2   1  -3    0.61    0.19
  -1   1  -3    0.09    0.15
   0   1  -3   -0.04    0.12
   1   1  -3    0.17    0.15
   2   1  -3    0.55    0.17
   3   1  -3   67.47    1.79
   4   1  -3   24.05    1.22
   5   1  -3   95.28    2.86
   6   1  -3    4.28    0.52
   7   1  -3    7.23    0.69
   8   1  -3   29.98    1.37
   9   1  -3    1.67    0.44
  10   1  -3   47.70    2.11
  11   1  -3   10.29    1.10
  12   1  -3    8.77    1.05
  13   1  -3   22.25    1.75
  14   1  -3    8.81    1.46
  15   1  -3    1.82    0.83
  16   1  -3   10.76    1.77
 -16   2  -3   -0.08    1.05
 -15   2  -3    1.00    0.88
 -14   2  -3    0.21    0.78
 -13   2  -3    0.05    0.59
 -12   2  -3   33.27    3.73
 -11   2  -3   14.97    1.65
 -10   2  -3    2.00    0.63
  -9   2  -3    3.27    0.78
  -8   2  -3    7.33    1.05
  -7   2  -3   34.20    1.94
  -6   2  -3    5.68    0.86
  -5   2  -3    0.86    0.28
  -4   2  -3    8.73    0.78
  -3   2  -3   22.85    1.15
  -2   2  -3   37.04    1.20
  -1   2  -3   55.84    1.58
   0   2  -3   14.35    0.83
   1   2  -3   53.16    1.55
   2   2  -3   37.08    1.20
   3   2  -3   23.24    0.91
   4   2  -3    7.98    0.79
   5   2  -3    0.87    0.31
   6   2  -3    5.92    0.70
   7   2  -3   32.43    1.34
   8   2  -3    8.71    0.80
   9   2  -3    1.56    0.46
  10   2  -3    1.31    0.44
  11   2  -3   16.60    1.42
  12   2  -3   22.55    1.73
  13   2  -3    0.85    0.44
  14   2  -3    0.80    0.61
  15   2  -3    2.41    0.81
  16   2  -3    0.54    0.80
 -15   3  -3   10.33    2.25
 -14   3  -3    0.47    0.83
 -13   3  -3   -0.25    0.46
 -12   3  -3    5.17    1.38
 -11   3  -3   21.62    1.95
 -10   3  -3   26.98    2.15
  -9   3  -3   12.94    1.43
  -8   3  -3   38.02    2.11
  -7   3  -3   90.87    3.64
  -6   3  -3    2.52    0.54
  -5   3  -3   53.68    1.84
  -4   3  -3   18.84    1.08
  -3   3  -3    8.22    0.75
  -2   3  -3  125.57    3.42
  -1   3  -3  166.62    3.69
   0   3  -3    0.23    0.16
   1   3  -3  165.99    3.70
   2   3  -3  123.65    2.93
   3   3  -3    6.52    0.58
   4   3  -3   21.07    1.05
   5   3  -3   50.77    1.94
   6   3  -3    3.16    0.54
   7   3  -3   90.88    2.96
   8   3  -3   36.52    1.48
   9   3  -3   13.35    1.04
  10   3  -3   28.05    1.83
  11   3  -3   15.17    1.38
  12   3  -3    6.25    0.90
  13   3  -3    0.42    0.42
  14   3  -3    0.66    0.68
  15   3  -3    7.92    1.44
  16   3  -3    4.83    1.69
 -16   4  -3    6.70    1.79
 -15   4  -3    2.10    1.24
 -14   4  -3   41.07    4.45
 -13   4  -3    0.84    1.03
 -12   4  -3    0.74    0.74
 -11   4  -3    4.05    1.32
 -10   4  -3    0.30    0.36
  -9   4  -3   26.48    1.93
  -8   4  -3    7.24    1.07
  -7   4  -3    7.90    1.11
  -6   4  -3   11.03    1.23
  -5   4  -3   18.10    1.13
  -4   4  -3   68.55    2.19
  -3   4  -3    2.59    0.44
  -2   4  -3   27.58    1.24
  -1   4  -3   20.90    1.18
   0   4  -3    5.63    0.55
   1   4  -3   21.36    0.94
   2   4  -3   28.13    1.09
   3   4  -3    2.89    0.39
   4   4  -3   67.42    1.91
   5   4  -3   18.48    1.29
   6   4  -3    8.93    0.89
   7   4  -3    8.33    0.87
   8   4  -3    7.13    0.84
   9   4  -3   28.91    1.67
  10   4  -3    0.24    0.32
  11   4  -3    3.60    0.69
  12   4  -3   -0.10    0.35
  13   4  -3    0.14    0.39
  14   4  -3   30.51    2.70
  15   4  -3    0.78    0.64
  16   4  -3   12.42    2.54
 -15   5  -3   -0.44    0.48
 -14   5  -3    4.89    1.60
 -13   5  -3    0.91    0.91
 -12   5  -3    0.37    0.79
 -11   5  -3   11.30    2.14
 -10   5  -3   30.50    2.07
  -9   5  -3   13.56    1.48
  -8   5  -3    0.61    0.40
  -7   5  -3   41.53    2.23
  -6   5  -3   41.60    2.20
  -5   5  -3   22.11    1.80
  -4   5  -3    0.21    0.21
  -3   5  -3   57.54    1.96
  -2   5  -3   60.04    2.03
  -1   5  -3    0.15    0.18
   0   5  -3    0.13    0.18
   1   5  -3   -0.09    0.14
   2   5  -3   57.29    1.74
   3   5  -3   55.54    1.72
   4   5  -3    0.07    0.18
   5   5  -3   20.49    1.07
   6   5  -3   40.75    1.79
   7   5  -3   42.38    1.87
   8   5  -3    0.35    0.30
   9   5  -3   13.82    1.26
  10   5  -3   27.48    1.86
  11   5  -3   14.28    1.55
  12   5  -3    0.34    0.48
  13   5  -3    0.63    0.53
  14   5  -3    5.65    1.17
  15   5  -3   -0.24    0.77
 -15   6  -3    0.43    0.64
 -14   6  -3   -0.02    0.53
 -13   6  -3   33.87    2.68
 -12   6  -3   16.67    2.67
 -11   6  -3   43.44    3.76
 -10   6  -3    8.52    1.81
  -9   6  -3    9.27    1.24
  -8   6  -3    7.72    1.08
  -7   6  -3   13.10    1.40
  -6   6  -3    0.06    0.30
  -5   6  -3   22.20    1.78
  -4   6  -3    0.57    0.28
  -3   6  -3   10.34    0.91
  -2   6  -3    3.20    0.50
  -1   6  -3  134.65    3.71
   0   6  -3   25.29    1.29
   1   6  -3  134.32    3.74
   2   6  -3    4.32    0.51
   3   6  -3    8.18    0.71
   4   6  -3    0.46    0.23
   5   6  -3   16.19    1.04
   6   6  -3    0.10    0.24
   7   6  -3    9.96    1.05
   8   6  -3    9.32    1.03
   9   6  -3   10.99    1.13
  10   6  -3   15.41    1.40
  11   6  -3   50.38    2.78
  12   6  -3   13.24    1.67
  13   6  -3   34.84    2.81
  14   6  -3    0.23    0.54
  15   6  -3    0.38    0.94
 -14   7  -3    0.21    0.87
 -13   7  -3   58.75    4.71
 -12   7  -3   -0.34    0.57
 -11   7  -3    0.34    0.56
 -10   7  -3   -0.40    0.49
  -9   7  -3    4.58    0.88
  -8   7  -3   13.47    1.47
  -7   7  -3    7.28    1.12
  -6   7  -3    5.34    0.95
  -5   7  -3  117.75    4.46
  -4   7  -3    0.48    0.27
  -3   7  -3    1.01    0.34
  -2   7  -3    8.85    0.87
  -1   7  -3   28.21    1.34
   0   7  -3    0.17    0.24
   1   7  -3   27.27    1.40
   2   7  -3    8.56    0.84
   3   7  -3    1.21    0.32
   4   7  -3    0.33    0.22
   5   7  -3  120.66    3.11
   6   7  -3    6.49    0.86
   7   7  -3    6.55    0.91
   8   7  -3   12.95    1.24
   9   7  -3    4.60    0.79
  10   7  -3   -0.16    0.31
  11   7  -3    0.65    0.45
  12   7  -3    0.21    0.49
  13   7  -3   67.86    3.53
  14   7  -3    0.36    0.65
  15   7  -3   14.60    2.75
 -14   8  -3   -0.32    0.77
 -13   8  -3    2.52    1.25
 -12   8  -3    0.90    0.94
 -11   8  -3    5.74    1.58
 -10   8  -3    4.49    1.43
  -9   8  -3   20.15    2.81
  -8   8  -3    2.24    0.71
  -7   8  -3    7.31    1.15
  -6   8  -3    5.40    0.96
  -5   8  -3   30.02    2.03
  -4   8  -3   20.95    1.85
  -3   8  -3   11.09    1.00
  -2   8  -3   15.32    1.16
  -1   8  -3   18.89    1.35
   0   8  -3   36.30    1.65
   1   8  -3   21.02    1.44
   2   8  -3   15.02    1.24
   3   8  -3   13.29    1.15
   4   8  -3   21.53    1.48
   5   8  -3   28.33    1.42
   6   8  -3    3.85    0.56
   7   8  -3    8.53    1.00
   8   8  -3    1.77    0.52
   9   8  -3   20.44    1.63
  10   8  -3    3.90    0.75
  11   8  -3    9.77    1.16
  12   8  -3    0.84    0.58
  13   8  -3    2.68    0.86
  14   8  -3   -0.27    0.56
 -13   9  -3    2.08    1.28
 -12   9  -3    0.07    0.83
 -11   9  -3    2.99    1.28
 -10   9  -3    7.42    1.84
  -9   9  -3   49.99    4.08
  -8   9  -3   13.74    1.62
  -7   9  -3   13.52    1.60
  -6   9  -3   15.12    1.68
  -5   9  -3   67.78    3.19
  -4   9  -3    6.69    1.07
  -3   9  -3    1.83    0.40
  -2   9  -3   79.08    2.71
  -1   9  -3   13.48    1.17
   0   9  -3    0.08    0.26
   1   9  -3   11.82    1.10
   2   9  -3   79.15    2.76
   3   9  -3    3.10    0.59
   4   9  -3    6.58    0.84
   5   9  -3   69.03    2.58
   6   9  -3   14.65    1.30
   7   9  -3   10.67    1.46
   8   9  -3   15.31    1.79
   9   9  -3   57.22    2.47
  10   9  -3    4.58    0.84
  11   9  -3    1.66    0.62
  12   9  -3    0.01    0.55
  13   9  -3    1.11    0.74
  14   9  -3    0.05    0.74
 -13  10  -3    3.61    1.61
 -12  10  -3    0.70    0.95
 -11  10  -3   30.32    3.79
 -10  10  -3    1.93    1.00
  -9  10  -3    7.19    1.81
  -8  10  -3    0.96    0.90
  -7  10  -3    0.94    0.61
  -6  10  -3   18.19    1.86
  -5  10  -3    7.28    1.14
  -4  10  -3   26.56    2.19
  -3  10  -3   17.49    1.34
  -2  10  -3    5.08    0.73
  -1  10  -3   26.77    1.61
   0  10  -3   15.57    1.30
   1  10  -3   31.39    1.75
   2  10  -3    4.76    0.74
   3  10  -3   16.95    1.39
   4  10  -3   25.85    1.75
   5  10  -3    8.49    0.98
   6  10  -3   14.86    1.36
   7  10  -3    0.84    0.56
   8  10  -3    0.83    0.53
   9  10  -3    5.01    1.14
  10  10  -3    2.38    0.88
  11  10  -3   34.37    2.88
  12  10  -3    0.93    0.69
  13  10  -3    1.77    1.13
 -12  11  -3    1.01    1.06
 -11  11  -3    0.11    0.73
 -10  11  -3    0.28    0.74
  -9  11  -3   16.46    2.74
  -8  11  -3   -0.08    0.53
  -7  11  -3   62.59    3.49
  -6  11  -3    5.92    1.10
  -5  11  -3    0.22    0.45
  -4  11  -3    3.86    0.92
  -3  11  -3   -0.19    0.35
  -2  11  -3   23.25    1.66
  -1  11  -3   32.46    1.85
   0  11  -3    0.16    0.30
   1  11  -3   34.38    1.81
   2  11  -3   22.29    1.65
   3  11  -3    0.26    0.33
   4  11  -3    3.77    0.70
   5  11  -3    0.68    0.38
   6  11  -3    5.94    0.91
   7  11  -3   62.52    3.40
   8  11  -3    0.34    0.50
   9  11  -3   17.68    2.02
  10  11  -3    0.53    0.57
  11  11  -3   -0.34    0.58
  12  11  -3   -0.09    0.70
 -11  12  -3    5.01    1.66
 -10  12  -3    5.17    1.62
  -9  12  -3    3.25    1.28
  -8  12  -3    8.32    1.94
  -7  12  -3    5.24    1.59
  -6  12  -3    2.30    0.79
  -5  12  -3   10.33    1.48
  -4  12  -3   24.39    2.24
  -3  12  -3    6.27    1.13
  -2  12  -3    0.57    0.38
  -1  12  -3    3.61    0.67
   0  12  -3    2.57    0.61
   1  12  -3    4.19    0.76
   2  12  -3    0.54    0.38
   3  12  -3    6.91    0.99
   4  12  -3   20.42    1.67
   5  12  -3    8.70    1.09
   6  12  -3    4.71    0.81
   7  12  -3    9.30    1.17
   8  12  -3    3.11    0.91
   9  12  -3    3.71    0.99
  10  12  -3    5.21    1.20
  11  12  -3    3.79    1.06
  12  12  -3    0.29    1.17
 -10  13  -3   18.96    3.17
  -9  13  -3    5.26    1.71
  -8  13  -3   21.44    3.24
  -7  13  -3    0.85    0.90
  -6  13  -3    2.38    1.11
  -5  13  -3   -0.12    0.44
  -4  13  -3    2.15    0.72
  -3  13  -3   50.92    2.97
  -2  13  -3    8.15    1.04
  -1  13  -3    1.59    0.55
   0  13  -3    0.00    0.32
   1  13  -3    1.35    0.53
   2  13  -3    4.87    0.81
   3  13  -3   44.53    2.33
   4  13  -3    2.08    0.60
   5  13  -3    0.17    0.41
   6  13  -3    1.39    0.52
   7  13  -3    3.04    0.72
   8  13  -3   18.42    2.17
   9  13  -3    6.21    1.24
  10  13  -3   16.06    2.13
  11  13  -3   35.03    6.92
  -9  14  -3    1.56    1.32
  -8  14  -3   18.31    3.05
  -7  14  -3    1.86    1.13
  -6  14  -3    1.22    1.11
  -5  14  -3    1.63    0.78
  -4  14  -3   28.76    2.61
  -3  14  -3    0.01    0.50
  -2  14  -3    3.23    0.90
  -1  14  -3    8.70    1.10
   0  14  -3   23.29    1.82
   1  14  -3    9.63    1.19
   2  14  -3    1.96    0.61
   3  14  -3    0.88    0.47
   4  14  -3   30.61    2.22
   5  14  -3    0.82    0.52
   6  14  -3    0.23    0.46
   7  14  -3    1.19    0.55
   8  14  -3   15.91    2.12
   9  14  -3    1.06    0.85
  -7  15  -3    6.14    1.93
  -6  15  -3   11.38    2.50
  -5  15  -3   21.63    3.35
  -4  15  -3    9.42    1.50
  -3  15  -3   11.23    1.61
  -2  15  -3    0.17    0.52
  -1  15  -3    0.54    0.61
   0  15  -3   -0.10    0.47
   1  15  -3    0.54    0.45
   2  15  -3    0.00    0.41
   3  15  -3   11.39    1.36
   4  15  -3   11.80    1.33
   5  15  -3   21.36    1.85
   6  15  -3   10.18    1.31
   7  15  -3    7.69    1.13
  -5  16  -3    0.03    1.10
  -4  16  -3    0.83    0.90
  -3  16  -3   19.71    2.25
  -2  16  -3    9.62    1.64
  -1  16  -3    1.65    0.82
   0  16  -3   51.24    3.76
   1  16  -3    1.50    0.73
   2  16  -3    9.03    1.55
   3  16  -3   18.62    2.23
   4  16  -3    0.11    0.59
   5  16  -3    1.31    0.75
   6  16  -3    1.52    1.13
  -3  17  -3    0.99    1.24
  -2  17  -3    4.81    1.69
  -1  17  -3   21.30    2.63
   0  17  -3    0.33    0.71
   1  17  -3   19.49    2.31
   2  17  -3    5.89    1.43
   3  17  -3   -0.14    0.92
  -4 -18  -2   23.63    3.71
  -3 -18  -2    0.18    0.79
  -2 -18  -2    0.68    0.77
  -1 -18  -2    0.19    0.91
   0 -18  -2   -0.01    0.57
   1 -18  -2   -0.03    0.57
   2 -18  -2    1.80    0.85
   3 -18  -2   -0.48    0.59
   4 -18  -2   18.18    2.16
   5 -18  -2    0.04    0.87
  -7 -17  -2    5.44    2.76
  -6 -17  -2   16.95    2.13
  -5 -17  -2    4.63    1.18
  -4 -17  -2    6.02    1.30
  -3 -17  -2    2.59    0.95
  -2 -17  -2   13.31    1.84
  -1 -17  -2    2.55    0.71
   0 -17  -2   -0.58    0.52
   1 -17  -2    2.65    0.90
   2 -17  -2    9.78    1.51
   3 -17  -2    3.14    0.96
   4 -17  -2    7.27    1.39
   5 -17  -2    7.82    1.42
   6 -17  -2   18.55    2.25
  -9 -16  -2    1.34    1.20
  -8 -16  -2    1.04    0.77
  -7 -16  -2    1.93    0.89
  -6 -16  -2    1.55    0.78
  -5 -16  -2    2.86    0.95
  -4 -16  -2   38.10    3.14
  -3 -16  -2    0.22    0.62
  -2 -16  -2    0.56    0.59
  -1 -16  -2    5.27    0.94
   0 -16  -2   34.69    2.30
   1 -16  -2    5.59    1.18
   2 -16  -2    1.23    0.62
   3 -16  -2   -0.09    0.53
   4 -16  -2   36.86    3.01
   5 -16  -2    2.80    0.84
   6 -16  -2    1.10    0.77
   7 -16  -2    3.21    1.48
   8 -16  -2    1.32    1.10
 -10 -15  -2    8.20    1.69
  -9 -15  -2    2.99    0.83
  -8 -15  -2   10.49    1.69
  -7 -15  -2    6.19    1.28
  -6 -15  -2    1.38    0.73
  -5 -15  -2    1.33    0.66
  -4 -15  -2    1.87    0.65
  -3 -15  -2    1.16    0.63
  -2 -15  -2    1.16    0.49
  -1 -15  -2    0.09    0.38
   0 -15  -2   -0.06    0.32
   1 -15  -2    0.27    0.48
   2 -15  -2    1.13    0.63
   3 -15  -2    0.76    0.57
   4 -15  -2    2.72    0.91
   5 -15  -2    2.51    0.85
   6 -15  -2    1.41    0.72
   7 -15  -2    7.25    1.48
   8 -15  -2   13.50    2.77
   9 -15  -2    3.26    1.39
 -11 -14  -2    0.11    0.58
 -10 -14  -2    3.76    0.82
  -9 -14  -2    4.89    0.91
  -8 -14  -2   42.70    4.71
  -7 -14  -2   -0.52    0.42
  -6 -14  -2    4.27    1.11
  -5 -14  -2    6.22    1.22
  -4 -14  -2    3.88    0.96
  -3 -14  -2    0.54    0.49
  -2 -14  -2    1.15    0.50
  -1 -14  -2    5.90    0.92
   0 -14  -2  102.21    3.56
   1 -14  -2    5.66    0.83
   2 -14  -2    0.83    0.52
   3 -14  -2    0.39    0.51
   4 -14  -2    6.53    1.07
   5 -14  -2    7.36    1.28
   6 -14  -2    3.04    0.86
   7 -14  -2    0.39    0.54
   8 -14  -2   43.87    4.83
   9 -14  -2    8.67    2.16
  10 -14  -2    3.59    1.51
  11 -14  -2   -0.10    0.82
 -12 -13  -2   12.49    1.89
 -11 -13  -2    1.89    0.78
 -10 -13  -2    0.21    0.52
  -9 -13  -2    2.30    0.68
  -8 -13  -2    1.10    0.66
  -7 -13  -2    9.12    1.46
  -6 -13  -2   22.52    2.28
  -5 -13  -2   60.62    3.33
  -4 -13  -2   27.73    2.46
  -3 -13  -2   -0.25    0.28
  -2 -13  -2    0.41    0.37
  -1 -13  -2   11.79    1.22
   0 -13  -2   -0.14    0.30
   1 -13  -2   12.21    1.22
   2 -13  -2    0.50    0.39
   3 -13  -2   -0.05    0.39
   4 -13  -2   25.95    2.26
   5 -13  -2   63.61    3.24
   6 -13  -2   24.69    2.28
   7 -13  -2    7.78    1.27
   8 -13  -2   -0.39    0.62
   9 -13  -2    3.10    1.30
  10 -13  -2    0.42    0.58
  11 -13  -2    0.67    0.71
  12 -13  -2   12.67    1.81
 -13 -12  -2    1.91    0.92
 -12 -12  -2   12.37    1.76
 -11 -12  -2   17.96    2.17
 -10 -12  -2    1.44    0.59
  -9 -12  -2   10.18    1.25
  -8 -12  -2    1.86    0.75
  -7 -12  -2   16.88    1.90
  -6 -12  -2   17.61    1.95
  -5 -12  -2    4.30    0.98
  -4 -12  -2   21.86    2.16
  -3 -12  -2    5.58    0.84
  -2 -12  -2   31.37    1.79
  -1 -12  -2   39.02    1.95
   0 -12  -2   29.32    1.87
   1 -12  -2   39.59    1.83
   2 -12  -2   28.64    1.67
   3 -12  -2    6.85    1.13
   4 -12  -2   22.15    2.02
   5 -12  -2    1.78    0.59
   6 -12  -2   21.57    1.98
   7 -12  -2   15.46    1.71
   8 -12  -2    1.58    0.53
   9 -12  -2    9.72    1.45
  10 -12  -2    1.37    0.65
  11 -12  -2   18.48    2.10
  12 -12  -2   15.25    1.94
  13 -12  -2    1.68    0.84
 -14 -11  -2    2.95    1.46
 -13 -11  -2    0.05    0.63
 -12 -11  -2   -0.08    0.51
 -11 -11  -2    3.01    0.92
 -10 -11  -2   16.15    1.56
  -9 -11  -2   17.37    1.55
  -8 -11  -2    2.24    0.62
  -7 -11  -2    0.80    0.52
  -6 -11  -2    6.77    1.18
  -5 -11  -2   12.51    1.59
  -4 -11  -2    5.75    1.04
  -3 -11  -2   21.84    1.58
  -2 -11  -2    4.18    0.67
  -1 -11  -2   57.50    2.28
   0 -11  -2    0.12    0.28
   1 -11  -2   59.74    2.25
   2 -11  -2    3.05    0.56
   3 -11  -2   25.26    1.65
   4 -11  -2    6.01    0.99
   5 -11  -2   12.55    1.45
   6 -11  -2    8.30    0.96
   7 -11  -2    2.20    0.55
   8 -11  -2    3.16    0.65
   9 -11  -2   20.18    2.06
  10 -11  -2   14.80    1.81
  11 -11  -2    2.33    0.84
  12 -11  -2   -0.27    0.51
  13 -11  -2    0.38    0.63
  14 -11  -2    0.84    0.77
 -15 -10  -2   18.85    3.18
 -14 -10  -2   22.87    2.46
 -13 -10  -2   19.39    2.14
 -12 -10  -2   46.94    3.14
 -11 -10  -2    0.77    0.53
 -10 -10  -2    0.62    0.41
  -9 -10  -2    0.15    0.32
  -8 -10  -2    1.36    0.50
  -7 -10  -2    3.20    0.80
  -6 -10  -2    4.46    0.94
  -5 -10  -2    1.12    0.46
  -4 -10  -2   26.42    2.17
  -3 -10  -2   56.82    2.17
  -2 -10  -2   34.93    1.66
  -1 -10  -2   49.87    1.96
   0 -10  -2    5.00    0.69
   1 -10  -2   44.35    1.84
   2 -10  -2   38.69    1.67
   3 -10  -2   56.21    2.08
   4 -10  -2   25.69    1.47
   5 -10  -2    0.65    0.34
   6 -10  -2    7.85    0.91
   7 -10  -2    3.51    0.63
   8 -10  -2    1.44    0.46
   9 -10  -2   -0.29    0.32
  10 -10  -2   -0.07    0.40
  11 -10  -2    1.65    0.75
  12 -10  -2   48.98    2.96
  13 -10  -2   21.07    2.33
  14 -10  -2   19.28    2.23
 -15  -9  -2    1.66    0.81
 -14  -9  -2   15.49    1.99
 -13  -9  -2    2.24    0.81
 -12  -9  -2    6.02    1.13
 -11  -9  -2   21.74    2.19
 -10  -9  -2   24.73    1.83
  -9  -9  -2    7.70    0.92
  -8  -9  -2    1.10    0.44
  -7  -9  -2   11.74    1.17
  -6  -9  -2   52.60    2.75
  -5  -9  -2   24.64    2.05
  -4  -9  -2    2.35    0.48
  -3  -9  -2   50.97    2.00
  -2  -9  -2   11.57    1.01
  -1  -9  -2    4.05    0.53
   0  -9  -2    0.04    0.20
   1  -9  -2    3.30    0.55
   2  -9  -2   11.63    1.00
   3  -9  -2   54.63    1.69
   4  -9  -2    2.82    0.51
   5  -9  -2   26.24    1.49
   6  -9  -2   56.67    2.20
   7  -9  -2   15.06    1.25
   8  -9  -2    0.91    0.36
   9  -9  -2    6.85    0.87
  10  -9  -2   28.75    2.40
  11  -9  -2   21.58    2.15
  12  -9  -2    3.44    0.97
  13  -9  -2    1.15    0.67
  14  -9  -2   15.87    1.96
  15  -9  -2    1.13    0.73
 -15  -8  -2    0.59    0.62
 -14  -8  -2    0.08    0.49
 -13  -8  -2    2.54    0.81
 -12  -8  -2    1.29    0.62
 -11  -8  -2    2.37    0.74
 -10  -8  -2   15.33    1.76
  -9  -8  -2    6.95    0.90
  -8  -8  -2   67.83    2.59
  -7  -8  -2   15.92    1.32
  -6  -8  -2   24.17    1.60
  -5  -8  -2   22.68    1.84
  -4  -8  -2    9.41    0.87
  -3  -8  -2   47.98    1.79
  -2  -8  -2    2.62    0.45
  -1  -8  -2   46.60    1.81
   0  -8  -2   43.83    1.71
   1  -8  -2   51.80    1.53
   2  -8  -2    3.71    0.43
   3  -8  -2   45.52    1.46
   4  -8  -2    9.45    0.73
   5  -8  -2   20.66    1.41
   6  -8  -2   28.76    1.40
   7  -8  -2   17.04    1.30
   8  -8  -2   73.09    2.57
   9  -8  -2    6.62    0.82
  10  -8  -2   16.66    1.81
  11  -8  -2    2.41    0.79
  12  -8  -2    1.92    0.75
  13  -8  -2    2.85    0.89
  14  -8  -2    0.08    0.56
  15  -8  -2    0.42    0.60
  16  -8  -2    4.23    1.91
 -16  -7  -2   -0.47    0.83
 -15  -7  -2   -0.25    0.74
 -14  -7  -2    0.70    0.56
 -13  -7  -2    7.66    1.32
 -12  -7  -2    3.99    0.96
 -11  -7  -2    1.94    0.66
 -10  -7  -2    0.20    0.38
  -9  -7  -2   68.31    2.57
  -8  -7  -2   11.79    1.11
  -7  -7  -2   89.87    2.97
  -6  -7  -2    6.92    0.79
  -5  -7  -2    0.68    0.30
  -4  -7  -2    0.24    0.21
  -3  -7  -2   34.36    1.42
  -2  -7  -2   17.12    1.05
  -1  -7  -2   33.49    1.38
   0  -7  -2    0.10    0.14
   1  -7  -2   32.35    1.10
   2  -7  -2   16.45    0.81
   3  -7  -2   36.19    1.22
   4  -7  -2    0.19    0.17
   5  -7  -2    1.77    0.42
   6  -7  -2    8.04    0.84
   7  -7  -2   89.17    2.90
   8  -7  -2   15.04    1.24
   9  -7  -2   72.19    2.55
  10  -7  -2    0.00    0.37
  11  -7  -2    1.01    0.61
  12  -7  -2    3.35    0.86
  13  -7  -2    8.88    1.37
  14  -7  -2    0.12    0.52
  15  -7  -2   -0.04    0.55
  16  -7  -2    0.74    0.82
 -16  -6  -2   20.26    3.10
 -15  -6  -2   15.02    2.59
 -14  -6  -2   -0.26    0.48
 -13  -6  -2    4.02    0.94
 -12  -6  -2   18.43    1.90
 -11  -6  -2    7.19    1.16
 -10  -6  -2   16.20    1.71
  -9  -6  -2   12.93    1.13
  -8  -6  -2   41.93    1.79
  -7  -6  -2   33.68    1.54
  -6  -6  -2    2.74    0.49
  -5  -6  -2   54.77    2.03
  -4  -6  -2    0.23    0.16
  -3  -6  -2  271.55    6.30
  -2  -6  -2  112.71    3.06
  -1  -6  -2    0.21    0.19
   0  -6  -2   45.79    1.29
   1  -6  -2    0.29    0.15
   2  -6  -2  110.92    2.59
   3  -6  -2  274.33    5.43
   4  -6  -2    0.42    0.18
   5  -6  -2   55.92    1.61
   6  -6  -2    2.38    0.46
   7  -6  -2   32.85    1.50
   8  -6  -2   40.34    1.76
   9  -6  -2   15.10    1.22
  10  -6  -2   15.39    1.22
  11  -6  -2    6.86    1.20
  12  -6  -2   13.92    1.70
  13  -6  -2    4.26    0.99
  14  -6  -2   -0.17    0.41
  15  -6  -2   12.30    1.69
  16  -6  -2   14.57    1.91
 -16  -5  -2   -0.67    0.78
 -15  -5  -2    0.07    0.76
 -14  -5  -2    7.45    1.29
 -13  -5  -2    1.94    0.71
 -12  -5  -2    1.99    0.64
 -11  -5  -2    8.57    1.26
 -10  -5  -2   22.38    1.96
  -9  -5  -2   10.58    1.29
  -8  -5  -2    0.82    0.33
  -7  -5  -2   44.31    1.77
  -6  -5  -2   55.95    1.98
  -5  -5  -2    0.43    0.24
  -4  -5  -2    0.93    0.21
  -3  -5  -2    4.64    0.45
  -2  -5  -2  109.90    2.93
  -1  -5  -2   22.47    1.02
   0  -5  -2    0.10    0.13
   1  -5  -2   25.15    0.87
   2  -5  -2  107.20    2.50
   3  -5  -2    4.13    0.43
   4  -5  -2    0.96    0.22
   5  -5  -2    0.15    0.14
   6  -5  -2   52.28    1.93
   7  -5  -2   43.49    1.77
   8  -5  -2    0.63    0.28
   9  -5  -2   11.38    1.01
  10  -5  -2   21.46    1.49
  11  -5  -2   10.74    1.39
  12  -5  -2    1.63    0.61
  13  -5  -2    2.17    0.71
  14  -5  -2    9.11    1.41
  15  -5  -2   -0.10    0.53
  16  -5  -2   -0.08    0.60
  17  -5  -2   -0.11    0.94
 -17  -4  -2    0.88    1.01
 -16  -4  -2    2.69    1.23
 -15  -4  -2   30.78    3.77
 -14  -4  -2   13.45    2.29
 -13  -4  -2    4.89    0.98
 -12  -4  -2   88.55    3.85
 -11  -4  -2    3.62    0.78
 -10  -4  -2    4.75    0.89
  -9  -4  -2    8.75    1.16
  -8  -4  -2    1.19    0.32
  -7  -4  -2    1.00    0.31
  -6  -4  -2   79.94    2.51
  -5  -4  -2    6.39    0.65
  -4  -4  -2   27.28    0.89
  -3  -4  -2    0.25    0.13
  -2  -4  -2  130.63    2.84
  -1  -4  -2   46.37    1.30
   0  -4  -2   18.63    0.63
   1  -4  -2   45.09    1.29
   2  -4  -2  129.25    2.84
   3  -4  -2    0.09    0.11
   4  -4  -2   26.26    0.95
   5  -4  -2    7.81    0.57
   6  -4  -2   80.39    2.06
   7  -4  -2    1.24    0.35
   8  -4  -2    1.19    0.35
   9  -4  -2    8.64    0.89
  10  -4  -2    6.50    0.79
  11  -4  -2    2.84    0.69
  12  -4  -2   92.25    4.02
  13  -4  -2    6.55    1.16
  14  -4  -2   10.30    1.50
  15  -4  -2   28.26    2.53
  16  -4  -2    2.76    0.92
  17  -4  -2    0.70    1.02
 -17  -3  -2    2.65    1.30
 -16  -3  -2    4.01    1.42
 -15  -3  -2    1.43    0.95
 -14  -3  -2    3.93    1.22
 -13  -3  -2   11.49    1.38
 -12  -3  -2    1.74    0.60
 -11  -3  -2   33.92    2.02
 -10  -3  -2    0.07    0.30
  -9  -3  -2   98.71    3.80
  -8  -3  -2   80.32    2.46
  -7  -3  -2   17.79    1.02
  -6  -3  -2  188.91    4.75
  -5  -3  -2    6.78    0.65
  -4  -3  -2   15.51    0.60
  -3  -3  -2   86.23    1.99
  -2  -3  -2    1.72    0.24
  -1  -3  -2   44.23    1.23
   0  -3  -2    0.25    0.11
   1  -3  -2   45.55    1.07
   2  -3  -2    1.73    0.20
   3  -3  -2   86.93    1.75
   4  -3  -2   16.38    0.78
   5  -3  -2    6.43    0.51
   6  -3  -2  190.00    4.04
   7  -3  -2   14.37    1.06
   8  -3  -2   75.65    2.52
   9  -3  -2   98.09    3.08
  10  -3  -2    0.06    0.26
  11  -3  -2   29.77    1.64
  12  -3  -2    1.51    0.57
  13  -3  -2   12.18    1.56
  14  -3  -2    4.91    1.01
  15  -3  -2    0.98    0.62
  16  -3  -2    4.46    1.01
  17  -3  -2    3.31    1.02
 -17  -2  -2    0.80    0.87
 -16  -2  -2    2.05    1.02
 -15  -2  -2   37.36    4.06
 -14  -2  -2    2.32    1.00
 -13  -2  -2    1.21    0.78
 -12  -2  -2    0.59    0.42
 -11  -2  -2   31.12    2.02
 -10  -2  -2   45.39    2.28
  -9  -2  -2   11.57    1.26
  -8  -2  -2    3.70    0.68
  -7  -2  -2   19.72    1.06
  -6  -2  -2   39.92    1.46
  -5  -2  -2   30.08    1.18
  -4  -2  -2  216.02    5.11
  -3  -2  -2   30.79    0.88
  -2  -2  -2    3.92    0.33
  -1  -2  -2    0.75    0.16
   0  -2  -2    0.20    0.11
   1  -2  -2    0.70    0.13
   2  -2  -2    4.09    0.28
   3  -2  -2   29.29    0.97
   4  -2  -2  213.95    4.39
   5  -2  -2   29.71    1.00
   6  -2  -2   38.85    1.23
   7  -2  -2   18.00    0.86
   8  -2  -2    4.01    0.58
   9  -2  -2   10.21    0.93
  10  -2  -2   42.14    1.80
  11  -2  -2   29.56    1.61
  12  -2  -2    1.22    0.52
  13  -2  -2    0.92    0.53
  14  -2  -2    1.53    0.66
  15  -2  -2   34.74    2.86
  16  -2  -2    0.50    0.60
  17  -2  -2    0.62    0.64
 -17  -1  -2    2.90    1.30
 -16  -1  -2    6.62    1.78
 -15  -1  -2    0.01    0.64
 -14  -1  -2    0.81    0.68
 -13  -1  -2   10.24    1.92
 -12  -1  -2   27.96    2.15
 -11  -1  -2   10.45    1.27
 -10  -1  -2   18.87    1.67
  -9  -1  -2    9.23    1.12
  -8  -1  -2    5.10    0.77
  -7  -1  -2    4.70    0.52
  -6  -1  -2   49.63    1.64
  -5  -1  -2   18.66    0.90
  -4  -1  -2  139.52    3.51
  -3  -1  -2   35.52    1.08
  -2  -1  -2    7.72    0.43
  -1  -1  -2    2.89    0.29
   0  -1  -2    0.18    0.10
   1  -1  -2    2.64    0.27
   2  -1  -2    8.06    0.37
   3  -1  -2   34.40    1.08
   4  -1  -2  139.05    3.05
   5  -1  -2   17.13    0.76
   6  -1  -2   50.39    1.46
   7  -1  -2    6.01    0.52
   8  -1  -2    5.02    0.64
   9  -1  -2    8.47    0.86
  10  -1  -2   16.28    1.23
  11  -1  -2    8.92    0.91
  12  -1  -2   23.30    2.10
  13  -1  -2   11.91    1.47
  14  -1  -2    0.15    0.43
  15  -1  -2    0.19    0.47
  16  -1  -2    5.76    1.18
  17  -1  -2    1.94    0.86
 -17   0  -2    0.15    0.87
 -16   0  -2    1.68    0.99
 -15   0  -2    0.33    0.69
 -14   0  -2   72.82    4.89
 -13   0  -2   -0.20    0.48
 -12   0  -2   20.13    2.00
 -11   0  -2    0.41    0.36
 -10   0  -2   94.42    3.55
  -9   0  -2   -0.09    0.20
  -8   0  -2   79.53    3.01
  -7   0  -2   -0.01    0.20
  -6   0  -2    0.29    0.17
  -5   0  -2    0.17    0.14
  -4   0  -2    0.87    0.21
  -3   0  -2    0.10    0.09
  -2   0  -2    3.23    0.29
  -1   0  -2   -0.08    0.08
   0   0  -2  985.82   17.42
   1   0  -2   -0.11    0.07
   2   0  -2    3.30    0.27
   3   0  -2    0.11    0.08
   4   0  -2    1.20    0.22
   5   0  -2    0.22    0.15
   6   0  -2    0.36    0.17
   7   0  -2    0.13    0.14
   8   0  -2   73.54    2.04
   9   0  -2    0.21    0.24
  10   0  -2   89.06    2.91
  11   0  -2   -0.24    0.21
  12   0  -2   18.93    1.42
  13   0  -2    0.06    0.38
  14   0  -2   72.36    3.55
  15   0  -2    0.75    0.58
  16   0  -2    0.67    0.67
  17   0  -2   -0.07    0.87
 -17   1  -2    3.01    0.89
 -16   1  -2    4.39    1.54
 -15   1  -2    1.07    0.80
 -14   1  -2    0.15    0.54
 -13   1  -2   13.40    2.22
 -12   1  -2   22.54    2.80
 -11   1  -2   11.40    1.26
 -10   1  -2   16.51    1.48
  -9   1  -2   10.58    1.11
  -8   1  -2    5.33    0.78
  -7   1  -2    3.77    0.64
  -6   1  -2   47.76    1.54
  -5   1  -2   19.15    0.82
  -4   1  -2  139.37    3.44
  -3   1  -2   36.72    1.23
  -2   1  -2    7.85    0.45
  -1   1  -2    2.94    0.29
   0   1  -2    0.04    0.10
   1   1  -2    2.90    0.29
   2   1  -2    7.68    0.44
   3   1  -2   36.87    0.93
   4   1  -2  139.25    2.65
   5   1  -2   19.02    0.62
   6   1  -2   50.91    1.23
   7   1  -2    5.26    0.51
   8   1  -2    3.91    0.45
   9   1  -2    8.95    0.73
  10   1  -2   15.75    1.23
  11   1  -2    9.93    0.98
  12   1  -2   25.05    1.51
  13   1  -2   10.95    1.41
  14   1  -2    0.92    0.59
  15   1  -2   -0.02    0.52
  16   1  -2    4.94    1.11
  17   1  -2    1.56    1.18
 -17   2  -2   -0.03    0.52
 -16   2  -2   -0.40    0.71
 -15   2  -2   39.09    4.15
 -14   2  -2    1.39    0.81
 -13   2  -2   -0.08    0.42
 -12   2  -2    0.76    0.55
 -11   2  -2   31.08    2.54
 -10   2  -2   44.61    2.17
  -9   2  -2    9.88    1.09
  -8   2  -2    4.67    0.73
  -7   2  -2   21.56    1.40
  -6   2  -2   41.56    1.32
  -5   2  -2   30.39    1.07
  -4   2  -2  215.58    5.00
  -3   2  -2   29.38    1.08
  -2   2  -2    3.26    0.38
  -1   2  -2    0.65    0.16
   0   2  -2    0.05    0.10
   1   2  -2    0.90    0.18
   2   2  -2    3.92    0.36
   3   2  -2   30.11    0.94
   4   2  -2  215.77    4.35
   5   2  -2   27.74    0.85
   6   2  -2   41.08    1.10
   7   2  -2   19.37    0.74
   8   2  -2    4.45    0.52
   9   2  -2   11.54    0.84
  10   2  -2   43.41    1.82
  11   2  -2   25.59    1.53
  12   2  -2    1.50    0.44
  13   2  -2    1.19    0.51
  14   2  -2    3.19    0.83
  15   2  -2   38.27    2.96
  16   2  -2    0.29    0.53
  17   2  -2    2.14    1.25
 -17   3  -2    1.93    0.74
 -16   3  -2    2.55    0.84
 -15   3  -2    1.12    0.80
 -14   3  -2    1.39    0.75
 -13   3  -2   14.46    2.35
 -12   3  -2    2.09    0.91
 -11   3  -2   30.50    3.23
 -10   3  -2    0.24    0.30
  -9   3  -2  101.63    3.69
  -8   3  -2   76.29    3.00
  -7   3  -2   15.08    1.28
  -6   3  -2  196.17    5.85
  -5   3  -2    7.54    0.58
  -4   3  -2   15.90    0.81
  -3   3  -2   88.45    2.36
  -2   3  -2    1.39    0.26
  -1   3  -2   46.34    1.40
   0   3  -2    0.03    0.10
   1   3  -2   43.06    1.23
   2   3  -2    1.34    0.23
   3   3  -2   84.61    2.06
   4   3  -2   15.55    0.72
   5   3  -2    6.50    0.48
   6   3  -2  193.22    3.64
   7   3  -2   16.75    0.76
   8   3  -2   79.90    1.94
   9   3  -2  101.89    2.67
  10   3  -2    0.34    0.24
  11   3  -2   33.36    1.67
  12   3  -2    1.87    0.49
  13   3  -2   12.62    1.51
  14   3  -2    4.52    0.96
  15   3  -2    1.87    0.75
  16   3  -2    2.06    0.82
  17   3  -2    3.24    1.39
 -17   4  -2    0.32    0.57
 -16   4  -2    1.89    0.76
 -15   4  -2   37.33    4.03
 -14   4  -2    9.55    1.34
 -13   4  -2    4.12    1.35
 -12   4  -2   80.60    5.24
 -11   4  -2    2.32    0.89
 -10   4  -2    3.67    1.07
  -9   4  -2    9.76    1.10
  -8   4  -2    1.92    0.51
  -7   4  -2    1.12    0.38
  -6   4  -2   83.43    3.08
  -5   4  -2    7.76    0.61
  -4   4  -2   28.43    1.07
  -3   4  -2    0.17    0.16
  -2   4  -2  126.17    3.24
  -1   4  -2   45.82    1.50
   0   4  -2   17.71    0.72
   1   4  -2   45.67    1.30
   2   4  -2  126.11    2.85
   3   4  -2    0.13    0.12
   4   4  -2   28.08    0.99
   5   4  -2    6.68    0.55
   6   4  -2   82.87    1.92
   7   4  -2    0.55    0.19
   8   4  -2    1.28    0.26
   9   4  -2    7.88    0.73
  10   4  -2    5.34    0.63
  11   4  -2    4.54    0.68
  12   4  -2   94.55    3.13
  13   4  -2    6.46    0.87
  14   4  -2   10.86    1.48
  15   4  -2   31.03    2.58
  16   4  -2    3.42    0.89
  17   4  -2    0.94    0.92
 -17   5  -2   -0.11    0.91
 -16   5  -2   -0.01    0.50
 -15   5  -2   -0.18    0.46
 -14   5  -2    8.09    1.24
 -13   5  -2    1.06    0.56
 -12   5  -2    1.77    0.84
 -11   5  -2   10.23    1.86
 -10   5  -2   22.07    2.73
  -9   5  -2   10.26    1.13
  -8   5  -2    0.55    0.33
  -7   5  -2   46.50    2.12
  -6   5  -2   51.34    2.28
  -5   5  -2    0.24    0.18
  -4   5  -2    0.60    0.20
  -3   5  -2    4.09    0.46
  -2   5  -2  104.54    2.87
  -1   5  -2   23.48    1.01
   0   5  -2    0.14    0.14
   1   5  -2   22.99    0.89
   2   5  -2  107.41    2.54
   3   5  -2    3.40    0.39
   4   5  -2    1.13    0.25
   5   5  -2    0.66    0.21
   6   5  -2   55.59    1.63
   7   5  -2   47.92    1.50
   8   5  -2    1.15    0.27
   9   5  -2   10.60    0.87
  10   5  -2   20.78    1.27
  11   5  -2   10.80    0.91
  12   5  -2    1.75    0.49
  13   5  -2    1.09    0.46
  14   5  -2    9.06    1.23
  15   5  -2    0.46    0.56
  16   5  -2   -0.80    0.77
  17   5  -2   -0.69    0.96
 -16   6  -2   18.81    2.13
 -15   6  -2   12.56    1.63
 -14   6  -2    0.16    0.41
 -13   6  -2    4.56    0.86
 -12   6  -2   18.19    1.80
 -11   6  -2    6.61    1.04
 -10   6  -2   19.63    1.71
  -9   6  -2   14.85    2.08
  -8   6  -2   41.95    2.05
  -7   6  -2   30.79    1.69
  -6   6  -2    2.49    0.52
  -5   6  -2   57.27    1.81
  -4   6  -2    0.20    0.18
  -3   6  -2  266.12    6.22
  -2   6  -2  108.53    2.98
  -1   6  -2    0.31    0.20
   0   6  -2   45.41    1.59
   1   6  -2    0.10    0.16
   2   6  -2  108.93    3.06
   3   6  -2  260.07    5.46
   4   6  -2    0.40    0.19
   5   6  -2   55.62    1.69
   6   6  -2    2.31    0.36
   7   6  -2   30.24    1.21
   8   6  -2   42.66    1.49
   9   6  -2   14.96    0.99
  10   6  -2   18.33    1.24
  11   6  -2    6.76    0.75
  12   6  -2   14.88    1.32
  13   6  -2    4.41    0.69
  14   6  -2    0.04    0.49
  15   6  -2   14.00    1.76
  16   6  -2   15.73    2.80
 -16   7  -2    1.53    0.71
 -15   7  -2    0.00    0.48
 -14   7  -2    0.10    0.43
 -13   7  -2    3.33    0.80
 -12   7  -2    3.04    0.76
 -11   7  -2    1.14    0.49
 -10   7  -2    0.53    0.40
  -9   7  -2   72.83    3.01
  -8   7  -2   14.54    1.08
  -7   7  -2   90.96    2.73
  -6   7  -2    6.78    0.69
  -5   7  -2    1.79    0.29
  -4   7  -2    0.22    0.15
  -3   7  -2   35.09    1.09
  -2   7  -2   15.47    1.03
  -1   7  -2   30.48    1.31
   0   7  -2    0.11    0.18
   1   7  -2   33.59    1.38
   2   7  -2   14.96    1.07
   3   7  -2   33.46    1.44
   4   7  -2   -0.05    0.15
   5   7  -2    1.52    0.32
   6   7  -2    7.07    0.66
   7   7  -2   90.87    2.50
   8   7  -2   13.44    0.98
   9   7  -2   67.61    2.14
  10   7  -2    0.03    0.29
  11   7  -2    0.42    0.35
  12   7  -2    4.56    0.78
  13   7  -2    6.49    1.06
  14   7  -2    0.40    0.74
  15   7  -2    1.27    0.91
 -16   8  -2    5.70    1.17
 -15   8  -2   -0.19    0.51
 -14   8  -2    0.05    0.45
 -13   8  -2    1.04    0.57
 -12   8  -2    2.94    0.77
 -11   8  -2    3.23    0.75
 -10   8  -2   13.76    1.41
  -9   8  -2    7.53    1.07
  -8   8  -2   72.09    2.97
  -7   8  -2   17.56    1.17
  -6   8  -2   28.95    1.33
  -5   8  -2   19.51    1.62
  -4   8  -2    8.58    0.79
  -3   8  -2   42.87    1.66
  -2   8  -2    2.77    0.45
  -1   8  -2   51.35    1.85
   0   8  -2   45.83    1.74
   1   8  -2   51.14    1.87
   2   8  -2    3.23    0.50
   3   8  -2   44.91    1.80
   4   8  -2    8.06    0.85
   5   8  -2   19.26    1.34
   6   8  -2   25.64    1.45
   7   8  -2   16.22    1.07
   8   8  -2   68.04    2.16
   9   8  -2    7.27    0.73
  10   8  -2   17.35    1.33
  11   8  -2    3.23    0.65
  12   8  -2    1.69    0.50
  13   8  -2    4.86    0.99
  14   8  -2   -0.04    0.52
 -15   9  -2    1.03    0.98
 -14   9  -2   20.15    3.04
 -13   9  -2    1.88    1.01
 -12   9  -2    4.19    1.37
 -11   9  -2   14.83    2.46
 -10   9  -2   29.56    3.38
  -9   9  -2    6.45    1.51
  -8   9  -2    0.70    0.65
  -7   9  -2   17.94    1.57
  -6   9  -2   55.25    2.57
  -5   9  -2   24.62    1.88
  -4   9  -2    3.20    0.49
  -3   9  -2   53.85    1.95
  -2   9  -2   11.13    0.98
  -1   9  -2    3.58    0.57
   0   9  -2   -0.20    0.18
   1   9  -2    2.94    0.49
   2   9  -2   12.16    1.04
   3   9  -2   55.76    2.09
   4   9  -2    1.89    0.45
   5   9  -2   24.21    1.58
   6   9  -2   55.03    2.20
   7   9  -2   14.20    1.23
   8   9  -2    0.97    0.39
   9   9  -2    6.70    0.88
  10   9  -2   27.41    1.83
  11   9  -2   24.00    2.18
  12   9  -2    3.40    0.93
  13   9  -2    1.17    0.95
  14   9  -2   16.73    2.75
 -15  10  -2   16.86    2.83
 -14  10  -2   16.68    2.81
 -13  10  -2   28.44    3.65
 -12  10  -2   40.57    4.30
 -11  10  -2    0.95    0.85
 -10  10  -2   -0.01    0.49
  -9  10  -2    1.55    0.83
  -8  10  -2    0.79    0.74
  -7  10  -2    3.30    1.08
  -6  10  -2    7.55    1.08
  -5  10  -2    1.00    0.48
  -4  10  -2   27.92    2.10
  -3  10  -2   54.03    2.03
  -2  10  -2   40.41    1.69
  -1  10  -2   47.58    1.89
   0  10  -2    4.26    0.59
   1  10  -2   45.54    1.89
   2  10  -2   40.48    1.76
   3  10  -2   55.48    2.17
   4  10  -2   26.32    1.58
   5  10  -2    0.84    0.36
   6  10  -2    7.36    0.89
   7  10  -2    4.92    0.74
   8  10  -2    0.56    0.38
   9  10  -2    0.12    0.33
  10  10  -2   -0.01    0.36
  11  10  -2    1.14    0.68
  12  10  -2   46.68    2.87
  13  10  -2   22.18    2.34
  14  10  -2   21.78    3.29
 -14  11  -2    3.93    1.57
 -13  11  -2   -0.49    0.63
 -12  11  -2    0.44    0.75
 -11  11  -2    2.46    1.17
 -10  11  -2   13.64    2.33
  -9  11  -2   18.76    2.79
  -8  11  -2    2.96    1.08
  -7  11  -2    2.05    0.89
  -6  11  -2    8.78    1.25
  -5  11  -2   13.02    1.46
  -4  11  -2    5.21    0.91
  -3  11  -2   26.89    2.14
  -2  11  -2    3.82    0.63
  -1  11  -2   57.14    2.23
   0  11  -2    0.13    0.26
   1  11  -2   62.56    2.33
   2  11  -2    2.27    0.48
   3  11  -2   27.52    1.78
   4  11  -2    6.07    0.83
   5  11  -2   15.39    1.31
   6  11  -2    6.98    0.91
   7  11  -2    1.08    0.42
   8  11  -2    2.71    0.59
   9  11  -2   20.77    1.66
  10  11  -2   18.80    1.62
  11  11  -2    2.58    0.88
  12  11  -2   -0.20    0.55
  13  11  -2    0.84    0.67
  14  11  -2    2.63    1.40
 -13  12  -2    0.36    0.81
 -12  12  -2   16.52    2.83
 -11  12  -2   14.93    2.66
 -10  12  -2    1.83    1.01
  -9  12  -2    8.26    1.85
  -8  12  -2    2.00    0.99
  -7  12  -2   17.02    2.57
  -6  12  -2   16.04    2.45
  -5  12  -2    3.19    0.82
  -4  12  -2   21.34    1.98
  -3  12  -2    8.10    1.19
  -2  12  -2   35.55    2.33
  -1  12  -2   39.81    1.85
   0  12  -2   28.54    1.84
   1  12  -2   37.88    1.92
   2  12  -2   28.42    1.88
   3  12  -2    5.33    0.80
   4  12  -2   20.23    1.58
   5  12  -2    1.53    0.50
   6  12  -2   15.96    1.44
   7  12  -2   13.61    1.35
   8  12  -2    2.26    0.62
   9  12  -2    6.30    0.89
  10  12  -2    1.54    0.57
  11  12  -2   22.72    2.38
  12  12  -2   11.84    1.70
  13  12  -2    1.82    1.39
 -12  13  -2   12.87    2.52
 -11  13  -2    2.63    1.27
 -10  13  -2    1.05    0.95
  -9  13  -2    3.90    1.48
  -8  13  -2    0.01    0.62
  -7  13  -2    8.65    1.95
  -6  13  -2   22.94    3.10
  -5  13  -2   66.83    3.22
  -4  13  -2   26.78    2.25
  -3  13  -2    0.40    0.40
  -2  13  -2    0.34    0.46
  -1  13  -2   12.70    1.51
   0  13  -2   -0.06    0.31
   1  13  -2   11.36    1.21
   2  13  -2    0.01    0.34
   3  13  -2    0.42    0.33
   4  13  -2   25.46    1.86
   5  13  -2   61.60    2.63
   6  13  -2   21.58    1.75
   7  13  -2    8.20    1.10
   8  13  -2    0.50    0.39
   9  13  -2    4.02    0.81
  10  13  -2    0.76    0.51
  11  13  -2    1.57    0.82
  12  13  -2   14.23    2.92
 -11  14  -2   -0.03    0.87
 -10  14  -2    5.71    1.71
  -9  14  -2    8.95    2.18
  -8  14  -2   40.35    4.55
  -7  14  -2    0.27    0.81
  -6  14  -2    4.13    1.48
  -5  14  -2    5.80    1.62
  -4  14  -2    8.24    1.29
  -3  14  -2    1.22    0.56
  -2  14  -2    1.65    0.68
  -1  14  -2    3.35    0.82
   0  14  -2   94.96    4.38
   1  14  -2    5.56    1.11
   2  14  -2    0.30    0.46
   3  14  -2    0.02    0.48
   4  14  -2    5.06    1.08
   5  14  -2    7.82    1.07
   6  14  -2    3.24    0.74
   7  14  -2    0.29    0.42
   8  14  -2   36.05    2.97
   9  14  -2    6.46    1.20
  10  14  -2    6.04    1.29
  11  14  -2    0.54    1.14
 -10  15  -2    5.61    1.83
  -9  15  -2    3.11    1.32
  -8  15  -2   16.79    2.84
  -7  15  -2    6.59    1.88
  -6  15  -2    0.14    0.84
  -5  15  -2    1.42    0.94
  -4  15  -2    5.81    1.64
  -3  15  -2    0.87    0.60
  -2  15  -2    1.38    0.68
  -1  15  -2   -0.21    0.44
   0  15  -2   -0.13    0.46
   1  15  -2    0.19    0.47
   2  15  -2    1.56    0.75
   3  15  -2    3.58    0.95
   4  15  -2    2.76    0.93
   5  15  -2    1.30    0.74
   6  15  -2    1.14    0.70
   7  15  -2    5.16    1.13
   8  15  -2   11.88    1.71
   9  15  -2    3.73    1.11
  10  15  -2    8.43    1.53
  -8  16  -2    1.21    1.04
  -7  16  -2    2.76    1.28
  -6  16  -2    0.23    0.74
  -5  16  -2    2.05    1.03
  -4  16  -2   32.20    3.91
  -3  16  -2   -0.20    0.50
  -2  16  -2    0.60    0.58
  -1  16  -2    6.72    1.27
   0  16  -2   37.80    3.05
   1  16  -2    7.14    1.35
   2  16  -2    0.82    0.63
   3  16  -2   -0.35    0.50
   4  16  -2   34.37    2.95
   5  16  -2    4.85    1.16
   6  16  -2    1.74    0.75
   7  16  -2    2.39    0.90
   8  16  -2    2.03    0.85
   9  16  -2    1.65    1.08
  -6  17  -2   22.79    3.45
  -5  17  -2    2.55    1.25
  -4  17  -2    7.37    2.00
  -3  17  -2    4.24    1.53
  -2  17  -2   11.85    1.71
  -1  17  -2    1.19    0.65
   0  17  -2   -0.05    0.51
   1  17  -2    2.44    0.93
   2  17  -2   11.57    1.76
   3  17  -2    2.89    0.95
   4  17  -2    6.46    1.32
   5  17  -2    2.88    0.97
   6  17  -2   17.66    2.18
   7  17  -2    4.96    1.61
  -3  18  -2    1.38    1.14
  -2  18  -2    1.18    1.10
  -1  18  -2    1.15    0.74
   0  18  -2   -0.25    0.64
   1  18  -2    0.58    0.71
   2  18  -2    1.39    0.79
   3  18  -2   -0.34    0.65
   4  18  -2   23.38    3.85
  -4 -19  -1    2.85    1.63
  -3 -19  -1    3.68    1.10
  -2 -19  -1    1.12    0.61
  -1 -19  -1    1.47    0.85
   0 -19  -1    0.09    0.61
   1 -19  -1    3.99    1.16
   2 -19  -1    1.04    0.77
   3 -19  -1    4.58    1.28
   4 -19  -1    0.82    1.14
  -6 -18  -1   -0.48    0.60
  -5 -18  -1   -0.53    0.58
  -4 -18  -1    0.00    0.55
  -3 -18  -1    1.26    0.58
  -2 -18  -1    2.30    0.66
  -1 -18  -1    0.79    0.46
   0 -18  -1    1.36    0.77
   1 -18  -1    0.37    0.57
   2 -18  -1    4.30    1.05
   3 -18  -1    2.63    0.92
   4 -18  -1    0.75    0.68
   5 -18  -1   -0.39    0.81
   6 -18  -1    0.30    0.97
  -8 -17  -1   -0.08    0.62
  -7 -17  -1    2.76    0.97
  -6 -17  -1    0.06    0.54
  -5 -17  -1    0.26    0.56
  -4 -17  -1   10.52    1.27
  -3 -17  -1    0.01    0.41
  -2 -17  -1    7.10    1.01
  -1 -17  -1   25.54    1.96
   0 -17  -1    0.21    0.38
   1 -17  -1   27.22    2.53
   2 -17  -1    7.20    1.30
   3 -17  -1    0.07    0.54
   4 -17  -1   11.30    1.59
   5 -17  -1    0.46    0.59
   6 -17  -1    1.07    0.95
   7 -17  -1    4.31    1.63
   8 -17  -1    0.94    0.92
 -10 -16  -1    0.54    1.06
  -9 -16  -1   -0.20    0.59
  -8 -16  -1    0.08    0.59
  -7 -16  -1    6.20    1.30
  -6 -16  -1    1.08    0.66
  -5 -16  -1    1.61    0.72
  -4 -16  -1    0.01    0.40
  -3 -16  -1   21.01    1.79
  -2 -16  -1   15.41    1.48
  -1 -16  -1    3.51    0.76
   0 -16  -1   76.79    3.01
   1 -16  -1    2.99    0.66
   2 -16  -1   17.12    1.95
   3 -16  -1   29.39    2.50
   4 -16  -1   -0.29    0.45
   5 -16  -1   -0.17    0.47
   6 -16  -1    3.82    1.57
   7 -16  -1   10.68    2.47
   8 -16  -1    0.38    0.83
   9 -16  -1    0.60    0.90
 -11 -15  -1    0.83    0.75
 -10 -15  -1    1.33    0.73
  -9 -15  -1   -0.41    0.45
  -8 -15  -1    0.08    0.49
  -7 -15  -1   10.03    1.63
  -6 -15  -1   13.15    1.79
  -5 -15  -1   29.27    2.07
  -4 -15  -1   18.08    1.60
  -3 -15  -1   16.37    1.47
  -2 -15  -1    0.30    0.35
  -1 -15  -1    1.50    0.49
   0 -15  -1    0.13    0.34
   1 -15  -1    1.95    0.52
   2 -15  -1    0.36    0.47
   3 -15  -1   18.72    1.91
   4 -15  -1   19.80    2.03
   5 -15  -1   35.52    2.74
   6 -15  -1   12.81    1.65
   7 -15  -1   10.05    2.17
   8 -15  -1    0.13    0.85
   9 -15  -1    0.11    0.75
  10 -15  -1    0.77    0.62
  11 -15  -1    0.45    0.74
 -12 -14  -1    1.73    0.85
 -11 -14  -1    0.07    0.63
 -10 -14  -1    0.00    0.63
  -9 -14  -1    4.34    1.07
  -8 -14  -1   19.89    2.17
  -7 -14  -1    1.83    0.69
  -6 -14  -1    0.03    0.41
  -5 -14  -1    1.11    0.44
  -4 -14  -1   47.51    2.18
  -3 -14  -1    1.48    0.50
  -2 -14  -1    1.75    0.52
  -1 -14  -1   15.01    1.35
   0 -14  -1   32.02    2.04
   1 -14  -1   16.82    1.39
   2 -14  -1    3.34    0.60
   3 -14  -1    1.34    0.62
   4 -14  -1   46.25    2.66
   5 -14  -1    0.96    0.55
   6 -14  -1    0.15    0.39
   7 -14  -1    1.36    0.68
   8 -14  -1   28.27    2.53
   9 -14  -1    3.85    0.98
  10 -14  -1   -0.35    0.43
  11 -14  -1   -0.13    0.60
  12 -14  -1    2.61    0.93
 -13 -13  -1   15.81    2.12
 -12 -13  -1    2.23    0.86
 -11 -13  -1   35.49    2.44
 -10 -13  -1   22.60    2.33
  -9 -13  -1    9.11    1.43
  -8 -13  -1   28.24    2.53
  -7 -13  -1    4.33    0.97
  -6 -13  -1    4.12    0.96
  -5 -13  -1    0.46    0.33
  -4 -13  -1    3.60    0.67
  -3 -13  -1   80.89    2.92
  -2 -13  -1    9.40    1.03
  -1 -13  -1    3.27    0.64
   0 -13  -1    0.09    0.29
   1 -13  -1    2.54    0.56
   2 -13  -1    8.02    0.94
   3 -13  -1   84.26    3.62
   4 -13  -1    2.71    0.68
   5 -13  -1    0.33    0.33
   6 -13  -1    4.07    0.70
   7 -13  -1    4.69    0.95
   8 -13  -1   24.59    2.30
   9 -13  -1    9.15    1.32
  10 -13  -1   21.05    2.25
  11 -13  -1   39.83    3.10
  12 -13  -1    3.20    0.98
  13 -13  -1   18.95    2.30
 -14 -12  -1    6.76    1.38
 -13 -12  -1    3.36    1.02
 -12 -12  -1   -0.01    0.59
 -11 -12  -1    4.48    0.89
 -10 -12  -1    4.95    1.08
  -9 -12  -1    9.35    1.44
  -8 -12  -1    8.65    1.34
  -7 -12  -1   10.51    1.44
  -6 -12  -1    5.65    0.79
  -5 -12  -1   12.46    1.18
  -4 -12  -1   26.59    1.76
  -3 -12  -1   12.39    1.18
  -2 -12  -1    1.91    0.49
  -1 -12  -1    8.10    0.92
   0 -12  -1    3.57    0.61
   1 -12  -1   10.92    1.06
   2 -12  -1    2.07    0.51
   3 -12  -1   12.69    1.09
   4 -12  -1   30.59    1.62
   5 -12  -1   14.84    1.26
   6 -12  -1    5.50    0.77
   7 -12  -1   13.47    1.21
   8 -12  -1   11.77    1.56
   9 -12  -1    7.48    1.28
  10 -12  -1    5.10    1.05
  11 -12  -1    6.63    1.27
  12 -12  -1    0.78    0.69
  13 -12  -1    4.43    1.15
  14 -12  -1    4.70    1.22
 -15 -11  -1    4.07    1.12
 -14 -11  -1   -0.13    0.58
 -13 -11  -1    2.89    0.94
 -12 -11  -1    0.57    0.61
 -11 -11  -1   -0.22    0.34
 -10 -11  -1    0.15    0.46
  -9 -11  -1   29.15    2.49
  -8 -11  -1    0.95    0.50
  -7 -11  -1  105.97    4.44
  -6 -11  -1    8.12    0.91
  -5 -11  -1    0.93    0.36
  -4 -11  -1    4.94    0.71
  -3 -11  -1    0.40    0.29
  -2 -11  -1   41.29    1.79
  -1 -11  -1   53.91    2.10
   0 -11  -1   -0.02    0.23
   1 -11  -1   55.34    2.09
   2 -11  -1   42.66    1.48
   3 -11  -1    0.31    0.23
   4 -11  -1    5.94    0.74
   5 -11  -1    1.04    0.38
   6 -11  -1    7.96    0.88
   7 -11  -1  112.27    4.09
   8 -11  -1    0.95    0.49
   9 -11  -1   29.77    2.49
  10 -11  -1    0.21    0.47
  11 -11  -1    0.32    0.46
  12 -11  -1   -0.25    0.46
  13 -11  -1    2.90    0.94
  14 -11  -1    0.41    0.66
  15 -11  -1    4.30    1.51
 -15 -10  -1    1.45    0.72
 -14 -10  -1    2.65    0.86
 -13 -10  -1    5.46    1.14
 -12 -10  -1    0.43    0.50
 -11 -10  -1   47.14    2.34
 -10 -10  -1    3.98    0.73
  -9 -10  -1    6.12    1.05
  -8 -10  -1    0.75    0.42
  -7 -10  -1    1.30    0.57
  -6 -10  -1   28.66    1.51
  -5 -10  -1   13.78    1.15
  -4 -10  -1   43.78    1.80
  -3 -10  -1   33.85    1.54
  -2 -10  -1    8.92    0.89
  -1 -10  -1   50.91    1.93
   0 -10  -1   26.87    1.33
   1 -10  -1   48.43    1.55
   2 -10  -1   10.70    0.79
   3 -10  -1   36.21    1.30
   4 -10  -1   43.86    1.46
   5 -10  -1   14.41    1.16
   6 -10  -1   27.66    1.45
   7 -10  -1    1.79    0.44
   8 -10  -1    0.92    0.46
   9 -10  -1    6.82    1.13
  10 -10  -1    4.00    0.92
  11 -10  -1   47.19    2.77
  12 -10  -1   -0.13    0.47
  13 -10  -1    5.15    1.09
  14 -10  -1    4.39    1.09
  15 -10  -1    1.45    0.73
 -16  -9  -1    0.32    0.90
 -15  -9  -1    2.17    0.95
 -14  -9  -1    0.82    0.63
 -13  -9  -1    1.49    0.64
 -12  -9  -1    0.13    0.42
 -11  -9  -1    2.70    0.61
 -10  -9  -1    7.61    0.95
  -9  -9  -1   87.18    3.72
  -8  -9  -1   22.52    1.97
  -7  -9  -1   17.60    1.71
  -6  -9  -1   24.19    1.35
  -5  -9  -1  118.38    3.48
  -4  -9  -1   12.14    1.01
  -3  -9  -1    6.14    0.73
  -2  -9  -1  128.70    3.61
  -1  -9  -1   23.21    1.26
   0  -9  -1    0.23    0.17
   1  -9  -1   24.99    0.98
   2  -9  -1  127.15    3.01
   3  -9  -1    5.78    0.55
   4  -9  -1   12.41    0.81
   5  -9  -1  114.88    3.42
   6  -9  -1   22.65    1.32
   7  -9  -1   20.19    1.27
   8  -9  -1   24.59    1.40
   9  -9  -1   80.53    3.66
  10  -9  -1    8.21    1.23
  11  -9  -1    2.90    0.76
  12  -9  -1    0.14    0.43
  13  -9  -1    1.33    0.68
  14  -9  -1    0.68    0.60
  15  -9  -1    3.40    0.97
  16  -9  -1    0.47    0.96
 -16  -8  -1    2.05    1.21
 -15  -8  -1    1.84    1.09
 -14  -8  -1    0.31    0.46
 -13  -8  -1    1.70    0.62
 -12  -8  -1    0.99    0.52
 -11  -8  -1   12.05    1.33
 -10  -8  -1    6.51    0.85
  -9  -8  -1   29.45    1.72
  -8  -8  -1    1.53    0.50
  -7  -8  -1   13.76    1.05
  -6  -8  -1    8.96    0.84
  -5  -8  -1   47.11    1.75
  -4  -8  -1   35.23    1.43
  -3  -8  -1   21.18    1.20
  -2  -8  -1   28.16    0.97
  -1  -8  -1   37.09    1.14
   0  -8  -1   64.14    1.70
   1  -8  -1   35.63    1.17
   2  -8  -1   27.90    1.02
   3  -8  -1   23.02    0.90
   4  -8  -1   34.02    1.14
   5  -8  -1   47.68    1.46
   6  -8  -1    7.65    0.76
   7  -8  -1   12.17    0.99
   8  -8  -1    2.47    0.47
   9  -8  -1   34.04    2.05
  10  -8  -1    7.42    1.11
  11  -8  -1   10.63    1.47
  12  -8  -1    0.74    0.53
  13  -8  -1    2.68    0.90
  14  -8  -1   -0.24    0.40
  15  -8  -1    2.46    0.80
  16  -8  -1    4.61    1.18
 -17  -7  -1   13.15    2.46
 -16  -7  -1    1.04    0.85
 -15  -7  -1   21.30    3.02
 -14  -7  -1    0.80    0.55
 -13  -7  -1   92.79    4.15
 -12  -7  -1    0.31    0.40
 -11  -7  -1    0.25    0.41
 -10  -7  -1    0.12    0.27
  -9  -7  -1    8.03    0.88
  -8  -7  -1   24.87    1.95
  -7  -7  -1   13.37    0.91
  -6  -7  -1   11.81    0.91
  -5  -7  -1  195.15    5.01
  -4  -7  -1    0.51    0.22
  -3  -7  -1    2.22    0.40
  -2  -7  -1   17.37    0.99
  -1  -7  -1   55.70    1.46
   0  -7  -1   -0.10    0.11
   1  -7  -1   57.73    1.53
   2  -7  -1   16.29    0.76
   3  -7  -1    1.99    0.29
   4  -7  -1    0.69    0.19
   5  -7  -1  202.29    4.22
   6  -7  -1   10.86    0.90
   7  -7  -1   12.61    0.99
   8  -7  -1   20.24    1.22
   9  -7  -1    8.19    1.12
  10  -7  -1   -0.16    0.33
  11  -7  -1    0.29    0.39
  12  -7  -1   -0.01    0.34
  13  -7  -1   96.98    4.29
  14  -7  -1    0.60    0.57
  15  -7  -1   18.25    1.98
  16  -7  -1    2.06    0.80
 -17  -6  -1    3.88    1.37
 -16  -6  -1    1.01    0.82
 -15  -6  -1    0.35    0.72
 -14  -6  -1    0.63    0.59
 -13  -6  -1   55.71    2.86
 -12  -6  -1   21.22    1.92
 -11  -6  -1   86.17    3.58
 -10  -6  -1   22.13    1.49
  -9  -6  -1   18.41    1.32
  -8  -6  -1   14.27    1.14
  -7  -6  -1   18.62    1.00
  -6  -6  -1    0.03    0.16
  -5  -6  -1   30.37    0.87
  -4  -6  -1    1.71    0.33
  -3  -6  -1   20.83    0.94
  -2  -6  -1    7.57    0.63
  -1  -6  -1  250.35    4.82
   0  -6  -1   48.71    1.29
   1  -6  -1  245.89    4.86
   2  -6  -1    9.34    0.59
   3  -6  -1   21.03    0.77
   4  -6  -1    2.00    0.27
   5  -6  -1   29.18    0.94
   6  -6  -1    0.18    0.18
   7  -6  -1   18.13    1.08
   8  -6  -1   12.70    0.98
   9  -6  -1   17.10    1.07
  10  -6  -1   20.07    1.85
  11  -6  -1   81.88    3.60
  12  -6  -1   21.37    1.97
  13  -6  -1   55.30    2.93
  14  -6  -1   -0.02    0.41
  15  -6  -1   -0.19    0.46
  16  -6  -1    0.37    0.58
  17  -6  -1   10.93    2.60
 -17  -5  -1   20.02    3.10
 -16  -5  -1    2.62    1.16
 -15  -5  -1    0.24    0.67
 -14  -5  -1    3.26    1.16
 -13  -5  -1    2.74    0.74
 -12  -5  -1    0.49    0.39
 -11  -5  -1   22.19    1.85
 -10  -5  -1   38.23    1.66
  -9  -5  -1   28.58    1.48
  -8  -5  -1    0.18    0.21
  -7  -5  -1   73.68    1.92
  -6  -5  -1   74.01    2.12
  -5  -5  -1   40.49    1.36
  -4  -5  -1   -0.02    0.12
  -3  -5  -1  108.76    2.79
  -2  -5  -1  112.17    2.86
  -1  -5  -1    0.38    0.11
   0  -5  -1    0.18    0.10
   1  -5  -1    0.14    0.12
   2  -5  -1  111.98    2.43
   3  -5  -1  106.96    2.36
   4  -5  -1    0.22    0.11
   5  -5  -1   39.69    1.09
   6  -5  -1   72.45    2.23
   7  -5  -1   76.05    2.32
   8  -5  -1    0.17    0.20
   9  -5  -1   25.12    1.23
  10  -5  -1   41.26    2.23
  11  -5  -1   20.91    1.87
  12  -5  -1    0.17    0.36
  13  -5  -1    2.56    0.75
  14  -5  -1    7.56    1.26
  15  -5  -1    0.27    0.47
  16  -5  -1    4.51    1.63
  17  -5  -1   16.20    2.93
 -18  -4  -1    0.75    1.38
 -17  -4  -1    1.27    0.87
 -16  -4  -1   12.32    2.34
 -15  -4  -1    2.62    1.05
 -14  -4  -1   43.85    3.54
 -13  -4  -1    0.28    0.41
 -12  -4  -1   -0.10    0.30
 -11  -4  -1    4.09    0.76
 -10  -4  -1    0.79    0.38
  -9  -4  -1   44.71    1.71
  -8  -4  -1    9.89    0.85
  -7  -4  -1   13.12    0.65
  -6  -4  -1   18.53    0.75
  -5  -4  -1   36.61    1.19
  -4  -4  -1  125.96    3.08
  -3  -4  -1    6.48    0.51
  -2  -4  -1   64.88    1.78
  -1  -4  -1   51.25    1.50
   0  -4  -1   15.48    0.54
   1  -4  -1   53.36    1.28
   2  -4  -1   63.38    1.51
   3  -4  -1    7.18    0.41
   4  -4  -1  124.17    2.64
   5  -4  -1   35.12    1.30
   6  -4  -1   18.71    0.93
   7  -4  -1   13.07    0.83
   8  -4  -1    8.71    0.75
   9  -4  -1   47.01    1.72
  10  -4  -1    1.11    0.44
  11  -4  -1    5.90    0.95
  12  -4  -1   -0.21    0.31
  13  -4  -1    0.22    0.41
  14  -4  -1   46.85    2.69
  15  -4  -1    0.61    0.56
  16  -4  -1   12.68    2.46
  17  -4  -1    0.33    0.82
 -17  -3  -1   14.89    2.50
 -16  -3  -1    6.89    1.63
 -15  -3  -1   11.97    2.09
 -14  -3  -1    1.66    0.89
 -13  -3  -1    1.11    0.65
 -12  -3  -1   13.95    1.40
 -11  -3  -1   29.27    1.72
 -10  -3  -1   45.51    2.22
  -9  -3  -1   24.08    1.09
  -8  -3  -1   68.47    2.08
  -7  -3  -1  162.25    3.38
  -6  -3  -1    6.77    0.40
  -5  -3  -1   99.60    2.20
  -4  -3  -1   46.11    1.16
  -3  -3  -1   18.46    0.68
  -2  -3  -1  259.28    5.66
  -1  -3  -1  337.63    7.32
   0  -3  -1    0.01    0.08
   1  -3  -1  345.48    6.33
   2  -3  -1  256.14    4.90
   3  -3  -1   18.16    0.60
   4  -3  -1   45.81    1.15
   5  -3  -1  100.25    2.69
   6  -3  -1    6.34    0.57
   7  -3  -1  161.03    4.07
   8  -3  -1   66.66    2.09
   9  -3  -1   22.65    1.11
  10  -3  -1   50.36    2.41
  11  -3  -1   21.21    1.88
  12  -3  -1   10.35    1.30
  13  -3  -1    2.67    0.67
  14  -3  -1    1.25    0.55
  15  -3  -1   11.51    1.48
  16  -3  -1    6.86    1.76
  17  -3  -1   19.22    3.08
 -17  -2  -1    0.09    0.54
 -16  -2  -1   -0.30    0.57
 -15  -2  -1    2.06    0.93
 -14  -2  -1    0.46    0.59
 -13  -2  -1    0.77    0.58
 -12  -2  -1   44.60    2.25
 -11  -2  -1   25.60    1.67
 -10  -2  -1    2.79    0.59
  -9  -2  -1    3.91    0.62
  -8  -2  -1   16.08    0.87
  -7  -2  -1   61.00    1.83
  -6  -2  -1   13.01    0.51
  -5  -2  -1    2.26    0.20
  -4  -2  -1   17.41    0.72
  -3  -2  -1   49.50    1.44
  -2  -2  -1   86.20    1.82
  -1  -2  -1  126.75    4.87
   0  -2  -1   35.56    0.87
   1  -2  -1  127.56    2.53
   2  -2  -1   86.15    1.84
   3  -2  -1   49.72    1.20
   4  -2  -1   16.67    0.56
   5  -2  -1    1.92    0.21
   6  -2  -1   13.07    0.50
   7  -2  -1   60.26    1.88
   8  -2  -1   15.80    0.91
   9  -2  -1    4.45    0.54
  10  -2  -1    3.61    0.50
  11  -2  -1   23.72    1.72
  12  -2  -1   47.92    2.47
  13  -2  -1   -0.34    0.36
  14  -2  -1    0.69    0.45
  15  -2  -1    4.14    0.94
  16  -2  -1    0.01    0.62
  17  -2  -1    0.22    0.84
  18  -2  -1    0.61    1.07
 -17  -1  -1    2.22    0.79
 -16  -1  -1   17.62    1.89
 -15  -1  -1    1.04    0.81
 -14  -1  -1   10.89    1.86
 -13  -1  -1   28.16    3.02
 -12  -1  -1   12.71    1.90
 -11  -1  -1   19.22    1.35
 -10  -1  -1   80.96    3.10
  -9  -1  -1    2.50    0.50
  -8  -1  -1   55.44    1.67
  -7  -1  -1   13.34    0.71
  -6  -1  -1   10.88    0.60
  -5  -1  -1  180.00    4.13
  -4  -1  -1   52.11    1.49
  -3  -1  -1  142.03    3.34
  -2  -1  -1    1.79    0.23
  -1  -1  -1    0.65    0.12
   0  -1  -1    0.07    0.08
   1  -1  -1    0.48    0.09
   2  -1  -1    0.93    0.14
   3  -1  -1  148.05    2.90
   4  -1  -1   53.46    1.29
   5  -1  -1  171.98    3.56
   6  -1  -1   12.13    0.55
   7  -1  -1   14.87    0.63
   8  -1  -1   56.84    1.47
   9  -1  -1    2.75    0.44
  10  -1  -1   82.69    2.55
  11  -1  -1   15.15    1.49
  12  -1  -1   14.24    1.46
  13  -1  -1   28.45    2.05
  14  -1  -1   13.96    1.55
  15  -1  -1    2.28    0.70
  16  -1  -1   19.33    2.99
  17  -1  -1    0.57    0.87
  18  -1  -1    0.69    0.95
 -18   0  -1    0.76    1.28
 -17   0  -1    0.18    0.50
 -16   0  -1   49.28    2.81
 -15   0  -1   -0.36    0.42
 -14   0  -1   55.96    3.76
 -13   0  -1    0.15    0.44
 -12   0  -1    0.73    0.60
 -11   0  -1   -0.11    0.22
 -10   0  -1   26.37    1.46
  -9   0  -1   -0.20    0.15
  -8   0  -1  229.82    6.79
  -7   0  -1    0.27    0.12
  -6   0  -1   81.75    2.10
  -5   0  -1    0.06    0.09
  -4   0  -1  316.65    6.96
  -3   0  -1   -0.02    0.10
  -2   0  -1  140.77    3.19
  -1   0  -1    0.07    0.07
   0   0  -1    8.98    0.33
   1   0  -1    0.01    0.06
   2   0  -1  141.45    2.78
   3   0  -1    0.04    0.06
   4   0  -1  322.60    6.10
   5   0  -1    0.16    0.11
   6   0  -1   81.77    1.93
   7   0  -1    0.06    0.11
   8   0  -1  234.38    4.77
   9   0  -1    0.07    0.13
  10   0  -1   26.63    1.21
  11   0  -1   -0.03    0.25
  12   0  -1    0.92    0.45
  13   0  -1    0.19    0.35
  14   0  -1   51.73    2.72
  15   0  -1   -0.47    0.44
  16   0  -1   49.19    4.15
  17   0  -1    0.19    0.73
  18   0  -1    0.22    0.97
 -17   1  -1    1.57    0.92
 -16   1  -1   16.80    1.83
 -15   1  -1    1.57    0.64
 -14   1  -1   12.22    2.01
 -13   1  -1   37.01    2.80
 -12   1  -1   10.45    1.66
 -11   1  -1   15.58    2.02
 -10   1  -1   83.55    3.01
  -9   1  -1    2.78    0.50
  -8   1  -1   53.69    2.14
  -7   1  -1   15.02    1.00
  -6   1  -1   10.99    0.87
  -5   1  -1  169.16    5.06
  -4   1  -1   54.22    1.40
  -3   1  -1  146.23    3.28
  -2   1  -1    0.86    0.16
  -1   1  -1    0.42    0.10
   0   1  -1   -0.03    0.07
   1   1  -1    0.42    0.11
   2   1  -1    0.98    0.13
   3   1  -1  145.19    2.57
   4   1  -1   53.56    1.15
   5   1  -1  182.69    3.21
   6   1  -1   11.15    0.49
   7   1  -1   15.62    0.69
   8   1  -1   55.17    1.54
   9   1  -1    1.92    0.31
  10   1  -1   85.11    2.57
  11   1  -1   18.14    1.11
  12   1  -1   15.50    1.50
  13   1  -1   28.46    1.98
  14   1  -1   11.11    1.35
  15   1  -1    0.75    0.73
  16   1  -1   15.58    2.67
  17   1  -1    0.64    0.93
  18   1  -1    0.19    0.90
 -17   2  -1   -0.20    0.77
 -16   2  -1    0.63    0.52
 -15   2  -1    2.62    0.81
 -14   2  -1    1.21    0.50
 -13   2  -1    0.15    0.42
 -12   2  -1   45.25    3.18
 -11   2  -1   25.89    2.23
 -10   2  -1    1.01    0.60
  -9   2  -1    3.36    0.52
  -8   2  -1   14.78    1.01
  -7   2  -1   61.06    2.23
  -6   2  -1   12.63    0.87
  -5   2  -1    2.30    0.39
  -4   2  -1   16.93    0.58
  -3   2  -1   51.69    1.34
  -2   2  -1   89.06    2.10
  -1   2  -1  128.80    3.53
   0   2  -1   34.35    1.22
   1   2  -1  123.79    2.53
   2   2  -1   85.87    1.85
   3   2  -1   49.23    1.09
   4   2  -1   16.24    0.59
   5   2  -1    2.30    0.24
   6   2  -1   12.36    0.52
   7   2  -1   60.21    1.30
   8   2  -1   14.74    0.62
   9   2  -1    3.93    0.40
  10   2  -1    2.70    0.35
  11   2  -1   27.62    1.17
  12   2  -1   42.44    2.26
  13   2  -1    0.12    0.33
  14   2  -1    0.90    0.48
  15   2  -1    1.08    0.84
  16   2  -1    1.82    1.05
  17   2  -1    0.71    0.85
  18   2  -1   -1.52    0.69
 -17   3  -1   23.48    3.35
 -16   3  -1    5.76    1.08
 -15   3  -1   12.21    1.50
 -14   3  -1    0.56    0.47
 -13   3  -1    0.77    0.42
 -12   3  -1   11.60    1.30
 -11   3  -1   27.19    2.78
 -10   3  -1   42.29    2.99
  -9   3  -1   23.49    1.32
  -8   3  -1   66.19    2.41
  -7   3  -1  162.01    4.82
  -6   3  -1    6.14    0.66
  -5   3  -1   99.22    3.16
  -4   3  -1   45.62    1.26
  -3   3  -1   17.99    0.65
  -2   3  -1  258.22    6.83
  -1   3  -1  331.58    7.29
   0   3  -1    0.03    0.11
   1   3  -1  334.78    6.35
   2   3  -1  254.49    4.93
   3   3  -1   17.11    0.63
   4   3  -1   45.40    0.98
   5   3  -1  101.49    1.86
   6   3  -1    7.67    0.44
   7   3  -1  162.83    2.85
   8   3  -1   66.38    1.46
   9   3  -1   23.07    0.77
  10   3  -1   48.38    1.39
  11   3  -1   30.24    1.06
  12   3  -1   10.89    1.03
  13   3  -1    1.26    0.47
  14   3  -1    1.16    0.54
  15   3  -1   14.21    2.39
  16   3  -1   10.12    2.04
  17   3  -1   19.42    2.93
  18   3  -1    2.26    1.22
 -17   4  -1   -0.22    0.69
 -16   4  -1   14.36    1.68
 -15   4  -1    1.28    0.61
 -14   4  -1   47.96    2.59
 -13   4  -1    0.29    0.44
 -12   4  -1    0.14    0.30
 -11   4  -1    6.33    0.94
 -10   4  -1    0.49    0.32
  -9   4  -1   45.81    3.01
  -8   4  -1   11.36    0.96
  -7   4  -1   13.54    0.91
  -6   4  -1   17.55    1.04
  -5   4  -1   36.40    1.50
  -4   4  -1  127.23    3.00
  -3   4  -1    5.88    0.45
  -2   4  -1   64.51    2.07
  -1   4  -1   51.49    1.47
   0   4  -1   15.82    0.68
   1   4  -1   50.20    1.51
   2   4  -1   62.28    1.79
   3   4  -1    5.88    0.36
   4   4  -1  125.19    2.41
   5   4  -1   35.52    0.89
   6   4  -1   18.11    0.62
   7   4  -1   12.77    0.63
   8   4  -1   10.64    0.59
   9   4  -1   49.10    1.24
  10   4  -1    0.53    0.18
  11   4  -1    6.16    0.56
  12   4  -1   -0.11    0.20
  13   4  -1    0.92    0.38
  14   4  -1   54.29    2.91
  15   4  -1    1.28    0.86
  16   4  -1   18.60    2.79
  17   4  -1   -0.21    0.84
 -17   5  -1   19.63    3.15
 -16   5  -1    2.80    1.16
 -15   5  -1    0.10    0.37
 -14   5  -1    2.69    0.75
 -13   5  -1    3.08    0.74
 -12   5  -1    0.70    0.43
 -11   5  -1   22.94    1.82
 -10   5  -1   40.19    2.06
  -9   5  -1   25.58    1.65
  -8   5  -1    0.05    0.17
  -7   5  -1   74.47    2.18
  -6   5  -1   71.40    2.09
  -5   5  -1   39.00    1.33
  -4   5  -1    0.10    0.12
  -3   5  -1  109.16    2.30
  -2   5  -1  112.43    2.36
  -1   5  -1    0.06    0.08
   0   5  -1    0.08    0.13
   1   5  -1   -0.04    0.11
   2   5  -1  111.29    3.59
   3   5  -1  105.02    2.11
   4   5  -1    0.13    0.10
   5   5  -1   41.78    1.10
   6   5  -1   72.01    1.53
   7   5  -1   74.99    1.61
   8   5  -1    0.17    0.13
   9   5  -1   26.54    0.88
  10   5  -1   40.89    1.16
  11   5  -1   22.53    0.97
  12   5  -1    1.26    0.33
  13   5  -1    3.37    0.63
  14   5  -1    7.08    1.14
  15   5  -1    0.41    0.75
  16   5  -1    6.14    1.60
 -17   6  -1    5.52    1.66
 -16   6  -1   -0.82    0.52
 -15   6  -1    0.15    0.41
 -14   6  -1    0.02    0.39
 -13   6  -1   54.26    2.75
 -12   6  -1   19.97    1.80
 -11   6  -1   78.13    3.33
 -10   6  -1   21.30    1.75
  -9   6  -1   19.45    1.55
  -8   6  -1   13.23    1.23
  -7   6  -1   17.97    0.92
  -6   6  -1    0.15    0.15
  -5   6  -1   30.25    1.14
  -4   6  -1    1.71    0.29
  -3   6  -1   20.30    0.71
  -2   6  -1    8.84    0.48
  -1   6  -1  241.22    4.77
   0   6  -1   45.93    1.54
   1   6  -1  240.93    5.71
   2   6  -1    8.30    0.38
   3   6  -1   20.68    0.72
   4   6  -1    1.22    0.23
   5   6  -1   30.04    0.92
   6   6  -1    0.17    0.13
   7   6  -1   17.19    0.75
   8   6  -1   13.97    0.72
   9   6  -1   19.11    0.89
  10   6  -1   21.45    0.99
  11   6  -1   82.76    1.93
  12   6  -1   24.29    1.06
  13   6  -1   54.71    2.20
  14   6  -1    0.57    0.43
 -17   7  -1   12.75    2.54
 -16   7  -1    1.07    0.89
 -15   7  -1   17.26    1.80
 -14   7  -1    0.56    0.49
 -13   7  -1   97.93    4.06
 -12   7  -1    0.44    0.40
 -11   7  -1    0.00    0.29
 -10   7  -1   -0.01    0.27
  -9   7  -1    8.55    1.05
  -8   7  -1   22.25    1.48
  -7   7  -1   14.47    0.89
  -6   7  -1   11.59    0.83
  -5   7  -1  208.22    4.89
  -4   7  -1    0.44    0.20
  -3   7  -1    2.17    0.31
  -2   7  -1   17.04    0.67
  -1   7  -1   54.89    1.40
   0   7  -1    0.09    0.17
   1   7  -1   55.88    2.28
   2   7  -1   16.35    1.06
   3   7  -1    2.32    0.27
   4   7  -1    0.67    0.19
   5   7  -1  204.16    4.32
   6   7  -1   11.26    0.74
   7   7  -1   13.15    0.76
   8   7  -1   23.16    0.98
   9   7  -1   10.20    0.73
  10   7  -1    0.17    0.18
  11   7  -1    0.25    0.19
  12   7  -1    0.30    0.22
  13   7  -1  102.24    2.34
  14   7  -1    0.96    0.73
 -16   8  -1    2.56    1.29
 -15   8  -1    2.32    1.19
 -14   8  -1   -0.06    0.39
 -13   8  -1    1.93    0.67
 -12   8  -1    0.20    0.40
 -11   8  -1    9.29    1.22
 -10   8  -1    5.97    0.93
  -9   8  -1   36.44    1.91
  -8   8  -1    3.25    0.64
  -7   8  -1   14.53    1.29
  -6   8  -1    9.20    0.78
  -5   8  -1   46.73    1.62
  -4   8  -1   31.82    1.26
  -3   8  -1   20.43    0.97
  -2   8  -1   27.40    1.05
  -1   8  -1   36.23    1.06
   0   8  -1   60.91    2.04
   1   8  -1   34.22    1.42
   2   8  -1   27.72    1.27
   3   8  -1   23.17    0.86
   4   8  -1   33.80    1.11
   5   8  -1   46.81    1.45
   6   8  -1    9.45    0.73
   7   8  -1   13.54    0.89
   8   8  -1    2.45    0.41
   9   8  -1   32.19    1.30
  10   8  -1    6.68    0.70
  11   8  -1   10.56    1.10
  12   8  -1    0.63    0.39
  13   8  -1    3.08    0.67
 -16   9  -1   -0.37    0.64
 -15   9  -1    2.93    1.23
 -14   9  -1    1.81    0.65
 -13   9  -1    2.19    0.70
 -12   9  -1    0.41    0.39
 -11   9  -1    2.17    0.62
 -10   9  -1    6.33    1.00
  -9   9  -1   87.46    3.44
  -8   9  -1   24.49    1.66
  -7   9  -1   24.31    1.56
  -6   9  -1   24.86    1.21
  -5   9  -1  119.84    3.28
  -4   9  -1   13.65    0.84
  -3   9  -1    6.12    0.60
  -2   9  -1  130.02    3.34
  -1   9  -1   24.42    1.47
   0   9  -1   -0.07    0.14
   1   9  -1   22.62    1.52
   2   9  -1  127.53    3.63
   3   9  -1    4.35    0.59
   4   9  -1   10.39    0.96
   5   9  -1  118.05    3.56
   6   9  -1   23.50    1.53
   7   9  -1   19.41    1.41
   8   9  -1   22.48    1.57
   9   9  -1   85.23    2.97
  10   9  -1    5.62    0.82
  11   9  -1    3.29    0.66
  12   9  -1   -0.34    0.30
  13   9  -1    1.87    0.78
 -15  10  -1    0.99    1.00
 -14  10  -1    2.58    0.80
 -13  10  -1    5.84    1.06
 -12  10  -1   -0.24    0.35
 -11  10  -1   51.27    2.60
 -10  10  -1    3.48    0.81
  -9  10  -1    7.57    1.05
  -8  10  -1    0.54    0.37
  -7  10  -1    2.42    0.58
  -6  10  -1   27.28    1.65
  -5  10  -1   16.14    1.25
  -4  10  -1   41.34    2.10
  -3  10  -1   33.41    1.84
  -2  10  -1    7.85    1.01
  -1  10  -1   46.02    2.31
   0  10  -1   27.10    2.02
   1  10  -1   45.39    2.33
   2  10  -1    9.73    0.94
   3  10  -1   35.57    1.60
   4  10  -1   41.74    1.81
   5  10  -1   14.42    1.25
   6  10  -1   29.29    1.70
   7  10  -1    1.11    0.42
   8  10  -1    0.96    0.40
   9  10  -1    6.97    0.91
  10  10  -1    3.80    0.70
  11  10  -1   52.00    2.83
  12  10  -1    0.12    0.50
  13  10  -1    6.44    1.15
 -13  11  -1    5.55    1.57
 -12  11  -1    0.20    0.65
 -11  11  -1   -0.12    0.54
 -10  11  -1    0.22    0.51
  -9  11  -1   31.89    3.37
  -8  11  -1    0.18    0.55
  -7  11  -1  106.03    5.94
  -6  11  -1    8.09    1.61
  -5  11  -1    1.09    0.45
  -4  11  -1    6.56    0.95
  -3  11  -1   -0.08    0.26
  -2  11  -1   40.07    2.16
  -1  11  -1   54.00    2.58
   0  11  -1    0.26    0.33
   1  11  -1   56.28    2.67
   2  11  -1   41.87    2.27
   3  11  -1    0.21    0.37
   4  11  -1    4.02    0.83
   5  11  -1    1.21    0.40
   6  11  -1    7.90    1.00
   7  11  -1  104.51    3.55
   8  11  -1   -0.25    0.37
   9  11  -1   27.75    2.36
  10  11  -1    0.10    0.43
  11  11  -1    0.40    0.52
  12  11  -1    0.40    0.51
  13  11  -1    2.00    0.79
 -13  12  -1    2.63    1.10
 -12  12  -1   -0.04    0.67
 -11  12  -1    6.27    1.59
 -10  12  -1    6.36    1.55
  -9  12  -1    9.50    1.95
  -8  12  -1    9.48    1.87
  -7  12  -1   17.32    2.54
  -6  12  -1    5.47    1.45
  -5  12  -1   13.98    2.25
  -4  12  -1   33.44    2.10
  -3  12  -1   11.77    1.38
  -2  12  -1    1.26    0.51
  -1  12  -1    8.97    1.15
   0  12  -1    4.60    0.90
   1  12  -1    8.19    1.19
   2  12  -1    2.50    0.67
   3  12  -1   10.92    1.41
   4  12  -1   29.00    2.35
   5  12  -1   15.63    1.73
   6  12  -1    4.71    0.95
   7  12  -1    9.80    1.37
   8  12  -1    7.70    1.25
   9  12  -1    8.73    1.34
  10  12  -1    5.80    1.07
  11  12  -1    5.79    1.18
  12  12  -1   -0.28    0.51
  13  12  -1    2.04    0.88
 -12  13  -1    0.91    0.92
 -11  13  -1   30.54    3.73
 -10  13  -1   26.46    3.35
  -9  13  -1    9.62    2.09
  -8  13  -1   26.42    3.31
  -7  13  -1    3.46    1.19
  -6  13  -1    5.79    1.59
  -5  13  -1    0.25    0.49
  -4  13  -1    4.97    0.97
  -3  13  -1   80.21    3.52
  -2  13  -1   10.78    1.40
  -1  13  -1    2.74    0.74
   0  13  -1   -0.16    0.32
   1  13  -1    3.66    0.91
   2  13  -1   12.50    1.58
   3  13  -1   78.24    3.66
   4  13  -1    3.72    0.90
   5  13  -1    0.31    0.43
   6  13  -1    3.22    0.89
   7  13  -1    4.84    1.03
   8  13  -1   26.26    2.43
   9  13  -1    6.05    1.20
  10  13  -1   23.00    2.38
  11  13  -1   44.92    3.04
  12  13  -1    1.66    0.76
  13  13  -1   16.28    2.11
 -12  14  -1    2.85    1.21
 -11  14  -1   -0.95    0.73
 -10  14  -1   -0.66    0.57
  -9  14  -1    5.45    1.62
  -8  14  -1   23.54    3.17
  -7  14  -1    4.54    1.46
  -6  14  -1   -0.12    0.54
  -5  14  -1    2.05    0.92
  -4  14  -1   39.36    3.49
  -3  14  -1    2.05    0.68
  -2  14  -1    3.64    0.86
  -1  14  -1   13.09    1.61
   0  14  -1   38.49    2.57
   1  14  -1   17.16    1.86
   2  14  -1    1.99    0.70
   3  14  -1    1.65    0.68
   4  14  -1   45.91    2.94
   5  14  -1    1.08    0.63
   6  14  -1    0.04    0.50
   7  14  -1    0.89    0.57
   8  14  -1   25.07    2.43
   9  14  -1    4.75    1.15
  10  14  -1    0.40    0.54
  11  14  -1    0.13    0.58
  12  14  -1    3.37    1.08
 -11  15  -1    1.94    1.16
 -10  15  -1    1.39    1.02
  -9  15  -1   -0.61    0.64
  -8  15  -1   -0.11    0.66
  -7  15  -1   17.88    2.80
  -6  15  -1   11.65    2.23
  -5  15  -1   31.83    3.83
  -4  15  -1   22.73    3.08
  -3  15  -1   17.56    1.88
  -2  15  -1    0.33    0.46
  -1  15  -1    3.25    0.89
   0  15  -1    0.50    0.50
   1  15  -1    3.73    0.92
   2  15  -1    0.25    0.45
   3  15  -1   17.41    2.01
   4  15  -1   20.15    2.18
   5  15  -1   31.28    2.80
   6  15  -1    8.55    1.43
   7  15  -1   13.19    1.79
   8  15  -1    0.51    0.55
   9  15  -1   -0.37    0.39
  10  15  -1    1.17    0.77
  11  15  -1    1.06    0.84
 -10  16  -1    1.21    1.08
  -9  16  -1   -0.83    0.74
  -8  16  -1    0.47    0.83
  -7  16  -1    7.24    1.92
  -6  16  -1    2.19    1.11
  -5  16  -1    0.42    0.80
  -4  16  -1   -0.20    0.63
  -3  16  -1   26.84    3.55
  -2  16  -1   15.27    1.88
  -1  16  -1    3.07    0.91
   0  16  -1   75.82    3.77
   1  16  -1    3.01    0.91
   2  16  -1   16.01    1.95
   3  16  -1   26.63    2.51
   4  16  -1    0.63    0.57
   5  16  -1    1.41    0.69
   6  16  -1    1.76    0.73
   7  16  -1    6.72    1.25
   8  16  -1    0.17    0.62
   9  16  -1    0.16    0.55
  10  16  -1    2.64    1.26
  -9  17  -1   14.68    2.81
  -8  17  -1    0.08    0.87
  -7  17  -1    2.76    1.29
  -6  17  -1    0.44    0.82
  -5  17  -1    0.75    0.79
  -4  17  -1   12.21    2.48
  -3  17  -1    0.61    0.88
  -2  17  -1    4.64    1.56
  -1  17  -1   32.00    2.77
   0  17  -1   -0.13    0.52
   1  17  -1   31.80    2.82
   2  17  -1    8.16    1.49
   3  17  -1    0.07    0.54
   4  17  -1   11.56    1.70
   5  17  -1    0.88    0.68
   6  17  -1    0.16    0.56
   7  17  -1    3.26    1.00
   8  17  -1    0.03    0.61
  -7  18  -1    0.73    1.07
  -6  18  -1    0.25    0.88
  -5  18  -1   -0.02    1.00
  -4  18  -1   -0.73    0.77
  -3  18  -1    0.43    1.00
  -2  18  -1    1.83    1.11
  -1  18  -1    0.50    0.66
   0  18  -1    2.63    0.92
   1  18  -1    0.12    0.59
   2  18  -1    4.09    1.12
   3  18  -1    0.86    0.68
   4  18  -1    0.97    0.67
   5  18  -1    0.33    0.66
   6  18  -1   -0.30    0.60
  -2  19  -1    1.44    1.00
  -1  19  -1    2.07    1.27
   0  19  -1    0.21    0.66
   1  19  -1    3.11    0.99
   2  19  -1    0.79    0.92
   3  19  -1    4.32    1.70
  -5 -19   0    1.71    1.21
  -4 -19   0    1.33    0.77
  -3 -19   0    0.10    0.53
  -2 -19   0   49.19    2.69
  -1 -19   0    0.41    0.52
   0 -19   0    0.42    0.62
   1 -19   0   -0.48    0.57
   2 -19   0   48.53    3.27
   3 -19   0    0.89    0.72
  -6 -18   0   20.37    1.86
  -5 -18   0    0.31    0.49
  -4 -18   0   24.34    2.02
  -3 -18   0   -0.21    0.43
  -2 -18   0    0.70    0.52
  -1 -18   0    0.57    0.54
   0 -18   0   -0.04    0.39
   1 -18   0    0.55    0.56
   2 -18   0    0.46    0.64
   3 -18   0    0.32    0.55
   4 -18   0   31.69    4.13
   5 -18   0   -0.35    0.73
   6 -18   0   19.24    3.26
  -9 -17   0    5.11    1.87
  -8 -17   0    0.86    0.73
  -7 -17   0    7.22    1.35
  -6 -17   0   25.71    2.06
  -5 -17   0    6.13    0.94
  -4 -17   0    8.36    1.18
  -3 -17   0    2.91    0.72
  -2 -17   0   12.03    1.35
  -1 -17   0    2.22    0.61
   0 -17   0   -0.02    0.40
   1 -17   0    3.45    0.75
   2 -17   0   14.07    1.72
   3 -17   0    2.19    0.77
   4 -17   0    4.95    1.03
   5 -17   0    4.21    1.58
   7 -17   0    9.02    2.17
   8 -17   0    0.49    0.92
 -10 -16   0   22.21    2.51
  -9 -16   0    2.72    0.95
  -8 -16   0    0.51    0.67
  -7 -16   0    2.60    0.73
  -6 -16   0    1.38    0.58
  -5 -16   0    4.53    0.81
  -4 -16   0   44.12    2.27
  -3 -16   0    0.08    0.38
  -2 -16   0    0.28    0.38
  -1 -16   0    6.95    1.02
   0 -16   0   43.20    2.17
   1 -16   0    7.63    1.02
   2 -16   0    0.85    0.43
   3 -16   0    0.17    0.50
   4 -16   0   51.30    2.81
   5 -16   0    5.40    1.65
   6 -16   0    0.33    0.73
   7 -16   0    3.51    1.16
   8 -16   0    2.79    0.92
   9 -16   0    1.59    0.78
  10 -16   0   27.16    2.71
  11 -16   0   20.06    3.39
 -12 -15   0    1.16    1.12
 -11 -15   0    1.54    0.85
 -10 -15   0   11.92    1.78
  -9 -15   0    5.78    1.24
  -8 -15   0   16.81    2.07
  -7 -15   0    6.59    0.96
  -6 -15   0    0.81    0.41
  -5 -15   0    2.74    0.61
  -4 -15   0    2.90    0.67
  -3 -15   0    1.80    0.57
  -2 -15   0    1.54    0.60
  -1 -15   0    0.01    0.38
   0 -15   0    0.65    0.48
   1 -15   0    0.46    0.41
   2 -15   0    1.07    0.58
   3 -15   0    1.32    0.59
   4 -15   0    4.09    0.89
   5 -15   0    3.11    0.66
   6 -15   0    1.52    0.63
   7 -15   0    6.92    1.25
   8 -15   0   18.23    2.09
   9 -15   0    4.18    1.05
  10 -15   0    9.63    1.56
  11 -15   0    1.66    0.82
  12 -15   0    1.49    0.91
 -13 -14   0    0.60    0.81
 -12 -14   0    4.24    1.15
 -11 -14   0   -0.66    0.43
 -10 -14   0    6.49    1.27
  -9 -14   0    5.61    1.20
  -8 -14   0   52.05    2.48
  -7 -14   0    0.14    0.35
  -6 -14   0    5.34    0.86
  -5 -14   0    8.61    1.07
  -4 -14   0    5.83    1.05
  -3 -14   0    0.14    0.36
  -2 -14   0    1.71    0.65
  -1 -14   0    5.96    0.96
   0 -14   0  125.27    4.83
   1 -14   0    5.59    0.88
   2 -14   0    1.28    0.56
   3 -14   0    0.30    0.31
   4 -14   0    6.24    0.84
   5 -14   0   11.10    1.12
   6 -14   0    5.25    1.01
   7 -14   0   -0.05    0.43
   8 -14   0   48.33    3.10
   9 -14   0    3.91    1.00
  10 -14   0    8.17    1.28
  11 -14   0    0.28    0.59
  12 -14   0    2.78    0.94
  13 -14   0    0.46    0.95
 -14 -13   0    1.22    0.80
 -13 -13   0    0.27    0.59
 -12 -13   0   19.60    2.19
 -11 -13   0    2.14    0.83
 -10 -13   0    0.71    0.56
  -9 -13   0    5.31    1.10
  -8 -13   0    0.30    0.39
  -7 -13   0   11.98    1.24
  -6 -13   0   29.72    1.96
  -5 -13   0   76.45    2.90
  -4 -13   0   30.36    2.12
  -3 -13   0    0.23    0.38
  -2 -13   0    0.13    0.31
  -1 -13   0   13.31    1.48
   0 -13   0    0.14    0.37
   1 -13   0   13.79    1.16
   2 -13   0    0.20    0.26
   3 -13   0   -0.37    0.20
   4 -13   0   36.41    1.70
   5 -13   0   81.65    2.81
   6 -13   0   27.47    2.30
   7 -13   0   11.33    1.54
   8 -13   0   -0.01    0.42
   9 -13   0    6.09    1.16
  10 -13   0    1.25    0.63
  11 -13   0    1.42    0.73
  12 -13   0   17.31    2.06
  13 -13   0   -0.05    0.54
  14 -13   0    0.98    1.07
 -14 -12   0    0.73    0.73
 -13 -12   0    4.82    1.18
 -12 -12   0   16.57    1.93
 -11 -12   0   23.07    2.34
 -10 -12   0    1.22    0.67
  -9 -12   0   12.38    1.62
  -8 -12   0    3.23    0.68
  -7 -12   0   20.03    1.58
  -6 -12   0   22.74    1.67
  -5 -12   0    3.64    0.77
  -4 -12   0   28.29    1.92
  -3 -12   0    7.83    1.10
  -2 -12   0   41.31    2.19
  -1 -12   0   51.13    2.53
   0 -12   0   37.24    1.58
   1 -12   0   53.84    2.03
   2 -12   0   41.48    1.71
   3 -12   0    8.38    0.89
   4 -12   0   28.20    1.50
   5 -12   0    2.90    0.54
   6 -12   0   26.02    1.53
   7 -12   0   20.80    2.00
   8 -12   0    2.97    0.80
   9 -12   0   11.07    1.49
  10 -12   0    2.30    0.76
  11 -12   0   22.06    2.24
  12 -12   0   14.05    1.82
  13 -12   0    3.09    0.91
  14 -12   0    0.83    0.79
 -15 -11   0    0.51    0.86
 -14 -11   0    0.96    0.74
 -13 -11   0    0.97    0.62
 -12 -11   0    0.20    0.53
 -11 -11   0    3.18    0.87
 -10 -11   0   20.33    2.09
  -9 -11   0   25.70    1.79
  -8 -11   0    3.33    0.61
  -7 -11   0    1.61    0.45
  -6 -11   0    9.02    1.18
  -5 -11   0   19.66    1.73
  -4 -11   0    6.37    0.94
  -3 -11   0   29.42    1.76
  -2 -11   0    3.87    0.53
  -1 -11   0   76.08    2.43
   0 -11   0   -0.06    0.19
   1 -11   0   78.29    2.49
   2 -11   0    4.51    0.62
   3 -11   0   31.22    1.43
   4 -11   0    7.60    0.79
   5 -11   0   20.75    1.38
   6 -11   0   10.97    1.01
   7 -11   0    0.98    0.50
   8 -11   0    3.51    0.81
   9 -11   0   25.64    2.29
  10 -11   0   20.79    2.11
  11 -11   0    3.44    0.91
  12 -11   0    0.05    0.49
  13 -11   0    0.40    0.53
  14 -11   0    0.61    0.73
  15 -11   0    1.37    1.38
 -16 -10   0    0.49    0.90
 -15 -10   0   14.61    2.45
 -14 -10   0   28.99    2.64
 -13 -10   0   29.33    2.56
 -12 -10   0   60.64    2.57
 -11 -10   0    1.18    0.58
 -10 -10   0    0.01    0.34
  -9 -10   0   -0.02    0.26
  -8 -10   0    1.39    0.43
  -7 -10   0    5.12    0.73
  -6 -10   0    7.94    1.00
  -5 -10   0    0.87    0.39
  -4 -10   0   31.52    1.76
  -3 -10   0   71.92    2.23
  -2 -10   0   51.33    1.76
  -1 -10   0   61.84    2.02
   0 -10   0    7.34    0.70
   1 -10   0   63.33    2.08
   2 -10   0   48.96    1.81
   3 -10   0   72.26    2.34
   4 -10   0   34.02    1.46
   5 -10   0    1.36    0.37
   6 -10   0    9.06    0.89
   7 -10   0    4.55    0.89
   8 -10   0    2.14    0.65
   9 -10   0   -0.11    0.36
  10 -10   0   -0.29    0.35
  11 -10   0    0.75    0.48
  12 -10   0   59.01    3.17
  13 -10   0   25.49    2.43
  14 -10   0   30.09    2.63
  15 -10   0   31.33    4.15
 -16  -9   0   11.05    2.35
 -15  -9   0    2.88    1.16
 -14  -9   0   18.58    1.98
 -13  -9   0    1.43    0.64
 -12  -9   0    7.85    1.04
 -11  -9   0   23.63    2.17
 -10  -9   0   36.15    2.41
  -9  -9   0   10.28    1.20
  -8  -9   0    2.60    0.49
  -7  -9   0   18.57    1.22
  -6  -9   0   72.83    2.91
  -5  -9   0   33.09    1.30
  -4  -9   0    3.79    0.55
  -3  -9   0   74.12    2.22
  -2  -9   0   14.58    0.85
  -1  -9   0    5.03    0.55
   0  -9   0   -0.06    0.14
   1  -9   0    5.49    0.60
   2  -9   0   14.20    0.99
   3  -9   0   75.96    2.35
   4  -9   0    3.56    0.50
   5  -9   0   34.29    1.42
   6  -9   0   70.29    2.34
   7  -9   0   19.50    1.17
   8  -9   0    2.21    0.65
   9  -9   0   10.75    1.34
  10  -9   0   32.61    2.28
  11  -9   0   26.50    2.31
  12  -9   0    5.41    1.07
  13  -9   0    2.75    0.81
  14  -9   0   25.92    2.43
  15  -9   0    0.86    1.01
  16  -9   0    7.05    2.07
 -16  -8   0    7.24    1.60
 -15  -8   0    0.57    0.77
 -14  -8   0   -0.38    0.54
 -13  -8   0    2.34    0.75
 -12  -8   0    1.80    0.53
 -11  -8   0    4.84    0.76
 -10  -8   0   18.56    1.80
  -9  -8   0   10.22    0.93
  -8  -8   0   86.62    2.83
  -7  -8   0   21.83    0.97
  -6  -8   0   37.29    1.36
  -5  -8   0   27.26    1.10
  -4  -8   0   13.02    0.76
  -3  -8   0   65.80    2.28
  -2  -8   0    4.15    0.46
  -1  -8   0   67.02    2.00
   0  -8   0   63.83    1.93
   1  -8   0   67.78    2.05
   2  -8   0    4.34    0.51
   3  -8   0   62.25    2.02
   4  -8   0   14.49    0.98
   5  -8   0   28.37    1.22
   6  -8   0   35.77    1.44
   7  -8   0   17.54    1.05
   8  -8   0   87.94    3.60
   9  -8   0   10.05    1.26
  10  -8   0   18.98    1.80
  11  -8   0    3.36    0.80
  12  -8   0    3.16    0.82
  13  -8   0    3.24    0.87
  14  -8   0   -0.08    0.38
  15  -8   0   -0.43    0.69
  16  -8   0    6.36    1.92
 -17  -7   0    3.21    1.43
 -16  -7   0    3.35    1.51
 -15  -7   0   -0.20    0.51
 -14  -7   0    0.77    0.73
 -13  -7   0    8.95    1.30
 -12  -7   0    4.32    0.88
 -11  -7   0    1.02    0.38
 -10  -7   0    0.74    0.31
  -9  -7   0   91.83    2.39
  -8  -7   0   17.14    0.86
  -7  -7   0  121.23    2.86
  -6  -7   0   10.68    0.70
  -5  -7   0    1.56    0.29
  -4  -7   0    0.09    0.12
  -3  -7   0   51.46    1.83
  -2  -7   0   22.61    0.91
  -1  -7   0   45.96    1.46
   0  -7   0   -0.02    0.12
   1  -7   0   45.94    1.50
   2  -7   0   22.67    0.97
   3  -7   0   49.49    1.65
   4  -7   0    0.07    0.15
   5  -7   0    1.83    0.32
   6  -7   0   10.24    0.81
   7  -7   0  121.10    3.30
   8  -7   0   17.26    1.59
   9  -7   0   92.46    3.67
  10  -7   0    0.31    0.33
  11  -7   0    0.58    0.37
  12  -7   0    4.74    0.99
  13  -7   0    9.35    1.31
  14  -7   0    0.05    0.45
  15  -7   0   -0.43    0.66
  16  -7   0    1.78    1.19
  17  -7   0    1.86    1.23
 -17  -6   0   16.78    2.89
 -16  -6   0   21.79    3.21
 -15  -6   0   15.75    2.40
 -14  -6   0    0.11    0.55
 -13  -6   0    4.63    0.89
 -12  -6   0   22.05    1.91
 -11  -6   0   10.09    1.00
 -10  -6   0   19.96    1.06
  -9  -6   0   18.22    1.11
  -8  -6   0   52.12    1.58
  -7  -6   0   44.37    1.34
  -6  -6   0    3.30    0.41
  -5  -6   0   77.31    2.15
  -4  -6   0    0.50    0.16
  -3  -6   0  368.81    7.99
  -2  -6   0  157.15    3.72
  -1  -6   0    0.50    0.17
   0  -6   0   67.50    1.86
   1  -6   0    0.13    0.12
   2  -6   0  158.34    3.82
   3  -6   0  375.63    8.12
   4  -6   0    0.38    0.17
   5  -6   0   79.27    2.25
   6  -6   0    3.26    0.41
   7  -6   0   42.80    1.49
   8  -6   0   57.77    2.55
   9  -6   0   18.87    1.66
  10  -6   0   16.68    1.54
  11  -6   0    9.01    1.21
  12  -6   0   23.43    2.01
  13  -6   0    4.37    0.87
  14  -6   0   -0.37    0.63
  15  -6   0   15.95    2.83
  16  -6   0   22.39    3.38
  17  -6   0   18.84    3.21
 -18  -5   0    0.76    1.40
 -17  -5   0    4.19    1.62
 -16  -5   0    0.57    0.91
 -15  -5   0    0.23    0.43
 -14  -5   0    8.05    1.62
 -13  -5   0    2.23    0.83
 -12  -5   0    2.36    0.63
 -11  -5   0   14.58    1.13
 -10  -5   0   28.43    1.14
  -9  -5   0   14.30    0.82
  -8  -5   0    1.02    0.28
  -7  -5   0   64.07    1.98
  -6  -5   0   72.93    2.55
  -5  -5   0    0.15    0.13
  -4  -5   0    1.69    0.25
  -3  -5   0    5.62    0.43
  -2  -5   0  157.35    3.59
  -1  -5   0   35.84    1.11
   0  -5   0    0.16    0.12
   1  -5   0   35.57    1.15
   2  -5   0  153.90    3.67
   3  -5   0    6.39    0.53
   4  -5   0    1.34    0.24
   5  -5   0    0.21    0.15
   6  -5   0   74.16    2.09
   7  -5   0   61.67    1.86
   8  -5   0    1.54    0.44
   9  -5   0   14.99    1.42
  10  -5   0   25.89    1.77
  11  -5   0   12.02    1.35
  12  -5   0    2.85    0.65
  13  -5   0    1.61    0.61
  14  -5   0   14.07    2.40
  15  -5   0   -0.18    0.69
  16  -5   0    0.42    0.71
  17  -5   0    0.31    0.88
 -18  -4   0   10.15    2.27
 -17  -4   0    0.93    0.92
 -16  -4   0    7.35    1.89
 -15  -4   0   38.52    2.48
 -14  -4   0   16.29    2.20
 -13  -4   0    6.26    1.33
 -12  -4   0  114.79    4.09
 -11  -4   0    4.72    0.79
 -10  -4   0    6.97    0.72
  -9  -4   0   13.02    0.96
  -8  -4   0    2.10    0.38
  -7  -4   0    1.40    0.39
  -6  -4   0  112.87    2.95
  -5  -4   0   11.69    0.77
  -4  -4   0   41.55    1.21
  -3  -4   0    0.08    0.10
  -2  -4   0  203.71    4.43
  -1  -4   0   85.02    3.34
   0  -4   0   28.60    0.90
   1  -4   0   83.97    2.08
   2  -4   0  200.68    4.50
   3  -4   0    0.62    0.17
   4  -4   0   39.61    1.24
   5  -4   0   10.03    0.58
   6  -4   0  115.95    2.90
   7  -4   0    2.22    0.30
   8  -4   0    2.98    0.39
   9  -4   0   11.61    1.21
  10  -4   0    6.07    0.86
  11  -4   0    4.20    0.79
  12  -4   0  110.08    4.20
  13  -4   0    9.05    1.22
  14  -4   0   13.93    2.44
  15  -4   0   35.28    4.03
  16  -4   0    1.93    1.12
  17  -4   0   -0.10    0.70
  18  -4   0    4.47    1.62
 -18  -3   0    4.32    1.65
 -17  -3   0    5.20    1.58
 -16  -3   0    7.44    1.84
 -15  -3   0    2.21    0.59
 -14  -3   0    4.19    0.86
 -13  -3   0   17.03    2.17
 -12  -3   0    3.47    0.96
 -11  -3   0   41.27    2.03
 -10  -3   0    0.08    0.18
  -9  -3   0  129.56    3.42
  -8  -3   0  105.37    2.90
  -7  -3   0   21.22    0.93
  -6  -3   0  261.37    7.31
  -5  -3   0   11.23    0.99
  -4  -3   0   27.19    1.08
  -3  -3   0  144.11    3.96
  -2  -3   0    2.36    0.23
  -1  -3   0   73.90    1.75
   0  -3   0   -0.06    0.08
   1  -3   0   73.67    1.80
   2  -3   0    2.12    0.23
   3  -3   0  139.72    3.24
   4  -3   0   26.72    0.88
   5  -3   0   12.08    0.55
   6  -3   0  261.05    5.11
   7  -3   0   22.05    0.75
   8  -3   0  109.33    2.47
   9  -3   0  130.55    3.59
  10  -3   0    0.47    0.25
  11  -3   0   46.17    1.84
  12  -3   0    1.94    0.48
  13  -3   0   19.14    1.72
  14  -3   0    7.40    1.77
  15  -3   0    0.65    0.70
  16  -3   0    4.76    1.55
  17  -3   0    5.63    1.71
  18  -3   0    2.91    1.46
 -18  -2   0   14.58    2.72
 -17  -2   0    1.23    0.89
 -16  -2   0    1.17    0.94
 -15  -2   0   43.37    3.74
 -14  -2   0    3.03    0.76
 -13  -2   0    1.66    0.57
 -12  -2   0    1.37    0.61
 -11  -2   0   36.62    1.78
 -10  -2   0   60.43    1.93
  -9  -2   0   14.12    0.84
  -8  -2   0    7.04    0.61
  -7  -2   0   27.16    1.29
  -6  -2   0   60.40    2.13
  -5  -2   0   45.88    2.42
  -2  -2   0    7.58    0.40
  -1  -2   0    1.97    0.17
   0  -2   0    0.22    0.08
   1  -2   0    1.79    0.18
   2  -2   0    5.93    0.32
   3  -2   0   47.55    1.10
   4  -2   0  319.38    6.01
   5  -2   0   44.27    1.25
   6  -2   0   59.00    1.62
   7  -2   0   27.74    0.86
   8  -2   0    7.33    0.43
   9  -2   0   15.88    1.08
  10  -2   0   59.67    2.11
  11  -2   0   37.63    1.61
  12  -2   0    1.46    0.41
  13  -2   0    0.81    0.38
  14  -2   0    2.86    0.77
  15  -2   0   46.98    3.85
  16  -2   0    0.51    0.70
  17  -2   0   -0.97    0.69
  18  -2   0   21.20    3.30
 -18  -1   0   18.07    3.06
 -17  -1   0    4.08    1.55
 -16  -1   0    8.22    1.87
 -15  -1   0    0.64    0.72
 -14  -1   0    0.69    0.44
 -13  -1   0   14.21    1.44
 -12  -1   0   29.92    1.73
 -11  -1   0   13.05    1.64
 -10  -1   0   22.65    1.23
  -9  -1   0   12.66    1.04
  -8  -1   0    6.63    0.70
  -7  -1   0    8.91    0.78
  -6  -1   0   74.53    2.42
  -5  -1   0   27.85    1.15
  -4  -1   0  222.46    5.98
  -3  -1   0   62.87    2.64
  -1  -1   0    5.72    0.35
   0  -1   0    0.12    0.05
   1  -1   0    5.49    0.40
   2  -1   0   14.77    0.60
   3  -1   0   57.23    1.42
   4  -1   0  220.49    4.21
   5  -1   0   29.36    0.90
   6  -1   0   73.69    1.70
   7  -1   0    9.16    0.48
   8  -1   0    6.37    0.45
   9  -1   0   11.75    0.65
  10  -1   0   20.19    1.18
  11  -1   0   11.83    1.00
  12  -1   0   28.77    1.56
  13  -1   0   12.98    1.52
  14  -1   0    1.17    0.51
  15  -1   0    0.07    0.42
  16  -1   0    5.92    1.67
  17  -1   0    5.50    1.67
  18  -1   0   10.55    2.31
 -18   0   0   11.36    2.52
 -17   0   0    0.27    0.70
 -16   0   0    1.17    0.99
 -15   0   0    0.44    0.72
 -14   0   0  101.39    3.98
 -13   0   0    0.12    0.30
 -12   0   0   23.29    1.59
 -11   0   0    0.15    0.24
 -10   0   0  115.35    5.48
  -9   0   0   -0.08    0.15
  -8   0   0   97.69    3.09
  -7   0   0    0.53    0.19
  -6   0   0    0.55    0.19
  -5   0   0    0.02    0.12
  -4   0   0    1.62    0.25
  -3   0   0   -0.06    0.09
  -2   0   0    6.38    0.44
   1   0   0    0.05    0.04
   2   0   0    6.82    0.23
   3   0   0    0.05    0.07
   4   0   0    1.54    0.17
   5   0   0    0.10    0.08
   6   0   0    0.53    0.13
   7   0   0   -0.04    0.09
   8   0   0   98.52    2.26
   9   0   0    0.11    0.13
  10   0   0  118.78    3.31
  11   0   0    0.17    0.21
  12   0   0   22.89    1.34
  13   0   0    0.17    0.32
  14   0   0   97.85    4.18
  15   0   0    0.33    0.53
  16   0   0    0.42    0.56
  17   0   0    0.63    0.93
  18   0   0   11.35    2.40
 -18   1   0    9.51    2.26
 -17   1   0    3.59    1.37
 -16   1   0    7.67    1.91
 -15   1   0    0.30    0.60
 -14   1   0    0.21    0.35
 -13   1   0   14.04    1.45
 -12   1   0   29.16    1.83
 -11   1   0   11.57    1.16
 -10   1   0   21.24    1.37
  -9   1   0   12.33    0.73
  -8   1   0    6.70    0.61
  -7   1   0    8.89    0.60
  -6   1   0   73.02    2.27
  -5   1   0   27.91    1.04
  -4   1   0  222.60    5.82
  -3   1   0   58.58    1.66
  -2   1   0   15.02    0.58
  -1   1   0    5.30    0.26
   0   1   0    0.06    0.05
   1   1   0    5.68    0.17
   2   1   0   14.25    0.32
   3   1   0   58.08    1.02
   4   1   0  221.78    3.43
   5   1   0   29.21    0.67
   6   1   0   74.32    1.70
   7   1   0    7.32    0.50
   8   1   0    5.78    0.46
   9   1   0   12.95    0.66
  10   1   0   21.80    1.16
  11   1   0   11.63    0.95
  12   1   0   31.09    1.43
  13   1   0   13.91    1.54
  14   1   0    0.43    0.45
  15   1   0    0.17    0.48
  16   1   0    7.06    1.23
  17   1   0    2.89    0.91
  18   1   0   13.16    2.56
 -18   2   0   19.75    3.20
 -17   2   0   -0.47    0.54
 -16   2   0    1.53    0.95
 -15   2   0   42.03    3.67
 -14   2   0    3.72    1.21
 -13   2   0    0.61    0.37
 -12   2   0    0.37    0.33
 -11   2   0   31.80    1.77
 -10   2   0   61.24    2.51
  -9   2   0   14.54    1.21
  -8   2   0    7.18    0.48
  -7   2   0   27.14    0.93
  -6   2   0   61.94    1.86
  -5   2   0   44.11    1.20
  -4   2   0  325.11    6.84
  -3   2   0   47.60    1.20
  -2   2   0    6.85    0.34
  -1   2   0    1.74    0.17
   0   2   0    0.00    0.06
   1   2   0    1.94    0.16
   2   2   0    6.60    0.23
   3   2   0   48.83    0.90
   4   2   0  320.86    4.90
   5   2   0   43.23    0.91
   6   2   0   58.03    1.19
   7   2   0   27.21    0.79
   8   2   0    6.98    0.52
   9   2   0   13.81    0.70
  10   2   0   61.25    1.70
  11   2   0   37.45    1.52
  12   2   0    0.81    0.40
  13   2   0    1.72    0.61
  14   2   0    3.19    0.79
  15   2   0   42.24    2.56
  16   2   0    0.00    0.52
  17   2   0    0.21    0.53
 -18   3   0    1.50    1.67
 -17   3   0    4.54    1.62
 -16   3   0    2.51    1.19
 -15   3   0    1.89    1.05
 -14   3   0    2.75    1.07
 -13   3   0   15.85    1.52
 -12   3   0    2.52    0.61
 -11   3   0   41.31    2.05
 -10   3   0    0.10    0.27
  -9   3   0  130.42    4.26
  -8   3   0  108.27    3.61
  -7   3   0   22.52    0.78
  -6   3   0  265.23    5.76
  -5   3   0   11.01    0.47
  -4   3   0   27.62    0.82
  -3   3   0  142.61    3.18
  -2   3   0    2.60    0.25
  -1   3   0   74.91    1.79
   0   3   0   -0.03    0.08
   1   3   0   73.44    1.57
   2   3   0    1.81    0.20
   3   3   0  139.87    2.29
   4   3   0   25.99    0.63
   5   3   0   11.46    0.44
   6   3   0  260.22    4.18
   7   3   0   21.35    0.64
   8   3   0  110.40    2.24
   9   3   0  129.50    2.93
  10   3   0   -0.07    0.13
  11   3   0   43.03    1.67
  12   3   0    2.32    0.61
  13   3   0   20.23    1.83
  14   3   0    5.31    0.98
  15   3   0    1.12    0.58
  16   3   0    5.27    1.14
  17   3   0    2.07    1.20
  18   3   0    7.47    2.04
 -17   4   0    0.24    0.66
 -16   4   0    3.34    1.25
 -15   4   0   36.06    4.01
 -14   4   0   14.14    2.41
 -13   4   0    8.34    1.11
 -12   4   0  106.88    4.05
 -11   4   0    4.83    0.78
 -10   4   0    6.79    0.88
  -9   4   0   11.32    1.10
  -8   4   0    2.56    0.50
  -7   4   0    2.44    0.45
  -6   4   0  114.44    2.76
  -5   4   0   11.09    0.53
  -4   4   0   39.64    1.16
  -3   4   0    0.26    0.12
  -2   4   0  197.75    4.44
  -1   4   0   82.66    2.06
   0   4   0   29.51    1.08
   1   4   0   82.71    2.07
   2   4   0  198.93    3.91
   3   4   0    0.16    0.12
   4   4   0   39.95    0.97
   5   4   0   10.80    0.45
   6   4   0  113.36    2.07
   7   4   0    1.68    0.21
   8   4   0    2.64    0.28
   9   4   0   11.30    0.61
  10   4   0    6.44    0.57
  11   4   0    5.59    0.65
  12   4   0  106.73    4.07
  13   4   0    7.96    1.14
  14   4   0   13.23    1.53
  15   4   0   38.91    4.14
  16   4   0    4.65    1.59
  17   4   0    0.36    0.92
  18   4   0    3.07    1.19
 -17   5   0    0.57    0.98
 -16   5   0   -0.34    0.59
 -15   5   0   -0.09    0.53
 -14   5   0    6.20    1.56
 -13   5   0    3.50    1.14
 -12   5   0    1.35    0.54
 -11   5   0   13.46    1.36
 -10   5   0   30.48    1.65
  -9   5   0   12.72    1.20
  -8   5   0    1.28    0.38
  -7   5   0   64.40    2.39
  -6   5   0   74.56    1.96
  -5   5   0    0.48    0.16
  -4   5   0    1.89    0.27
  -3   5   0    5.56    0.45
  -2   5   0  155.63    3.63
  -1   5   0   37.04    1.14
   0   5   0   -0.03    0.11
   1   5   0   37.29    1.15
   2   5   0  154.17    3.67
   3   5   0    6.18    0.51
   4   5   0    1.21    0.22
   5   5   0    0.21    0.11
   6   5   0   71.89    1.48
   7   5   0   61.36    1.36
   8   5   0    1.10    0.20
   9   5   0   14.29    0.77
  10   5   0   26.04    1.05
  11   5   0   13.08    0.87
  12   5   0    3.31    0.67
  13   5   0    1.71    0.56
  14   5   0    6.49    1.52
  15   5   0    0.22    0.62
  16   5   0    0.21    0.66
  17   5   0    0.67    0.95
  18   5   0    2.68    2.09
 -17   6   0   11.90    2.44
 -16   6   0   16.24    2.81
 -15   6   0   15.36    2.62
 -14   6   0    1.07    0.80
 -13   6   0    5.22    1.37
 -12   6   0   23.21    1.86
 -11   6   0   10.70    1.23
 -10   6   0   22.26    1.50
  -9   6   0   20.78    1.39
  -8   6   0   51.76    2.26
  -7   6   0   45.32    1.94
  -6   6   0    4.93    0.45
  -5   6   0   77.97    2.13
  -4   6   0    0.74    0.19
  -3   6   0  357.55    8.01
  -2   6   0  157.39    3.76
  -1   6   0    0.24    0.15
   0   6   0   65.08    1.84
   1   6   0    0.35    0.15
   2   6   0  159.08    3.80
   3   6   0  362.66    8.11
   4   6   0    0.22    0.17
   5   6   0   78.58    2.29
   6   6   0    3.61    0.38
   7   6   0   41.12    1.32
   8   6   0   56.61    1.63
   9   6   0   17.76    0.96
  10   6   0   23.11    1.05
  11   6   0   11.46    0.97
  12   6   0   21.32    1.83
  13   6   0    2.80    1.02
  14   6   0    0.20    0.62
  15   6   0   17.79    2.61
  16   6   0   24.79    3.45
  17   6   0   13.23    2.44
 -17   7   0    0.66    0.98
 -16   7   0    3.94    1.44
 -15   7   0   -1.01    0.46
 -14   7   0    0.89    0.80
 -13   7   0    7.38    1.69
 -12   7   0    5.40    0.94
 -11   7   0    0.64    0.37
 -10   7   0    0.73    0.36
  -9   7   0   89.79    3.42
  -8   7   0   17.59    1.43
  -7   7   0  121.68    4.07
  -6   7   0   10.64    0.77
  -5   7   0    1.93    0.32
  -4   7   0    0.24    0.17
  -3   7   0   51.75    1.60
  -2   7   0   22.95    0.94
  -1   7   0   45.95    1.46
   0   7   0    0.00    0.10
   1   7   0   46.42    1.48
   2   7   0   22.43    0.93
   3   7   0   49.41    1.63
   4   7   0    0.15    0.18
   5   7   0    1.72    0.34
   6   7   0    9.97    0.85
   7   7   0  121.33    3.39
   8   7   0   17.02    0.91
   9   7   0   91.32    2.42
  10   7   0    0.36    0.26
  11   7   0    0.66    0.40
  12   7   0    4.77    0.89
  13   7   0    8.16    1.74
  14   7   0    0.83    0.75
  15   7   0    0.16    0.63
  16   7   0    2.20    1.20
  17   7   0    1.39    1.10
 -16   8   0    5.19    1.53
 -15   8   0   -0.34    0.68
 -14   8   0    0.08    0.62
 -13   8   0    4.62    1.39
 -12   8   0    1.43    0.76
 -11   8   0    4.89    0.86
 -10   8   0   19.80    1.67
  -9   8   0   11.64    1.23
  -8   8   0   96.15    3.46
  -7   8   0   21.00    1.58
  -6   8   0   37.24    1.76
  -5   8   0   28.48    1.14
  -4   8   0   14.31    0.94
  -3   8   0   64.23    1.96
  -2   8   0    4.84    0.51
  -1   8   0   67.29    2.00
   0   8   0   63.58    1.92
   1   8   0   67.81    2.02
   2   8   0    4.11    0.47
   3   8   0   64.77    2.00
   4   8   0   12.44    0.81
   5   8   0   26.19    1.21
   6   8   0   34.64    1.46
   7   8   0   20.20    1.19
   8   8   0   93.88    2.89
   9   8   0    9.27    0.94
  10   8   0   21.47    1.50
  11   8   0    3.62    0.73
  12   8   0    3.50    0.78
  13   8   0    3.76    0.84
  14   8   0   -0.77    0.53
  15   8   0    1.12    0.89
  16   8   0    8.54    1.97
  17   8   0    0.89    1.16
 -16   9   0    9.37    2.16
 -15   9   0    0.81    0.89
 -14   9   0   18.08    2.79
 -13   9   0    2.90    1.14
 -12   9   0    7.65    1.69
 -11   9   0   25.00    2.04
 -10   9   0   38.06    2.06
  -9   9   0    9.78    1.19
  -8   9   0    1.01    0.43
  -7   9   0   20.18    1.59
  -6   9   0   70.99    2.83
  -5   9   0   35.42    1.36
  -4   9   0    4.40    0.54
  -3   9   0   73.55    2.25
  -2   9   0   14.80    0.89
  -1   9   0    4.90    0.53
   0   9   0    0.07    0.13
   1   9   0    5.02    0.52
   2   9   0   15.75    0.90
   3   9   0   76.51    2.31
   4   9   0    4.37    0.54
   5   9   0   30.22    1.35
   6   9   0   70.68    2.35
   7   9   0   17.69    1.24
   8   9   0    1.85    0.46
   9   9   0   10.50    1.01
  10   9   0   37.30    1.83
  11   9   0   27.56    1.87
  12   9   0    7.94    1.17
  13   9   0    2.56    0.76
  14   9   0   18.07    1.86
 -16  10   0    0.42    0.97
 -15  10   0   24.11    3.38
 -14  10   0   27.14    3.58
 -13  10   0   31.83    3.68
 -12  10   0   51.92    4.09
 -11  10   0    0.79    0.47
 -10  10   0    0.42    0.41
  -9  10   0   -0.04    0.31
  -8  10   0    1.20    0.47
  -7  10   0    5.63    0.84
  -6  10   0   10.70    1.11
  -5  10   0    2.15    0.54
  -4  10   0   32.80    1.36
  -3  10   0   74.17    2.26
  -2  10   0   49.92    1.75
  -1  10   0   63.58    2.03
   0  10   0    9.01    0.75
   1  10   0   63.17    2.03
   2  10   0   51.92    1.77
   3  10   0   67.61    2.24
   4  10   0   33.43    1.41
   5  10   0    0.89    0.30
   6  10   0   11.48    0.98
   7  10   0    4.52    0.64
   8  10   0    1.09    0.36
   9  10   0    0.19    0.31
  10  10   0    0.00    0.26
  11  10   0    1.23    0.85
  12  10   0   62.96    4.42
  13  10   0   32.40    3.62
  14  10   0   22.19    3.12
 -15  11   0    1.29    1.11
 -14  11   0    2.63    1.29
 -13  11   0    0.16    0.75
 -12  11   0   -0.03    0.58
 -11  11   0    3.54    1.15
 -10  11   0   23.78    2.01
  -9  11   0   26.17    2.07
  -8  11   0    4.15    0.78
  -7  11   0    1.98    0.56
  -6  11   0   12.85    1.34
  -5  11   0   16.46    1.45
  -4  11   0    7.43    0.76
  -3  11   0   29.94    1.32
  -2  11   0    4.02    0.52
  -1  11   0   76.89    2.41
   0  11   0    0.01    0.19
   1  11   0   76.95    2.41
   2  11   0    4.53    0.56
   3  11   0   31.75    1.92
   4  11   0    6.83    1.06
   5  11   0   17.62    1.80
   6  11   0    9.92    1.30
   7  11   0    1.46    0.54
   8  11   0    3.33    0.83
   9  11   0   26.08    2.35
  10  11   0   23.49    2.24
  11  11   0    1.36    0.93
  12  11   0   -0.26    0.63
  13  11   0   -0.50    0.71
  14  11   0    2.76    1.24
 -14  12   0    2.05    1.15
 -13  12   0    2.82    1.16
 -12  12   0   14.03    2.40
 -11  12   0   20.30    2.80
 -10  12   0    2.05    0.68
  -9  12   0   11.77    1.40
  -8  12   0    1.69    0.58
  -7  12   0   22.46    1.87
  -6  12   0   27.96    1.83
  -5  12   0    2.67    0.62
  -4  12   0   30.29    1.64
  -3  12   0    9.57    1.19
  -2  12   0   39.20    2.12
  -1  12   0   54.43    2.61
   0  12   0   36.08    2.08
   1  12   0   57.85    2.73
   2  12   0   36.84    2.39
   3  12   0    7.61    1.14
   4  12   0   29.65    2.38
   5  12   0    2.70    0.70
   6  12   0   24.69    2.14
   7  12   0   24.61    2.28
   8  12   0    2.42    0.75
   9  12   0   12.79    1.62
  10  12   0    2.18    0.74
  11  12   0   22.57    3.17
  12  12   0   19.00    2.82
  13  12   0    1.45    1.01
  14  12   0    0.92    1.02
  -9  13   0    4.14    1.27
  -8  13   0    0.77    0.67
  -7  13   0   11.21    2.02
  -6  13   0   28.81    3.19
  -5  13   0   82.51    4.94
  -4  13   0   40.51    3.16
  -3  13   0    0.57    0.40
  -2  13   0    0.26    0.36
  -1  13   0   13.95    1.52
   0  13   0    0.35    0.37
   1  13   0   13.96    1.57
   2  13   0    0.05    0.32
   3  13   0   -0.18    0.28
   4  13   0   37.56    2.53
   5  13   0   77.42    3.66
   6  13   0   26.38    2.38
   7  13   0   11.98    1.62
   8  13   0    1.09    0.62
   9  13   0    3.32    0.88
  10  13   0    0.71    0.55
  11  13   0    1.04    0.76
  12  13   0   11.91    2.42
  13  13   0   -0.26    0.78
  14  13   0    1.08    1.53
  -9  14   0    5.92    1.54
  -8  14   0   49.30    3.81
  -7  14   0    0.59    0.69
  -6  14   0    4.64    1.31
  -5  14   0   15.17    2.41
  -4  14   0    9.47    1.89
  -3  14   0    0.66    0.63
  -2  14   0    2.65    0.76
  -1  14   0    5.19    0.90
   0  14   0  128.24    4.92
   1  14   0    5.04    0.96
   2  14   0    3.24    0.79
   3  14   0    0.01    0.39
   4  14   0    5.11    1.07
   5  14   0   11.24    1.55
   6  14   0    4.44    0.97
   7  14   0   -0.17    0.41
   8  14   0   46.16    3.11
   9  14   0    7.09    1.31
  10  14   0    7.71    1.45
  11  14   0    0.39    0.85
  12  14   0    4.56    1.61
  -8  15   0   21.78    3.00
  -7  15   0   12.35    2.23
  -6  15   0    1.36    0.89
  -5  15   0    2.96    1.20
  -4  15   0    5.64    1.55
  -3  15   0    1.92    0.89
  -2  15   0    2.63    0.70
  -1  15   0   -0.09    0.35
   0  15   0    0.26    0.46
   1  15   0    0.31    0.44
   2  15   0    0.98    0.60
   3  15   0    0.89    0.58
   4  15   0    3.49    0.93
   5  15   0    2.70    0.82
   6  15   0    1.99    0.74
   7  15   0    7.98    1.37
   8  15   0   15.38    1.98
   9  15   0    4.46    1.09
  10  15   0    9.30    2.10
  11  15   0    2.90    1.40
  -8  16   0    2.39    1.16
  -7  16   0    4.05    1.37
  -6  16   0    3.48    1.28
  -5  16   0    1.85    0.97
  -4  16   0   45.57    3.84
  -3  16   0    0.02    0.57
  -2  16   0    0.81    0.83
  -1  16   0    9.10    1.35
   0  16   0   48.86    3.05
   1  16   0    5.10    1.09
   2  16   0    0.61    0.54
   3  16   0    0.37    0.50
   4  16   0   49.49    3.23
   5  16   0    3.41    0.89
   6  16   0    0.95    0.75
   7  16   0    4.53    1.12
   8  16   0    1.33    0.69
   9  16   0    1.81    0.85
  10  16   0   15.15    2.73
  -7  17   0    8.00    2.01
  -6  17   0   21.68    3.11
  -5  17   0    4.73    1.54
  -4  17   0   13.14    2.44
  -3  17   0    2.32    1.13
  -2  17   0   13.99    2.57
  -1  17   0    3.65    0.99
   0  17   0    0.66    0.54
   1  17   0    3.41    0.99
   2  17   0   15.22    1.90
   3  17   0    3.60    1.03
   4  17   0   10.89    1.67
   5  17   0    3.98    1.08
   6  17   0   20.22    2.23
   7  17   0    9.24    1.60
   8  17   0    0.49    0.61
  -7  18   0   -0.05    0.81
  -6  18   0   26.58    3.65
  -5  18   0   -0.11    0.77
  -4  18   0   23.00    3.27
  -3  18   0    0.54    0.89
  -2  18   0    2.36    1.24
  -1  18   0    2.19    1.21
   0  18   0   -0.14    0.59
   1  18   0   -0.43    0.44
   2  18   0    0.66    0.69
   3  18   0   -0.10    0.53
   4  18   0   23.82    2.57
   5  18   0    0.10    0.60
   6  18   0   17.50    2.18
  -5  19   0    0.49    1.00
  -4  19   0    0.20    0.92
  -3  19   0    0.29    0.95
  -2  19   0   39.85    4.67
  -1  19   0   -0.31    0.88
   0  19   0    0.45    0.89
   1  19   0    0.32    0.63
   2  19   0   47.20    3.25
   3  19   0    0.16    0.64
   4  19   0    0.58    1.13
  -3 -19   1    2.68    1.28
  -2 -19   1    0.32    0.64
  -1 -19   1    2.71    0.94
   0 -19   1    0.39    0.65
   1 -19   1    2.68    0.94
   2 -19   1    0.28    0.97
  -7 -18   1    0.27    0.89
  -6 -18   1    0.27    0.74
  -5 -18   1   -0.05    0.62
  -4 -18   1    0.18    0.63
  -3 -18   1    1.16    0.67
  -2 -18   1    2.81    0.86
  -1 -18   1    0.30    0.62
   0 -18   1    1.82    0.76
   1 -18   1    0.12    0.52
   2 -18   1    2.50    0.84
   3 -18   1    1.67    1.11
   4 -18   1   -0.37    0.75
   5 -18   1    0.41    0.83
   6 -18   1    0.14    0.92
  -8 -17   1    0.16    0.51
  -7 -17   1    2.52    0.89
  -6 -17   1   -0.16    0.48
  -5 -17   1   -0.17    0.44
  -4 -17   1   12.59    1.72
  -3 -17   1    0.28    0.50
  -2 -17   1    7.49    1.31
  -1 -17   1   27.68    2.48
   0 -17   1    0.06    0.48
   1 -17   1   37.70    2.92
   2 -17   1    6.69    1.22
   3 -17   1    0.90    0.62
   4 -17   1   12.00    2.37
   5 -17   1    1.02    0.76
   6 -17   1   -0.02    0.52
   7 -17   1    3.61    1.06
   8 -17   1    0.08    0.65
   9 -17   1   20.11    3.32
 -10 -16   1    1.68    1.07
  -9 -16   1   -0.24    0.43
  -8 -16   1   -0.13    0.46
  -7 -16   1    9.19    1.45
  -6 -16   1    1.02    0.61
  -5 -16   1    0.68    0.60
  -4 -16   1   -0.15    0.41
  -3 -16   1   23.31    2.24
  -2 -16   1   18.60    1.99
  -1 -16   1    3.14    0.86
   0 -16   1   77.73    3.68
   1 -16   1    3.79    0.93
   2 -16   1   16.34    1.78
   3 -16   1   29.43    1.97
   4 -16   1   -0.38    0.36
   5 -16   1   -0.04    0.46
   6 -16   1    2.18    0.76
   7 -16   1   11.27    1.67
   8 -16   1   -0.17    0.48
   9 -16   1    0.43    0.64
  10 -16   1    0.46    0.70
 -11 -15   1    0.76    0.78
 -10 -15   1    0.81    0.74
  -9 -15   1    0.08    0.46
  -8 -15   1    0.45    0.50
  -7 -15   1   11.86    1.55
  -6 -15   1   12.94    1.69
  -5 -15   1   33.84    2.71
  -4 -15   1   19.29    2.03
  -3 -15   1   20.80    2.07
  -2 -15   1    0.17    0.39
  -1 -15   1    2.02    0.69
   0 -15   1    0.00    0.37
   1 -15   1    1.95    0.51
   2 -15   1    0.14    0.28
   3 -15   1   18.84    1.47
   4 -15   1   21.25    1.62
   5 -15   1   31.82    2.54
   6 -15   1   14.24    1.70
   7 -15   1    9.97    1.47
   8 -15   1    0.47    0.56
   9 -15   1   -0.94    0.46
  10 -15   1    1.60    0.81
  11 -15   1    1.34    0.81
 -12 -14   1    3.07    1.00
 -11 -14   1    0.41    0.58
 -10 -14   1   -0.03    0.43
  -9 -14   1    3.27    0.74
  -8 -14   1   27.93    2.42
  -7 -14   1    2.11    0.69
  -6 -14   1    0.48    0.42
  -5 -14   1    2.11    0.69
  -4 -14   1   46.78    3.70
  -3 -14   1    1.64    0.58
  -2 -14   1    1.62    0.54
  -1 -14   1   15.85    1.31
   0 -14   1   36.27    1.80
   1 -14   1   17.47    1.37
   2 -14   1    1.74    0.49
   3 -14   1    2.43    0.58
   4 -14   1   46.02    2.05
   5 -14   1    0.77    0.49
   6 -14   1   -0.24    0.39
   7 -14   1    1.98    0.70
   8 -14   1   25.46    2.36
   9 -14   1    3.88    1.01
  10 -14   1   -0.09    0.55
  11 -14   1    0.12    0.58
  12 -14   1    3.54    1.04
 -13 -13   1   12.10    1.83
 -12 -13   1    1.97    0.78
 -11 -13   1   47.04    3.50
 -10 -13   1   23.52    1.89
  -9 -13   1    8.12    1.29
  -8 -13   1   29.21    2.38
  -7 -13   1    4.59    0.90
  -6 -13   1    4.03    0.86
  -5 -13   1    0.44    0.40
  -4 -13   1    5.64    1.02
  -3 -13   1   82.09    2.87
  -2 -13   1    9.66    0.96
  -1 -13   1    3.48    0.59
   0 -13   1   -0.04    0.24
   1 -13   1    2.55    0.52
   2 -13   1    9.77    0.99
   3 -13   1   82.94    2.81
   4 -13   1    5.07    0.72
   5 -13   1    0.14    0.35
   6 -13   1    4.83    0.93
   7 -13   1    4.75    0.97
   8 -13   1   29.87    2.51
   9 -13   1    7.26    1.26
  10 -13   1   22.18    2.25
  11 -13   1   37.94    3.03
  12 -13   1    2.76    0.91
  13 -13   1   17.41    3.26
 -14 -12   1    4.40    1.62
 -13 -12   1    2.39    0.88
 -12 -12   1    0.52    0.63
 -11 -12   1    6.52    1.00
 -10 -12   1    5.87    1.06
  -9 -12   1    8.52    1.27
  -8 -12   1    8.77    1.22
  -7 -12   1   12.94    1.45
  -6 -12   1    4.62    0.90
  -5 -12   1   14.11    1.50
  -4 -12   1   31.18    1.49
  -3 -12   1   10.71    0.99
  -2 -12   1    1.79    0.42
  -1 -12   1    8.32    0.85
   0 -12   1    4.17    0.62
   1 -12   1    9.55    0.92
   2 -12   1    1.76    0.44
   3 -12   1   11.78    1.04
   4 -12   1   30.15    1.54
   5 -12   1   14.18    1.16
   6 -12   1    4.57    0.91
   7 -12   1   14.17    1.60
   8 -12   1   10.06    1.42
   9 -12   1   11.32    1.54
  10 -12   1    5.93    1.14
  11 -12   1    6.61    1.26
  12 -12   1    0.11    0.55
  13 -12   1    4.93    1.68
  14 -12   1    6.90    2.49
 -14 -11   1    0.93    1.09
 -13 -11   1    2.00    0.65
 -12 -11   1   -0.12    0.44
 -11 -11   1    0.17    0.36
 -10 -11   1   -0.10    0.38
  -9 -11   1   23.03    2.00
  -8 -11   1    0.32    0.37
  -7 -11   1  104.95    4.18
  -6 -11   1    7.68    0.82
  -5 -11   1    1.18    0.35
  -4 -11   1    6.05    0.74
  -3 -11   1    0.08    0.20
  -2 -11   1   40.59    1.68
  -1 -11   1   54.27    1.99
   0 -11   1    0.08    0.19
   1 -11   1   54.84    2.02
   2 -11   1   42.06    1.71
   3 -11   1    0.12    0.22
   4 -11   1    4.63    0.64
   5 -11   1    1.29    0.36
   6 -11   1    6.94    1.07
   7 -11   1  107.57    4.28
   8 -11   1    0.72    0.47
   9 -11   1   29.85    2.43
  10 -11   1    0.22    0.39
  11 -11   1   -0.04    0.41
  12 -11   1   -0.09    0.49
  13 -11   1    0.83    0.94
  14 -11   1   -0.19    0.86
 -13 -10   1    6.61    0.97
 -12 -10   1   -0.24    0.40
 -11 -10   1   47.98    2.25
 -10 -10   1    2.16    0.62
  -9 -10   1    6.65    1.00
  -8 -10   1    0.49    0.28
  -7 -10   1    1.98    0.43
  -6 -10   1   25.81    1.34
  -5 -10   1   16.88    1.19
  -4 -10   1   43.95    1.69
  -3 -10   1   32.18    1.42
  -2 -10   1   10.13    0.88
  -1 -10   1   48.55    1.81
   0 -10   1   26.76    1.24
   1 -10   1   49.96    1.82
   2 -10   1   10.11    0.88
   3 -10   1   34.15    1.47
   4 -10   1   44.01    1.70
   5 -10   1   16.83    1.09
   6 -10   1   29.05    1.93
   7 -10   1    2.33    0.64
   8 -10   1    0.68    0.44
   9 -10   1    5.99    1.01
  10 -10   1    2.56    0.70
  11 -10   1   45.46    2.70
  12 -10   1    0.00    0.41
  13 -10   1    5.45    1.70
  14 -10   1    2.98    1.50
  15 -10   1    0.03    0.92
 -13  -9   1    2.09    0.58
 -12  -9   1    0.32    0.33
 -11  -9   1    1.83    0.49
 -10  -9   1    5.75    0.94
  -9  -9   1   82.67    2.74
  -8  -9   1   25.03    1.30
  -7  -9   1   22.14    1.20
  -6  -9   1   24.38    1.24
  -5  -9   1  121.40    3.39
  -4  -9   1   11.56    0.91
  -3  -9   1    4.83    0.57
  -2  -9   1  124.63    3.46
  -1  -9   1   23.68    1.11
   0  -9   1   -0.06    0.15
   1  -9   1   23.39    1.11
   2  -9   1  131.77    3.50
   3  -9   1    4.87    0.61
   4  -9   1   10.94    0.90
   5  -9   1  120.97    3.36
   6  -9   1   22.87    1.65
   7  -9   1   23.95    1.89
   8  -9   1   20.67    1.82
   9  -9   1   91.20    3.69
  10  -9   1    5.45    0.96
  11  -9   1    3.72    0.88
  12  -9   1    0.07    0.71
  13  -9   1    3.91    1.48
  14  -9   1    1.31    1.12
  15  -9   1    2.99    1.47
 -13  -8   1    2.97    0.96
 -12  -8   1    0.58    0.31
 -11  -8   1   10.68    0.91
 -10  -8   1    8.33    0.87
  -9  -8   1   32.20    1.47
  -8  -8   1    2.91    0.50
  -7  -8   1   13.36    1.02
  -6  -8   1    9.23    0.83
  -5  -8   1   46.52    1.68
  -4  -8   1   33.21    1.34
  -3  -8   1   20.73    1.04
  -2  -8   1   29.24    1.20
  -1  -8   1   39.88    1.42
   0  -8   1   64.22    2.00
   1  -8   1   33.78    1.33
   2  -8   1   29.11    1.19
   3  -8   1   21.98    1.03
   4  -8   1   34.05    1.34
   5  -8   1   46.76    1.65
   6  -8   1   11.08    0.85
   7  -8   1   14.08    1.38
   8  -8   1    2.21    0.57
   9  -8   1   31.52    1.91
  10  -8   1    6.90    1.08
  11  -8   1    8.91    1.24
  12  -8   1    0.78    0.73
  13  -8   1    3.64    1.33
  14  -8   1   -0.03    0.71
  15  -8   1    2.69    1.34
  16  -8   1    2.37    1.44
 -13  -7   1   98.80    5.83
 -12  -7   1    0.51    0.23
 -11  -7   1    0.22    0.21
 -10  -7   1    0.02    0.20
  -9  -7   1    8.91    0.82
  -8  -7   1   22.54    1.35
  -7  -7   1   13.11    1.15
  -6  -7   1   13.06    1.14
  -5  -7   1  203.25    6.04
  -4  -7   1    0.54    0.25
  -3  -7   1    2.39    0.46
  -2  -7   1   18.51    1.04
  -1  -7   1   54.91    2.13
   0  -7   1    0.02    0.13
   1  -7   1   56.12    2.13
   2  -7   1   17.90    0.85
   3  -7   1    2.36    0.35
   4  -7   1    0.45    0.20
   5  -7   1  203.66    4.92
   6  -7   1   13.21    0.78
   7  -7   1   14.02    1.33
   8  -7   1   21.94    1.57
   9  -7   1    8.83    1.14
  10  -7   1    0.25    0.31
  11  -7   1    0.09    0.29
  12  -7   1    0.39    0.73
  13  -7   1   99.72    6.33
  14  -7   1    0.76    0.75
  15  -7   1   24.48    3.45
  16  -7   1    1.78    1.24
 -16  -6   1    0.39    0.89
 -15  -6   1    0.39    0.69
 -14  -6   1    0.31    0.46
 -13  -6   1   52.09    2.16
 -12  -6   1   21.17    1.03
 -11  -6   1   80.45    1.91
 -10  -6   1   22.24    1.29
  -9  -6   1   20.00    1.16
  -8  -6   1   11.93    0.91
  -7  -6   1   19.32    1.27
  -6  -6   1   -0.04    0.17
  -5  -6   1   31.04    1.45
  -4  -6   1    1.50    0.36
  -3  -6   1   20.47    1.09
  -2  -6   1    8.52    0.41
  -1  -6   1  244.07    6.86
   0  -6   1   47.93    1.85
   1  -6   1  247.46    6.92
   2  -6   1    9.24    0.67
   3  -6   1   21.01    0.88
   4  -6   1    0.85    0.23
   5  -6   1   30.08    0.97
   6  -6   1    0.31    0.15
   7  -6   1   19.86    1.04
   8  -6   1   16.03    1.11
   9  -6   1   17.24    1.22
  10  -6   1   20.94    1.41
  11  -6   1   83.87    2.80
  12  -6   1   20.22    2.93
  13  -6   1   52.92    4.24
  14  -6   1    0.53    0.76
  15  -6   1    0.41    0.67
  16  -6   1    0.74    0.91
  17  -6   1    9.91    2.36
 -17  -5   1   19.94    3.20
 -16  -5   1    2.74    1.28
 -15  -5   1   -0.09    0.62
 -14  -5   1    4.82    1.34
 -13  -5   1    3.87    1.11
 -12  -5   1    0.89    0.47
 -11  -5   1   24.51    1.38
 -10  -5   1   42.00    1.98
  -9  -5   1   22.88    1.97
  -8  -5   1    0.28    0.26
  -7  -5   1   72.44    2.70
  -6  -5   1   73.29    2.57
  -5  -5   1   39.30    1.70
  -4  -5   1    0.27    0.14
  -3  -5   1  106.09    2.62
  -2  -5   1  108.18    2.64
  -1  -5   1    0.31    0.15
   0  -5   1   -0.14    0.10
   1  -5   1    0.08    0.14
   2  -5   1  110.51    3.47
   3  -5   1  105.38    2.30
   4  -5   1    0.35    0.12
   5  -5   1   41.21    1.14
   6  -5   1   72.38    1.75
   7  -5   1   73.69    2.29
   8  -5   1    0.42    0.24
   9  -5   1   23.03    1.23
  10  -5   1   35.88    1.62
  11  -5   1   22.12    1.36
  12  -5   1    0.58    0.43
  13  -5   1    1.81    0.65
  14  -5   1    5.47    0.94
  15  -5   1   -0.18    0.58
  16  -5   1    2.91    1.38
  17  -5   1   20.82    3.36
 -18  -4   1    1.59    1.24
 -17  -4   1    0.71    0.90
 -16  -4   1   16.85    2.80
 -15  -4   1    1.00    0.84
 -14  -4   1   42.41    3.58
 -13  -4   1    1.21    0.76
 -12  -4   1   -0.14    0.32
 -11  -4   1    7.62    0.80
 -10  -4   1    0.27    0.27
  -9  -4   1   44.88    2.02
  -8  -4   1    8.70    1.34
  -7  -4   1   13.47    1.54
  -6  -4   1   17.83    1.03
  -5  -4   1   35.21    1.48
  -4  -4   1  124.51    3.71
  -3  -4   1    6.29    0.41
  -2  -4   1   62.75    1.63
  -1  -4   1   51.43    1.82
   0  -4   1   15.10    0.80
   1  -4   1   50.85    1.35
   2  -4   1   65.09    1.69
   3  -4   1    6.23    0.48
   4  -4   1  125.71    2.62
   5  -4   1   35.75    1.08
   6  -4   1   18.95    0.90
   7  -4   1   13.01    0.90
   8  -4   1   10.74    0.87
   9  -4   1   47.66    1.75
  10  -4   1    0.72    0.29
  11  -4   1    6.73    1.01
  12  -4   1   -0.12    0.30
  13  -4   1    0.22    0.43
  14  -4   1   46.61    2.71
  15  -4   1    1.17    0.59
  16  -4   1   11.31    2.39
  17  -4   1    1.07    1.00
  18  -4   1    1.17    1.18
 -18  -3   1    2.07    1.25
 -17  -3   1   17.49    2.88
 -16  -3   1    7.48    1.99
 -15  -3   1   14.33    2.44
 -14  -3   1    0.29    0.72
 -13  -3   1    1.19    0.74
 -12  -3   1    8.98    1.65
 -11  -3   1   30.04    1.62
 -10  -3   1   46.25    2.07
  -9  -3   1   23.92    1.31
  -8  -3   1   63.83    2.43
  -7  -3   1  160.90    6.99
  -6  -3   1    7.68    1.06
  -5  -3   1   99.76    4.44
  -4  -3   1   43.91    1.65
  -3  -3   1   17.31    0.82
  -2  -3   1  255.68    6.80
  -1  -3   1  344.85    7.21
   0  -3   1    0.01    0.13
   1  -3   1  343.98    7.22
   2  -3   1  263.99    5.60
   3  -3   1   18.44    0.70
   4  -3   1   45.29    1.37
   5  -3   1  102.31    2.61
   6  -3   1    7.11    0.59
   7  -3   1  155.29    4.00
   8  -3   1   64.84    2.07
   9  -3   1   19.59    1.12
  10  -3   1   45.99    1.75
  11  -3   1   29.31    1.81
  12  -3   1   10.87    1.35
  13  -3   1    1.54    0.59
  14  -3   1    1.27    0.57
  15  -3   1   14.57    1.76
  16  -3   1    8.23    1.39
  17  -3   1   18.35    2.10
  18  -3   1    0.59    1.00
 -18  -2   1   -0.39    0.91
 -17  -2   1   -0.24    0.78
 -16  -2   1    0.73    0.86
 -15  -2   1    3.47    1.39
 -14  -2   1    1.67    0.88
 -13  -2   1    0.89    0.76
 -12  -2   1   53.80    3.61
 -11  -2   1   25.98    1.56
 -10  -2   1    2.38    0.38
  -9  -2   1    4.74    0.65
  -8  -2   1   15.63    1.02
  -7  -2   1   60.31    2.19
  -6  -2   1   10.42    1.26
  -5  -2   1    1.86    0.51
  -4  -2   1   16.02    1.17
  -3  -2   1   50.91    1.72
  -2  -2   1   87.68    2.56
  -1  -2   1  125.36    3.47
   0  -2   1   35.75    0.95
   1  -2   1  128.10    2.85
   2  -2   1   87.42    2.07
   3  -2   1   51.93    1.37
   4  -2   1   17.31    0.68
   5  -2   1    2.00    0.28
   6  -2   1   13.39    0.73
   7  -2   1   60.79    1.84
   8  -2   1   15.02    0.86
   9  -2   1    3.25    0.46
  10  -2   1    2.84    0.47
  11  -2   1   24.52    1.96
  12  -2   1   47.23    2.45
  13  -2   1   -0.04    0.33
  14  -2   1    0.22    0.43
  15  -2   1    1.75    0.72
  16  -2   1    0.30    0.57
  17  -2   1   -0.01    0.59
  18  -2   1    0.57    1.01
 -18  -1   1    1.81    1.10
 -17  -1   1    0.93    1.06
 -16  -1   1   22.46    3.21
 -15  -1   1    2.42    1.01
 -14  -1   1    9.58    1.94
 -13  -1   1   30.80    3.33
 -12  -1   1   15.24    2.29
 -11  -1   1   19.37    2.40
 -10  -1   1   83.43    3.01
  -9  -1   1    2.67    0.47
  -8  -1   1   52.40    2.06
  -7  -1   1   13.76    0.86
  -6  -1   1   11.02    0.73
  -5  -1   1  178.76    7.30
  -4  -1   1   54.18    2.66
  -3  -1   1  140.68    5.77
  -2  -1   1    1.13    0.24
  -1  -1   1    0.51    0.17
   0  -1   1    0.18    0.12
   1  -1   1    0.58    0.12
   2  -1   1    1.54    0.18
   3  -1   1  144.75    3.26
   4  -1   1   54.52    1.44
   5  -1   1  180.18    4.10
   6  -1   1   11.83    0.63
   7  -1   1   14.99    0.77
   8  -1   1   55.36    1.73
   9  -1   1    2.90    0.40
  10  -1   1   81.77    3.25
  11  -1   1   16.34    1.50
  12  -1   1   11.71    1.30
  13  -1   1   29.43    2.29
  14  -1   1   11.65    1.43
  15  -1   1    2.09    0.72
  16  -1   1   17.21    1.92
  17  -1   1    0.95    0.64
 -18   0   1   -0.17    0.90
 -17   0   1    0.69    0.93
 -16   0   1   49.71    4.19
 -15   0   1   -0.03    0.68
 -14   0   1   49.41    3.89
 -13   0   1    0.31    0.43
 -12   0   1    1.29    0.74
 -11   0   1   -0.12    0.43
 -10   0   1   26.79    1.40
  -9   0   1    0.01    0.19
  -8   0   1  239.97    6.71
  -7   0   1    0.37    0.20
  -6   0   1   81.42    2.59
  -5   0   1    0.27    0.13
  -4   0   1  327.68    8.45
  -3   0   1    0.89    0.36
  -2   0   1  134.41    5.56
  -1   0   1    0.13    0.13
   0   0   1    9.43    0.48
   1   0   1    0.08    0.11
   2   0   1  141.52    3.08
   3   0   1    0.16    0.13
   4   0   1  328.60    8.37
   5   0   1    0.04    0.07
   6   0   1   83.43    2.12
   7   0   1   -0.01    0.10
   8   0   1  236.83    5.47
   9   0   1    0.08    0.15
  10   0   1   26.46    1.56
  11   0   1   -0.13    0.26
  12   0   1    1.40    0.51
  13   0   1    0.72    0.41
  14   0   1   47.32    2.67
  15   0   1   -0.01    0.40
  16   0   1   44.73    2.95
  17   0   1   -0.26    0.70
  18   0   1    1.07    1.73
 -18   1   1    0.29    0.81
 -17   1   1    1.36    1.08
 -16   1   1   18.26    2.93
 -15   1   1    2.16    1.01
 -14   1   1   10.97    2.12
 -13   1   1   22.73    2.99
 -12   1   1   12.36    2.03
 -11   1   1   17.44    2.37
 -10   1   1   88.07    3.03
  -9   1   1    2.68    0.47
  -8   1   1   57.48    1.60
  -7   1   1   14.49    0.85
  -6   1   1   10.94    0.67
  -5   1   1  180.89    4.94
  -4   1   1   55.08    1.68
  -3   1   1  144.18    5.95
  -2   1   1    1.08    0.38
  -1   1   1    0.31    0.23
   0   1   1    0.43    0.15
   1   1   1    0.45    0.15
   2   1   1    1.14    0.19
   3   1   1  144.41    4.02
   4   1   1   53.39    1.81
   5   1   1  180.41    3.98
   6   1   1   11.49    0.52
   7   1   1   14.21    0.65
   8   1   1   54.49    1.64
   9   1   1    3.15    0.59
  10   1   1   79.23    3.17
  11   1   1   17.82    1.56
  12   1   1   15.35    1.50
  13   1   1   28.63    2.00
  14   1   1    9.87    1.30
  15   1   1    0.97    0.50
  16   1   1   19.35    2.88
  17   1   1    1.75    1.14
 -17   2   1    0.64    0.98
 -16   2   1    0.25    0.80
 -15   2   1    3.68    1.39
 -14   2   1    1.23    0.82
 -13   2   1    0.06    0.47
 -12   2   1   42.57    3.40
 -11   2   1   28.22    3.05
 -10   2   1    4.47    1.23
  -9   2   1    4.73    0.63
  -8   2   1   14.24    0.92
  -7   2   1   60.49    2.14
  -6   2   1   12.43    0.74
  -5   2   1    1.54    0.26
  -4   2   1   17.12    0.72
  -3   2   1   50.67    1.59
  -2   2   1   85.93    2.49
  -1   2   1  126.83    3.50
   0   2   1   36.42    1.22
   1   2   1  127.63    2.84
   2   2   1   86.65    2.05
   3   2   1   51.15    1.36
   4   2   1   17.00    0.68
   5   2   1    1.48    0.31
   6   2   1   13.59    0.55
   7   2   1   62.41    1.69
   8   2   1   15.22    0.71
   9   2   1    4.13    0.58
  10   2   1    2.69    0.57
  11   2   1   24.38    1.84
  12   2   1   44.90    2.27
  13   2   1    0.53    0.43
  14   2   1    0.80    0.42
  15   2   1    1.99    0.99
  16   2   1    0.36    0.59
  17   2   1    0.15    0.75
 -17   3   1   19.68    3.13
 -16   3   1    3.75    1.48
 -15   3   1   12.06    2.25
 -14   3   1    0.39    0.70
 -13   3   1    2.01    0.96
 -12   3   1    7.99    1.66
 -11   3   1   30.02    3.27
 -10   3   1   46.59    3.32
  -9   3   1   22.58    1.30
  -8   3   1   66.80    2.40
  -7   3   1  164.84    4.80
  -6   3   1    8.75    0.71
  -5   3   1  103.00    3.11
  -4   3   1   47.41    1.61
  -3   3   1   17.07    0.79
  -2   3   1  251.82    6.86
  -1   3   1  331.45    8.90
   0   3   1   -0.01    0.11
   1   3   1  341.59    7.20
   2   3   1  256.30    6.94
   3   3   1   18.63    0.62
   4   3   1   45.45    1.30
   5   3   1  102.58    2.57
   6   3   1    7.28    0.56
   7   3   1  165.31    4.84
   8   3   1   64.05    2.45
   9   3   1   24.97    1.36
  10   3   1   48.40    2.15
  11   3   1   27.26    1.62
  12   3   1   10.86    1.23
  13   3   1    0.96    0.69
  14   3   1    0.87    0.72
  15   3   1   20.93    2.93
  16   3   1    5.76    1.62
  17   3   1   15.48    2.67
 -17   4   1   -0.66    0.71
 -16   4   1   11.40    2.30
 -15   4   1    0.26    0.74
 -14   4   1   50.38    4.00
 -13   4   1   -0.09    0.57
 -12   4   1   -0.43    0.50
 -11   4   1    6.62    1.49
 -10   4   1    0.33    0.50
  -9   4   1   47.59    2.01
  -8   4   1   10.79    0.94
  -7   4   1   12.05    0.87
  -6   4   1   18.82    1.04
  -5   4   1   38.30    1.47
  -4   4   1  123.70    3.73
  -3   4   1    6.03    0.57
  -2   4   1   64.28    2.12
  -1   4   1   50.31    1.76
   0   4   1   17.09    0.83
   1   4   1   49.75    1.80
   2   4   1   62.49    2.15
   3   4   1    5.85    0.59
   4   4   1  125.15    2.96
   5   4   1   37.47    1.17
   6   4   1   18.01    0.82
   7   4   1   14.39    0.80
   8   4   1   10.44    0.81
   9   4   1   46.47    2.02
  10   4   1    0.48    0.28
  11   4   1    6.93    0.92
  12   4   1    0.37    0.49
  13   4   1    1.87    0.86
  14   4   1   44.48    3.61
  15   4   1    2.23    1.10
  16   4   1   14.17    2.51
  17   4   1    0.09    0.77
 -17   5   1   20.86    3.28
 -16   5   1    2.37    1.08
 -15   5   1    0.18    0.74
 -14   5   1    7.18    1.75
 -13   5   1    3.29    1.23
 -12   5   1    0.96    0.66
 -11   5   1   19.08    2.55
 -10   5   1   42.11    3.18
  -9   5   1   18.24    2.34
  -8   5   1    0.06    0.21
  -7   5   1   76.25    2.69
  -6   5   1   76.15    2.58
  -5   5   1   41.84    1.69
  -4   5   1    0.26    0.20
  -3   5   1  109.13    3.35
  -2   5   1  111.17    3.43
  -1   5   1    0.04    0.14
   0   5   1    0.02    0.14
   1   5   1    0.19    0.17
   2   5   1  112.71    3.46
   3   5   1  105.07    3.37
   4   5   1    0.13    0.17
   5   5   1   42.38    1.25
   6   5   1   75.92    2.05
   7   5   1   77.81    2.17
   8   5   1    0.42    0.20
   9   5   1   25.14    1.21
  10   5   1   39.84    2.90
  11   5   1   19.32    2.37
  12   5   1    0.63    0.66
  13   5   1    0.48    0.66
  14   5   1    3.62    1.20
  15   5   1   -0.09    0.55
  16   5   1    3.90    1.35
  17   5   1   22.03    3.25
 -17   6   1    7.71    2.10
 -16   6   1    0.36    0.78
 -15   6   1   -0.10    0.64
 -14   6   1    0.66    0.74
 -13   6   1   55.03    4.21
 -12   6   1   22.26    2.96
 -11   6   1   83.37    5.12
 -10   6   1   19.06    2.52
  -9   6   1   17.92    2.31
  -8   6   1   13.27    1.16
  -7   6   1   21.15    1.25
  -6   6   1    0.47    0.26
  -5   6   1   31.21    1.46
  -4   6   1    1.79    0.38
  -3   6   1   20.18    1.08
  -2   6   1    8.52    0.80
  -1   6   1  242.92    6.86
   0   6   1   49.21    1.85
   1   6   1  245.86    6.89
   2   6   1    8.26    0.79
   3   6   1   18.68    1.07
   4   6   1    1.86    0.39
   5   6   1   29.86    1.47
   6   6   1    0.33    0.14
   7   6   1   13.85    1.27
   8   6   1   11.01    1.17
   9   6   1   17.88    1.52
  10   6   1   21.65    1.77
  11   6   1   73.30    4.63
  12   6   1   20.37    2.60
  13   6   1   51.28    3.86
  14   6   1   -0.37    0.48
  15   6   1   -0.47    0.52
  16   6   1    1.42    1.00
  17   6   1    8.31    2.03
 -16   7   1    0.81    0.95
 -15   7   1   19.35    2.97
 -14   7   1    0.31    0.75
 -13   7   1   99.00    6.14
 -12   7   1    0.04    0.58
 -11   7   1    0.60    0.60
 -10   7   1    0.08    0.51
  -9   7   1    5.91    1.36
  -8   7   1   20.66    1.38
  -7   7   1   16.54    1.16
  -6   7   1   11.03    1.04
  -5   7   1  209.61    6.09
  -4   7   1    0.21    0.22
  -3   7   1    1.70    0.39
  -2   7   1   17.34    1.03
  -1   7   1   53.80    2.11
   0   7   1    0.08    0.18
   1   7   1   54.98    2.13
   2   7   1   17.09    1.08
   3   7   1    1.64    0.40
   4   7   1    0.94    0.31
   5   7   1  204.49    6.12
   6   7   1   10.95    1.08
   7   7   1   15.41    1.34
   8   7   1   22.51    1.55
   9   7   1    9.30    1.14
  10   7   1   -0.14    0.32
  11   7   1    0.12    0.30
  12   7   1    0.59    0.57
  13   7   1   93.14    5.71
  14   7   1   -0.03    0.47
  15   7   1   16.76    2.71
  16   7   1    0.95    0.93
  17   7   1   13.12    2.57
 -16   8   1    3.98    1.54
 -15   8   1    3.06    1.40
 -14   8   1   -0.07    0.65
 -13   8   1    3.32    1.19
 -12   8   1    0.25    0.53
 -11   8   1    8.59    1.72
 -10   8   1    6.49    1.54
  -9   8   1   25.26    3.13
  -8   8   1    1.57    0.52
  -7   8   1   13.86    1.27
  -6   8   1   11.06    1.11
  -5   8   1   45.24    2.03
  -4   8   1   32.06    1.61
  -3   8   1   19.65    1.30
  -2   8   1   27.93    1.42
  -1   8   1   36.81    1.66
   0   8   1   62.26    1.99
   1   8   1   34.12    1.37
   2   8   1   26.33    1.18
   3   8   1   23.79    1.38
   4   8   1   34.02    1.64
   5   8   1   45.80    2.08
   6   8   1   10.92    1.13
   7   8   1   14.64    1.37
   8   8   1    1.65    0.50
   9   8   1   33.72    1.92
  10   8   1    7.38    1.05
  11   8   1   10.04    1.28
  12   8   1    0.30    0.41
  13   8   1    2.86    1.11
  14   8   1    0.08    0.60
  15   8   1    4.17    1.35
  16   8   1    3.62    1.33
 -16   9   1    0.33    0.86
 -15   9   1    3.65    1.37
 -14   9   1    0.89    0.71
 -13   9   1    2.90    1.19
 -12   9   1   -0.14    0.49
 -11   9   1    3.48    1.20
 -10   9   1    7.22    1.58
  -9   9   1   81.14    5.04
  -8   9   1   24.60    2.82
  -7   9   1   22.55    1.51
  -6   9   1   23.28    1.50
  -5   9   1  127.78    4.17
  -4   9   1   10.65    1.10
  -3   9   1    5.96    0.79
  -2   9   1  128.13    4.22
  -1   9   1   25.75    1.14
   0   9   1    0.07    0.18
   1   9   1   23.73    1.13
   2   9   1  128.53    3.53
   3   9   1    5.49    0.64
   4   9   1   12.23    1.14
   5   9   1  125.22    4.19
   6   9   1   20.77    1.45
   7   9   1   21.11    1.70
   8   9   1   24.28    1.65
   9   9   1   82.57    3.48
  10   9   1    5.03    0.86
  11   9   1    3.48    0.79
  12   9   1    0.45    0.43
  13   9   1    2.58    1.08
  14   9   1    2.64    1.16
  15   9   1    1.59    1.12
  16   9   1   -0.67    0.80
 -15  10   1    0.67    0.99
 -14  10   1    3.00    1.34
 -13  10   1    4.70    1.54
 -12  10   1   -0.59    0.54
 -11  10   1   38.84    4.17
 -10  10   1    5.33    1.39
  -9  10   1    5.13    1.32
  -8  10   1    1.24    0.73
  -7  10   1    2.77    0.59
  -6  10   1   29.79    1.67
  -5  10   1   19.04    1.54
  -4  10   1   42.70    2.05
  -3  10   1   36.64    1.80
  -2  10   1   11.78    1.12
  -1  10   1   51.54    1.82
   0  10   1   26.26    1.29
   1  10   1   51.98    1.87
   2  10   1   10.85    0.94
   3  10   1   35.77    1.51
   4  10   1   42.07    2.02
   5  10   1   15.94    1.44
   6  10   1   27.33    1.74
   7  10   1    2.30    0.59
   8  10   1   -0.09    0.31
   9  10   1    7.70    1.13
  10  10   1    3.82    0.77
  11  10   1   50.23    2.69
  12  10   1    0.21    0.40
  13  10   1    5.91    1.14
  14  10   1    2.71    1.11
  15  10   1    1.06    0.89
 -15  11   1    3.75    1.49
 -14  11   1   -0.53    0.71
 -13  11   1    2.34    1.09
 -12  11   1    1.15    0.75
 -11  11   1   -0.17    0.59
 -10  11   1    0.34    0.55
  -9  11   1   26.57    3.15
  -8  11   1    1.46    0.75
  -7  11   1  108.52    4.07
  -6  11   1    9.63    1.14
  -5  11   1    1.71    0.52
  -4  11   1    6.73    0.90
  -3  11   1    0.26    0.32
  -2  11   1   40.81    1.99
  -1  11   1   54.49    1.99
   0  11   1   -0.01    0.21
   1  11   1   51.81    1.98
   2  11   1   40.77    1.70
   3  11   1   -0.09    0.18
   4  11   1    4.40    0.74
   5  11   1    1.36    0.46
   6  11   1    9.21    1.13
   7  11   1  104.14    4.04
   8  11   1    0.61    0.42
   9  11   1   28.38    1.96
  10  11   1    0.01    0.36
  11  11   1    0.10    0.44
  12  11   1    0.04    0.47
  13  11   1    2.91    0.87
 -14  12   1    5.15    1.74
 -13  12   1    1.07    1.06
 -12  12   1    0.69    0.77
 -11  12   1    7.43    1.87
 -10  12   1    8.70    1.91
  -9  12   1   10.33    1.99
  -8  12   1   10.80    1.99
  -7  12   1   11.44    1.98
  -6  12   1    4.88    0.87
  -5  12   1   14.33    1.44
  -4  12   1   30.35    1.78
  -3  12   1    9.99    1.16
  -2  12   1    2.39    0.55
  -1  12   1   10.65    0.97
   0  12   1    3.68    0.55
   1  12   1    9.29    0.93
   2  12   1    1.65    0.43
   3  12   1   11.19    1.01
   4  12   1   30.77    1.83
   5  12   1   12.51    1.32
   6  12   1    7.67    1.05
   7  12   1   13.56    1.40
   8  12   1   10.64    1.26
   9  12   1    8.61    1.23
  10  12   1    5.38    0.99
  11  12   1    4.07    1.40
  12  12   1    0.49    0.73
  13  12   1    1.33    1.02
  14  12   1    4.95    1.69
 -13  13   1   15.52    2.79
 -12  13   1    2.55    1.12
 -11  13   1   37.75    4.00
 -10  13   1   22.10    3.02
  -9  13   1    6.30    1.54
  -8  13   1   32.82    3.52
  -7  13   1    3.24    1.12
  -6  13   1    3.21    0.75
  -5  13   1    0.63    0.42
  -4  13   1    4.61    0.79
  -3  13   1   81.71    3.30
  -2  13   1    9.56    1.16
  -1  13   1    4.13    0.76
   0  13   1   -0.02    0.26
   1  13   1    3.94    0.61
   2  13   1   10.49    1.21
   3  13   1   77.57    3.24
   4  13   1    4.96    0.80
   5  13   1    0.46    0.35
   6  13   1    3.07    1.12
   7  13   1    6.94    1.78
   8  13   1   27.62    3.50
   9  13   1    6.14    1.78
  10  13   1   17.94    2.87
  11  13   1   22.89    3.37
  12  13   1    2.82    1.38
  13  13   1   10.70    2.45
 -12  14   1    4.49    1.62
 -11  14   1   -0.35    0.69
 -10  14   1    0.15    0.70
  -9  14   1    3.40    1.22
  -8  14   1   25.87    3.12
  -7  14   1    0.68    0.69
  -6  14   1    0.95    0.66
  -5  14   1    1.03    0.50
  -4  14   1   54.34    2.54
  -3  14   1    1.76    0.55
  -2  14   1    0.41    0.62
  -1  14   1   14.01    2.19
   0  14   1   37.79    3.18
   1  14   1   12.31    2.11
   2  14   1    3.99    1.29
   3  14   1    1.30    0.77
   4  14   1   50.53    3.91
   5  14   1    1.99    0.94
   6  14   1    0.56    0.69
   7  14   1    2.05    1.11
   8  14   1   18.62    2.94
   9  14   1    2.91    1.27
  10  14   1   -0.63    0.64
  11  14   1    0.56    0.87
  12  14   1    1.88    1.28
  -5  15   1   40.12    3.94
  -4  15   1   19.97    2.79
  -3  15   1   17.48    2.67
  -2  15   1    1.07    0.74
  -1  15   1    3.45    1.25
   0  15   1    0.28    0.63
   1  15   1    1.98    0.93
   2  15   1   -0.18    0.42
   3  15   1   14.45    2.42
   4  15   1   24.22    3.20
   5  15   1   31.59    3.72
   6  15   1    9.49    2.01
   7  15   1   12.08    2.38
   8  15   1    0.27    0.82
   9  15   1    0.72    0.85
  10  15   1    1.43    1.16
  11  15   1    2.82    1.38
  -4  16   1    0.30    0.72
  -3  16   1   24.85    3.18
  -2  16   1   19.05    2.86
  -1  16   1    3.39    1.24
   0  16   1   77.31    5.20
   1  16   1    3.33    1.30
   2  16   1   15.03    2.52
   3  16   1   26.45    3.48
   4  16   1   -0.46    0.60
   5  16   1    0.03    0.77
   6  16   1    1.76    0.99
   7  16   1    9.22    2.10
   8  16   1   -0.65    0.60
   9  16   1    0.31    0.90
  -4  17   1   14.69    2.51
  -3  17   1    0.84    0.84
  -2  17   1   10.61    2.14
  -1  17   1   26.61    3.55
   0  17   1   -0.02    0.72
   1  17   1   27.57    3.53
   2  17   1    7.79    1.92
   3  17   1    0.82    0.87
   4  17   1   12.24    2.48
   5  17   1    0.56    0.76
   6  17   1   -0.16    0.65
   7  17   1    1.84    1.12
   8  17   1    0.46    0.90
  -3  18   1    1.24    0.92
  -2  18   1    2.22    1.23
  -1  18   1    0.70    0.82
   0  18   1    1.28    1.06
   1  18   1    0.01    0.71
   2  18   1    3.85    1.45
   3  18   1    1.17    1.01
   4  18   1   -0.03    0.79
   5  18   1   -0.64    0.71
   6  18   1   -0.12    0.84
  -2  19   1    1.44    1.06
  -1  19   1    2.31    1.28
   0  19   1    0.36    0.98
   1  19   1    3.58    1.35
   2  19   1    0.71    0.91
   3  19   1    6.78    2.05
  -3 -18   2    0.13    0.62
  -2 -18   2    0.50    0.70
  -1 -18   2   -0.07    0.52
   0 -18   2    0.10    0.64
   1 -18   2    1.03    0.72
   2 -18   2    0.81    0.96
   3 -18   2   -0.36    0.75
   4 -18   2   15.96    2.85
   5 -18   2   -0.25    0.85
  -7 -17   2    6.01    2.11
  -6 -17   2   12.00    1.60
  -5 -17   2    2.47    0.79
  -4 -17   2    7.01    1.35
  -3 -17   2    2.46    0.88
  -2 -17   2   12.60    1.69
  -1 -17   2    1.51    0.78
   0 -17   2    0.66    0.56
   1 -17   2    2.19    0.82
   2 -17   2   10.08    1.54
   3 -17   2    1.54    0.70
   4 -17   2    5.61    1.21
   5 -17   2    2.97    0.94
   6 -17   2   18.56    2.15
   7 -17   2    7.33    1.40
  -9 -16   2    2.70    1.21
  -8 -16   2    1.13    0.67
  -7 -16   2    2.53    0.85
  -6 -16   2    0.65    0.61
  -5 -16   2    4.23    1.06
  -4 -16   2   35.74    2.86
  -3 -16   2    0.05    0.47
  -2 -16   2    0.94    0.61
  -1 -16   2    5.82    0.90
   0 -16   2   38.17    2.19
   1 -16   2    4.95    0.82
   2 -16   2    1.58    0.55
   3 -16   2    0.14    0.47
   4 -16   2   35.99    2.88
   5 -16   2    3.24    0.94
   6 -16   2    0.89    0.68
   7 -16   2    2.40    0.91
   8 -16   2    1.90    0.83
   9 -16   2    1.34    1.24
 -10 -15   2    7.11    1.36
  -9 -15   2    3.17    0.96
  -8 -15   2   14.12    1.82
  -7 -15   2    4.80    1.02
  -6 -15   2    1.44    0.62
  -5 -15   2    1.28    0.59
  -4 -15   2    2.41    0.78
  -3 -15   2    2.10    0.65
  -2 -15   2    1.13    0.48
  -1 -15   2    0.44    0.38
   0 -15   2    0.08    0.34
   1 -15   2    0.03    0.29
   2 -15   2    1.18    0.45
   3 -15   2    2.02    0.72
   4 -15   2    3.46    0.91
   5 -15   2    2.21    0.79
   6 -15   2    0.93    0.64
   7 -15   2    7.01    1.20
   8 -15   2   15.53    1.88
   9 -15   2    5.01    1.16
  10 -15   2    8.46    2.19
 -11 -14   2    0.56    0.61
 -10 -14   2    5.13    1.08
  -9 -14   2    3.82    0.93
  -8 -14   2   38.34    2.69
  -7 -14   2   -0.13    0.41
  -6 -14   2    3.08    0.86
  -5 -14   2    8.36    1.33
  -4 -14   2    5.04    0.76
  -3 -14   2    0.14    0.35
  -2 -14   2    0.99    0.43
  -1 -14   2    4.50    0.74
   0 -14   2  107.86    3.52
   1 -14   2    3.57    0.68
   2 -14   2    1.38    0.47
   3 -14   2    0.09    0.31
   4 -14   2    3.92    0.88
   5 -14   2    6.66    1.17
   6 -14   2    3.91    0.98
   7 -14   2    0.27    0.50
   8 -14   2   40.36    2.78
   9 -14   2    5.24    1.17
  10 -14   2    3.52    1.48
  11 -14   2    0.54    1.07
 -12 -13   2   17.62    2.00
 -11 -13   2    1.78    0.72
 -10 -13   2    0.64    0.53
  -9 -13   2    3.43    0.91
  -8 -13   2    0.23    0.46
  -7 -13   2    8.70    1.33
  -6 -13   2   20.67    1.56
  -5 -13   2   65.93    2.56
  -4 -13   2   27.38    1.68
  -3 -13   2   -0.17    0.25
  -2 -13   2    0.08    0.28
  -1 -13   2   10.62    1.06
   0 -13   2   -0.30    0.22
   1 -13   2   11.48    1.12
   2 -13   2    0.49    0.33
   3 -13   2    0.13    0.29
   4 -13   2   26.36    2.26
   5 -13   2   67.86    3.25
   6 -13   2   22.54    2.13
   7 -13   2   11.39    1.53
   8 -13   2   -0.28    0.40
   9 -13   2    2.71    0.82
  10 -13   2    0.67    0.93
  11 -13   2    2.22    1.23
  12 -13   2   15.75    2.89
 -13 -12   2    3.28    0.83
 -12 -12   2   14.82    1.71
 -11 -12   2   16.68    1.88
 -10 -12   2    0.79    0.58
  -9 -12   2   10.46    1.38
  -8 -12   2    1.84    0.51
  -7 -12   2   17.94    1.44
  -6 -12   2   17.32    1.39
  -5 -12   2    1.15    0.40
  -4 -12   2   21.71    1.54
  -3 -12   2    6.86    0.82
  -2 -12   2   29.35    1.57
  -1 -12   2   39.46    1.80
   0 -12   2   29.47    1.67
   1 -12   2   40.93    1.80
   2 -12   2   30.64    1.62
   3 -12   2    5.84    0.79
   4 -12   2   21.86    1.52
   5 -12   2    1.77    0.58
   6 -12   2   19.16    1.86
   7 -12   2   16.49    1.83
   8 -12   2    1.35    0.56
   9 -12   2   10.04    1.45
  10 -12   2    0.77    0.84
  11 -12   2   10.58    2.27
  12 -12   2   13.01    2.62
  13 -12   2    2.00    1.54
 -14 -11   2    2.93    1.36
 -13 -11   2    0.18    0.53
 -12 -11   2    0.21    0.49
 -11 -11   2    2.44    0.77
 -10 -11   2   17.84    1.83
  -9 -11   2   20.62    1.55
  -8 -11   2    2.91    0.60
  -7 -11   2    0.61    0.32
  -6 -11   2    6.18    0.82
  -5 -11   2   16.28    1.56
  -4 -11   2    4.69    0.68
  -3 -11   2   26.49    1.53
  -2 -11   2    2.56    0.52
  -1 -11   2   59.51    2.22
   0 -11   2   -0.10    0.20
   1 -11   2   57.58    2.19
   2 -11   2    3.27    0.58
   3 -11   2   23.57    1.53
   4 -11   2    5.61    0.72
   5 -11   2   12.21    1.41
   6 -11   2    7.89    1.16
   7 -11   2    0.54    0.46
   8 -11   2    3.00    0.84
   9 -11   2   22.65    2.11
  10 -11   2   23.89    3.39
  11 -11   2    1.07    0.98
  12 -11   2   -0.43    0.66
  13 -11   2    0.66    0.88
 -14 -10   2   26.51    3.61
 -13 -10   2   24.69    2.30
 -12 -10   2   44.90    2.68
 -11 -10   2    0.92    0.44
 -10 -10   2    0.46    0.34
  -9 -10   2    0.10    0.32
  -8 -10   2    1.75    0.58
  -7 -10   2    4.62    0.84
  -6 -10   2    5.87    0.90
  -5 -10   2    0.89    0.38
  -4 -10   2   23.19    1.84
  -3 -10   2   52.96    2.48
  -2 -10   2   39.52    2.05
  -1 -10   2   42.32    2.18
   0 -10   2    4.74    0.65
   1 -10   2   44.44    1.81
   2 -10   2   37.05    1.61
   3 -10   2   54.75    2.04
   4 -10   2   25.01    1.39
   5 -10   2    0.63    0.42
   6 -10   2    6.21    0.92
   7 -10   2    4.50    0.87
   8 -10   2    0.25    0.38
   9 -10   2    0.15    0.39
  10 -10   2    0.36    0.65
  11 -10   2    3.66    1.36
  12 -10   2   46.08    4.94
  13 -10   2   26.15    3.84
  14 -10   2   19.87    3.34
 -14  -9   2   16.36    2.63
 -13  -9   2    1.17    0.58
 -12  -9   2    5.68    0.85
 -11  -9   2   18.47    1.82
 -10  -9   2   28.59    2.22
  -9  -9   2    6.28    1.00
  -8  -9   2    0.92    0.44
  -7  -9   2   12.70    1.35
  -6  -9   2   55.75    2.58
  -5  -9   2   24.67    1.67
  -4  -9   2    2.61    0.59
  -3  -9   2   56.86    2.48
  -2  -9   2   10.92    1.12
  -1  -9   2    3.62    0.69
   0  -9   2    0.08    0.22
   1  -9   2    2.53    0.58
   2  -9   2    9.91    0.91
   3  -9   2   52.31    1.93
   4  -9   2    2.28    0.43
   5  -9   2   21.18    1.78
   6  -9   2   56.29    2.66
   7  -9   2   15.33    1.54
   8  -9   2    1.47    0.55
   9  -9   2    7.70    1.10
  10  -9   2   29.83    3.67
  11  -9   2   23.47    3.25
  12  -9   2    6.32    1.80
  13  -9   2    0.83    0.84
  14  -9   2   12.92    2.75
  15  -9   2    0.80    1.01
 -14  -8   2   -0.42    0.46
 -13  -8   2    2.60    0.77
 -12  -8   2    1.35    0.59
 -11  -8   2    2.85    0.69
 -10  -8   2   14.70    1.58
  -9  -8   2    6.03    0.95
  -8  -8   2   70.81    3.04
  -7  -8   2   15.67    1.45
  -6  -8   2   28.26    1.65
  -5  -8   2   22.54    1.73
  -4  -8   2    8.62    1.01
  -3  -8   2   48.32    2.17
  -2  -8   2    1.95    0.48
  -1  -8   2   50.75    2.23
   0  -8   2   47.49    2.13
   1  -8   2   51.25    2.26
   2  -8   2    2.35    0.55
   3  -8   2   48.61    2.19
   4  -8   2    8.61    0.77
   5  -8   2   21.18    1.09
   6  -8   2   25.34    1.74
   7  -8   2   13.74    1.39
   8  -8   2   67.44    2.47
   9  -8   2    6.25    0.74
  10  -8   2   14.20    1.54
  11  -8   2    3.65    0.80
  12  -8   2    2.38    1.16
  13  -8   2    3.59    1.42
  14  -8   2   -0.46    0.56
  15  -8   2    0.48    0.95
 -15  -7   2   -0.26    0.66
 -14  -7   2    0.86    0.52
 -13  -7   2    8.07    1.22
 -12  -7   2    4.30    0.89
 -11  -7   2    1.49    0.55
 -10  -7   2    0.18    0.33
  -9  -7   2   72.01    3.08
  -8  -7   2   13.45    1.33
  -7  -7   2   89.71    3.48
  -6  -7   2    8.59    1.02
  -5  -7   2    1.69    0.46
  -4  -7   2   -0.14    0.18
  -3  -7   2   34.59    1.76
  -2  -7   2   15.04    1.32
  -1  -7   2   29.99    1.57
   0  -7   2   -0.01    0.21
   1  -7   2   32.73    1.64
   2  -7   2   15.07    1.26
   3  -7   2   33.98    1.72
   4  -7   2    0.13    0.17
   5  -7   2    1.64    0.28
   6  -7   2    6.09    0.66
   7  -7   2   90.50    2.76
   8  -7   2   11.22    0.98
   9  -7   2   67.50    3.02
  10  -7   2    0.32    0.35
  11  -7   2    0.58    0.45
  12  -7   2    2.58    0.80
  13  -7   2    6.34    1.12
  14  -7   2    0.56    0.55
  15  -7   2   -0.89    0.71
  16  -7   2    0.56    0.99
 -16  -6   2   20.41    3.15
 -15  -6   2   11.38    1.55
 -14  -6   2   -0.16    0.67
 -13  -6   2    3.87    1.27
 -12  -6   2   17.14    2.42
 -11  -6   2    7.34    1.55
 -10  -6   2   18.25    2.45
  -9  -6   2   14.59    2.07
  -8  -6   2   46.97    3.16
  -7  -6   2   29.23    2.39
  -6  -6   2    2.55    0.53
  -5  -6   2   54.43    2.38
  -4  -6   2    0.26    0.24
  -3  -6   2  259.17    7.69
  -2  -6   2  108.14    3.71
  -1  -6   2    0.12    0.19
   0  -6   2   39.42    1.84
   1  -6   2    0.46    0.13
   2  -6   2  109.94    2.81
   3  -6   2  265.04    6.10
   4  -6   2   -0.02    0.14
   5  -6   2   59.63    1.87
   6  -6   2    2.16    0.40
   7  -6   2   32.90    1.37
   8  -6   2   41.35    1.64
   9  -6   2   14.95    1.38
  10  -6   2   13.73    1.49
  11  -6   2    6.60    1.04
  12  -6   2   20.68    1.99
  13  -6   2    3.62    0.85
  14  -6   2    0.06    0.54
  15  -6   2   13.77    1.73
  16  -6   2   16.71    2.02
 -17  -5   2    0.84    1.02
 -16  -5   2    0.47    0.93
 -15  -5   2    0.02    0.79
 -14  -5   2    6.76    1.75
 -13  -5   2    2.85    1.20
 -12  -5   2    1.68    0.62
 -11  -5   2    9.64    1.26
 -10  -5   2   21.16    1.79
  -9  -5   2   10.22    1.15
  -8  -5   2    0.60    0.35
  -7  -5   2   48.16    2.11
  -6  -5   2   53.64    2.20
  -5  -5   2    0.14    0.21
  -4  -5   2    0.94    0.29
  -3  -5   2    4.34    0.42
  -2  -5   2  108.49    2.71
  -1  -5   2   23.74    0.81
   0  -5   2   -0.01    0.08
   1  -5   2   22.96    0.85
   2  -5   2  106.84    2.74
   3  -5   2    3.55    0.39
   4  -5   2    1.48    0.28
   5  -5   2    0.42    0.20
   6  -5   2   54.66    1.79
   7  -5   2   45.02    1.62
   8  -5   2    0.75    0.29
   9  -5   2    9.46    1.14
  10  -5   2   17.90    1.65
  11  -5   2    7.88    1.14
  12  -5   2    2.78    0.74
  13  -5   2    1.34    0.57
  14  -5   2    7.39    1.25
  15  -5   2    0.04    0.45
  16  -5   2    0.30    0.56
  17  -5   2    0.05    0.69
 -17  -4   2    0.42    0.93
 -16  -4   2    6.19    1.80
 -15  -4   2   32.53    2.69
 -14  -4   2   13.43    1.68
 -13  -4   2    7.39    1.19
 -12  -4   2   87.88    3.80
 -11  -4   2    4.29    0.87
 -10  -4   2    5.62    0.92
  -9  -4   2    9.68    1.16
  -8  -4   2    1.40    0.45
  -7  -4   2    0.64    0.28
  -6  -4   2   84.93    3.01
  -5  -4   2    7.05    0.77
  -4  -4   2   28.33    1.31
  -3  -4   2    0.14    0.17
  -2  -4   2  124.02    3.76
  -1  -4   2   45.26    1.36
   0  -4   2   18.40    0.71
   1  -4   2   47.30    1.38
   2  -4   2  131.33    3.15
   3  -4   2    0.25    0.15
   4  -4   2   26.68    1.04
   5  -4   2    6.67    0.57
   6  -4   2   82.22    2.36
   7  -4   2    1.12    0.28
   8  -4   2    1.04    0.41
   9  -4   2   11.66    1.24
  10  -4   2    4.01    0.76
  11  -4   2    4.47    0.85
  12  -4   2   90.48    3.82
  13  -4   2    6.97    1.17
  14  -4   2   10.14    1.44
  15  -4   2   29.03    2.53
  16  -4   2    2.35    0.83
  17  -4   2    0.27    0.67
 -17  -3   2    3.21    1.50
 -16  -3   2    2.62    1.26
 -15  -3   2    1.09    0.90
 -14  -3   2    5.97    1.60
 -13  -3   2    8.82    1.91
 -12  -3   2    1.52    0.87
 -11  -3   2   35.31    2.91
 -10  -3   2    1.70    0.75
  -9  -3   2   93.92    5.19
  -8  -3   2   78.37    3.10
  -7  -3   2   16.83    1.41
  -6  -3   2  184.92    5.79
  -5  -3   2    6.49    0.78
  -4  -3   2   15.75    1.02
  -3  -3   2   88.66    2.86
  -2  -3   2    1.75    0.32
  -1  -3   2   43.89    1.62
   0  -3   2    0.04    0.10
   1  -3   2   45.27    1.35
   2  -3   2    1.87    0.27
   3  -3   2   87.02    2.28
   4  -3   2   16.49    0.76
   5  -3   2    7.02    0.57
   6  -3   2  188.78    4.56
   7  -3   2   15.30    0.85
   8  -3   2   76.36    3.02
   9  -3   2  100.73    3.74
  10  -3   2    0.75    0.37
  11  -3   2   33.98    1.99
  12  -3   2    2.39    0.70
  13  -3   2   10.84    1.43
  14  -3   2    5.59    1.08
  15  -3   2    1.27    0.68
  16  -3   2    3.95    1.00
  17  -3   2    2.80    0.91
 -17  -2   2   -0.19    0.83
 -16  -2   2   -0.35    0.80
 -15  -2   2   45.83    4.70
 -14  -2   2    2.08    1.06
 -13  -2   2    0.76    0.78
 -12  -2   2    0.34    0.66
 -11  -2   2   28.67    3.12
 -10  -2   2   39.85    3.09
  -9  -2   2   11.75    1.80
  -8  -2   2    2.39    0.76
  -7  -2   2   16.95    1.92
  -6  -2   2   39.79    1.85
  -5  -2   2   27.13    1.43
  -4  -2   2  217.13    6.25
  -3  -2   2   29.07    1.35
  -2  -2   2    2.73    0.41
  -1  -2   2    0.65    0.20
   0  -2   2    0.10    0.15
   1  -2   2    0.55    0.17
   2  -2   2    3.87    0.37
   3  -2   2   30.53    1.02
   4  -2   2  215.53    4.92
   5  -2   2   29.59    1.04
   6  -2   2   39.68    1.31
   7  -2   2   22.49    1.37
   8  -2   2    5.20    0.78
   9  -2   2    9.32    1.07
  10  -2   2   46.27    2.25
  11  -2   2   26.44    2.06
  12  -2   2    0.72    0.44
  13  -2   2    0.33    0.44
  14  -2   2    2.94    0.83
  15  -2   2   37.51    2.85
  16  -2   2    0.41    0.58
  17  -2   2   -0.59    0.69
 -17  -1   2    4.00    1.58
 -16  -1   2    6.36    1.84
 -15  -1   2    0.32    0.79
 -14  -1   2    1.30    0.88
 -13  -1   2   11.89    2.12
 -12  -1   2   27.10    3.17
 -11  -1   2    7.45    1.69
 -10  -1   2   18.59    2.42
  -9  -1   2    9.73    1.67
  -8  -1   2    3.31    0.94
  -7  -1   2    7.56    1.29
  -6  -1   2   50.53    1.74
  -5  -1   2   20.87    1.64
  -4  -1   2  140.27    4.37
  -3  -1   2   35.12    1.54
  -2  -1   2    7.42    0.70
  -1  -1   2    3.12    0.42
   0  -1   2    0.34    0.17
   1  -1   2    2.53    0.39
   2  -1   2    8.57    0.50
   3  -1   2   35.86    1.12
   4  -1   2  140.25    3.31
   5  -1   2   18.83    0.73
   6  -1   2   49.31    1.45
   7  -1   2    4.47    0.65
   8  -1   2    4.30    0.67
   9  -1   2    8.20    0.98
  10  -1   2   15.79    1.50
  11  -1   2    8.11    1.10
  12  -1   2   25.68    2.08
  13  -1   2   11.01    1.31
  14  -1   2    1.49    0.61
  15  -1   2    0.44    0.55
  16  -1   2    4.55    1.46
  17  -1   2    2.48    1.33
 -17   0   2    0.27    1.10
 -16   0   2    0.17    0.78
 -15   0   2    0.92    0.79
 -14   0   2   70.18    5.06
 -13   0   2   -0.17    0.53
 -12   0   2   16.41    2.54
 -11   0   2   -0.18    0.45
 -10   0   2   85.91    5.13
  -9   0   2    0.34    0.50
  -8   0   2   74.99    4.30
  -7   0   2    0.27    0.39
  -6   0   2    0.82    0.44
  -5   0   2   -0.32    0.22
  -4   0   2    1.29    0.49
  -3   0   2   -0.10    0.14
  -2   0   2    2.82    0.43
  -1   0   2    0.13    0.14
   0   0   2  922.15   24.60
   1   0   2    0.21    0.16
   2   0   2    3.55    0.47
   3   0   2    0.07    0.10
   4   0   2    1.05    0.16
   5   0   2    0.05    0.17
   6   0   2    0.47    0.25
   7   0   2    0.18    0.20
   8   0   2   77.69    2.89
   9   0   2    0.11    0.26
  10   0   2   89.71    3.48
  11   0   2   -0.16    0.27
  12   0   2   17.63    1.70
  13   0   2    0.00    0.36
  14   0   2   77.32    5.00
  15   0   2   -0.10    0.51
  16   0   2    0.04    0.68
  17   0   2    0.22    0.67
 -17   1   2    1.23    1.19
 -16   1   2    6.95    1.90
 -15   1   2   -0.08    0.72
 -14   1   2    1.05    0.79
 -13   1   2   11.58    2.22
 -12   1   2   18.08    2.67
 -11   1   2    7.45    1.62
 -10   1   2   16.54    2.35
  -9   1   2    9.40    1.65
  -8   1   2    4.45    1.12
  -7   1   2    5.62    1.18
  -6   1   2   55.32    3.23
  -5   1   2   14.32    1.75
  -4   1   2  140.65    6.28
  -3   1   2   34.89    2.26
  -2   1   2    8.09    0.79
  -1   1   2    2.70    0.43
   0   1   2    0.21    0.16
   1   1   2    2.30    0.37
   2   1   2    8.93    0.72
   3   1   2   35.69    1.43
   4   1   2  140.28    4.16
   5   1   2   20.00    1.04
   6   1   2   50.15    1.98
   7   1   2    6.08    0.74
   8   1   2    4.11    0.66
   9   1   2    8.71    0.99
  10   1   2   14.39    1.38
  11   1   2    9.08    1.11
  12   1   2   25.25    2.01
  13   1   2   11.19    2.00
  14   1   2    0.72    0.72
  15   1   2    1.07    0.81
  16   1   2    5.59    1.61
  17   1   2    1.60    1.12
 -17   2   2   -0.65    0.64
 -16   2   2   -0.48    0.75
 -15   2   2   36.07    4.29
 -14   2   2    1.08    1.05
 -13   2   2    0.21    0.75
 -12   2   2    0.89    0.77
 -11   2   2   29.04    3.28
 -10   2   2   39.89    3.21
  -9   2   2    7.81    1.57
  -8   2   2    4.31    1.10
  -7   2   2   19.53    2.27
  -6   2   2   39.73    2.77
  -5   2   2   28.44    2.18
  -4   2   2  217.15    9.07
  -3   2   2   27.22    2.02
  -2   2   2    3.36    0.75
  -1   2   2    0.91    0.28
   0   2   2   -0.09    0.12
   1   2   2    0.66    0.21
   2   2   2    3.77    0.45
   3   2   2   30.53    1.25
   4   2   2  211.47    6.02
   5   2   2   27.14    1.27
   6   2   2   40.51    1.69
   7   2   2   17.59    1.17
   8   2   2    5.42    0.73
   9   2   2    9.82    1.06
  10   2   2   43.16    2.07
  11   2   2   30.00    3.14
  12   2   2    0.96    0.75
  13   2   2    0.41    0.56
  14   2   2    0.41    0.63
  15   2   2   43.15    4.43
  16   2   2    0.19    0.69
  17   2   2   -1.50    0.61
 -17   3   2    3.92    1.51
 -16   3   2    3.55    1.51
 -15   3   2    1.21    0.90
 -14   3   2    3.78    1.43
 -13   3   2   12.28    2.21
 -12   3   2    0.23    0.55
 -11   3   2   27.62    3.19
 -10   3   2    0.11    0.46
  -9   3   2  100.01    5.58
  -8   3   2   80.27    4.63
  -7   3   2   15.71    2.01
  -6   3   2  186.54    8.47
  -5   3   2    8.21    1.38
  -4   3   2   17.00    1.97
  -3   3   2   83.44    4.34
  -2   3   2    4.82    0.89
  -1   3   2   46.45    1.76
   0   3   2    0.00    0.12
   1   3   2   46.46    1.66
   2   3   2    1.62    0.29
   3   3   2   85.54    2.70
   4   3   2   16.61    0.89
   5   3   2    8.05    0.71
   6   3   2  192.50    5.56
   7   3   2   15.92    1.07
   8   3   2   75.34    2.83
   9   3   2  102.12    5.31
  10   3   2    0.12    0.43
  11   3   2   33.63    2.77
  12   3   2    1.24    0.73
  13   3   2    8.44    1.88
  14   3   2    4.05    1.33
  15   3   2    1.58    0.93
  16   3   2    3.77    1.39
  17   3   2    3.67    1.65
 -16   4   2    3.24    1.49
 -15   4   2   34.26    4.02
 -14   4   2   12.29    2.49
 -13   4   2    3.95    1.38
 -12   4   2   84.08    5.52
 -11   4   2    4.25    1.26
 -10   4   2    4.24    1.22
  -9   4   2    7.65    1.54
  -8   4   2    1.95    0.82
  -7   4   2    1.69    0.69
  -6   4   2   80.48    4.57
  -5   4   2    5.71    1.15
  -4   4   2   27.67    1.05
  -3   4   2    0.06    0.14
  -2   4   2  131.13    3.84
  -1   4   2   44.38    1.71
   0   4   2   18.51    0.75
   1   4   2   47.76    1.39
   2   4   2  127.63    3.11
   3   4   2    0.23    0.11
   4   4   2   27.28    0.95
   5   4   2    8.12    0.57
   6   4   2   85.03    2.81
   7   4   2    1.26    0.57
   8   4   2    1.72    0.71
   9   4   2    6.86    1.34
  10   4   2    4.08    1.11
  11   4   2    3.45    1.08
  12   4   2   87.43    5.33
  13   4   2    7.08    1.65
  14   4   2    9.84    2.00
  15   4   2   24.72    3.36
  16   4   2    2.63    1.14
 -16   5   2    0.64    0.99
 -15   5   2    0.86    0.89
 -14   5   2    7.90    1.90
 -13   5   2    3.01    1.23
 -12   5   2    3.35    1.18
 -11   5   2    8.12    1.81
 -10   5   2   15.41    2.36
  -9   5   2    6.48    1.46
  -8   5   2    0.05    0.42
  -7   5   2   44.73    3.22
  -6   5   2   52.15    3.52
  -5   5   2    0.18    0.39
  -4   5   2    1.14    0.25
  -3   5   2    4.44    0.52
  -2   5   2  112.43    3.43
  -1   5   2   24.09    1.16
   0   5   2    0.08    0.12
   1   5   2   24.32    0.88
   2   5   2  109.30    2.68
   3   5   2    4.08    0.60
   4   5   2    0.43    0.26
   5   5   2    0.14    0.21
   6   5   2   52.50    2.32
   7   5   2   43.43    2.95
   8   5   2    0.89    0.57
   9   5   2    9.25    1.56
  10   5   2   18.59    2.45
  11   5   2    9.00    1.66
  12   5   2    1.75    0.84
  13   5   2    1.36    0.80
  14   5   2    8.33    1.92
  15   5   2    0.54    0.74
  16   5   2   -0.83    0.63
 -16   6   2   18.76    3.23
 -15   6   2   11.49    2.32
 -14   6   2    0.92    0.90
 -13   6   2    3.18    1.22
 -12   6   2   16.45    2.64
 -11   6   2    5.09    1.41
 -10   6   2   13.80    2.29
  -9   6   2   12.11    1.98
  -8   6   2   42.93    3.26
  -7   6   2   30.75    2.69
  -6   6   2    0.13    0.39
  -5   6   2   57.65    3.66
  -4   6   2    0.16    0.21
  -3   6   2  262.69    7.50
  -2   6   2  108.19    3.55
  -1   6   2    0.14    0.20
   0   6   2   42.75    1.83
   1   6   2    0.14    0.12
   2   6   2  109.52    3.69
   3   6   2  263.02    7.70
   4   6   2    0.15    0.22
   5   6   2   54.97    2.38
   6   6   2    3.11    0.61
   7   6   2   34.29    1.82
   8   6   2   45.25    3.07
   9   6   2   12.55    1.91
  10   6   2   18.31    2.41
  11   6   2    8.35    1.64
  12   6   2   12.11    2.09
  13   6   2    4.07    1.35
  14   6   2    0.38    0.68
  15   6   2   10.84    2.20
  16   6   2   15.57    2.71
 -15   7   2   -0.20    0.69
 -14   7   2    0.94    0.88
 -13   7   2    6.89    1.81
 -12   7   2    3.25    1.24
 -11   7   2   -0.25    0.42
 -10   7   2   -0.08    0.44
  -9   7   2   66.72    4.56
  -8   7   2   11.80    2.02
  -7   7   2   91.49    5.24
  -6   7   2    6.49    1.42
  -5   7   2    1.23    0.67
  -4   7   2    0.45    0.29
  -3   7   2   35.30    1.61
  -2   7   2   16.35    1.10
  -1   7   2   33.07    1.57
   0   7   2   -0.03    0.19
   1   7   2   32.31    1.59
   2   7   2   17.10    1.35
   3   7   2   34.21    1.73
   4   7   2    0.16    0.23
   5   7   2    1.88    0.50
   6   7   2    7.49    0.96
   7   7   2   89.46    3.52
   8   7   2   12.26    1.35
   9   7   2   69.65    4.29
  10   7   2    0.85    0.55
  11   7   2    1.20    0.71
  12   7   2    3.49    1.17
  13   7   2    8.16    1.81
  14   7   2   -0.34    0.56
  15   7   2    0.25    0.63
  16   7   2    2.23    1.05
 -15   8   2    0.78    0.92
 -14   8   2   -0.34    0.67
 -13   8   2    4.25    1.41
 -12   8   2    1.62    0.83
 -11   8   2    3.02    1.21
 -10   8   2   19.29    2.83
  -9   8   2    2.55    0.98
  -8   8   2   71.81    4.62
  -7   8   2   17.77    2.47
  -6   8   2   30.38    2.61
  -5   8   2   21.11    2.49
  -4   8   2   10.87    1.16
  -3   8   2   47.28    2.05
  -2   8   2    2.92    0.53
  -1   8   2   51.36    2.18
   0   8   2   46.16    2.04
   1   8   2   48.67    2.18
   2   8   2    3.91    0.66
   3   8   2   47.90    2.15
   4   8   2    9.29    1.04
   5   8   2   20.37    1.65
   6   8   2   22.17    1.79
   7   8   2   13.06    1.39
   8   8   2   72.36    3.12
   9   8   2    6.48    1.00
  10   8   2   13.46    2.12
  11   8   2    2.96    1.09
  12   8   2    1.70    0.86
  13   8   2    4.32    1.47
  14   8   2    0.61    0.71
  15   8   2    0.48    0.80
 -15   9   2    0.86    0.86
 -14   9   2   18.52    3.11
 -13   9   2    1.36    0.88
 -12   9   2    6.54    1.82
 -11   9   2   19.18    2.95
 -10   9   2   26.15    3.36
  -9   9   2    5.72    1.45
  -8   9   2    2.55    1.02
  -7   9   2   17.04    2.46
  -6   9   2   61.05    4.01
  -5   9   2   23.68    2.78
  -4   9   2    1.95    0.86
  -3   9   2   54.56    2.37
  -2   9   2   11.99    1.15
  -1   9   2    3.57    0.63
   0   9   2    0.26    0.24
   1   9   2    3.36    0.63
   2   9   2    8.69    1.02
   3   9   2   55.33    2.45
   4   9   2    2.63    0.62
   5   9   2   25.56    1.73
   6   9   2   57.15    2.66
   7   9   2   14.33    1.46
   8   9   2    1.30    0.55
   9   9   2    7.11    1.07
  10   9   2   28.73    2.33
  11   9   2   20.21    2.66
  12   9   2    4.07    1.28
  13   9   2    1.30    0.90
  14   9   2   17.23    2.64
  15   9   2   -0.16    0.77
 -14  10   2   24.13    3.54
 -13  10   2   21.40    3.27
 -12  10   2   41.53    4.50
 -11  10   2    1.35    0.92
 -10  10   2   -0.39    0.40
  -9  10   2   -0.09    0.40
  -8  10   2    2.23    0.94
  -7  10   2    3.79    1.25
  -6  10   2    8.56    1.71
  -5  10   2    1.50    0.81
  -4  10   2   28.06    2.94
  -3  10   2   55.15    2.47
  -2  10   2   38.74    1.95
  -1  10   2   48.22    2.22
   0  10   2    6.03    0.90
   1  10   2   47.89    2.24
   2  10   2   38.85    1.99
   3  10   2   57.95    2.56
   4  10   2   22.02    1.78
   5  10   2    1.08    0.43
   6  10   2    6.66    0.99
   7  10   2    2.57    0.66
   8  10   2    1.05    0.50
   9  10   2    0.20    0.39
  10  10   2   -0.24    0.33
  11  10   2    2.96    0.81
  12  10   2   42.81    3.59
  13  10   2   21.33    3.06
  14  10   2   20.45    3.02
  15  10   2   23.68    5.04
 -14  11   2    4.24    2.29
 -13  11   2    0.05    0.68
 -12  11   2    0.02    0.69
 -11  11   2    2.18    1.12
 -10  11   2   17.42    2.72
  -9  11   2   17.12    2.71
  -8  11   2    2.55    1.13
  -7  11   2    2.57    1.06
  -6  11   2   10.53    1.86
  -5  11   2   16.05    2.28
  -4  11   2    5.93    1.35
  -3  11   2   25.78    1.74
  -2  11   2    3.59    0.70
  -1  11   2   59.54    2.63
   0  11   2   -0.16    0.25
   1  11   2   56.45    2.62
   2  11   2    3.83    0.72
   3  11   2   27.21    1.82
   4  11   2    7.46    1.03
   5  11   2   12.90    1.37
   6  11   2    7.09    1.08
   7  11   2    1.60    0.59
   8  11   2    1.64    0.63
   9  11   2   19.99    1.91
  10  11   2   17.68    1.84
  11  11   2    2.98    0.84
  12  11   2   -0.21    0.61
  13  11   2    0.32    0.83
  14  11   2    2.26    1.22
 -13  12   2    1.27    1.00
 -12  12   2   18.59    2.96
 -11  12   2   14.04    2.57
 -10  12   2    1.35    0.96
  -9  12   2    8.40    1.93
  -8  12   2    1.35    0.83
  -7  12   2   17.01    2.57
  -6  12   2   16.55    2.52
  -5  12   2    1.72    0.89
  -4  12   2   24.01    2.78
  -3  12   2    5.59    1.28
  -2  12   2   30.68    1.96
  -1  12   2   42.42    2.16
   0  12   2   28.33    1.91
   1  12   2   35.99    2.19
   2  12   2   29.74    1.97
   3  12   2    5.54    0.92
   4  12   2   22.54    1.90
   5  12   2    1.63    0.56
   6  12   2   17.78    1.73
   7  12   2   13.79    1.62
   8  12   2    1.69    0.58
   9  12   2    6.62    1.15
  10  12   2    1.23    0.61
  11  12   2   13.76    1.70
  12  12   2   10.26    1.52
  13  12   2    0.75    0.84
 -12  13   2   13.68    2.66
 -11  13   2    0.15    0.86
 -10  13   2    0.87    0.97
  -9  13   2    2.49    1.21
  -8  13   2    0.14    0.60
  -7  13   2    8.54    1.85
  -6  13   2   18.11    2.63
  -5  13   2   61.35    4.31
  -4  13   2   24.50    2.89
  -3  13   2   -0.22    0.42
  -2  13   2    0.76    0.43
  -1  13   2    9.79    1.22
   0  13   2    0.39    0.40
   1  13   2   11.27    1.33
   2  13   2    0.18    0.36
   3  13   2    0.32    0.39
   4  13   2   27.31    2.15
   5  13   2   62.54    3.03
   6  13   2   22.26    2.04
   7  13   2    7.48    1.18
   8  13   2    0.29    0.46
   9  13   2    3.26    0.81
  10  13   2    1.92    0.76
  11  13   2    1.95    0.82
  12  13   2    8.71    1.43
 -11  14   2    0.19    0.83
 -10  14   2    6.80    1.90
  -9  14   2    6.27    1.75
  -8  14   2   40.82    4.24
  -7  14   2   -0.31    0.65
  -6  14   2    6.19    1.57
  -5  14   2    8.31    1.72
  -4  14   2    3.92    1.27
  -3  14   2   -0.25    0.50
  -2  14   2    1.15    0.50
  -1  14   2    3.25    0.76
   0  14   2  107.35    4.17
   1  14   2    5.99    1.03
   2  14   2    1.43    0.55
   3  14   2    0.37    0.46
   4  14   2    4.77    0.90
   5  14   2    7.45    1.16
   6  14   2    3.43    0.80
   7  14   2    0.11    0.38
   8  14   2   37.35    2.56
   9  14   2    3.27    1.00
  10  14   2    7.78    2.01
  11  14   2   -0.19    0.81
 -10  15   2    7.40    1.94
  -9  15   2    4.03    1.45
  -8  15   2   13.38    2.41
  -7  15   2    7.49    1.85
  -6  15   2    2.17    1.02
  -5  15   2    2.15    1.01
  -4  15   2    3.01    1.14
  -3  15   2    1.71    0.81
  -2  15   2    1.72    0.87
  -1  15   2    0.12    0.41
   0  15   2   -0.02    0.39
   1  15   2    0.43    0.41
   2  15   2    2.66    0.74
   3  15   2    1.58    0.61
   4  15   2    3.04    0.93
   5  15   2    1.47    1.00
   6  15   2    1.31    0.83
   7  15   2    5.75    1.60
   8  15   2   15.48    2.92
   9  15   2    1.27    1.04
  10  15   2    7.32    3.04
  -8  16   2    0.25    1.32
  -7  16   2    4.86    1.74
  -6  16   2   -0.79    0.88
  -1  16   2    5.97    1.88
   0  16   2   35.11    3.90
   1  16   2    6.43    1.77
   2  16   2    1.71    1.00
   3  16   2   -0.25    0.74
   4  16   2   31.47    3.92
   5  16   2    3.81    1.39
   6  16   2    0.64    0.91
   7  16   2    3.87    1.57
   8  16   2    0.06    0.92
   0  17   2    1.10    0.81
   1  17   2    2.67    1.24
   2  17   2   12.85    2.41
   3  17   2    2.23    1.15
   4  17   2    8.23    1.95
   5  17   2    3.21    1.35
   6  17   2   18.32    3.09
   1  18   2   -0.10    0.98
   2  18   2    0.16    0.93
   3  18   2    0.93    1.01
   4  18   2   21.26    3.34
  -3 -17   3   -0.12    0.85
  -2 -17   3    4.16    1.49
  -1 -17   3   24.47    2.43
   0 -17   3   -0.22    0.49
   1 -17   3   18.31    2.15
   2 -17   3    6.14    1.20
   3 -17   3    0.40    0.81
  -5 -16   3    0.06    0.63
  -4 -16   3   -0.77    0.48
  -3 -16   3   18.58    1.67
  -2 -16   3   10.25    1.27
  -1 -16   3    3.58    0.77
   0 -16   3   48.33    2.40
   1 -16   3    2.30    0.70
   2 -16   3   10.91    1.59
   3 -16   3   14.59    1.88
   4 -16   3   -0.41    0.51
   5 -16   3   -0.26    0.57
   6 -16   3    0.39    0.98
  -7 -15   3    6.16    1.25
  -6 -15   3    5.78    1.23
  -5 -15   3   21.26    1.81
  -4 -15   3    9.69    1.20
  -3 -15   3   12.45    1.33
  -2 -15   3   -0.22    0.40
  -1 -15   3    0.87    0.48
   0 -15   3    0.09    0.41
   1 -15   3    1.40    0.50
   2 -15   3    0.75    0.56
   3 -15   3   11.46    1.65
   4 -15   3   13.50    1.76
   5 -15   3   23.49    2.33
   6 -15   3    7.83    1.41
   7 -15   3    7.25    1.34
  -9 -14   3    2.12    0.92
  -8 -14   3   15.30    1.92
  -7 -14   3    0.59    0.49
  -6 -14   3    0.31    0.41
  -5 -14   3    1.34    0.49
  -4 -14   3   27.11    2.00
  -3 -14   3    0.74    0.41
  -2 -14   3    1.54    0.56
  -1 -14   3   11.10    1.20
   0 -14   3   22.96    1.77
   1 -14   3   10.82    1.20
   2 -14   3    1.28    0.50
   3 -14   3    0.66    0.52
   4 -14   3   30.52    2.61
   5 -14   3    1.31    0.65
   6 -14   3    0.54    0.61
   7 -14   3    0.31    0.65
   8 -14   3   14.96    2.74
   9 -14   3    1.23    1.22
 -10 -13   3   15.59    1.94
  -9 -13   3    4.75    0.84
  -8 -13   3   17.63    1.60
  -7 -13   3    2.18    0.59
  -6 -13   3    1.29    0.50
  -5 -13   3   -0.08    0.36
  -4 -13   3    2.13    0.58
  -3 -13   3   51.39    2.31
  -2 -13   3    5.60    0.81
  -1 -13   3    2.21    0.57
   0 -13   3    0.13    0.35
   1 -13   3    0.73    0.45
   2 -13   3    5.80    0.84
   3 -13   3   49.57    2.82
   4 -13   3    2.52    0.74
   5 -13   3    0.35    0.51
   6 -13   3    1.40    0.63
   7 -13   3    2.59    0.83
   8 -13   3   12.65    2.55
   9 -13   3    6.80    1.96
  10 -13   3   15.03    2.75
 -11 -12   3    5.03    1.18
 -10 -12   3    4.31    0.83
  -9 -12   3    6.01    1.15
  -8 -12   3    6.23    1.15
  -7 -12   3    8.35    1.30
  -6 -12   3    2.49    0.76
  -5 -12   3    7.57    1.16
  -4 -12   3   18.43    1.87
  -3 -12   3    6.25    1.05
  -2 -12   3    0.64    0.47
  -1 -12   3    4.78    0.94
   0 -12   3    2.11    0.55
   1 -12   3    3.68    0.70
   2 -12   3    1.44    0.43
   3 -12   3    6.56    1.10
   4 -12   3   16.98    1.80
   5 -12   3    9.97    1.42
   6 -12   3    1.81    0.67
   7 -12   3    8.36    1.33
   8 -12   3    4.46    1.50
   9 -12   3    6.47    1.90
  10 -12   3    2.64    1.26
  11 -12   3    2.40    1.42
 -12 -11   3   -0.32    0.43
 -11 -11   3   -0.09    0.52
 -10 -11   3    0.33    0.47
  -9 -11   3   16.27    1.88
  -8 -11   3    0.41    0.46
  -7 -11   3   64.43    3.19
  -6 -11   3    4.71    0.91
  -5 -11   3    0.55    0.40
  -4 -11   3    3.03    0.72
  -3 -11   3   -0.22    0.31
  -2 -11   3   21.87    1.95
  -1 -11   3   35.49    2.13
   0 -11   3    0.01    0.35
   1 -11   3   29.70    2.14
   2 -11   3   22.27    1.96
   3 -11   3    0.32    0.33
   4 -11   3    3.72    0.84
   5 -11   3    1.03    0.53
   6 -11   3    5.87    1.12
   7 -11   3   66.15    4.79
   8 -11   3   -0.20    0.57
   9 -11   3   23.16    3.35
  10 -11   3    0.26    0.75
  11 -11   3   -0.09    0.72
  12 -11   3    0.41    0.90
 -13 -10   3    3.62    1.02
 -12 -10   3    0.15    0.54
 -11 -10   3   31.47    3.70
 -10 -10   3    1.19    0.56
  -9 -10   3    4.81    0.98
  -8 -10   3    0.07    0.42
  -7 -10   3    0.60    0.47
  -6 -10   3   17.68    1.79
  -5 -10   3    9.13    1.22
  -4 -10   3   27.54    2.19
  -3 -10   3   14.08    1.53
  -2 -10   3    5.69    0.95
  -1 -10   3   26.05    2.15
   0 -10   3   19.00    1.78
   1 -10   3   23.27    1.96
   2 -10   3    5.47    0.96
   3 -10   3   19.41    1.81
   4 -10   3   27.45    2.21
   5 -10   3    7.20    1.11
   6 -10   3   18.05    1.77
   7 -10   3    3.16    1.16
   8 -10   3    0.57    0.63
   9 -10   3    4.04    1.48
  10 -10   3    1.04    0.88
  11 -10   3   32.06    4.01
  12 -10   3    0.99    0.97
  13 -10   3    4.54    1.88
 -14  -9   3    0.54    0.66
 -13  -9   3    1.43    0.75
 -12  -9   3   -0.19    0.45
 -11  -9   3    1.78    0.70
 -10  -9   3    4.39    0.95
  -9  -9   3   48.86    2.77
  -8  -9   3   13.93    1.56
  -7  -9   3   13.11    1.55
  -6  -9   3   10.64    1.37
  -5  -9   3   64.83    3.09
  -4  -9   3    5.17    0.90
  -3  -9   3    1.89    0.56
  -2  -9   3   78.77    3.35
  -1  -9   3   13.23    1.40
   0  -9   3    0.10    0.29
   1  -9   3   14.21    1.42
   2  -9   3   82.13    3.42
   3  -9   3    3.66    0.76
   4  -9   3    8.52    1.09
   5  -9   3   69.12    3.12
   6  -9   3   17.71    1.74
   7  -9   3    9.95    2.01
   8  -9   3   12.48    2.24
   9  -9   3   45.91    4.09
  10  -9   3    2.83    1.28
  11  -9   3    1.28    1.03
  12  -9   3    0.92    0.86
  13  -9   3    1.61    1.18
 -14  -8   3   -0.03    0.58
 -13  -8   3    2.16    0.77
 -12  -8   3    0.81    0.54
 -11  -8   3    7.11    1.23
 -10  -8   3    2.85    0.77
  -9  -8   3   19.15    1.90
  -8  -8   3    1.15    0.51
  -7  -8   3    9.73    1.27
  -6  -8   3    3.64    0.79
  -5  -8   3   25.31    2.04
  -4  -8   3   19.23    1.71
  -3  -8   3   11.41    1.26
  -2  -8   3   15.31    1.48
  -1  -8   3   21.57    1.77
   0  -8   3   39.12    2.07
   1  -8   3   19.34    1.65
   2  -8   3   14.77    1.44
   3  -8   3   13.78    1.43
   4  -8   3   19.49    1.72
   5  -8   3   28.02    1.85
   6  -8   3    4.33    0.83
   7  -8   3    8.09    1.73
   8  -8   3    1.14    0.75
   9  -8   3   18.95    2.86
  10  -8   3    2.91    1.17
  11  -8   3    4.99    1.62
  12  -8   3    0.48    0.78
  13  -8   3    2.09    1.24
  14  -8   3   -0.27    0.82
 -15  -7   3   10.84    1.59
 -14  -7   3    0.65    0.62
 -13  -7   3   65.42    3.45
 -12  -7   3   -0.07    0.39
 -11  -7   3   -0.11    0.42
 -10  -7   3    0.32    0.42
  -9  -7   3    5.60    1.01
  -8  -7   3   12.31    1.48
  -7  -7   3    7.95    1.16
  -6  -7   3    6.71    1.00
  -5  -7   3  114.20    4.39
  -4  -7   3    0.43    0.33
  -3  -7   3    1.01    0.40
  -2  -7   3    7.95    1.00
  -1  -7   3   26.02    1.61
   0  -7   3    0.02    0.25
   1  -7   3   27.15    1.76
   2  -7   3    8.22    1.00
   3  -7   3    1.23    0.41
   4  -7   3    0.70    0.35
   5  -7   3  119.42    4.33
   6  -7   3    5.68    0.91
   7  -7   3   10.54    1.98
   8  -7   3   12.66    2.19
   9  -7   3    6.61    1.69
  10  -7   3    0.55    0.56
  11  -7   3    0.83    0.71
  12  -7   3   -0.75    0.66
  13  -7   3   64.89    5.10
  14  -7   3    1.14    1.20
  15  -7   3   14.78    2.86
 -15  -6   3    0.46    0.61
 -14  -6   3   -0.04    0.88
 -13  -6   3   34.74    3.92
 -12  -6   3   19.50    2.81
 -11  -6   3   47.11    3.81
 -10  -6   3   13.12    2.29
  -9  -6   3   13.14    2.24
  -8  -6   3   11.40    1.97
  -7  -6   3   11.75    1.99
  -6  -6   3    0.33    0.33
  -5  -6   3   18.30    1.64
  -4  -6   3    0.98    0.40
  -3  -6   3    8.09    1.01
  -2  -6   3    3.98    0.71
  -1  -6   3  127.83    4.54
   0  -6   3   25.42    1.51
   1  -6   3  128.37    4.52
   2  -6   3    3.29    0.64
   3  -6   3    8.40    0.95
   4  -6   3    0.24    0.28
   5  -6   3   17.04    1.45
   6  -6   3    0.56    0.57
   7  -6   3    9.10    1.79
   8  -6   3    7.73    1.72
   9  -6   3   13.75    2.24
  10  -6   3   12.91    1.58
  11  -6   3   50.28    2.81
  12  -6   3   15.45    1.86
  13  -6   3   27.47    3.61
  14  -6   3    0.61    1.03
  15  -6   3    0.73    1.00
 -15  -5   3    0.36    0.82
 -14  -5   3    4.55    1.54
 -13  -5   3    1.01    0.87
 -12  -5   3    0.67    0.79
 -11  -5   3   12.64    2.32
 -10  -5   3   23.69    2.96
  -9  -5   3   11.71    2.02
  -8  -5   3    0.13    0.49
  -7  -5   3   45.20    3.31
  -6  -5   3   39.63    3.11
  -5  -5   3   21.43    2.53
  -4  -5   3    0.15    0.43
  -3  -5   3   53.67    2.46
  -2  -5   3   57.96    2.51
  -1  -5   3   -0.05    0.25
   0  -5   3   -0.12    0.20
   1  -5   3    0.07    0.24
   2  -5   3   59.58    2.46
   3  -5   3   56.97    1.96
   4  -5   3    0.04    0.16
   5  -5   3   20.48    1.04
   6  -5   3   42.52    2.01
   7  -5   3   40.04    2.05
   8  -5   3    0.34    0.35
   9  -5   3   16.62    1.60
  10  -5   3   25.27    2.06
  11  -5   3   16.97    1.73
  12  -5   3    1.06    0.59
  13  -5   3    1.23    0.61
  14  -5   3    2.22    0.76
  15  -5   3    0.05    0.55
 -15  -4   3    0.46    0.93
 -14  -4   3   30.47    3.95
 -13  -4   3    0.50    0.71
 -12  -4   3    0.20    0.64
 -11  -4   3    3.65    1.19
 -10  -4   3    0.16    0.46
  -9  -4   3   24.48    3.08
  -8  -4   3    5.63    1.37
  -7  -4   3   10.18    1.79
  -6  -4   3    9.29    1.66
  -5  -4   3   19.83    2.36
  -4  -4   3   65.13    2.68
  -3  -4   3    2.45    0.46
  -2  -4   3   29.75    1.41
  -1  -4   3   20.85    1.00
   0  -4   3    6.28    0.58
   1  -4   3   23.20    0.98
   2  -4   3   28.28    1.14
   3  -4   3    3.55    0.45
   4  -4   3   69.07    2.10
   5  -4   3   18.89    1.03
   6  -4   3   10.61    1.10
   7  -4   3    6.96    0.93
   8  -4   3    6.24    0.92
   9  -4   3   29.58    1.94
  10  -4   3    0.41    0.35
  11  -4   3    4.59    0.80
  12  -4   3    0.05    0.40
  13  -4   3   -0.28    0.41
  14  -4   3   27.81    2.52
  15  -4   3    2.11    0.74
  16  -4   3   12.95    2.46
 -15  -3   3   10.01    2.25
 -14  -3   3    0.54    0.77
 -13  -3   3    1.02    0.93
 -12  -3   3    4.06    1.36
 -11  -3   3   16.01    1.76
 -10  -3   3   28.79    2.26
  -9  -3   3   15.32    1.58
  -8  -3   3   36.88    2.06
  -7  -3   3   93.51    3.60
  -6  -3   3    2.39    0.58
  -5  -3   3   48.76    2.25
  -4  -3   3   20.91    1.33
  -3  -3   3    6.02    0.78
  -2  -3   3  122.08    4.03
  -1  -3   3  170.57    5.14
   0  -3   3   -0.02    0.14
   1  -3   3  168.38    4.16
   2  -3   3  129.56    3.30
   3  -3   3    5.80    0.57
   4  -3   3   20.61    0.98
   5  -3   3   53.35    2.25
   6  -3   3    2.16    0.51
   7  -3   3   91.91    3.44
   8  -3   3   37.71    1.96
   9  -3   3   13.57    1.39
  10  -3   3   22.89    1.90
  11  -3   3   15.50    1.59
  12  -3   3    6.57    1.09
  13  -3   3    0.06    0.43
  14  -3   3    0.68    0.61
  15  -3   3    7.53    1.97
  16  -3   3    4.28    1.49
 -16  -2   3   -1.29    0.84
 -15  -2   3    1.58    1.16
 -14  -2   3    0.53    0.59
 -13  -2   3    0.06    0.46
 -12  -2   3   27.73    2.37
 -11  -2   3   16.61    1.82
 -10  -2   3    1.42    0.57
  -9  -2   3    1.78    0.57
  -8  -2   3    8.32    1.12
  -7  -2   3   37.97    2.00
  -6  -2   3    6.72    0.94
  -5  -2   3    0.82    0.38
  -4  -2   3    7.82    0.92
  -3  -2   3   23.66    1.43
  -2  -2   3   34.40    1.66
  -1  -2   3   51.93    2.16
   0  -2   3   13.85    1.12
   1  -2   3   56.26    1.76
   2  -2   3   37.40    1.32
   3  -2   3   24.47    1.01
   4  -2   3    8.65    0.69
   5  -2   3    0.73    0.32
   6  -2   3    6.23    0.83
   7  -2   3   33.50    1.78
   8  -2   3    8.55    1.06
   9  -2   3    2.48    0.59
  10  -2   3    1.43    0.52
  11  -2   3   17.17    1.64
  12  -2   3   30.02    2.39
  13  -2   3    0.12    0.52
  14  -2   3   -0.42    0.62
  15  -2   3    1.66    1.02
  16  -2   3    1.24    0.95
 -16  -1   3    8.14    1.54
 -15  -1   3    0.97    0.73
 -14  -1   3    5.66    1.70
 -13  -1   3   22.75    3.22
 -12  -1   3   11.52    2.25
 -11  -1   3   10.91    1.41
 -10  -1   3   47.29    2.61
  -9  -1   3    1.56    0.58
  -8  -1   3   33.33    2.13
  -7  -1   3    5.88    0.91
  -6  -1   3    6.05    0.89
  -5  -1   3   94.51    3.54
  -4  -1   3   23.54    1.41
  -3  -1   3   70.77    2.70
  -2  -1   3    0.18    0.21
  -1  -1   3    0.14    0.22
   0  -1   3   -0.09    0.16
   1  -1   3    0.19    0.20
   2  -1   3    0.77    0.23
   3  -1   3   69.76    2.02
   4  -1   3   23.15    1.00
   5  -1   3   93.14    3.32
   6  -1   3    3.76    0.64
   7  -1   3    7.07    0.87
   8  -1   3   30.01    1.70
   9  -1   3    1.10    0.43
  10  -1   3   46.96    2.40
  11  -1   3    8.90    1.17
  12  -1   3    7.45    1.67
  13  -1   3   13.87    2.37
  14  -1   3    8.34    1.80
  15  -1   3   -0.12    0.73
  16  -1   3   12.09    2.44
 -16   0   3   34.10    4.44
 -15   0   3    0.45    0.90
 -14   0   3   27.52    3.64
 -13   0   3    0.29    0.77
 -12   0   3    1.51    0.93
 -11   0   3    0.10    0.60
 -10   0   3   13.93    2.19
  -9   0   3   -0.21    0.43
  -8   0   3  146.11    5.19
  -7   0   3    0.11    0.32
  -6   0   3   42.99    2.18
  -5   0   3   -0.56    0.20
  -4   0   3  168.55    5.38
  -3   0   3   -0.01    0.23
  -2   0   3   58.25    2.39
  -1   0   3    0.22    0.21
   0   0   3    1.04    0.34
   1   0   3   -0.08    0.18
   2   0   3   64.81    2.38
   3   0   3    0.05    0.13
   4   0   3  165.12    5.12
   5   0   3   -0.10    0.17
   6   0   3   43.00    1.96
   7   0   3    0.01    0.21
   8   0   3  144.20    4.83
   9   0   3   -0.08    0.27
  10   0   3   12.28    1.32
  11   0   3    0.12    0.54
  12   0   3    0.64    0.64
  13   0   3    0.02    0.58
  14   0   3   29.85    3.62
  15   0   3    0.42    0.64
  16   0   3   25.79    3.66
 -16   1   3   13.73    2.79
 -15   1   3    1.62    1.09
 -14   1   3    7.42    1.98
 -13   1   3   18.84    2.96
 -12   1   3    8.19    1.92
 -11   1   3    9.64    1.90
 -10   1   3   55.93    3.94
  -9   1   3    0.98    0.74
  -8   1   3   29.96    3.29
  -7   1   3    6.16    1.42
  -6   1   3    3.79    0.74
  -5   1   3   92.77    3.58
  -4   1   3   22.26    1.52
  -3   1   3   70.29    2.76
  -2   1   3    0.62    0.27
  -1   1   3    0.17    0.23
   0   1   3   -0.03    0.18
   1   1   3    0.10    0.19
   2   1   3    0.55    0.26
   3   1   3   67.93    2.55
   4   1   3   21.17    1.23
   5   1   3   93.51    3.28
   6   1   3    3.72    0.63
   7   1   3    6.39    0.85
   8   1   3   29.10    1.63
   9   1   3    0.85    0.62
  10   1   3   47.87    3.52
  11   1   3   10.20    1.86
  12   1   3   10.32    1.95
  13   1   3   19.73    2.83
  14   1   3    5.71    1.66
  15   1   3    1.36    0.97
  16   1   3   11.05    2.69
 -16   2   3    0.36    1.01
 -15   2   3    0.42    0.88
 -14   2   3   -0.25    0.75
 -13   2   3   -0.01    0.72
 -12   2   3   38.24    4.16
 -11   2   3   16.61    2.54
 -10   2   3    1.61    0.91
  -9   2   3    3.16    1.17
  -8   2   3    8.26    1.62
  -7   2   3   30.33    3.26
  -6   2   3    6.90    1.42
  -5   2   3    0.51    0.39
  -4   2   3    9.22    1.09
  -3   2   3   24.48    1.44
  -2   2   3   36.55    1.76
  -1   2   3   56.10    2.28
   0   2   3   12.89    1.10
   1   2   3   56.66    2.20
   2   2   3   36.69    1.65
   3   2   3   24.83    1.27
   4   2   3    8.55    0.87
   5   2   3    0.47    0.27
   6   2   3    5.94    0.76
   7   2   3   31.30    2.53
   8   2   3    8.48    1.53
   9   2   3    1.80    0.81
  10   2   3    2.86    1.06
  11   2   3   15.27    2.26
  12   2   3   29.52    3.43
  13   2   3    0.20    0.58
  14   2   3    1.87    1.04
  15   2   3    1.93    1.05
 -16   3   3    2.94    1.63
 -15   3   3    8.02    2.12
 -14   3   3    1.06    0.90
 -13   3   3    0.57    0.76
 -12   3   3    5.01    1.48
 -11   3   3   18.35    2.88
 -10   3   3   25.42    3.12
  -9   3   3   12.25    2.10
  -8   3   3   28.04    3.32
  -7   3   3   82.50    5.20
  -6   3   3    2.31    1.00
  -5   3   3   53.77    3.60
  -4   3   3   20.15    1.47
  -3   3   3    6.57    0.89
  -2   3   3  121.96    4.19
  -1   3   3  166.20    5.24
   0   3   3    0.09    0.20
   1   3   3  173.81    5.17
   2   3   3  129.11    4.04
   3   3   3    7.65    0.77
   4   3   3   20.03    1.21
   5   3   3   54.33    3.38
   6   3   3    2.82    0.92
   7   3   3   94.62    5.05
   8   3   3   33.65    2.77
   9   3   3   15.75    2.16
  10   3   3   25.74    2.96
  11   3   3   18.05    2.53
  12   3   3    3.01    1.24
  13   3   3   -0.58    0.57
  14   3   3    0.47    0.68
  15   3   3   10.13    2.15
 -15   4   3   -0.10    0.83
 -14   4   3   26.50    3.68
 -13   4   3    0.09    0.74
 -12   4   3   -0.23    0.64
 -11   4   3    2.66    1.15
 -10   4   3    0.17    0.57
  -9   4   3   27.94    3.32
  -8   4   3    7.30    1.62
  -7   4   3    6.49    1.48
  -6   4   3   11.10    1.87
  -5   4   3   15.95    2.19
  -4   4   3   64.41    4.06
  -3   4   3    2.48    0.57
  -2   4   3   27.96    1.52
  -1   4   3   21.87    1.35
   0   4   3    5.34    0.69
   1   4   3   23.21    1.31
   2   4   3   28.72    1.35
   3   4   3    2.45    0.76
   4   4   3   63.94    3.85
   5   4   3   15.65    2.01
   6   4   3    6.98    1.40
   7   4   3    6.81    1.43
   8   4   3    4.21    1.24
   9   4   3   29.08    3.15
  10   4   3    0.33    0.53
  11   4   3    3.04    1.09
  12   4   3    0.24    0.53
  13   4   3   -0.01    0.59
  14   4   3   36.00    4.04
  15   4   3    0.30    0.88
 -15   5   3   -0.60    0.76
 -14   5   3    2.76    1.28
 -13   5   3    1.52    1.08
 -12   5   3    1.50    0.93
 -11   5   3   11.74    2.29
 -10   5   3   25.43    3.33
  -9   5   3    9.93    1.99
  -8   5   3    0.76    0.82
  -7   5   3   39.09    3.28
  -6   5   3   41.25    3.31
  -5   5   3   19.43    2.55
  -4   5   3   -0.17    0.34
  -3   5   3   56.25    2.46
  -2   5   3   57.68    2.42
  -1   5   3    0.20    0.24
   0   5   3   -0.08    0.18
   1   5   3   -0.36    0.21
   2   5   3   53.85    3.50
   3   5   3   53.36    3.47
   4   5   3    0.34    0.35
   5   5   3   20.91    2.36
   6   5   3   41.54    3.06
   7   5   3   38.77    3.04
   8   5   3    0.10    0.42
   9   5   3   12.20    1.98
  10   5   3   21.21    2.77
  11   5   3   11.48    2.13
  12   5   3    1.61    0.97
  13   5   3    0.55    0.70
  14   5   3    6.16    1.75
  15   5   3    0.62    0.77
 -15   6   3    0.14    1.15
 -14   6   3   -0.50    0.74
 -13   6   3   26.60    3.69
 -12   6   3   12.68    2.49
 -11   6   3   43.21    4.58
 -10   6   3   10.30    2.08
  -9   6   3   12.45    2.20
  -8   6   3    9.01    1.88
  -7   6   3   12.79    2.22
  -6   6   3    0.12    0.50
  -5   6   3   16.85    2.33
  -4   6   3    1.11    0.69
  -3   6   3    9.08    1.61
  -2   6   3    4.71    0.72
  -1   6   3  134.91    4.39
   0   6   3   23.34    2.57
   1   6   3  126.85    6.55
   2   6   3    3.29    0.95
   3   6   3    7.70    1.44
   4   6   3    0.56    0.47
   5   6   3   21.50    2.45
   6   6   3   -0.01    0.39
   7   6   3    8.16    1.56
   8   6   3    8.15    1.66
   9   6   3   11.49    2.01
  10   6   3   13.37    2.29
  11   6   3   42.23    3.60
  12   6   3   11.32    2.21
  13   6   3   30.92    3.69
  14   6   3    0.40    0.81
 -14   7   3    0.46    0.93
 -13   7   3   65.41    5.14
 -12   7   3    0.09    0.76
 -11   7   3    0.80    0.77
 -10   7   3   -0.28    0.51
  -9   7   3    2.68    1.08
  -8   7   3    9.18    1.93
  -7   7   3    6.38    1.65
  -6   7   3    7.56    1.72
  -5   7   3  130.33    6.65
  -4   7   3   -0.02    0.36
  -3   7   3    1.66    0.73
  -2   7   3    8.74    1.05
  -1   7   3   27.08    2.97
   0   7   3    0.35    0.28
   1   7   3   27.38    1.67
   2   7   3    8.89    1.05
   3   7   3    1.30    0.44
   4   7   3    0.27    0.49
   5   7   3  110.17    6.09
   6   7   3    5.93    1.34
   7   7   3    9.05    1.77
   8   7   3   12.59    2.03
   9   7   3    4.18    1.29
  10   7   3   -0.03    0.57
  11   7   3    0.03    0.58
  12   7   3   -0.18    0.61
  13   7   3   67.54    4.91
  14   7   3    0.33    0.82
 -14   8   3   -0.76    0.82
 -13   8   3    3.30    1.42
 -12   8   3   -0.09    0.66
 -11   8   3    3.96    1.39
 -10   8   3    2.86    1.33
  -9   8   3   18.70    2.95
  -8   8   3    0.89    0.87
  -7   8   3    7.70    1.77
  -6   8   3    9.80    1.93
  -5   8   3   23.10    2.84
  -4   8   3   19.48    2.59
  -3   8   3   11.91    1.99
  -2   8   3   14.44    2.07
  -1   8   3   20.68    2.62
   0   8   3   36.43    1.90
   1   8   3   19.09    1.58
   2   8   3   15.35    1.44
   3   8   3   11.25    1.25
   4   8   3   17.37    1.65
   5   8   3   26.39    2.07
   6   8   3    4.07    1.19
   7   8   3   11.10    1.91
   8   8   3    1.85    0.85
   9   8   3   14.82    2.43
  10   8   3    3.87    1.30
  11   8   3    5.90    1.53
  12   8   3    0.79    0.75
  13   8   3    2.97    1.21
  14   8   3   -0.04    0.83
 -13   9   3    0.80    0.85
 -12   9   3    0.59    0.83
 -11   9   3    2.97    1.44
 -10   9   3    8.44    1.98
  -9   9   3   55.57    4.39
  -8   9   3   12.33    2.21
  -7   9   3   13.89    2.41
  -6   9   3   16.13    2.49
  -5   9   3   68.89    4.69
  -4   9   3    5.80    1.42
  -3   9   3    2.08    0.91
  -2   9   3   83.24    4.96
  -1   9   3    9.88    1.82
   0   9   3   -0.03    0.26
   1   9   3   13.02    1.35
   2   9   3   78.80    3.27
   3   9   3    2.67    0.66
   4   9   3    7.06    1.04
   5   9   3   69.68    3.13
   6   9   3   13.21    1.50
   7   9   3   13.62    2.23
   8   9   3   14.76    2.35
   9   9   3   49.39    3.86
  10   9   3    5.11    1.48
  11   9   3   -0.27    0.63
  12   9   3   -0.05    0.64
  13   9   3    1.19    0.93
 -12  10   3   -0.06    0.66
 -11  10   3   23.39    3.54
 -10  10   3    3.26    1.42
  -9  10   3    3.03    1.35
  -8  10   3    0.04    0.49
  -7  10   3    0.31    0.60
  -6  10   3   16.35    2.61
  -5  10   3    7.96    1.82
  -4  10   3   28.25    3.22
  -3  10   3   17.36    2.48
  -2  10   3    6.51    1.50
  -1  10   3   26.99    3.01
   0  10   3   13.42    2.10
   1  10   3   29.36    2.16
   2  10   3    5.06    0.89
   3  10   3   19.31    1.75
   4  10   3   26.27    2.12
   5  10   3    9.57    1.26
   6  10   3   16.81    1.73
   7  10   3    2.47    0.72
   8  10   3    0.21    0.54
   9  10   3    2.50    1.07
  10  10   3    1.76    0.98
  11  10   3   28.57    3.57
  12  10   3   -0.61    0.69
  13  10   3    4.44    1.48
 -12  11   3   -0.36    0.82
 -11  11   3   -0.05    0.74
 -10  11   3    0.49    0.84
  -9  11   3   11.78    2.36
  -8  11   3    0.36    0.76
  -7  11   3   67.65    4.83
  -6  11   3    4.77    1.44
  -5  11   3    0.35    0.53
  -4  11   3    4.28    1.20
  -3  11   3    0.35    0.54
  -2  11   3   23.82    2.92
  -1  11   3   31.86    3.40
   0  11   3   -0.55    0.43
   1  11   3   34.42    2.19
   2  11   3   26.66    2.12
   3  11   3    0.13    0.32
   4  11   3    3.68    0.77
   5  11   3    1.03    0.56
   6  11   3    7.91    1.24
   7  11   3   66.62    3.28
   8  11   3    0.50    0.52
   9  11   3   14.61    2.46
  10  11   3   -0.71    0.56
  11  11   3   -0.72    0.66
  12  11   3    0.02    0.96
 -11  12   3    2.57    1.41
 -10  12   3    7.00    1.92
  -9  12   3    4.20    1.45
  -8  12   3    6.85    1.72
  -7  12   3    8.38    1.96
  -6  12   3    2.12    1.02
  -5  12   3    6.59    1.62
  -4  12   3   17.07    2.61
  -3  12   3    5.70    1.58
  -2  12   3    1.41    0.81
  -1  12   3    4.34    1.36
   0  12   3    0.61    0.68
   1  12   3    4.57    1.06
   2  12   3    1.01    0.52
   3  12   3    8.67    1.22
   4  12   3   16.38    1.73
   5  12   3    6.33    1.07
   6  12   3    3.80    0.88
   7  12   3    7.28    1.20
   8  12   3    4.67    0.99
   9  12   3    5.13    1.46
  10  12   3    3.96    1.40
  11  12   3    4.85    1.61
 -10  13   3   15.84    2.87
  -9  13   3    5.06    1.58
  -8  13   3   18.35    2.88
  -7  13   3    3.57    1.37
  -6  13   3    2.28    1.08
  -5  13   3    0.16    0.64
  -4  13   3    2.71    1.12
  -3  13   3   48.20    3.90
  -2  13   3    5.21    1.53
  -1  13   3    2.16    1.00
   0  13   3    0.63    0.65
   1  13   3    1.81    0.88
   2  13   3    4.80    0.97
   3  13   3   53.11    2.79
   4  13   3    2.37    0.73
   5  13   3    0.29    0.40
   6  13   3    2.03    0.72
   7  13   3    3.63    0.93
   8  13   3   17.32    1.98
   9  13   3    6.03    1.19
  10  13   3   12.56    2.29
  11  13   3   25.58    3.90
  -9  14   3    2.38    1.26
  -8  14   3   15.95    2.74
  -7  14   3    1.20    0.96
  -6  14   3   -0.02    0.72
  -5  14   3    0.74    0.79
  -4  14   3   30.78    3.71
  -3  14   3    0.23    0.70
  -2  14   3    0.95    0.73
  -1  14   3   11.13    2.18
   0  14   3   22.72    3.04
   1  14   3   10.87    2.01
   2  14   3   -0.02    0.58
   3  14   3    0.80    0.55
   4  14   3   31.16    2.56
   5  14   3    0.96    0.63
   6  14   3   -0.49    0.48
   7  14   3    1.73    0.73
   8  14   3   12.70    1.70
   9  14   3    2.38    0.89
  10  14   3   -0.45    0.86
  -8  15   3    1.24    1.05
  -7  15   3    5.07    1.63
  -6  15   3    8.97    1.97
  -5  15   3   19.04    2.94
  -4  15   3    9.77    2.01
  -3  15   3    7.27    1.80
  -2  15   3    0.49    0.76
  -1  15   3    2.27    1.11
   0  15   3    0.08    0.63
   1  15   3    1.40    0.90
   2  15   3    0.60    0.75
   3  15   3    9.76    1.44
   4  15   3   11.70    1.55
   5  15   3   23.48    2.27
   6  15   3    9.50    1.53
   7  15   3    3.96    1.04
   8  15   3   -0.22    0.61
  -6  16   3    1.71    1.27
  -5  16   3   -0.31    0.82
  -4  16   3   -0.24    0.81
  -3  16   3   21.84    3.19
  -2  16   3   12.21    2.28
  -1  16   3    4.06    1.34
   0  16   3   49.50    4.02
   1  16   3    3.49    1.26
   2  16   3    6.40    1.64
   3  16   3   18.39    2.76
   4  16   3    0.40    0.60
   5  16   3    0.30    0.64
   6  16   3    1.87    0.82
  -4  17   3   11.86    2.40
  -3  17   3    0.52    1.03
  -2  17   3    5.36    1.64
  -1  17   3   24.70    3.20
  -3 -15   4    0.62    0.82
  -2 -15   4    0.46    0.65
  -1 -15   4    0.11    0.45
   0 -15   4    0.01    0.49
   1 -15   4   -0.27    0.62
   2 -15   4    1.06    1.16
   3 -15   4    1.80    1.23
   4 -15   4    1.30    1.15
  -6 -14   4    1.86    1.18
  -5 -14   4    4.47    0.97
  -4 -14   4    3.93    0.83
  -3 -14   4    0.18    0.46
  -2 -14   4    0.75    0.54
  -1 -14   4    3.46    0.77
   0 -14   4   53.68    2.56
   1 -14   4    1.19    0.74
   2 -14   4    1.79    0.82
   3 -14   4    0.58    0.58
   4 -14   4    3.46    1.01
  -7 -13   4    3.32    1.35
  -6 -13   4   14.51    1.84
  -5 -13   4   34.63    2.95
  -4 -13   4   13.71    1.78
  -3 -13   4   -0.44    0.43
  -2 -13   4    0.71    0.63
  -1 -13   4    4.24    1.00
   0 -13   4   -0.10    0.47
   1 -13   4    4.57    0.82
   2 -13   4   -0.27    0.53
   3 -13   4   -0.29    0.51
   4 -13   4   13.44    1.79
   5 -13   4   28.18    3.91
   6 -13   4   12.92    2.70
  -9 -12   4    2.97    1.40
  -8 -12   4    0.95    0.65
  -7 -12   4    8.77    1.42
  -6 -12   4    7.47    1.31
  -5 -12   4    0.08    0.54
  -4 -12   4   12.37    1.68
  -3 -12   4    2.67    0.84
  -2 -12   4   14.96    1.79
  -1 -12   4   18.64    2.01
   0 -12   4   12.39    1.65
   1 -12   4   20.44    2.16
   2 -12   4   18.17    1.99
   3 -12   4    5.08    1.09
   4 -12   4   11.53    1.61
   5 -12   4    0.23    0.72
   6 -12   4   13.13    2.63
   7 -12   4   12.44    2.60
   8 -12   4    1.92    1.22
 -10 -11   4   11.24    2.44
  -9 -11   4   11.17    1.55
  -8 -11   4    1.21    0.63
  -7 -11   4    0.21    0.56
  -6 -11   4    2.48    0.83
  -5 -11   4    8.48    1.38
  -4 -11   4    2.21    0.77
  -3 -11   4   10.44    1.46
  -2 -11   4    1.70    0.69
  -1 -11   4   26.57    2.36
   0 -11   4    0.00    0.36
   1 -11   4   35.97    2.49
   2 -11   4    1.26    0.62
   3 -11   4   14.40    1.75
   4 -11   4    3.13    0.90
   5 -11   4    5.16    1.57
   6 -11   4    3.94    1.43
   7 -11   4    1.24    1.11
   8 -11   4   -0.26    0.83
   9 -11   4   12.08    2.68
 -10 -10   4    0.25    0.59
  -9 -10   4    0.07    0.52
  -8 -10   4    0.29    0.54
  -7 -10   4    1.00    0.59
  -6 -10   4    2.62    0.78
  -5 -10   4    1.40    0.60
  -4 -10   4   14.73    1.76
  -3 -10   4   22.66    2.16
  -2 -10   4   12.08    1.53
  -1 -10   4   18.96    1.93
   0 -10   4    2.60    0.79
   1 -10   4   18.47    1.91
   2 -10   4   15.31    1.70
   3 -10   4   28.63    2.37
   4 -10   4   12.43    2.36
   5 -10   4    0.69    0.78
   6 -10   4    2.05    1.12
   7 -10   4    1.71    1.14
   8 -10   4    0.05    0.78
   9 -10   4   -0.57    0.75
  10 -10   4   -0.63    0.75
 -11  -9   4   10.79    1.59
 -10  -9   4   18.42    2.13
  -9  -9   4    2.96    0.88
  -8  -9   4   -0.01    0.48
  -7  -9   4    6.85    1.27
  -6  -9   4   29.96    2.58
  -5  -9   4   10.19    1.42
  -4  -9   4    0.49    0.44
  -3  -9   4   23.62    2.13
  -2  -9   4    7.50    1.17
  -1  -9   4    0.63    0.47
   0  -9   4   -0.04    0.35
   1  -9   4    0.67    0.46
   2  -9   4    4.32    0.87
   3  -9   4   27.03    1.96
   4  -9   4    0.29    0.75
   5  -9   4   12.00    2.29
   6  -9   4   30.08    3.68
   7  -9   4    5.79    1.67
   8  -9   4    0.24    0.73
   9  -9   4    2.56    1.29
  10  -9   4   18.11    3.08
  11  -9   4    9.64    2.25
 -12  -8   4    1.34    1.09
 -11  -8   4    2.62    0.86
 -10  -8   4    9.16    1.48
  -9  -8   4    3.83    0.91
  -8  -8   4   35.65    2.78
  -7  -8   4    8.34    1.33
  -6  -8   4   10.59    1.31
  -5  -8   4    9.16    1.33
  -4  -8   4    3.52    0.81
  -3  -8   4   21.11    1.94
  -2  -8   4    0.96    0.48
  -1  -8   4   20.27    1.87
   0  -8   4   24.66    2.12
   1  -8   4   25.09    2.12
   2  -8   4    0.41    0.42
   3  -8   4   22.42    1.97
   4  -8   4    3.19    1.16
   5  -8   4   12.89    2.27
   6  -8   4   13.15    2.27
   7  -8   4    5.50    1.55
   8  -8   4   31.39    3.72
   9  -8   4    3.20    1.40
  10  -8   4    8.30    2.19
  11  -8   4    1.71    1.22
  12  -8   4    1.54    1.13
 -12  -7   4    1.19    0.72
 -11  -7   4    1.18    0.71
 -10  -7   4   -0.40    0.45
  -9  -7   4   32.92    2.78
  -8  -7   4    5.83    1.12
  -7  -7   4   38.04    2.42
  -6  -7   4    3.25    0.88
  -5  -7   4    0.95    0.50
  -4  -7   4   -0.30    0.29
  -3  -7   4   13.18    1.52
  -2  -7   4    6.08    1.00
  -1  -7   4   12.07    1.37
   0  -7   4   -0.01    0.36
   1  -7   4   13.28    1.46
   2  -7   4    5.34    0.91
   3  -7   4   18.07    1.75
   4  -7   4   -0.08    0.51
   5  -7   4    2.28    1.06
   6  -7   4    2.94    1.12
   7  -7   4   30.01    3.64
   8  -7   4    5.53    1.62
   9  -7   4   30.40    3.72
  10  -7   4    0.82    0.94
  11  -7   4    0.56    0.80
  12  -7   4    2.13    1.20
  13  -7   4    4.55    1.70
 -13  -6   4    1.88    1.72
 -12  -6   4    8.18    2.03
 -11  -6   4    3.28    1.31
 -10  -6   4    5.02    1.57
  -9  -6   4    7.93    1.98
  -8  -6   4   20.04    1.97
  -7  -6   4   13.42    1.62
  -6  -6   4    0.28    0.37
  -5  -6   4   25.47    2.18
  -4  -6   4   -0.07    0.34
  -3  -6   4  115.77    4.60
  -2  -6   4   42.35    2.37
  -1  -6   4    0.25    0.36
   0  -6   4   19.60    1.77
   1  -6   4    0.51    0.40
   2  -6   4   47.72    2.37
   3  -6   4  125.59    4.52
   4  -6   4    0.77    0.72
   5  -6   4   29.09    3.33
   6  -6   4    0.88    0.75
   7  -6   4   13.07    2.32
   8  -6   4   15.18    2.54
   9  -6   4    6.01    1.59
  10  -6   4    7.66    1.95
  11  -6   4    1.46    1.11
  12  -6   4   10.09    2.21
  13  -6   4    3.30    1.42
 -13  -5   4    0.36    0.90
 -12  -5   4    0.17    0.89
 -11  -5   4    5.96    1.70
 -10  -5   4   11.90    2.33
  -9  -5   4    3.62    1.29
  -8  -5   4    0.33    0.64
  -7  -5   4   20.50    2.96
  -6  -5   4   34.98    3.72
  -5  -5   4    0.94    0.71
  -4  -5   4    0.32    0.37
  -3  -5   4    2.39    0.65
  -2  -5   4   46.76    2.43
  -1  -5   4    9.03    1.15
   0  -5   4    0.16    0.31
   1  -5   4   10.40    1.20
   2  -5   4   46.65    2.34
   3  -5   4    1.75    0.88
   4  -5   4    0.48    0.55
   5  -5   4   -0.35    0.42
   6  -5   4   31.29    3.45
   7  -5   4   24.33    3.05
   8  -5   4    0.61    0.75
   9  -5   4   11.37    2.17
  10  -5   4   10.32    2.09
  11  -5   4    4.56    1.42
  12  -5   4    2.60    1.26
 -13  -4   4    4.03    1.61
 -12  -4   4   47.99    4.25
 -11  -4   4    1.76    0.94
 -10  -4   4    1.51    0.93
  -9  -4   4    3.43    1.22
  -8  -4   4    0.15    0.62
  -7  -4   4    0.58    0.71
  -6  -4   4   32.98    3.59
  -5  -4   4    2.32    0.98
  -4  -4   4   10.08    1.91
  -3  -4   4    0.40    0.58
  -2  -4   4   52.61    2.55
  -1  -4   4   14.21    1.43
   0  -4   4    7.98    1.09
   1  -4   4   15.18    1.45
   2  -4   4   51.73    2.41
   3  -4   4    0.05    0.42
   4  -4   4   18.72    2.48
   5  -4   4    2.08    0.91
   6  -4   4   37.08    3.12
   7  -4   4    0.47    0.63
   8  -4   4    0.34    0.53
   9  -4   4    2.05    1.05
  10  -4   4    3.57    1.28
  11  -4   4    1.31    0.89
 -13  -3   4    4.68    1.66
 -12  -3   4   -0.20    0.75
 -11  -3   4   16.97    2.83
 -10  -3   4   -0.71    0.54
  -9  -3   4   48.34    4.04
  -8  -3   4   33.65    3.79
  -7  -3   4    5.47    1.55
  -6  -3   4   83.08    5.31
  -5  -3   4    1.61    0.95
  -4  -3   4    5.85    1.39
  -3  -3   4   32.45    2.88
  -2  -3   4    1.04    0.79
  -1  -3   4   23.25    2.70
   0  -3   4    0.22    0.29
   1  -3   4   21.74    1.69
   2  -3   4    1.43    0.45
   3  -3   4   35.14    1.87
   4  -3   4    5.86    0.86
   5  -3   4    1.63    0.50
   6  -3   4   87.12    3.48
   7  -3   4    8.00    1.12
   8  -3   4   32.04    1.95
   9  -3   4   49.33    2.61
  10  -3   4    0.42    0.47
  11  -3   4   14.03    2.20
  12  -3   4    2.66    1.09
  13  -3   4    6.71    1.72
  14  -3   4    1.06    1.10
 -13  -2   4    1.25    1.08
 -12  -2   4    0.77    0.84
 -11  -2   4   16.29    2.71
 -10  -2   4   18.13    2.96
  -9  -2   4    6.52    1.65
  -8  -2   4    1.92    0.91
  -7  -2   4   11.53    2.08
  -6  -2   4   16.14    2.43
  -5  -2   4   14.59    2.19
  -4  -2   4   92.25    3.64
  -3  -2   4   14.70    1.38
  -2  -2   4    1.93    0.51
  -1  -2   4    0.23    0.30
   0  -2   4    0.05    0.26
   1  -2   4    0.04    0.20
   2  -2   4    1.44    0.36
   3  -2   4   13.81    1.32
   4  -2   4   94.36    3.56
   5  -2   4   10.90    1.24
   6  -2   4   17.45    1.57
   7  -2   4   11.52    1.30
   8  -2   4    1.05    0.51
   9  -2   4    4.59    0.86
  10  -2   4   24.44    3.03
  11  -2   4   14.29    2.30
  12  -2   4    0.08    0.71
  13  -2   4    0.36    0.74
  14  -2   4   -0.04    0.81
 -14  -1   4   -0.76    1.20
 -13  -1   4    5.63    1.73
 -12  -1   4   10.69    2.24
 -11  -1   4    2.40    1.17
 -10  -1   4    9.17    1.59
  -9  -1   4    5.43    1.12
  -8  -1   4    1.82    0.64
  -7  -1   4    1.61    0.62
  -6  -1   4   19.91    1.85
  -5  -1   4    8.09    1.11
  -4  -1   4   57.30    2.64
  -3  -1   4   15.66    1.48
  -2  -1   4    4.29    0.75
  -1  -1   4    1.29    0.44
   0  -1   4    0.10    0.27
   1  -1   4    1.03    0.41
   2  -1   4    4.43    0.69
   3  -1   4   16.19    1.43
   4  -1   4   58.53    2.57
   5  -1   4    8.46    1.06
   6  -1   4   22.06    1.75
   7  -1   4    2.71    0.67
   8  -1   4    2.92    1.02
   9  -1   4    6.00    1.47
  10  -1   4    8.54    1.74
  11  -1   4    6.44    1.61
  12  -1   4   12.05    2.19
  13  -1   4    4.73    1.58
  14  -1   4    0.61    0.77
 -14   0   4   45.50    5.75
 -13   0   4   -0.13    0.60
 -12   0   4   11.77    1.70
 -11   0   4    0.24    0.48
 -10   0   4   42.51    2.80
  -9   0   4   -0.06    0.40
  -8   0   4   40.53    2.42
  -7   0   4    0.02    0.36
  -6   0   4    0.19    0.40
  -5   0   4   -0.35    0.29
  -4   0   4    1.10    0.45
  -3   0   4   -0.13    0.26
  -2   0   4    0.55    0.35
  -1   0   4    0.24    0.32
   0   0   4  524.00   14.78
   1   0   4   -0.23    0.26
   2   0   4    0.35    0.31
   3   0   4    0.00    0.25
   4   0   4    1.55    0.47
   5   0   4    0.01    0.29
   6   0   4    0.28    0.29
   7   0   4    0.87    0.63
   8   0   4   36.08    2.98
   9   0   4    0.18    0.52
  10   0   4   35.47    3.78
  11   0   4   -0.06    0.53
  12   0   4    8.91    1.95
  13   0   4   -0.53    0.57
  14   0   4   43.51    4.65
 -14   1   4    0.41    0.87
 -13   1   4    5.94    1.13
 -12   1   4   12.27    1.72
 -11   1   4    6.48    1.22
 -10   1   4    4.09    0.97
  -9   1   4    3.48    0.91
  -8   1   4    2.22    0.71
  -7   1   4    2.09    0.65
  -6   1   4   19.82    1.88
  -5   1   4    7.00    1.06
  -4   1   4   57.43    2.68
  -3   1   4   13.23    1.41
  -2   1   4    4.78    0.80
  -1   1   4    1.01    0.40
   0   1   4    0.29    0.28
   1   1   4    0.82    0.36
   2   1   4    3.24    0.64
   3   1   4   17.25    1.44
   4   1   4   59.17    2.53
   5   1   4    8.70    1.60
   6   1   4   26.50    2.87
   7   1   4    1.91    0.90
   8   1   4    1.09    0.66
   9   1   4    3.01    1.13
  10   1   4    2.56    1.04
  11   1   4    6.69    1.63
  12   1   4   14.02    2.49
  13   1   4    7.55    1.91
  14   1   4    0.54    0.86
 -14   2   4    0.28    1.02
 -13   2   4    0.82    0.70
 -12   2   4    0.13    0.59
 -11   2   4   17.86    2.05
 -10   2   4   21.37    2.22
  -9   2   4    5.48    1.12
  -8   2   4    0.13    0.43
  -7   2   4    8.75    1.27
  -6   2   4   19.49    1.87
  -5   2   4   10.75    1.33
  -4   2   4   93.32    3.75
  -3   2   4   13.67    1.43
  -2   2   4    1.56    0.51
  -1   2   4    0.25    0.28
   0   2   4    0.18    0.30
   1   2   4    0.17    0.30
   2   2   4    1.81    0.50
   3   2   4   12.48    1.89
   4   2   4   92.50    5.13
   5   2   4   13.52    1.97
   6   2   4   16.70    2.31
   7   2   4    9.67    1.81
   8   2   4    2.12    0.92
   9   2   4    6.64    1.59
  10   2   4   20.65    2.90
  11   2   4   11.07    2.12
  12   2   4    0.97    0.78
  13   2   4    0.67    0.86
  14   2   4    1.16    0.89
 -14   3   4    4.22    1.74
 -13   3   4    6.80    1.40
 -12   3   4    2.14    0.81
 -11   3   4   13.05    1.76
 -10   3   4   -0.36    0.45
  -9   3   4   54.20    3.03
  -8   3   4   37.13    2.82
  -7   3   4    8.33    1.28
  -6   3   4   86.62    3.77
  -5   3   4    0.72    0.46
  -4   3   4    6.39    1.01
  -3   3   4   33.27    1.97
  -2   3   4    0.63    0.38
  -1   3   4   23.29    1.61
   0   3   4    0.32    0.30
   1   3   4   21.44    1.47
   2   3   4    0.74    0.62
   3   3   4   33.79    2.79
   4   3   4    4.07    1.11
   5   3   4    1.27    0.69
   6   3   4   91.10    5.24
   7   3   4    9.71    1.83
   8   3   4   32.68    3.50
   9   3   4   62.56    4.22
  10   3   4   -0.15    0.61
  11   3   4   15.04    2.56
  12   3   4    1.74    1.05
  13   3   4    6.66    1.81
 -13   4   4    3.07    1.43
 -12   4   4   40.57    4.68
 -11   4   4    2.22    0.85
 -10   4   4    2.76    0.88
  -9   4   4    4.55    1.02
  -8   4   4    0.20    0.46
  -7   4   4    0.55    0.47
  -6   4   4   35.91    2.44
  -5   4   4    1.14    0.44
  -4   4   4   13.78    1.51
  -3   4   4    0.19    0.33
  -2   4   4   54.90    2.52
  -1   4   4   21.09    1.71
   0   4   4    7.77    1.59
   1   4   4   15.79    2.28
   2   4   4   52.00    3.64
   3   4   4    0.07    0.45
   4   4   4    9.38    1.72
   5   4   4    1.77    0.84
   6   4   4   36.06    3.08
   7   4   4    1.65    0.87
   8   4   4    1.25    0.77
   9   4   4    3.13    1.18
  10   4   4    2.33    1.09
  11   4   4   -0.02    0.56
  12   4   4   39.41    4.45
  13   4   4    0.90    0.91
 -13   5   4    2.60    1.43
 -12   5   4    1.74    1.25
 -11   5   4    8.15    2.17
 -10   5   4   10.91    2.31
  -9   5   4    4.11    1.02
  -8   5   4    0.41    0.47
  -7   5   4   18.41    1.92
  -6   5   4   29.51    2.42
  -5   5   4    0.18    0.40
  -4   5   4    1.01    0.47
  -3   5   4    1.65    0.54
  -2   5   4   51.13    3.72
  -1   5   4    8.60    1.73
   0   5   4   -0.09    0.42
   1   5   4   12.03    2.05
   2   5   4   49.26    3.58
   3   5   4    2.55    0.98
   4   5   4    0.74    0.60
   5   5   4    0.52    0.62
   6   5   4   22.12    2.86
   7   5   4   19.39    2.63
   8   5   4   -0.01    0.47
   9   5   4    7.55    1.79
  10   5   4    9.57    2.01
  11   5   4    6.07    1.82
  12   5   4    1.16    0.85
  13   5   4    0.57    0.78
 -13   6   4    2.83    1.77
 -12   6   4   10.19    2.36
 -11   6   4    1.72    1.23
 -10   6   4   11.65    2.46
  -9   6   4    5.46    1.77
  -8   6   4   23.48    2.25
  -7   6   4   15.86    1.81
  -6   6   4    1.46    0.62
  -5   6   4   28.53    2.03
  -4   6   4   -0.20    0.36
  -3   6   4  115.39    6.68
  -2   6   4   46.75    3.60
  -1   6   4    0.43    0.55
   0   6   4   20.36    2.72
   1   6   4    0.19    0.46
   2   6   4   44.16    3.45
   3   6   4  108.48    6.42
   4   6   4   -0.09    0.53
   5   6   4   26.61    3.07
   6   6   4    2.59    1.12
   7   6   4   12.83    2.26
   8   6   4   20.00    2.82
   9   6   4    5.61    1.60
  10   6   4    6.75    1.80
  11   6   4    2.59    1.20
  12   6   4    6.67    1.89
 -12   7   4    0.28    1.10
 -11   7   4    0.78    0.89
 -10   7   4   -0.19    0.60
  -9   7   4   34.27    4.10
  -8   7   4    6.40    1.75
  -7   7   4   39.90    2.71
  -6   7   4    2.45    0.77
  -5   7   4    1.39    0.97
  -4   7   4    0.32    0.65
  -3   7   4   17.05    2.56
  -2   7   4    4.27    1.30
  -1   7   4   12.89    2.21
   0   7   4   -0.15    0.44
   1   7   4   10.25    1.98
   2   7   4    5.35    1.39
   3   7   4   20.29    2.66
   4   7   4    0.07    0.53
   5   7   4    1.06    0.76
   6   7   4    3.52    1.22
   7   7   4   38.29    4.14
   8   7   4    6.58    1.71
   9   7   4   31.17    3.70
  10   7   4   -0.19    0.51
  11   7   4    0.76    0.85
  12   7   4    1.62    0.91
 -11   8   4    3.02    1.25
 -10   8   4    5.32    1.72
  -9   8   4    4.54    1.58
  -8   8   4   30.40    3.93
  -7   8   4    9.76    2.11
  -6   8   4   11.53    2.29
  -5   8   4   11.38    2.15
  -4   8   4    3.43    1.34
  -3   8   4   23.22    3.04
  -2   8   4    1.41    0.82
  -1   8   4   23.93    3.03
   0   8   4   23.32    3.06
   1   8   4   24.92    3.21
   2   8   4    1.71    0.93
   3   8   4   18.84    2.66
   4   8   4    2.19    0.97
   5   8   4    8.36    1.78
   6   8   4   12.15    2.28
   7   8   4    9.47    2.06
   8   8   4   33.37    3.82
   9   8   4    1.11    0.89
  10   8   4   10.79    2.29
  11   8   4    0.89    0.79
 -11   9   4    9.26    2.25
 -10   9   4   10.81    2.31
  -9   9   4    4.48    1.57
  -8   9   4    0.10    0.65
  -7   9   4    4.60    1.60
  -6   9   4   29.57    3.63
  -5   9   4    9.71    2.11
  -4   9   4    0.50    0.81
  -3   9   4   28.41    3.51
  -2   9   4    3.71    1.28
  -1   9   4    0.82    0.77
   0   9   4    0.50    0.63
   1   9   4    0.59    0.62
   2   9   4    3.98    1.28
   3   9   4   22.12    3.07
   4   9   4    1.02    0.77
   5   9   4    7.49    1.71
   6   9   4   26.83    3.40
   7   9   4    6.56    1.65
   8   9   4    0.32    0.79
   9   9   4    4.05    1.52
  10   9   4   13.85    2.69
  11   9   4    8.42    2.07
 -10  10   4    0.76    0.92
  -9  10   4    0.87    0.82
  -8  10   4    1.33    1.10
  -7  10   4    1.94    1.21
  -6  10   4    2.53    1.09
  -5  10   4    0.28    0.65
  -4  10   4   13.99    2.53
  -3  10   4   28.99    3.59
  -2  10   4   17.18    2.70
  -1  10   4   23.10    3.14
   0  10   4    2.80    1.17
   1  10   4   18.82    2.78
   2  10   4   15.07    2.53
   3  10   4   19.10    2.80
   4  10   4   16.24    2.55
   5  10   4    0.41    0.68
   6  10   4    4.86    1.56
   7  10   4    4.02    1.33
   8  10   4    1.88    1.07
   9  10   4    0.10    0.70
  10  10   4   -0.16    0.69
  -9  11   4   10.61    2.35
  -8  11   4    0.35    0.94
  -7  11   4    0.26    0.77
  -6  11   4    3.08    1.30
  -5  11   4    5.94    1.63
  -4  11   4    2.60    1.29
  -3  11   4   10.95    2.19
  -2  11   4    1.83    1.04
  -1  11   4   39.86    4.31
   0  11   4   -0.29    0.55
   1  11   4   21.96    3.04
   2  11   4    1.69    0.95
   3  11   4    9.18    1.93
   4  11   4    1.52    0.92
   5  11   4    5.18    1.55
   6  11   4    2.25    1.09
   7  11   4    0.84    0.75
   8  11   4    0.63    0.83
   9  11   4   11.30    2.40
  -8  12   4    1.63    1.03
  -7  12   4    8.01    2.07
  -6  12   4    8.48    2.04
  -5  12   4    2.67    1.29
  -4  12   4    9.58    2.15
  -3  12   4    4.44    1.54
  -2  12   4   16.77    2.83
  -1  12   4   17.27    2.80
   0  12   4   14.89    2.60
   1  12   4   16.05    2.66
   2  12   4   11.64    2.23
   3  12   4    4.04    1.36
   4  12   4   13.40    2.42
   5  12   4   -0.04    0.70
   6  12   4   11.93    2.42
   7  12   4    8.72    2.11
   8  12   4    0.81    0.86
  -7  13   4    5.21    2.00
  -6  13   4   13.23    2.52
  -5  13   4   37.53    4.40
  -4  13   4   11.48    2.45
  -3  13   4   -0.06    0.65
  -2  13   4    0.46    0.76
  -1  13   4    5.21    1.58
   0  13   4   -0.41    0.58
   1  13   4    6.83    1.83
   2  13   4    0.39    0.74
   3  13   4    0.36    0.70
   4  13   4   12.38    2.39
   5  13   4   38.89    4.26
   6  13   4   10.30    2.16
   7  13   4    4.41    1.68
  -5  14   4    3.67    1.61
  -4  14   4    2.89    1.43
  -3  14   4   -0.55    0.76
  -2  14   4    0.33    0.88
  -1  14   4    5.73    1.74
   0  14   4   57.75    4.57
   1  14   4    2.91    1.31
   2  14   4    0.11    0.74
   3  14   4    0.05    0.74
   4  14   4    3.83    1.43
   5  14   4    4.90    1.70
  -2  15   4    3.43    1.54
  -1  15   4    0.70    1.01
   0  15   4   -0.90    0.67
   1  15   4   -0.55    0.77
   2  15   4    1.00    0.95
   3  15   4    4.18    2.35
  -2 -12   5   -1.00    0.76
  -1 -12   5    1.36    1.19
   0 -12   5    2.11    1.26
  -4 -11   5    0.98    1.03
  -3 -11   5   -0.06    0.62
  -2 -11   5   10.51    1.62
  -1 -11   5   14.99    1.91
   0 -11   5   -0.49    0.57
   1 -11   5   11.13    2.38
   2 -11   5    7.51    2.06
   3 -11   5   -0.21    0.86
  -6 -10   5    4.53    1.72
  -5 -10   5    4.60    1.13
  -4 -10   5   10.11    1.56
  -3 -10   5    7.07    1.30
  -2 -10   5    0.75    0.63
  -1 -10   5   11.72    1.65
   0 -10   5    7.47    1.36
   1 -10   5   12.46    2.56
   2 -10   5    1.48    1.16
   3 -10   5    6.94    1.94
   4 -10   5   15.26    2.76
   5 -10   5    1.94    1.22
   6 -10   5    6.64    2.24
  -7  -9   5    2.44    0.98
  -6  -9   5    5.96    1.20
  -5  -9   5   26.49    2.51
  -4  -9   5    2.95    0.88
  -3  -9   5    1.58    0.77
  -2  -9   5   34.01    2.83
  -1  -9   5    5.04    1.06
   0  -9   5    0.46    0.54
   1  -9   5    1.88    1.17
   2  -9   5   26.87    3.63
   3  -9   5    2.44    1.32
   4  -9   5    2.16    1.26
   5  -9   5   24.96    3.56
   6  -9   5    7.53    2.05
   7  -9   5    4.40    1.70
  -8  -8   5    0.67    0.90
  -7  -8   5    4.20    1.05
  -6  -8   5    1.82    0.73
  -5  -8   5   11.23    1.66
  -4  -8   5   10.99    1.63
  -3  -8   5    4.10    0.84
  -2  -8   5    8.20    1.33
  -1  -8   5    7.33    1.34
   0  -8   5   13.72    1.73
   1  -8   5    9.05    2.13
   2  -8   5    5.12    1.59
   3  -8   5    4.75    1.52
   4  -8   5   11.15    2.43
   5  -8   5   13.58    2.58
   6  -8   5    0.07    0.82
   7  -8   5    5.94    1.93
   8  -8   5    2.24    1.31
  -8  -7   5    6.06    1.26
  -7  -7   5    1.99    0.81
  -6  -7   5    1.25    0.69
  -5  -7   5   48.12    4.28
  -4  -7   5    0.14    0.48
  -3  -7   5    0.79    0.58
  -2  -7   5    2.37    0.80
  -1  -7   5    6.96    1.24
   0  -7   5   -0.15    0.42
   1  -7   5    8.67    2.04
   2  -7   5    2.90    1.27
   3  -7   5    1.08    0.95
   4  -7   5   -0.09    0.60
   5  -7   5   48.95    4.27
   6  -7   5    2.63    1.20
   7  -7   5    1.91    1.17
   8  -7   5    4.92    1.79
   9  -7   5    1.21    1.12
  -9  -6   5    3.32    0.95
  -8  -6   5    4.87    1.10
  -7  -6   5    5.82    1.21
  -6  -6   5    0.82    0.62
  -5  -6   5    7.83    1.36
  -4  -6   5    0.08    0.39
  -3  -6   5    1.40    0.66
  -2  -6   5    0.96    0.58
  -1  -6   5   51.91    2.88
   0  -6   5   11.00    1.45
   1  -6   5   56.49    4.34
   2  -6   5    0.01    0.72
   3  -6   5    0.03    0.71
   4  -6   5    0.07    0.63
   5  -6   5    6.83    1.84
   6  -6   5   -0.15    0.64
   7  -6   5    6.61    1.77
   8  -6   5    3.46    1.43
   9  -6   5    6.56    1.86
  10  -6   5    3.20    1.52
  -9  -5   5    4.00    1.66
  -8  -5   5    0.78    0.85
  -7  -5   5   15.97    1.92
  -6  -5   5   16.16    1.94
  -5  -5   5    4.91    1.06
  -4  -5   5    0.71    0.52
  -3  -5   5   21.70    2.09
  -2  -5   5   28.21    2.39
  -1  -5   5   -0.07    0.35
   0  -5   5   -0.16    0.62
   1  -5   5    0.02    0.59
   2  -5   5   24.33    3.16
   3  -5   5   16.04    2.66
   4  -5   5    0.03    0.59
   5  -5   5    7.82    1.94
   6  -5   5   17.71    2.83
   7  -5   5   12.86    2.45
   8  -5   5    0.66    0.97
   9  -5   5    5.92    1.76
 -10  -4   5    0.89    1.03
  -9  -4   5   10.12    2.26
  -8  -4   5    3.18    1.39
  -7  -4   5    4.88    1.58
  -6  -4   5    4.50    1.60
  -5  -4   5    5.70    1.66
  -4  -4   5   28.45    2.42
  -3  -4   5    0.51    0.50
  -2  -4   5    7.99    1.20
  -1  -4   5    8.99    1.28
   0  -4   5    0.59    0.75
   1  -4   5    5.40    1.53
   2  -4   5    3.59    1.23
   3  -4   5    0.08    0.62
   4  -4   5   33.85    3.79
   5  -4   5    3.54    1.28
   6  -4   5    2.93    1.24
   7  -4   5    4.61    1.46
   8  -4   5    2.90    2.06
 -10  -3   5   10.10    2.35
  -9  -3   5    8.94    2.23
  -8  -3   5   10.31    2.25
  -7  -3   5   41.53    4.50
  -6  -3   5    0.34    0.64
  -5  -3   5   13.78    2.48
  -4  -3   5    7.82    1.83
  -3  -3   5    1.84    0.87
  -2  -3   5   52.20    2.70
  -1  -3   5   69.02    3.18
   0  -3   5   -0.23    0.50
   1  -3   5   65.56    4.60
   2  -3   5   37.78    3.43
   3  -3   5    1.63    1.02
   4  -3   5    6.50    1.64
   5  -3   5   20.99    2.88
   6  -3   5    0.32    0.71
 -10  -2   5   -0.04    0.79
  -9  -2   5    1.29    1.15
  -8  -2   5    2.75    1.32
  -7  -2   5   14.13    2.59
  -6  -2   5    0.89    0.81
  -5  -2   5    0.02    0.54
  -4  -2   5    2.08    1.18
  -3  -2   5    3.48    1.22
  -2  -2   5   15.04    2.30
  -1  -2   5   20.96    1.92
   0  -2   5    2.37    0.96
   1  -2   5   24.17    3.00
   2  -2   5   13.30    2.23
   3  -2   5    8.40    1.75
   4  -2   5    6.20    1.57
   5  -2   5   -0.20    0.60
 -11  -1   5    4.45    1.83
 -10  -1   5   21.76    3.34
  -9  -1   5    0.62    0.87
  -8  -1   5   10.88    2.28
  -7  -1   5    3.18    1.38
  -6  -1   5    1.01    0.90
  -5  -1   5   36.31    4.08
  -4  -1   5    7.30    1.78
  -3  -1   5   26.85    3.32
  -2  -1   5    0.42    0.73
  -1  -1   5    0.33    0.54
   0  -1   5   -0.33    0.54
   1  -1   5    0.15    0.59
   2  -1   5    1.29    0.75
   3  -1   5   25.26    3.02
   6  -1   5    0.90    1.22
   7  -1   5    1.46    0.96
   8  -1   5   11.90    2.44
   9  -1   5    0.12    0.82
 -11   0   5    0.00    0.89
 -10   0   5    2.76    1.35
  -9   0   5   -0.07    0.77
  -8   0   5   62.13    4.89
  -7   0   5    0.60    0.83
  -6   0   5   10.96    2.20
  -5   0   5   -0.15    0.54
  -4   0   5   71.23    4.73
  -3   0   5   -0.35    0.48
  -2   0   5   22.17    1.97
  -1   0   5   -0.04    0.35
   0   0   5    0.01    0.36
   1   0   5   -0.06    0.37
   2   0   5   22.65    1.98
   3   0   5   -0.29    0.46
   4   0   5   62.78    4.27
   5   0   5    0.81    0.64
   6   0   5   12.82    2.15
   7   0   5   -0.70    0.45
   8   0   5   61.24    4.42
   9   0   5    0.23    0.62
  10   0   5    2.81    1.22
  11   0   5   -0.34    0.78
 -11   1   5    2.71    1.40
 -10   1   5   21.82    3.38
  -9   1   5    0.72    1.00
  -8   1   5   11.40    2.31
  -7   1   5    2.25    0.78
  -6   1   5    1.17    0.66
  -5   1   5   38.28    2.86
  -4   1   5    6.20    1.05
  -3   1   5   24.13    2.14
  -2   1   5    0.39    0.46
  -1   1   5   -0.26    0.32
   0   1   5    0.11    0.37
   1   1   5    0.08    0.52
   2   1   5    0.32    0.58
   3   1   5   25.73    2.92
   4   1   5    8.73    1.79
   5   1   5   38.95    3.26
   6   1   5    1.20    0.68
   7   1   5    2.24    0.96
   8   1   5   11.34    2.14
   9   1   5    0.61    0.77
  10   1   5   26.43    3.50
  11   1   5    2.61    1.34
 -11   2   5    7.12    2.11
 -10   2   5    0.82    0.73
  -9   2   5    1.25    0.73
  -8   2   5    2.50    0.88
  -7   2   5   13.35    1.74
  -6   2   5    1.24    0.68
  -5   2   5   -0.28    0.42
  -4   2   5    5.04    0.99
  -3   2   5   10.51    1.41
  -2   2   5   13.94    1.57
  -1   2   5   20.90    2.83
   0   2   5    4.91    1.34
   1   2   5   25.07    3.03
   2   2   5   12.05    2.10
   3   2   5    6.72    1.56
   4   2   5    3.39    1.17
   5   2   5   -0.21    0.48
   6   2   5    2.39    1.06
   7   2   5   11.25    2.14
   8   2   5    2.57    1.11
   9   2   5    0.52    0.83
  10   2   5   -0.21    0.67
  11   2   5   10.74    2.29
 -11   3   5    5.51    1.26
 -10   3   5   12.56    1.83
  -9   3   5    7.59    1.41
  -8   3   5   11.16    1.62
  -7   3   5   35.33    2.88
  -6   3   5    0.36    0.54
  -5   3   5   20.35    2.05
  -4   3   5    5.90    1.08
  -3   3   5    2.29    1.02
  -2   3   5   43.76    3.70
  -1   3   5   60.50    4.43
   0   3   5   -0.07    0.56
   1   3   5   60.39    4.40
   2   3   5   42.58    3.54
   3   3   5    1.31    0.84
   4   3   5    8.58    1.87
   5   3   5   20.74    2.85
   6   3   5   -0.14    0.53
   7   3   5   37.82    4.13
   8   3   5   15.30    2.56
   9   3   5    4.24    1.37
  10   3   5    8.17    1.88
  11   3   5    2.87    1.33
 -11   4   5    1.71    0.87
 -10   4   5    0.03    0.61
  -9   4   5    9.68    1.60
  -8   4   5    5.08    1.12
  -7   4   5    3.19    0.96
  -6   4   5    4.49    1.06
  -5   4   5    7.06    1.46
  -4   4   5   30.85    3.73
  -3   4   5    2.31    1.08
  -2   4   5   11.10    2.25
  -1   4   5    9.39    1.97
   0   4   5    1.30    0.92
   1   4   5    6.17    1.62
   2   4   5    9.37    1.88
   3   4   5    3.12    1.16
   4   4   5   27.98    3.38
   5   4   5    5.34    1.62
   6   4   5    4.76    1.46
   7   4   5    2.54    1.10
   8   4   5    2.27    1.10
   9   4   5    7.88    2.00
  10   4   5    0.92    1.04
 -10   5   5   17.17    2.18
  -9   5   5    5.50    1.27
  -8   5   5    0.19    0.58
  -7   5   5   18.03    3.07
  -6   5   5   17.09    2.83
  -5   5   5    9.98    2.25
  -4   5   5    0.60    0.77
  -3   5   5   23.55    3.30
  -2   5   5   20.19    3.00
  -1   5   5   -0.39    0.63
   0   5   5    0.48    0.70
   1   5   5   -0.49    0.53
   2   5   5   20.77    2.99
   3   5   5   20.84    2.84
   4   5   5    0.38    0.71
   5   5   5    4.83    1.52
   6   5   5   23.49    3.31
   7   5   5   16.26    2.70
   8   5   5    0.49    0.72
   9   5   5    6.06    1.77
  10   5   5   10.95    2.43
 -10   6   5    9.22    2.59
  -9   6   5    1.94    1.20
  -8   6   5    4.33    1.53
  -7   6   5    7.62    2.10
  -6   6   5   -0.19    0.66
  -5   6   5    6.05    1.71
  -4   6   5   -0.46    0.68
  -3   6   5    3.22    1.21
  -2   6   5    0.47    0.75
  -1   6   5   46.81    4.09
   0   6   5    7.57    1.80
   1   6   5   58.42    4.38
   2   6   5    0.30    0.67
   3   6   5    1.81    1.00
   4   6   5    0.20    0.60
   5   6   5    6.62    1.71
   6   6   5   -0.86    0.52
   7   6   5    3.99    1.52
   8   6   5    4.51    1.46
   9   6   5    6.92    1.87
  -9   7   5    1.43    1.19
  -8   7   5    3.46    1.44
  -7   7   5    3.18    1.38
  -6   7   5    1.76    1.14
  -5   7   5   50.84    4.46
  -4   7   5    0.00    0.69
  -3   7   5    0.37    0.80
  -2   7   5    1.85    1.10
  -1   7   5    8.07    1.99
   0   7   5    0.44    0.67
   1   7   5    7.11    1.79
   2   7   5    4.13    1.47
   3   7   5    0.76    0.77
   4   7   5   -0.34    0.55
   5   7   5   52.35    4.38
   6   7   5    2.09    1.15
   7   7   5    0.95    0.97
   8   7   5    7.27    1.80
  -8   8   5    0.54    0.90
  -7   8   5    2.58    1.33
  -6   8   5    1.79    1.21
  -5   8   5   11.43    2.34
  -4   8   5    7.18    1.95
  -3   8   5    6.89    1.78
  -2   8   5    7.12    1.91
  -1   8   5   11.13    2.33
   0   8   5   15.91    2.68
   1   8   5    5.67    1.66
   2   8   5    4.98    1.61
   3   8   5    6.66    1.76
   4   8   5    9.13    2.05
   5   8   5   10.14    2.24
   6   8   5    0.79    0.89
   7   8   5    3.28    1.39
   8   8   5    1.02    1.18
  -7   9   5    0.41    0.92
  -6   9   5    9.74    2.35
  -5   9   5   24.74    3.54
  -4   9   5   -0.12    0.75
  -3   9   5    1.92    1.11
  -2   9   5   38.07    4.54
  -1   9   5    3.04    1.34
   0   9   5    0.31    0.69
   1   9   5    5.24    1.68
   2   9   5   32.46    3.99
   3   9   5    1.34    0.97
   4   9   5    2.12    1.16
   5   9   5   29.55    3.89
   6   9   5    3.24    1.40
   7   9   5    3.91    1.71
  -5  10   5    6.81    2.02
  -4  10   5   12.71    2.52
  -3  10   5    8.99    2.26
  -2  10   5    1.33    0.87
  -1  10   5   15.99    2.85
   0  10   5    7.09    1.88
   1  10   5   11.64    2.44
   2  10   5    1.07    0.98
   3  10   5    5.42    1.73
   4  10   5   11.76    2.37
   5  10   5    1.28    0.98
  -3  11   5    0.28    0.97
  -2  11   5    7.91    2.02
  -1  11   5   12.30    2.47
   0  11   5    0.52    0.84
   1  11   5   14.06    2.67
   2  11   5    6.99    1.94
   3  11   5    0.96    0.80
  -2  -6   6   12.17    2.96
  -1  -6   6    0.95    0.92
   0  -6   6    6.76    1.84
   1  -6   6    0.17    1.03
   2  -6   6   18.15    3.07
   3  -6   6   45.02    4.83
  -4  -5   6    0.35    0.90
  -3  -5   6    1.22    1.18
  -2  -5   6   12.59    2.67
  -1  -5   6    1.47    1.26
   0  -5   6   -0.16    0.87
   1  -5   6    2.92    1.37
   2  -5   6   26.71    3.79
   3  -5   6    0.52    0.98
   4  -5   6   -0.57    0.92
  -5  -4   6    0.07    0.88
  -4  -4   6    4.53    1.27
  -3  -4   6   -0.03    0.90
  -2  -4   6   14.22    2.65
  -1  -4   6    2.13    1.27
   0  -4   6    3.14    1.36
   1  -4   6    3.98    1.54
   2  -4   6   13.83    2.69
   3  -4   6    0.21    0.96
  -6  -3   6   26.18    3.59
  -5  -3   6    0.72    0.68
  -4  -3   6    1.48    1.16
  -3  -3   6   11.93    2.48
  -2  -3   6    0.08    0.85
  -1  -3   6   11.43    2.44
   0  -3   6   -0.51    0.74
   1  -3   6    7.65    1.85
  -6  -2   6    5.40    1.95
  -5  -2   6    5.78    1.87
  -4  -2   6   35.58    4.36
  -3  -2   6    6.76    1.91
  -2  -2   6    0.37    0.94
  -1  -2   6    0.95    0.98
   0  -2   6    0.03    0.92
  -6  -1   6   10.68    2.49
  -5  -1   6    3.13    1.38
  -4  -1   6   15.43    2.66
  -3  -1   6    3.00    1.43
  -2  -1   6    2.20    1.22
  -6   0   6    0.34    1.06
  -5   0   6   -0.92    0.91
  -4   0   6    0.68    0.98
  -6   1   6   13.01    2.60
  -2   3   6    0.29    0.90
  -1   3   6    8.48    2.05
   0   3   6    0.73    0.83
   1   3   6    4.85    1.51
   2   3   6   -0.08    0.74
   3   3   6   10.28    2.21
   4   3   6    2.86    1.32
   5   3   6    0.31    0.85
   6   3   6   31.95    4.09
  -5   4   6    1.46    1.29
  -4   4   6    6.45    1.93
  -3   4   6    0.72    0.98
  -2   4   6   17.93    2.98
  -1   4   6    3.30    1.49
   0   4   6    2.86    1.26
   1   4   6    4.43    1.54
   2   4   6   19.07    3.00
   3   4   6   -0.93    0.59
   4   4   6    3.05    1.25
   5   4   6    0.39    1.01
  -4   5   6    1.36    1.26
  -3   5   6    0.09    0.97
  -2   5   6   19.65    3.25
  -1   5   6    1.67    1.01
   0   5   6   -0.06    0.80
   1   5   6    2.95    1.24
   2   5   6   14.21    2.63
   3   5   6    0.03    0.89
   4   5   6    0.96    0.96
  -3   6   6   62.27    6.89
  -2   6   6   12.01    2.50
  -1   6   6   -0.07    0.87
   0   6   6    7.78    2.09
   1   6   6    0.17    0.86
   2   6   6   11.62    2.39
   0   0   0    0.00    0.00
;
_shelx_hkl_checksum              56204
loop_
_space_group_symop_operation_xyz
'x, y, z'
'-x, -y, z'
'-x+1/2, y+1/2, -z'
'x+1/2, -y+1/2, -z'
'-x, -y, -z'
'x, y, -z'
'x-1/2, -y-1/2, z'
'-x-1/2, y-1/2, z'
loop_
_atom_site_label
_atom_site_type_symbol
_atom_site_fract_x
_atom_site_fract_y
_atom_site_fract_z
_atom_site_U_iso_or_equiv
_atom_site_adp_type
_atom_site_occupancy
_atom_site_site_symmetry_order
_atom_site_calc_flag
_atom_site_refinement_flags_posn
_atom_site_refinement_flags_adp
_atom_site_refinement_flags_occupancy
Ba Ba 0.0000 0.5000 0.5000 0.01983(14) Uani 1 4 d S T P
Ce Ce 0.11734(3) 0.14183(3) 0.5000 0.01350(10) Uani 1 2 d S T P
In In 0.28480(4) 0.37729(4) 0.0000 0.01579(11) Uani 1 2 d S T P
Se1 Se 0.35925(6) 0.28261(5) 0.5000 0.01563(14) Uani 1 2 d S T P
Se2 Se 0.07923(5) 0.30446(5) 0.0000 0.01393(14) Uani 1 2 d S T P
Se3 Se 0.28731(5) 0.06478(5) 0.0000 0.01417(14) Uani 1 2 d S T P
Se4 Se 0.0000 0.0000 0.0000 0.01467(18) Uani 1 4 d S T P
loop_
_atom_site_aniso_label
_atom_site_aniso_U_11
_atom_site_aniso_U_22
_atom_site_aniso_U_33
_atom_site_aniso_U_23
_atom_site_aniso_U_13
_atom_site_aniso_U_12
Ba 0.0197(3) 0.0269(3) 0.0128(3) 0.000 0.000 0.0062(2)
Ce 0.01555(18) 0.01473(17) 0.01021(16) 0.000 0.000 0.00068(13)
In 0.0190(2) 0.0157(2) 0.0127(2) 0.000 0.000 0.00259(17)
Se1 0.0184(3) 0.0171(3) 0.0114(3) 0.000 0.000 0.0036(2)
Se2 0.0143(3) 0.0130(3) 0.0145(3) 0.000 0.000 0.0004(2)
Se3 0.0135(3) 0.0133(3) 0.0158(3) 0.000 0.000 0.0001(2)
Se4 0.0148(4) 0.0147(4) 0.0146(4) 0.000 0.000 -0.0023(3)
loop_
_atom_type_symbol
_atom_type_description
_atom_type_scat_dispersion_real
_atom_type_scat_dispersion_imag
_atom_type_scat_source
Se Se -0.0929 2.2259 'International Tables Vol C Tables 4.2.6.8 and 6.1.1.4'
In In -0.7276 1.3100 'International Tables Vol C Tables 4.2.6.8 and 6.1.1.4'
Ba Ba -0.3244 2.2819 'International Tables Vol C Tables 4.2.6.8 and 6.1.1.4'
Ce Ce -0.2486 2.6331 'International Tables Vol C Tables 4.2.6.8 and 6.1.1.4'
loop_
_geom_angle_atom_site_label_1
_geom_angle_atom_site_label_2
_geom_angle_atom_site_label_3
_geom_angle
_geom_angle_site_symmetry_1
_geom_angle_site_symmetry_3
Se2 Ba Se2 180.00(2) . 5_566
Se2 Ba Se2 104.556(14) . 5_565
Se2 Ba Se2 75.444(14) 5_566 5_565
Se2 Ba Se2 75.444(14) . 1_556
Se2 Ba Se2 104.556(14) 5_566 1_556
Se2 Ba Se2 180.0 5_565 1_556
Se2 Ba Se3 70.074(14) . 7_565
Se2 Ba Se3 109.925(14) 5_566 7_565
Se2 Ba Se3 66.090(14) 5_565 7_565
Se2 Ba Se3 113.910(15) 1_556 7_565
Se2 Ba Se3 109.926(14) . 3_556
Se2 Ba Se3 70.075(14) 5_566 3_556
Se2 Ba Se3 113.910(15) 5_565 3_556
Se2 Ba Se3 66.090(15) 1_556 3_556
Se3 Ba Se3 180.0 7_565 3_556
Se2 Ba Se3 113.910(15) . 7_566
Se2 Ba Se3 66.090(15) 5_566 7_566
Se2 Ba Se3 109.925(14) 5_565 7_566
Se2 Ba Se3 70.075(14) 1_556 7_566
Se3 Ba Se3 75.139(14) 7_565 7_566
Se3 Ba Se3 104.861(14) 3_556 7_566
Se2 Ba Se3 66.090(14) . 3
Se2 Ba Se3 113.910(14) 5_566 3
Se2 Ba Se3 70.075(14) 5_565 3
Se2 Ba Se3 109.925(14) 1_556 3
Se3 Ba Se3 104.861(14) 7_565 3
Se3 Ba Se3 75.139(14) 3_556 3
Se3 Ba Se3 180.0 7_566 3
Se2 Ba Ba 52.278(7) . 1_554
Se2 Ba Ba 127.722(7) 5_566 1_554
Se2 Ba Ba 52.278(7) 5_565 1_554
Se2 Ba Ba 127.722(7) 1_556 1_554
Se3 Ba Ba 52.430(7) 7_565 1_554
Se3 Ba Ba 127.570(7) 3_556 1_554
Se3 Ba Ba 127.569(7) 7_566 1_554
Se3 Ba Ba 52.431(7) 3 1_554
Se2 Ba Ba 127.722(7) . 1_556
Se2 Ba Ba 52.278(7) 5_566 1_556
Se2 Ba Ba 127.722(7) 5_565 1_556
Se2 Ba Ba 52.278(7) 1_556 1_556
Se3 Ba Ba 127.570(7) 7_565 1_556
Se3 Ba Ba 52.430(7) 3_556 1_556
Se3 Ba Ba 52.431(7) 7_566 1_556
Se3 Ba Ba 127.569(7) 3 1_556
Ba Ba Ba 180.0 1_554 1_556
Se2 Ce Se2 88.37(2) 1_556 .
Se2 Ce Se3 81.826(15) 1_556 1_556
Se2 Ce Se3 142.84(2) . 1_556
Se2 Ce Se3 142.84(2) 1_556 .
Se2 Ce Se3 81.826(15) . .
Se3 Ce Se3 84.701(19) 1_556 .
Se2 Ce Se4 143.750(18) 1_556 .
Se2 Ce Se4 82.740(12) . .
Se3 Ce Se4 124.529(17) 1_556 .
Se3 Ce Se4 70.442(12) . .
Se2 Ce Se4 82.739(12) 1_556 1_556
Se2 Ce Se4 143.750(18) . 1_556
Se3 Ce Se4 70.442(12) 1_556 1_556
Se3 Ce Se4 124.530(17) . 1_556
Se4 Ce Se4 84.006(10) . 1_556
Se2 Ce Se1 69.181(16) 1_556 7_565
Se2 Ce Se1 69.180(16) . 7_565
Se3 Ce Se1 136.973(10) 1_556 7_565
Se3 Ce Se1 136.974(10) . 7_565
Se4 Ce Se1 74.819(11) . 7_565
Se4 Ce Se1 74.819(11) 1_556 7_565
Se2 Ce Se1 76.299(16) 1_556 .
Se2 Ce Se1 76.299(16) . .
Se3 Ce Se1 66.562(16) 1_556 .
Se3 Ce Se1 66.562(16) . .
Se4 Ce Se1 134.160(8) . .
Se4 Ce Se1 134.160(8) 1_556 .
Se1 Ce Se1 130.999(12) 7_565 .
Se3 In Se1 124.320(16) 3 .
Se3 In Se1 124.320(16) 3 1_554
Se1 In Se1 107.92(3) . 1_554
Se3 In Se2 90.72(3) 3 .
Se1 In Se2 99.27(2) . .
Se1 In Se2 99.27(2) 1_554 .
Se3 In Se4 78.69(2) 3 3
Se1 In Se4 86.88(2) . 3
Se1 In Se4 86.88(2) 1_554 3
Se2 In Se4 169.42(2) . 3
In Se1 In 107.92(3) . 1_556
In Se1 Ce 101.18(2) . 7_665
In Se1 Ce 101.18(2) 1_556 7_665
In Se1 Ce 87.19(2) . .
In Se1 Ce 87.19(2) 1_556 .
Ce Se1 Ce 165.55(2) 7_665 .
In Se2 Ce 95.86(2) . 1_554
In Se2 Ce 95.86(2) . .
Ce Se2 Ce 88.37(2) 1_554 .
In Se2 Ba 90.202(18) . .
Ce Se2 Ba 170.93(2) 1_554 .
Ce Se2 Ba 97.736(7) . .
In Se2 Ba 90.202(18) . 1_554
Ce Se2 Ba 97.736(8) 1_554 1_554
Ce Se2 Ba 170.93(2) . 1_554
Ba Se2 Ba 75.444(14) . 1_554
In Se3 Ce 94.29(2) 3_545 .
In Se3 Ce 94.29(2) 3_545 1_554
Ce Se3 Ce 84.700(19) . 1_554
In Se3 Ba 91.563(18) 3_545 3_546
Ce Se3 Ba 99.766(7) . 3_546
Ce Se3 Ba 172.36(2) 1_554 3_546
In Se3 Ba 91.563(18) 3_545 3_545
Ce Se3 Ba 172.36(2) . 3_545
Ce Se3 Ba 99.766(7) 1_554 3_545
Ba Se3 Ba 75.140(14) 3_546 3_545
In Se4 In 180.000(18) 7_565 3_545
In Se4 Ce 85.023(10) 7_565 5
In Se4 Ce 94.977(10) 3_545 5
In Se4 Ce 94.977(10) 7_565 .
In Se4 Ce 85.023(10) 3_545 .
Ce Se4 Ce 180.0 5 .
In Se4 Ce 85.023(10) 7_565 5_556
In Se4 Ce 94.977(10) 3_545 5_556
Ce Se4 Ce 84.006(10) 5 5_556
Ce Se4 Ce 95.994(10) . 5_556
In Se4 Ce 94.977(10) 7_565 1_554
In Se4 Ce 85.023(10) 3_545 1_554
Ce Se4 Ce 95.994(10) 5 1_554
Ce Se4 Ce 84.006(10) . 1_554
Ce Se4 Ce 180.000(16) 5_556 1_554
loop_
_geom_bond_atom_site_label_1
_geom_bond_atom_site_label_2
_geom_bond_distance
_geom_bond_site_symmetry_2
Ba Se2 3.4111(5) .
Ba Se2 3.4112(5) 5_566
Ba Se2 3.4112(5) 5_565
Ba Se2 3.4112(5) 1_556
Ba Se3 3.4229(5) 7_565
Ba Se3 3.4229(5) 3_556
Ba Se3 3.4229(5) 7_566
Ba Se3 3.4229(5) 3
Ba Ba 4.1741(3) 1_554
Ba Ba 4.1741(3) 1_556
Ce Se2 2.9943(6) 1_556
Ce Se2 2.9944(5) .
Ce Se3 3.0980(6) 1_556
Ce Se3 3.0981(6) .
Ce Se4 3.1189(3) .
Ce Se4 3.1189(3) 1_556
Ce Se1 3.2802(8) 7_565
Ce Se1 3.4517(8) .
In Se3 2.5708(8) 3
In Se1 2.5811(5) .
In Se1 2.5811(5) 1_554
In Se2 2.6657(8) .
In Se4 3.0536(5) 3
Se1 In 2.5811(5) 1_556
Se1 Ce 3.2802(8) 7_665
Se2 Ce 2.9943(6) 1_554
Se2 Ba 3.4111(5) 1_554
Se3 In 2.5708(8) 3_545
Se3 Ce 3.0981(6) 1_554
Se3 Ba 3.4229(5) 3_546
Se3 Ba 3.4229(5) 3_545
Se4 In 3.0536(5) 7_565
Se4 In 3.0536(5) 3_545
Se4 Ce 3.1189(3) 5
Se4 Ce 3.1189(3) 5_556
Se4 Ce 3.1189(3) 1_554
