#------------------------------------------------------------------------------
#$Date: 2016-08-07 12:09:56 +0300 (Sun, 07 Aug 2016) $
#$Revision: 185456 $
#$URL: file:///home/coder/svn-repositories/cod/cif/7/03/98/7039847.cif $
#------------------------------------------------------------------------------
#
# This file is available in the Crystallography Open Database (COD),
# http://www.crystallography.net/
#
# All data on this site have been placed in the public domain by the
# contributors.
#
data_7039847
loop_
_publ_author_name
'Yin, Wenlong'
'Iyer, Abishek K.'
'Lin, Xinsong'
'Li, Chao'
'Yao, Jiyong'
'Mar, Arthur'
_publ_section_title
;
 Quaternary chalcogenides BaRE2In2Ch7 (RE = La-Nd; Ch = S, Se) containing
 InCh5 trigonal bipyramids.
;
_journal_issue                   31
_journal_name_full
'Dalton transactions (Cambridge, England : 2003)'
_journal_page_first              12329
_journal_page_last               12337
_journal_paper_doi               10.1039/c6dt02385a
_journal_volume                  45
_journal_year                    2016
_chemical_formula_structural     'Ba Nd2 In2 S7'
_chemical_formula_sum            'Ba In2 Nd2 S7'
_chemical_formula_weight         879.88
_chemical_name_common            'barium neodymium indium sulfide (1/2/2/7)'
_chemical_name_systematic        'barium neodymium indium sulfide (1/2/2/7)'
_space_group_crystal_system      orthorhombic
_space_group_IT_number           55
_space_group_name_Hall           '-P 2 2ab'
_space_group_name_H-M_alt        'P b a m'
_symmetry_space_group_name_Hall  '-P 2 2ab'
_symmetry_space_group_name_H-M   'P b a m'
_audit_creation_method           SHELXL-2014/7
_cell_angle_alpha                90
_cell_angle_beta                 90
_cell_angle_gamma                90
_cell_formula_units_Z            2
_cell_length_a                   11.5895(7)
_cell_length_b                   12.3001(8)
_cell_length_c                   4.0028(2)
_cell_measurement_reflns_used    3933
_cell_measurement_temperature    296(2)
_cell_measurement_theta_max      32.19
_cell_measurement_theta_min      2.41
_cell_volume                     570.61(6)
_computing_cell_refinement       'Bruker SAINT 8.34A (Bruker, 2013)'
_computing_data_collection       'Bruker APEX 2 (Bruker, 2008)'
_computing_data_reduction        'Bruker SAINT 8.34A'
_computing_molecular_graphics    'ATOMS 5.1 (Dowty, 1999)'
_computing_publication_material  'SHELXL-2014/7 (Sheldrick, 2014)'
_computing_structure_refinement  'SHELXL-2014/7 (Sheldrick, 2014)'
_computing_structure_solution    'SHELXS-97 (Sheldrick, 2008)'
_diffrn_ambient_temperature      296(2)
_diffrn_measured_fraction_theta_full 1.000
_diffrn_measured_fraction_theta_max 1.000
_diffrn_measurement_device_type  'Bruker PLATFORM/SMART APEX II CCD'
_diffrn_measurement_method       '\w and \f scans'
_diffrn_radiation_type           MoK\a
_diffrn_radiation_wavelength     0.71073
_diffrn_reflns_av_R_equivalents  0.0459
_diffrn_reflns_av_unetI/netI     0.0258
_diffrn_reflns_Laue_measured_fraction_full 1.000
_diffrn_reflns_Laue_measured_fraction_max 1.000
_diffrn_reflns_limit_h_max       17
_diffrn_reflns_limit_h_min       -17
_diffrn_reflns_limit_k_max       18
_diffrn_reflns_limit_k_min       -18
_diffrn_reflns_limit_l_max       6
_diffrn_reflns_limit_l_min       -6
_diffrn_reflns_number            8131
_diffrn_reflns_point_group_measured_fraction_full 1.000
_diffrn_reflns_point_group_measured_fraction_max 1.000
_diffrn_reflns_theta_full        25.242
_diffrn_reflns_theta_max         33.275
_diffrn_reflns_theta_min         2.415
_diffrn_source                   'fine-focus sealed tube'
_exptl_absorpt_coefficient_mu    17.537
_exptl_absorpt_correction_T_max  0.647
_exptl_absorpt_correction_T_min  0.461
_exptl_absorpt_correction_type   numerical
_exptl_absorpt_process_details   'SHELXL-2014/7 (Sheldrick, 2014)'
_exptl_crystal_colour            black
_exptl_crystal_density_diffrn    5.121
_exptl_crystal_description       prism
_exptl_crystal_F_000             772
_exptl_crystal_size_max          0.053
_exptl_crystal_size_mid          0.036
_exptl_crystal_size_min          0.034
_refine_diff_density_max         2.107
_refine_diff_density_min         -1.906
_refine_diff_density_rms         0.353
_refine_ls_extinction_coef       0.0042(3)
_refine_ls_extinction_expression Fc^*^=kFc[1+0.001xFc^2^\l^3^/sin(2\q)]^-1/4^
_refine_ls_extinction_method     'SHELXL-2014/7 (Sheldrick 2014'
_refine_ls_goodness_of_fit_ref   1.186
_refine_ls_hydrogen_treatment    undef
_refine_ls_matrix_type           full
_refine_ls_number_parameters     40
_refine_ls_number_reflns         1228
_refine_ls_number_restraints     0
_refine_ls_restrained_S_all      1.186
_refine_ls_R_factor_all          0.0339
_refine_ls_R_factor_gt           0.0276
_refine_ls_shift/su_max          0.001
_refine_ls_shift/su_mean         0.000
_refine_ls_structure_factor_coef Fsqd
_refine_ls_weighting_details
'w=1/[\s^2^(Fo^2^)+(0.0240P)^2^+2.4026P] where P=(Fo^2^+2Fc^2^)/3'
_refine_ls_weighting_scheme      calc
_refine_ls_wR_factor_gt          0.0598
_refine_ls_wR_factor_ref         0.0621
_reflns_Friedel_coverage         0.000
_reflns_number_gt                1061
_reflns_number_total             1228
_reflns_threshold_expression     'I > 2\s(I)'
_cod_data_source_file            c6dt02385a5.cif
_cod_data_source_block           pbam
_cod_depositor_comments
'Adding full bibliography for 7039846--7039853.cif.'
_cod_database_code               7039847
_shelx_shelxl_version_number     2014/7
_shelx_space_group_comment
;
The symmetry employed for this shelxl refinement is uniquely defined
by the following loop, which should always be used as a source of
symmetry information in preference to the above space-group names.
They are only intended as comments.
;
_shelx_estimated_absorpt_t_min   0.457
_shelx_estimated_absorpt_t_max   0.587
_shelx_res_file
;

    pbam.res created by SHELXL-2014/7

TITL BaNd2In2S7 Pbam lsf final refinement
CELL 0.71073  11.58950  12.30010   4.00280  90.0000  90.0000  90.0000
ZERR    2.00   0.00070   0.00080   0.00020   0.0000   0.0000   0.0000
LATT  1
SYMM -X, -Y, Z
SYMM 0.5-X, 0.5+Y, -Z
SYMM 0.5+X, 0.5-Y, -Z
SFAC S IN BA ND
UNIT 14 4 2 4
TEMP 23
SIZE 0.034 0.036 0.053

L.S. 4
ACTA

WGHT    0.024000    2.402600
EXTI    0.004186
FVAR       0.07996
BA    3    0.000000    0.500000    0.500000    10.25000    0.01682    0.02358 =
         0.01170    0.00000    0.00000    0.00557
ND    4    0.118281    0.142648    0.500000    10.50000    0.01415    0.01264 =
         0.00879    0.00000    0.00000    0.00102
IN    2    0.290830    0.375420    0.000000    10.50000    0.01477    0.01324 =
         0.01089    0.00000    0.00000    0.00108
S1    1    0.362831    0.282000    0.500000    10.50000    0.01737    0.01567 =
         0.01011    0.00000    0.00000    0.00284
S2    1    0.085738    0.302748    0.000000    10.50000    0.01237    0.01082 =
         0.01243    0.00000    0.00000   -0.00051
S3    1    0.283832    0.062365    0.000000    10.50000    0.01199    0.01158 =
         0.01408    0.00000    0.00000    0.00014
S4    1    0.000000    0.000000    0.000000    10.25000    0.01418    0.01273 =
         0.01326    0.00000    0.00000   -0.00167
HKLF 4

REM  BaNd2In2S7 Pbam lsf final refinement
REM R1 =  0.0276 for    1061 Fo > 4sig(Fo)  and  0.0339 for all    1228 data
REM     40 parameters refined using      0 restraints

END

WGHT      0.0239      2.4016

REM Highest difference peak  2.107,  deepest hole -1.906,  1-sigma level  0.353
Q1    1  -0.0270  0.1280  0.0000  10.50000  0.05    2.11
Q2    1   0.2612 -0.0016 -0.5000  10.50000  0.05    2.08
Q3    1   0.0974  0.2375  0.0000  10.50000  0.05    1.69
Q4    1   0.1377  0.3579 -0.5000  10.50000  0.05    1.54
Q5    1   0.3867  0.3484  0.5000  10.50000  0.05    1.53
Q6    1   0.2073  0.4136  0.0000  10.50000  0.05    1.44
Q7    1   0.0805  0.0021  0.5000  10.50000  0.05    1.38
Q8    1   0.2051  0.1262  0.0000  10.50000  0.05    1.37
Q9    1   0.3202  0.4625  0.0000  10.50000  0.05    1.33
Q10   1   0.3387  0.2321  0.0000  10.50000  0.05    1.32
Q11   1  -0.0560  0.3743  0.0000  10.50000  0.05    1.27
Q12   1   0.5008  0.2760  0.5000  10.50000  0.05    1.26
Q13   1   0.4130  0.2592  0.0000  10.50000  0.05    1.23
Q14   1   0.1586  0.2776  0.0000  10.50000  0.05    1.15
Q15   1   0.4225  0.0246  0.0000  10.50000  0.05    1.15
Q16   1   0.2808  0.1966  0.0000  10.50000  0.05    1.14
Q17   1   0.4196  0.2757  0.5000  10.50000  0.05    1.11
Q18   1  -0.0087  0.5949  0.5000  10.50000  0.05    1.06
Q19   1   0.2986  0.1302  0.5000  10.50000  0.05    1.04
Q20   1   0.1165  0.5833  0.5000  10.50000  0.05    1.03
;
_shelx_res_checksum              11747
_shelx_hkl_file
;
  -3  -3  -6   13.87    3.48
   1  -3  -6   29.10    5.85
   2  -3  -6    0.66    1.59
   3  -3  -6   10.91    3.55
  -3  -2  -6   22.54    4.36
  -1  -2  -6   -0.49    2.08
   0  -2  -6   -0.62    1.28
   1  -2  -6    1.21    1.54
   2  -2  -6    1.99    1.93
   3  -2  -6   21.88    4.26
  -3  -1  -6   27.26    4.77
  -2  -1  -6    4.96    2.25
  -1  -1  -6    1.79    1.73
   0  -1  -6   -0.36    0.96
   1  -1  -6    1.74    1.11
   2  -1  -6    8.06    2.84
   3  -1  -6   31.80    5.22
  -3   0  -6    0.57    1.45
  -2   0  -6    0.63    1.34
  -1   0  -6    0.37    1.03
   0   0  -6  222.22    8.58
   1   0  -6   -0.11    0.88
   2   0  -6    0.01    1.01
   3   0  -6   -0.57    1.57
  -3   1  -6   28.88    5.06
  -2   1  -6    6.13    2.13
  -1   1  -6    0.20    0.97
   0   1  -6    0.40    0.92
   1   1  -6    1.60    1.13
   2   1  -6    4.50    1.47
   3   1  -6   28.05    3.66
  -3   2  -6   34.87    5.77
  -2   2  -6    1.73    1.70
  -1   2  -6    0.24    0.80
   0   2  -6   -0.64    0.79
   1   2  -6   -0.13    0.87
   2   2  -6    2.98    1.34
   3   2  -6   23.11    2.67
  -2   3  -6    2.47    1.72
  -1   3  -6   41.84    6.14
   0   3  -6   -1.16    0.87
   1   3  -6   29.32    3.46
   2   3  -6    0.97    1.07
   3   3  -6   10.69    2.34
  -2   4  -6   19.77    6.49
  -1   4  -6    0.36    1.60
   1   4  -6   -0.31    0.98
   2   4  -6   31.39    5.26
  -1 -11  -5   24.60    4.51
   0 -11  -5    0.35    1.65
  -4 -10  -5   36.44    5.95
  -3 -10  -5    1.00    1.66
  -2 -10  -5    0.62    1.16
  -1 -10  -5   20.62    3.07
   0 -10  -5    8.15    1.99
   1 -10  -5   23.76    3.29
   2 -10  -5    1.51    1.13
   3 -10  -5    1.56    1.10
   4 -10  -5   30.98    5.72
  -5  -9  -5   29.77    3.90
  -4  -9  -5   -0.73    0.74
  -3  -9  -5   -0.02    0.77
  -2  -9  -5   66.92    5.16
  -1  -9  -5    9.71    2.10
   0  -9  -5    0.53    1.01
   1  -9  -5   13.21    2.35
   2  -9  -5   54.99    4.93
   3  -9  -5   -0.61    0.94
   4  -9  -5    0.10    0.82
   5  -9  -5   31.29    3.73
   6  -9  -5    8.30    3.03
  -6  -8  -5    0.31    1.01
  -5  -8  -5    8.79    1.50
  -4  -8  -5   10.09    1.58
  -3  -8  -5   14.12    1.94
  -2  -8  -5   20.79    2.81
  -1  -8  -5   11.71    2.20
   0  -8  -5   10.10    2.07
   1  -8  -5   11.24    2.17
   2  -8  -5   23.29    3.08
   3  -8  -5   13.48    2.36
   4  -8  -5   11.02    1.81
   5  -8  -5    9.36    1.68
   6  -8  -5    2.39    1.17
  -8  -7  -5    3.36    2.27
  -7  -7  -5    6.27    1.40
  -6  -7  -5    5.16    1.31
  -5  -7  -5   97.28    4.27
  -4  -7  -5    0.90    0.82
  -3  -7  -5    4.25    1.18
  -2  -7  -5    3.26    0.99
  -1  -7  -5    1.41    0.94
   0  -7  -5   -0.07    0.75
   1  -7  -5    0.95    0.99
   2  -7  -5    2.71    1.23
   3  -7  -5    6.99    1.71
   4  -7  -5    0.36    0.78
   5  -7  -5   93.24    4.33
   6  -7  -5    5.14    1.34
   7  -7  -5    5.31    1.87
  -8  -6  -5   16.62    2.30
  -7  -6  -5    8.43    1.59
  -6  -6  -5    0.35    0.76
  -5  -6  -5    5.03    1.16
  -4  -6  -5    1.17    0.81
  -3  -6  -5    0.07    0.66
  -2  -6  -5    0.68    0.69
  -1  -6  -5   71.09    4.77
   0  -6  -5   26.60    3.06
   1  -6  -5   77.63    4.56
   2  -6  -5    0.90    0.85
   3  -6  -5    0.51    0.88
   4  -6  -5    0.09    0.82
   5  -6  -5    6.30    1.33
   6  -6  -5   -0.04    0.74
   7  -6  -5    7.46    1.93
  -9  -5  -5    2.51    1.83
  -8  -5  -5    5.55    1.64
  -7  -5  -5   33.33    3.66
  -6  -5  -5   14.30    1.93
  -5  -5  -5    0.12    0.67
  -4  -5  -5    0.02    0.58
  -3  -5  -5   27.15    2.49
  -2  -5  -5   67.19    3.71
  -1  -5  -5    1.83    0.77
   0  -5  -5    0.36    0.73
   1  -5  -5    1.29    0.89
   2  -5  -5   59.99    4.58
   3  -5  -5   27.12    3.18
   4  -5  -5   -0.51    0.71
   5  -5  -5    1.68    0.86
   6  -5  -5   12.84    2.00
   7  -5  -5   32.85    3.78
   8  -5  -5    4.97    1.62
  -9  -4  -5   -0.23    1.38
  -8  -4  -5   14.72    2.30
  -7  -4  -5    6.14    1.64
  -6  -4  -5   11.07    2.08
  -5  -4  -5   -0.40    0.73
  -4  -4  -5   88.51    3.87
  -3  -4  -5    3.75    1.03
  -2  -4  -5    6.59    1.16
  -1  -4  -5   10.51    1.56
   0  -4  -5   -0.02    0.57
   1  -4  -5    6.04    1.45
   2  -4  -5    8.21    1.72
   3  -4  -5    1.87    1.01
   4  -4  -5   85.74    4.67
   5  -4  -5    0.34    0.63
   6  -4  -5    9.15    2.01
   7  -4  -5    4.82    1.56
   8  -4  -5   14.32    3.69
   9  -4  -5    0.23    1.49
 -10  -3  -5    8.85    2.91
  -9  -3  -5   19.25    2.90
  -8  -3  -5   16.94    2.58
  -7  -3  -5   72.81    4.89
  -6  -3  -5   -0.01    0.77
  -5  -3  -5   32.85    3.51
  -4  -3  -5    6.74    1.57
  -3  -3  -5    1.43    0.74
  -2  -3  -5   44.45    3.12
  -1  -3  -5   64.40    3.45
   0  -3  -5   -0.40    0.52
   1  -3  -5   67.12    4.02
   2  -3  -5   43.54    3.82
   3  -3  -5    1.83    0.89
   4  -3  -5    8.42    1.75
   5  -3  -5   41.40    3.12
   6  -3  -5    0.17    0.76
   7  -3  -5   74.21    4.96
   8  -3  -5   16.55    2.65
   9  -3  -5   27.82    3.52
  10  -3  -5   22.21    6.99
 -10  -2  -5    3.63    2.00
  -9  -2  -5    1.49    1.03
  -8  -2  -5    0.24    0.81
  -7  -2  -5   15.72    2.51
  -6  -2  -5    0.69    0.81
  -5  -2  -5    1.60    0.90
  -4  -2  -5   10.74    1.96
  -3  -2  -5    9.19    1.79
  -2  -2  -5   10.61    1.53
  -1  -2  -5   74.14    3.53
   0  -2  -5    0.45    0.57
   1  -2  -5   70.90    4.43
   2  -2  -5   13.32    2.12
   3  -2  -5    7.30    1.59
   4  -2  -5   11.61    1.92
   5  -2  -5    1.16    0.68
   6  -2  -5   -0.16    0.68
   7  -2  -5   12.52    2.21
   8  -2  -5    0.25    0.83
   9  -2  -5    0.98    1.08
  10  -2  -5    4.23    2.21
 -10  -1  -5   28.53    4.69
  -9  -1  -5    0.36    0.93
  -8  -1  -5   12.55    2.27
  -7  -1  -5    0.00    0.74
  -6  -1  -5    0.12    0.71
  -5  -1  -5   82.80    4.95
  -4  -1  -5    6.63    1.58
  -3  -1  -5   17.48    2.38
  -2  -1  -5   22.87    2.74
  -1  -1  -5   -0.12    0.53
   0  -1  -5    0.11    0.50
   1  -1  -5    0.09    0.61
   2  -1  -5   22.87    2.75
   3  -1  -5   19.10    2.48
   4  -1  -5    8.20    1.62
   5  -1  -5   85.59    3.70
   6  -1  -5   -0.32    0.68
   7  -1  -5    0.07    0.77
   8  -1  -5   16.20    2.59
   9  -1  -5    0.11    0.96
  10  -1  -5   32.96    5.54
 -10   0  -5    1.73    1.62
  -9   0  -5    0.00    0.76
  -8   0  -5  118.82    5.82
  -7   0  -5    0.51    0.84
  -6   0  -5    6.33    1.71
  -5   0  -5    0.27    0.74
  -4   0  -5   72.41    4.22
  -3   0  -5    0.44    0.65
  -2   0  -5   50.20    4.07
  -1   0  -5    0.71    0.77
   0   0  -5    7.75    1.34
   1   0  -5   -0.27    0.47
   2   0  -5   55.72    4.20
   3   0  -5   -0.27    0.54
   4   0  -5   68.27    3.96
   5   0  -5   -0.21    0.66
   6   0  -5    4.94    1.32
   7   0  -5   -0.36    0.79
   8   0  -5  109.11    5.60
   9   0  -5    0.51    0.76
  10   0  -5    0.56    1.79
 -10   1  -5   31.40    5.35
  -9   1  -5    0.16    0.87
  -8   1  -5   12.63    2.28
  -7   1  -5    0.93    0.86
  -6   1  -5    0.62    0.78
  -5   1  -5   85.60    4.75
  -4   1  -5    5.21    1.40
  -3   1  -5   17.55    2.42
  -2   1  -5   23.67    2.77
  -1   1  -5    0.40    0.74
   0   1  -5   -0.08    0.53
   1   1  -5   -0.14    0.47
   2   1  -5   21.42    2.54
   3   1  -5   18.51    2.38
   4   1  -5   10.83    1.93
   5   1  -5   79.90    4.40
   6   1  -5   -0.13    0.70
   7   1  -5    0.54    0.93
   8   1  -5   18.31    2.13
   9   1  -5    0.57    1.06
  10   1  -5   19.98    4.39
 -10   2  -5    1.74    1.12
  -9   2  -5    1.84    0.97
  -8   2  -5   -0.27    0.78
  -7   2  -5   16.47    2.45
  -6   2  -5   -0.11    0.70
  -5   2  -5    1.54    1.01
  -4   2  -5   10.82    1.94
  -3   2  -5    6.81    1.66
  -2   2  -5    7.25    1.56
  -1   2  -5   68.88    3.97
   0   2  -5    0.02    0.68
   1   2  -5   66.34    3.10
   2   2  -5   12.82    2.01
   3   2  -5   10.82    1.87
   4   2  -5   11.24    1.54
   5   2  -5    1.33    0.83
   6   2  -5    0.89    0.77
   7   2  -5   16.52    2.01
   8   2  -5    0.33    0.90
   9   2  -5    1.18    1.20
  10   2  -5    5.98    2.56
 -10   3  -5   15.28    3.73
  -9   3  -5   24.49    2.61
  -8   3  -5   17.16    2.15
  -7   3  -5   73.11    4.00
  -6   3  -5   -0.09    0.65
  -5   3  -5   40.97    3.98
  -4   3  -5    6.60    1.62
  -3   3  -5    2.29    1.05
  -2   3  -5   45.45    4.05
  -1   3  -5   77.63    4.25
   0   3  -5    0.65    0.70
   1   3  -5   66.89    3.86
   2   3  -5   46.16    3.80
   3   3  -5    0.44    0.65
   4   3  -5    7.35    1.30
   5   3  -5   35.19    3.49
   6   3  -5    0.36    0.65
   7   3  -5   74.26    4.96
   8   3  -5   16.61    2.74
   9   3  -5   23.52    3.42
  10   3  -5   11.17    3.36
  -9   4  -5    2.02    1.24
  -8   4  -5   14.87    2.08
  -7   4  -5    7.07    1.47
  -6   4  -5   16.36    2.01
  -5   4  -5    0.09    0.64
  -4   4  -5   82.91    4.73
  -3   4  -5    4.07    1.26
  -2   4  -5    5.94    1.53
  -1   4  -5   10.82    1.97
   0   4  -5    2.67    1.05
   1   4  -5    8.03    1.62
   2   4  -5    7.21    1.23
   3   4  -5    3.54    1.12
   4   4  -5   84.41    4.36
   5   4  -5    0.10    0.63
   6   4  -5   10.78    2.17
   7   4  -5    4.83    1.42
   8   4  -5   15.13    2.03
   9   4  -5    2.50    1.15
  -9   5  -5    5.43    2.41
  -8   5  -5    6.05    1.40
  -7   5  -5   33.21    2.96
  -6   5  -5   14.65    1.96
  -5   5  -5    0.89    0.69
  -4   5  -5    0.28    0.67
  -3   5  -5   28.97    2.66
  -2   5  -5   62.75    4.78
  -1   5  -5    1.40    0.90
   0   5  -5    0.42    0.71
   1   5  -5    4.69    1.39
   2   5  -5   63.04    3.49
   3   5  -5   24.53    2.81
   4   5  -5   -0.17    1.74
   7   5  -5   29.14    5.39
   8   5  -5    5.43    1.79
   9   5  -5    3.37    1.43
  -8   6  -5   18.70    3.19
  -7   6  -5    4.41    1.17
  -6   6  -5    0.76    0.70
  -5   6  -5    6.85    1.31
  -4   6  -5    0.76    0.74
  -3   6  -5    0.73    0.67
  -2   6  -5    1.13    0.75
  -1   6  -5   74.99    3.65
   0   6  -5   28.44    3.25
   1   6  -5   75.54    4.31
   2   6  -5    0.13    0.73
   3   6  -5    1.15    1.23
  -7   7  -5    7.31    2.00
  -6   7  -5    6.45    1.72
  -5   7  -5   99.86    5.22
  -4   7  -5    1.59    0.98
  -3   7  -5    5.28    1.50
  -2   7  -5    3.17    1.23
  -1   7  -5    0.72    0.75
   0   7  -5    0.03    0.65
   1   7  -5    0.61    0.86
   2   7  -5    1.60    1.04
   3   7  -5   -0.03    2.16
  -6   8  -5    1.03    0.98
  -5   8  -5    7.18    1.76
  -4   8  -5    9.55    1.97
  -3   8  -5    9.97    2.00
  -2   8  -5   23.95    3.12
  -1   8  -5    7.95    1.88
   0   8  -5    9.48    1.94
   1   8  -5   11.92    1.79
   2   8  -5   25.49    3.22
   3   8  -5   10.27    2.97
  -5   9  -5   27.89    4.62
  -4   9  -5    1.00    1.00
  -3   9  -5    0.20    1.00
  -2   9  -5   59.90    4.91
  -1   9  -5   14.10    2.43
   0   9  -5   -0.02    0.95
   1   9  -5   13.22    2.38
   2   9  -5   56.13    3.78
   3   9  -5   -0.95    1.12
  -3  10  -5    1.59    1.69
  -2  10  -5   -0.79    0.93
  -1  10  -5   25.49    3.22
   0  10  -5   10.37    2.15
   1  10  -5   21.90    2.96
   2  10  -5    0.04    0.95
   3  10  -5    1.05    1.12
   0  11  -5    0.53    1.37
   1  11  -5   19.47    4.63
  -3 -14  -4    0.11    1.71
   3 -14  -4    1.09    1.74
  -5 -13  -4   49.97    4.79
  -4 -13  -4   18.20    2.89
  -3 -13  -4    1.02    1.12
  -2 -13  -4    3.55    2.18
  -1 -13  -4    1.50    1.93
   0 -13  -4    0.24    1.56
   1 -13  -4    2.28    1.35
   2 -13  -4    3.02    1.46
   3 -13  -4    2.67    1.42
   4 -13  -4   14.99    2.73
   5 -13  -4   62.55    5.74
  -7 -12  -4   12.25    3.37
  -6 -12  -4    9.72    2.23
  -5 -12  -4    2.18    1.15
  -4 -12  -4    8.17    1.91
  -3 -12  -4   11.24    2.27
  -2 -12  -4   34.02    3.75
  -1 -12  -4   20.12    4.26
   0 -12  -4   16.88    2.63
   1 -12  -4   17.93    2.72
   2 -12  -4   25.30    3.25
   3 -12  -4   13.80    2.42
   4 -12  -4    5.21    1.74
   5 -12  -4    0.47    1.13
   6 -12  -4    7.12    2.00
   7 -12  -4   28.09    5.30
  -8 -11  -4    0.69    1.42
  -7 -11  -4    0.96    1.16
  -6 -11  -4    1.04    1.03
  -5 -11  -4    1.19    1.16
  -4 -11  -4    3.14    1.28
  -3 -11  -4   17.91    2.66
  -2 -11  -4   12.63    1.77
  -1 -11  -4   58.90    4.65
   0 -11  -4   -0.07    0.79
   1 -11  -4   58.33    4.78
   2 -11  -4    8.43    1.92
   3 -11  -4   19.80    2.27
   4 -11  -4    3.83    1.14
   5 -11  -4    2.56    1.05
   6 -11  -4    0.70    0.89
   7 -11  -4    2.65    1.14
   8 -11  -4    1.15    1.68
  -9 -10  -4    3.69    3.26
  -8 -10  -4    4.69    1.62
  -7 -10  -4    3.92    1.37
  -6 -10  -4    8.74    1.87
  -5 -10  -4    2.38    1.16
  -4 -10  -4   45.58    4.13
  -3 -10  -4   33.04    2.78
  -2 -10  -4   13.55    1.76
  -1 -10  -4   14.35    1.85
   0 -10  -4    2.29    1.02
   1 -10  -4   14.41    2.20
   2 -10  -4   11.99    2.14
   3 -10  -4   39.15    3.98
   4 -10  -4   43.04    3.32
   5 -10  -4    1.80    0.88
   6 -10  -4   10.53    1.69
   7 -10  -4    8.55    1.68
   8 -10  -4    3.48    1.35
   9 -10  -4    2.32    2.06
  -9  -9  -4   -0.87    1.05
  -8  -9  -4    1.78    0.98
  -7  -9  -4   28.14    3.21
  -6  -9  -4   75.47    4.90
  -5  -9  -4    7.25    1.65
  -4  -9  -4    4.01    1.07
  -3  -9  -4   25.60    2.32
  -2  -9  -4   17.67    1.98
  -1  -9  -4    1.55    0.74
   0  -9  -4   -0.28    0.66
   1  -9  -4   -0.07    0.68
   2  -9  -4   12.76    2.05
   3  -9  -4   30.80    3.37
   4  -9  -4    0.77    0.71
   5  -9  -4   10.87    1.66
   6  -9  -4   76.68    4.24
   7  -9  -4   24.58    2.53
   8  -9  -4    0.66    1.01
   9  -9  -4    0.85    1.13
  10  -9  -4   18.96    4.50
 -10  -8  -4   38.30    5.67
  -9  -8  -4    5.99    1.57
  -8  -8  -4   25.09    3.16
  -7  -8  -4   16.08    2.38
  -6  -8  -4   10.84    1.50
  -5  -8  -4   14.15    1.76
  -4  -8  -4    1.90    0.69
  -3  -8  -4   33.97    2.64
  -2  -8  -4   -0.09    0.48
  -1  -8  -4   28.61    2.41
   0  -8  -4  105.62    3.90
   1  -8  -4   24.63    2.82
   2  -8  -4   -0.24    0.50
   3  -8  -4   30.16    3.18
   4  -8  -4    1.47    0.73
   5  -8  -4   11.64    1.71
   6  -8  -4    7.70    1.41
   7  -8  -4   17.77    2.17
   8  -8  -4   22.71    3.10
   9  -8  -4    5.60    1.74
  10  -8  -4   35.24    4.03
 -11  -7  -4    7.65    2.84
 -10  -7  -4   -0.39    0.91
  -9  -7  -4   35.20    3.52
  -8  -7  -4    5.50    1.33
  -7  -7  -4   24.59    2.32
  -6  -7  -4    5.66    1.14
  -5  -7  -4   12.81    1.61
  -4  -7  -4    4.42    1.01
  -3  -7  -4   73.93    3.34
  -2  -7  -4    6.84    1.17
  -1  -7  -4   19.49    1.94
   0  -7  -4    0.21    0.46
   1  -7  -4   18.10    2.34
   2  -7  -4    5.75    1.36
   3  -7  -4   73.93    4.11
   4  -7  -4    2.64    1.04
   5  -7  -4    9.40    1.39
   6  -7  -4    4.95    1.17
   7  -7  -4   25.39    2.48
   8  -7  -4    9.23    2.06
   9  -7  -4   35.11    3.71
  10  -7  -4    0.28    0.94
  11  -7  -4    5.91    1.72
 -11  -6  -4    0.49    1.25
 -10  -6  -4   10.81    2.88
  -9  -6  -4   19.67    2.70
  -8  -6  -4   40.52    3.75
  -7  -6  -4   44.53    3.87
  -6  -6  -4    1.49    0.84
  -5  -6  -4   29.45    2.41
  -4  -6  -4    0.71    0.53
  -3  -6  -4  134.00    4.31
  -2  -6  -4   30.11    2.34
  -1  -6  -4    0.00    0.40
   0  -6  -4   55.40    2.66
   1  -6  -4    0.59    0.64
   2  -6  -4   29.84    2.95
   3  -6  -4  129.22    5.41
   4  -6  -4    1.62    0.83
   5  -6  -4   30.84    2.61
   6  -6  -4    2.68    0.91
   7  -6  -4   52.99    3.56
   8  -6  -4   33.88    3.59
   9  -6  -4   16.83    2.61
  10  -6  -4    9.14    2.13
  11  -6  -4    0.27    1.04
  12  -6  -4   -0.30    1.91
 -12  -5  -4    1.55    1.58
 -11  -5  -4    7.57    2.58
 -10  -5  -4   21.42    2.71
  -9  -5  -4   25.71    3.00
  -8  -5  -4   -0.20    0.60
  -7  -5  -4    4.26    1.23
  -6  -5  -4   89.40    4.47
  -5  -5  -4    9.14    1.61
  -4  -5  -4   10.94    1.83
  -3  -5  -4    0.66    0.50
  -2  -5  -4   48.77    2.76
  -1  -5  -4   31.49    2.36
   0  -5  -4    0.06    0.37
   1  -5  -4   26.73    2.14
   2  -5  -4   57.37    3.72
   3  -5  -4    0.12    0.54
   4  -5  -4   10.96    1.80
   5  -5  -4    6.59    1.16
   6  -5  -4   86.74    3.64
   7  -5  -4    6.33    1.20
   8  -5  -4   -0.16    0.71
   9  -5  -4   28.25    3.46
  10  -5  -4   21.12    2.91
  11  -5  -4    4.58    1.48
  12  -5  -4    0.45    0.92
 -13  -4  -4    1.90    1.75
 -12  -4  -4   96.66    5.29
 -11  -4  -4    2.74    1.26
 -10  -4  -4    7.52    1.60
  -9  -4  -4    1.08    0.86
  -8  -4  -4   -0.08    0.64
  -7  -4  -4    1.21    0.80
  -6  -4  -4   25.76    2.75
  -5  -4  -4    5.44    1.26
  -4  -4  -4   45.88    3.63
  -3  -4  -4    1.11    0.68
  -2  -4  -4   75.99    3.07
  -1  -4  -4    0.38    0.41
   0  -4  -4   54.55    2.68
   1  -4  -4    0.89    0.42
   2  -4  -4   85.30    4.06
   3  -4  -4    2.51    0.94
   4  -4  -4   48.10    3.32
   5  -4  -4    2.95    0.79
   6  -4  -4   29.76    2.53
   7  -4  -4    1.55    0.86
   8  -4  -4   -0.20    0.66
   9  -4  -4    1.63    0.96
  10  -4  -4    7.24    1.89
  11  -4  -4    5.16    1.65
  12  -4  -4   98.59    4.75
  13  -4  -4    0.19    1.62
 -13  -3  -4   14.59    3.63
 -12  -3  -4    1.16    1.04
 -11  -3  -4    5.68    1.50
 -10  -3  -4    0.68    0.67
  -9  -3  -4   99.19    3.89
  -8  -3  -4   19.44    1.98
  -7  -3  -4    7.35    1.54
  -6  -3  -4   85.83    4.27
  -5  -3  -4    3.11    0.92
  -4  -3  -4   16.71    2.11
  -3  -3  -4   30.33    2.80
  -2  -3  -4    1.43    0.69
  -1  -3  -4   81.20    3.09
   0  -3  -4    0.13    0.38
   1  -3  -4   79.60    2.96
   2  -3  -4    1.17    0.51
   3  -3  -4   30.90    2.78
   4  -3  -4   12.99    1.84
   5  -3  -4    2.70    0.75
   6  -3  -4   91.76    3.55
   7  -3  -4    6.59    1.48
   8  -3  -4   15.70    2.38
   9  -3  -4  102.18    5.23
  10  -3  -4    0.49    0.97
  11  -3  -4    4.53    1.21
  12  -3  -4    0.53    0.85
  13  -3  -4    9.41    2.97
 -13  -2  -4    1.74    1.20
 -12  -2  -4    7.66    1.85
 -11  -2  -4    6.51    1.50
 -10  -2  -4    8.92    1.41
  -9  -2  -4   30.48    2.54
  -8  -2  -4    1.22    0.61
  -7  -2  -4   38.72    2.72
  -6  -2  -4   15.85    1.67
  -5  -2  -4   21.91    2.46
  -4  -2  -4   85.14    4.04
  -3  -2  -4   74.02    3.69
  -2  -2  -4    8.25    1.44
  -1  -2  -4   -0.07    0.41
   0  -2  -4    0.84    0.45
   1  -2  -4   -0.01    0.35
   2  -2  -4    6.26    0.94
   3  -2  -4   71.21    3.55
   4  -2  -4   77.40    3.80
   5  -2  -4   25.36    2.13
   6  -2  -4   17.86    1.83
   7  -2  -4   42.62    3.78
   8  -2  -4    0.85    0.73
   9  -2  -4   31.44    3.49
  10  -2  -4    8.94    2.04
  11  -2  -4    3.06    1.03
  12  -2  -4    8.83    1.70
 -13  -1  -4   29.30    3.54
 -12  -1  -4   12.21    2.20
 -11  -1  -4   12.81    1.74
 -10  -1  -4    0.13    0.58
  -9  -1  -4    3.85    0.89
  -8  -1  -4   -0.49    0.42
  -7  -1  -4    2.00    0.67
  -6  -1  -4   78.81    3.18
  -5  -1  -4   14.14    1.55
  -4  -1  -4   46.47    2.89
  -3  -1  -4   64.71    3.46
  -2  -1  -4   14.69    1.96
  -1  -1  -4    2.84    0.87
   0  -1  -4   -0.13    0.37
   1  -1  -4    2.63    0.68
   2  -1  -4   12.82    1.36
   3  -1  -4   67.70    3.43
   4  -1  -4   50.14    2.93
   5  -1  -4   12.38    1.49
   6  -1  -4   84.23    3.26
   7  -1  -4    1.14    0.72
   8  -1  -4    0.91    0.71
   9  -1  -4   11.04    1.99
  10  -1  -4   -0.02    0.60
  11  -1  -4   13.47    1.83
  12  -1  -4    8.18    2.03
  13  -1  -4   19.57    5.11
 -13   0  -4   -0.09    0.94
 -12   0  -4   36.52    3.79
 -11   0  -4   -0.57    0.58
 -10   0  -4   98.43    3.95
  -9   0  -4   -0.09    0.49
  -8   0  -4   67.00    3.30
  -7   0  -4   -0.21    0.42
  -6   0  -4    0.17    0.42
  -5   0  -4   -0.05    0.32
  -4   0  -4    2.42    0.67
  -3   0  -4   -0.22    0.31
  -2   0  -4    0.80    0.57
  -1   0  -4    0.59    0.48
   0   0  -4  561.10   12.20
   1   0  -4   -0.25    0.27
   2   0  -4    0.87    0.44
   3   0  -4    0.26    0.38
   4   0  -4    1.77    0.69
   5   0  -4   -0.07    0.33
   6   0  -4    0.00    0.55
   7   0  -4   -0.30    0.48
   8   0  -4   77.36    4.14
   9   0  -4   -0.11    0.71
  10   0  -4   93.47    4.10
  11   0  -4    0.89    0.86
  12   0  -4   29.59    3.64
  13   0  -4   -1.17    1.14
 -13   1  -4   26.45    3.18
 -12   1  -4    9.98    2.00
 -11   1  -4   10.15    1.57
 -10   1  -4   -0.03    0.52
  -9   1  -4    7.19    1.20
  -8   1  -4    0.19    0.50
  -7   1  -4    4.46    0.98
  -6   1  -4   79.81    3.24
  -5   1  -4   12.51    1.48
  -4   1  -4   44.75    2.50
  -3   1  -4   68.81    2.76
  -2   1  -4   15.15    1.48
  -1   1  -4    1.99    0.55
   0   1  -4    0.03    0.35
   1   1  -4    1.48    0.67
   2   1  -4   14.21    1.47
   3   1  -4   69.58    2.63
   4   1  -4   48.87    3.02
   5   1  -4   15.12    1.56
   6   1  -4   74.96    3.82
   7   1  -4    4.60    1.21
   8   1  -4   -0.01    0.60
   9   1  -4    7.54    1.33
  10   1  -4    0.60    0.73
  11   1  -4   11.00    2.25
  12   1  -4   10.05    2.27
  13   1  -4   15.71    4.10
 -13   2  -4    1.61    1.18
 -12   2  -4    6.49    1.67
 -11   2  -4    2.74    0.95
 -10   2  -4    9.97    1.60
  -9   2  -4   25.24    2.30
  -8   2  -4    1.86    0.74
  -7   2  -4   44.59    2.98
  -6   2  -4   22.05    2.02
  -5   2  -4   26.11    2.17
  -4   2  -4   77.22    3.10
  -3   2  -4   66.84    2.77
  -2   2  -4    8.43    1.15
  -1   2  -4    0.46    0.35
   0   2  -4    0.38    0.40
   1   2  -4   -0.18    0.39
   2   2  -4    6.70    1.02
   3   2  -4   68.46    2.66
   4   2  -4   76.55    3.55
   5   2  -4   26.45    2.05
   6   2  -4   18.97    2.27
   7   2  -4   42.94    3.48
   8   2  -4    1.29    0.65
   9   2  -4   30.79    3.45
  10   2  -4    7.50    1.77
  11   2  -4    2.93    1.27
  12   2  -4    8.20    2.02
  13   2  -4    2.90    2.07
 -13   3  -4   16.20    3.69
 -12   3  -4    0.62    0.92
 -11   3  -4    8.10    1.44
 -10   3  -4    1.17    0.73
  -9   3  -4   98.69    4.01
  -8   3  -4   15.77    1.83
  -7   3  -4    6.27    1.15
  -6   3  -4   85.30    3.47
  -5   3  -4    3.06    0.83
  -4   3  -4   15.65    1.68
  -3   3  -4   32.55    2.35
  -2   3  -4    0.89    0.46
  -1   3  -4   81.26    3.03
   0   3  -4    0.24    0.37
   1   3  -4   77.60    2.85
   2   3  -4    1.21    0.48
   3   3  -4   32.44    2.20
   4   3  -4   14.54    1.37
   5   3  -4    2.14    0.62
   6   3  -4   91.00    3.44
   7   3  -4    7.66    1.24
   8   3  -4   23.03    2.88
   9   3  -4   96.92    5.09
  10   3  -4    1.54    1.03
  11   3  -4   10.41    2.19
  12   3  -4   -0.20    1.08
  13   3  -4   14.41    4.02
 -13   4  -4    0.33    1.84
 -12   4  -4  107.14    4.52
 -11   4  -4    3.42    1.09
 -10   4  -4    9.16    1.48
  -9   4  -4    0.71    0.73
  -8   4  -4    1.14    0.85
  -7   4  -4    1.59    0.79
  -6   4  -4   25.57    2.72
  -5   4  -4    4.35    1.12
  -4   4  -4   41.01    3.36
  -3   4  -4    1.91    0.80
  -2   4  -4   77.40    3.70
  -1   4  -4    0.28    0.48
   0   4  -4   61.72    2.60
   1   4  -4    0.54    0.43
   2   4  -4   77.88    2.92
   3   4  -4    1.25    0.37
   4   4  -4   50.20    1.68
   5   4  -4    3.34    0.75
   6   4  -4   32.81    2.47
   7   4  -4    1.55    0.83
   8   4  -4    1.43    0.88
   9   4  -4    2.52    1.15
  10   4  -4    7.92    1.87
  11   4  -4    1.35    1.19
  12   4  -4  105.34    5.99
  13   4  -4   -0.83    1.90
 -12   5  -4    2.50    1.03
 -11   5  -4    6.79    1.66
 -10   5  -4   24.01    2.93
  -9   5  -4   21.84    2.73
  -8   5  -4   -0.05    0.70
  -7   5  -4    7.85    1.57
  -6   5  -4   93.01    4.46
  -5   5  -4    7.15    1.42
  -4   5  -4   11.47    1.80
  -3   5  -4    0.17    0.43
  -2   5  -4   57.98    3.51
  -1   5  -4   27.62    2.66
   0   5  -4    0.22    0.47
   1   5  -4   28.12    2.67
   2   5  -4   56.58    2.15
   3   5  -4    0.06    0.26
   4   5  -4   10.23    0.77
   5   5  -4    8.77    0.87
   6   5  -4   94.60    3.62
   7   5  -4    3.64    0.95
   8   5  -4    0.45    0.58
   9   5  -4   24.54    2.48
  10   5  -4   20.48    2.29
  11   5  -4   11.10    2.29
  12   5  -4    2.83    1.26
 -12   6  -4    0.72    1.68
 -11   6  -4    1.42    1.10
 -10   6  -4   13.06    2.09
  -9   6  -4   15.67    2.37
  -8   6  -4   40.01    3.67
  -7   6  -4   44.93    3.84
  -6   6  -4    3.85    1.16
  -5   6  -4   36.75    3.37
  -4   6  -4    0.42    0.56
  -3   6  -4  134.54    5.28
  -2   6  -4   30.56    2.90
  -1   6  -4    0.49    0.50
   0   6  -4   52.75    3.37
   1   6  -4    0.45    0.44
   2   6  -4   35.86    2.40
   3   6  -4  133.97    4.04
   4   6  -4    0.85    0.38
   5   6  -4   33.78    2.14
   6   6  -4    1.58    0.71
   7   6  -4   40.83    3.61
   8   6  -4   42.19    3.95
   9   6  -4   13.66    2.32
  10   6  -4   16.30    2.65
  11   6  -4    0.17    0.94
  12   6  -4   -0.33    1.62
 -11   7  -4    9.24    1.99
 -10   7  -4   -0.13    0.77
  -9   7  -4   37.18    3.62
  -8   7  -4    9.00    1.81
  -7   7  -4   25.34    2.85
  -6   7  -4    7.41    1.64
  -5   7  -4   11.19    1.86
  -4   7  -4    2.91    1.05
  -3   7  -4   80.56    4.10
  -2   7  -4    4.26    1.14
  -1   7  -4   18.44    2.32
   0   7  -4   -0.12    0.41
   1   7  -4   17.08    1.72
   2   7  -4    7.02    1.03
   3   7  -4   74.61    3.04
   4   7  -4    4.32    0.95
   5   7  -4   16.30    1.76
   6   7  -4    6.47    1.23
   7   7  -4   25.91    2.41
   8   7  -4    7.72    1.73
   9   7  -4   45.31    4.07
  10   7  -4    0.15    0.92
  11   7  -4    6.13    1.61
 -11   8  -4    9.71    2.77
 -10   8  -4   34.82    3.74
  -9   8  -4    3.12    1.20
  -8   8  -4   22.07    2.91
  -7   8  -4   15.85    3.32
  -6   8  -4    9.49    1.80
  -5   8  -4   11.76    1.99
  -4   8  -4    0.58    0.75
  -3   8  -4   32.19    3.20
  -2   8  -4   -0.08    0.51
  -1   8  -4   30.77    2.37
   0   8  -4  106.90    3.80
   1   8  -4   29.10    2.28
   2   8  -4   -0.09    0.47
   3   8  -4   28.85    2.86
   4   8  -4    2.49    0.74
   5   8  -4   14.34    1.76
   6   8  -4    7.42    1.55
   7   8  -4   20.57    2.68
   8   8  -4   22.75    2.36
   9   8  -4    2.85    1.32
  10   8  -4   36.14    4.03
  11   8  -4    7.71    2.62
 -10   9  -4   14.69    3.55
  -9   9  -4    0.47    0.82
  -8   9  -4    0.07    0.87
  -7   9  -4   19.37    2.56
  -6   9  -4   75.07    4.32
  -5   9  -4    9.25    1.87
  -4   9  -4    3.21    1.10
  -3   9  -4   22.71    2.67
  -2   9  -4   19.25    2.03
  -1   9  -4    1.11    0.66
   0   9  -4    0.04    0.44
   1   9  -4    0.81    0.65
   2   9  -4   16.10    2.18
   3   9  -4   22.68    2.61
   4   9  -4    2.71    1.03
   5   9  -4    7.88    1.31
   6   9  -4   71.56    4.15
   7   9  -4   26.13    3.08
   8   9  -4    0.07    0.89
   9   9  -4   -0.23    0.83
  10   9  -4   13.89    2.14
  -9  10  -4    7.74    2.72
  -8  10  -4    2.44    1.15
  -7  10  -4    5.49    1.60
  -6  10  -4   10.52    2.00
  -5  10  -4    1.57    0.99
  -4  10  -4   44.52    4.00
  -3  10  -4   30.99    2.59
  -2  10  -4   13.02    1.74
  -1  10  -4   15.94    1.85
   0  10  -4    2.57    1.04
   1  10  -4   19.47    2.46
   2  10  -4   12.66    1.97
   3  10  -4   37.33    3.44
   4  10  -4   45.44    3.94
   5  10  -4    3.19    0.95
   6  10  -4    9.34    1.87
   7  10  -4    7.78    1.75
   8  10  -4    1.33    1.07
   9  10  -4    5.80    1.66
  -8  11  -4   -0.39    1.07
  -7  11  -4    3.62    1.36
  -6  11  -4   -0.49    0.74
  -5  11  -4    0.98    0.90
  -4  11  -4    4.93    1.15
  -3  11  -4   17.55    2.00
  -2  11  -4   11.42    1.66
  -1  11  -4   49.96    3.40
   0  11  -4    0.20    0.67
   1  11  -4   53.62    3.70
   2  11  -4   12.52    2.02
   3  11  -4   15.94    2.35
   4  11  -4    4.90    1.55
   5  11  -4    2.35    1.12
   6  11  -4    0.00    0.62
   7  11  -4    3.32    1.29
   8  11  -4    0.54    0.93
  -6  12  -4    5.47    1.60
  -5  12  -4    1.93    0.96
  -4  12  -4    4.84    1.14
  -3  12  -4    9.70    1.54
  -2  12  -4   32.10    2.83
  -1  12  -4   18.20    2.49
   0  12  -4   22.26    2.81
   1  12  -4   20.04    2.73
   2  12  -4   33.04    3.42
   3  12  -4   14.55    2.32
   4  12  -4    4.96    1.37
   5  12  -4    1.99    1.20
   6  12  -4    7.91    1.53
   7  12  -4   18.62    2.95
  -5  13  -4   68.71    8.51
  -4  13  -4   18.91    2.25
  -3  13  -4    2.89    1.07
  -2  13  -4    3.49    1.13
  -1  13  -4    2.52    1.20
   0  13  -4   -0.25    0.80
   1  13  -4    0.84    0.94
   2  13  -4    2.24    1.20
   3  13  -4    1.84    1.10
   4  13  -4   16.02    2.57
   5  13  -4   64.54    5.47
  -3  14  -4    1.14    1.55
  -2  14  -4    3.27    1.91
  -1  14  -4   10.40    3.12
   0  14  -4   79.14    6.81
   1  14  -4   10.04    2.91
   2  14  -4    1.94    1.73
  -3 -16  -3   20.15    3.29
  -2 -16  -3   20.16    3.25
  -1 -16  -3   18.54    4.57
   0 -16  -3   33.67    6.66
   1 -16  -3   13.39    5.95
  -6 -15  -3   24.58    4.83
  -5 -15  -3   42.21    4.34
  -4 -15  -3   12.82    2.24
  -3 -15  -3    7.78    2.04
  -2 -15  -3    2.57    1.34
  -1 -15  -3   -0.35    0.90
   0 -15  -3    1.38    1.64
   1 -15  -3    0.65    1.44
   2 -15  -3    4.51    2.41
   3 -15  -3    5.98    2.63
   4 -15  -3    9.10    2.38
   5 -15  -3   45.35    4.72
   6 -15  -3   39.45    6.39
  -7 -14  -3   -0.13    1.29
  -6 -14  -3    0.34    1.00
  -5 -14  -3    0.18    0.95
  -4 -14  -3   28.64    3.49
  -3 -14  -3    0.32    0.96
  -2 -14  -3    2.98    1.31
  -1 -14  -3   12.10    2.26
   0 -14  -3   54.54    7.02
   1 -14  -3   10.13    3.22
   2 -14  -3    5.59    1.67
   3 -14  -3    1.08    1.15
   4 -14  -3   29.98    3.72
   5 -14  -3    1.93    1.25
   6 -14  -3   -0.97    1.10
   7 -14  -3   -0.41    1.20
   8 -14  -3   39.49    6.46
  -8 -13  -3   16.67    3.68
  -7 -13  -3    3.23    1.30
  -6 -13  -3    0.01    0.85
  -5 -13  -3    0.93    0.87
  -4 -13  -3    5.96    1.60
  -3 -13  -3   59.22    4.73
  -2 -13  -3   24.78    3.15
  -1 -13  -3    0.03    0.82
   0 -13  -3    0.26    0.80
   1 -13  -3    0.16    0.77
   2 -13  -3   29.06    3.40
   3 -13  -3   69.96    5.37
   4 -13  -3    6.08    1.72
   5 -13  -3    1.66    1.18
   6 -13  -3    0.89    1.04
   7 -13  -3    5.63    1.87
   8 -13  -3   17.96    3.13
   9 -13  -3    7.93    2.58
 -10 -12  -3   25.06    6.97
  -9 -12  -3    2.16    1.66
  -8 -12  -3    5.06    2.11
  -7 -12  -3   19.92    2.90
  -6 -12  -3   -0.37    0.66
  -5 -12  -3    7.68    1.78
  -4 -12  -3   29.59    3.28
  -3 -12  -3   18.29    2.55
  -2 -12  -3    5.53    1.50
  -1 -12  -3    1.82    0.94
   0 -12  -3   27.30    2.39
   1 -12  -3    1.48    0.92
   2 -12  -3    3.87    1.32
   3 -12  -3   19.06    2.72
   4 -12  -3   38.30    3.76
   5 -12  -3   10.91    2.20
   6 -12  -3    0.52    0.94
   7 -12  -3   16.89    2.74
   8 -12  -3    4.93    1.59
   9 -12  -3    3.79    1.68
  10 -12  -3   20.22    7.19
 -11 -11  -3    1.17    2.19
 -10 -11  -3    3.73    2.10
  -9 -11  -3   28.12    4.98
  -8 -11  -3    0.35    1.09
  -7 -11  -3   83.23    4.71
  -6 -11  -3   28.67    3.25
  -5 -11  -3   19.13    2.61
  -4 -11  -3   12.24    2.10
  -3 -11  -3    0.39    0.62
  -2 -11  -3   12.44    1.59
  -1 -11  -3   57.20    2.93
   0 -11  -3    0.37    0.51
   1 -11  -3   55.57    3.73
   2 -11  -3   14.27    2.11
   3 -11  -3    0.05    0.58
   4 -11  -3   13.05    1.63
   5 -11  -3   18.75    2.08
   6 -11  -3   32.96    2.83
   7 -11  -3   94.24    4.15
   8 -11  -3    0.51    0.75
   9 -11  -3   28.57    3.19
  10 -11  -3    1.40    1.44
  11 -11  -3   -0.38    1.76
 -11 -10  -3   33.28    5.40
 -10 -10  -3    1.20    1.33
  -9 -10  -3    4.93    2.13
  -8 -10  -3    4.20    1.34
  -7 -10  -3    0.52    0.74
  -6 -10  -3   18.93    2.37
  -5 -10  -3    1.02    0.75
  -4 -10  -3   86.93    4.41
  -3 -10  -3    6.53    1.14
  -2 -10  -3    0.33    0.44
  -1 -10  -3   50.64    2.67
   0 -10  -3   22.73    2.07
   1 -10  -3   54.80    2.96
   2 -10  -3    0.36    0.58
   3 -10  -3    8.99    1.32
   4 -10  -3   85.94    3.55
   5 -10  -3    3.98    0.95
   6 -10  -3   22.48    2.32
   7 -10  -3    0.79    0.73
   8 -10  -3    7.72    1.51
   9 -10  -3    5.45    1.69
  10 -10  -3    0.75    1.16
  11 -10  -3   47.52    4.83
  12 -10  -3   12.74    3.87
 -13  -9  -3    1.31    1.60
 -12  -9  -3    4.03    2.08
 -11  -9  -3   -0.07    1.14
 -10  -9  -3   27.08    4.65
  -9  -9  -3   49.31    6.07
  -8  -9  -3   32.10    3.27
  -7  -9  -3    3.16    1.12
  -6  -9  -3   17.38    2.34
  -5  -9  -3   67.97    3.86
  -4  -9  -3    0.17    0.43
  -3  -9  -3    0.24    0.40
  -2  -9  -3  129.60    4.09
  -1  -9  -3   25.39    2.12
   0  -9  -3    0.49    0.44
   1  -9  -3   28.61    2.24
   2  -9  -3  126.08    5.18
   3  -9  -3    0.61    0.62
   4  -9  -3    0.33    0.50
   5  -9  -3   74.08    3.43
   6  -9  -3   19.18    2.06
   7  -9  -3    2.70    0.92
   8  -9  -3   33.65    2.89
   9  -9  -3   56.21    4.76
  10  -9  -3   26.65    3.46
  11  -9  -3    1.46    1.32
  12  -9  -3    4.82    1.79
  13  -9  -3    1.80    2.00
 -13  -8  -3    2.62    1.28
 -12  -8  -3    6.27    1.65
 -11  -8  -3   19.13    2.61
 -10  -8  -3    2.12    1.03
  -9  -8  -3   16.71    2.20
  -8  -8  -3   58.11    3.86
  -7  -8  -3   19.28    2.34
  -6  -8  -3    1.00    0.66
  -5  -8  -3   25.61    2.10
  -4  -8  -3   26.24    2.09
  -3  -8  -3   26.45    2.09
  -2  -8  -3   56.71    2.52
  -1  -8  -3   27.57    2.10
   0  -8  -3   22.18    1.86
   1  -8  -3   26.70    2.07
   2  -8  -3   58.11    2.52
   3  -8  -3   18.84    2.31
   4  -8  -3   25.38    2.20
   5  -8  -3   21.63    2.07
   6  -8  -3    0.43    0.54
   7  -8  -3   17.89    1.94
   8  -8  -3   56.44    3.34
   9  -8  -3   19.08    2.66
  10  -8  -3    1.29    0.94
  11  -8  -3   15.02    2.56
  12  -8  -3    5.63    1.71
  13  -8  -3    2.11    1.11
 -14  -7  -3    0.00    1.45
 -13  -7  -3   66.09    4.58
 -12  -7  -3   -0.04    0.75
 -11  -7  -3    4.21    1.31
 -10  -7  -3    1.10    0.79
  -9  -7  -3    0.78    0.58
  -8  -7  -3   12.12    1.49
  -7  -7  -3   17.23    1.68
  -6  -7  -3   13.16    1.46
  -5  -7  -3  205.25    5.20
  -4  -7  -3    3.44    0.73
  -3  -7  -3   13.22    1.41
  -2  -7  -3    8.76    1.17
  -1  -7  -3    3.62    0.79
   0  -7  -3   -0.01    0.32
   1  -7  -3    3.53    0.74
   2  -7  -3    7.51    1.05
   3  -7  -3   17.34    2.05
   4  -7  -3    3.63    0.84
   5  -7  -3  201.95    5.48
   6  -7  -3   12.92    1.58
   7  -7  -3   19.65    1.99
   8  -7  -3   14.39    1.72
   9  -7  -3    2.12    1.03
  10  -7  -3    0.15    0.70
  11  -7  -3    6.41    1.75
  12  -7  -3   -0.71    0.92
  13  -7  -3   68.28    4.68
  14  -7  -3    0.26    1.61
 -14  -6  -3    0.46    0.92
 -13  -6  -3   58.88    4.79
 -12  -6  -3    4.27    1.37
 -11  -6  -3   77.73    4.34
 -10  -6  -3   16.55    2.32
  -9  -6  -3    0.52    0.51
  -8  -6  -3   32.10    2.42
  -7  -6  -3   15.23    1.58
  -6  -6  -3    1.41    0.54
  -5  -6  -3   13.29    1.53
  -4  -6  -3    0.38    0.36
  -3  -6  -3    0.67    0.40
  -2  -6  -3    2.19    0.60
  -1  -6  -3  185.45    4.59
   0  -6  -3   75.72    2.69
   1  -6  -3  181.93    4.51
   2  -6  -3    2.15    0.55
   3  -6  -3    1.80    0.75
   4  -6  -3    0.10    0.39
   5  -6  -3   14.01    1.53
   6  -6  -3    1.53    0.59
   7  -6  -3   10.46    1.38
   8  -6  -3   37.11    2.75
   9  -6  -3   -0.51    0.57
  10  -6  -3   11.29    2.10
  11  -6  -3   88.96    5.19
  12  -6  -3    5.64    1.38
  13  -6  -3   50.75    3.94
  14  -6  -3    0.33    0.91
 -14  -5  -3   21.53    2.97
 -13  -5  -3    1.90    1.05
 -12  -5  -3    8.32    1.74
 -11  -5  -3   10.41    1.84
 -10  -5  -3   53.37    4.13
  -9  -5  -3    7.54    1.12
  -8  -5  -3   12.21    1.44
  -7  -5  -3   74.77    2.89
  -6  -5  -3   33.81    2.05
  -5  -5  -3    2.33    0.61
  -4  -5  -3    3.07    0.62
  -3  -5  -3   70.30    3.29
  -2  -5  -3  142.26    3.88
  -1  -5  -3    7.15    0.93
   0  -5  -3   -0.01    0.29
   1  -5  -3    7.89    1.02
   2  -5  -3  149.93    3.84
   3  -5  -3   70.08    2.81
   4  -5  -3    2.28    0.77
   5  -5  -3    0.90    0.46
   6  -5  -3   33.05    2.35
   7  -5  -3   67.68    2.95
   8  -5  -3   10.27    1.84
   9  -5  -3    5.48    1.34
  10  -5  -3   51.06    4.36
  11  -5  -3    7.70    1.81
  12  -5  -3    4.79    1.24
  13  -5  -3   -0.20    0.72
  14  -5  -3   22.36    2.70
 -15  -4  -3   -0.59    1.53
 -14  -4  -3   56.63    4.75
 -13  -4  -3    0.34    0.82
 -12  -4  -3    2.34    1.07
 -11  -4  -3    6.89    1.49
 -10  -4  -3    9.65    1.39
  -9  -4  -3    2.32    0.71
  -8  -4  -3   31.03    2.29
  -7  -4  -3   14.77    1.52
  -6  -4  -3   31.00    1.89
  -5  -4  -3    0.72    0.37
  -4  -4  -3  205.74    4.63
  -3  -4  -3    7.44    0.90
  -2  -4  -3   19.27    1.92
  -1  -4  -3   22.19    1.68
   0  -4  -3    7.66    0.99
   1  -4  -3   22.02    1.60
   2  -4  -3   17.17    1.40
   3  -4  -3    7.90    0.93
   4  -4  -3  200.52    5.95
   5  -4  -3    0.07    0.31
   6  -4  -3   31.68    2.26
   7  -4  -3   16.77    1.71
   8  -4  -3   31.69    3.05
   9  -4  -3    3.80    1.18
  10  -4  -3    5.66    1.49
  11  -4  -3    7.89    1.83
  12  -4  -3    1.07    0.79
  13  -4  -3   -0.55    0.69
  14  -4  -3   51.69    4.01
  15  -4  -3    1.15    2.28
 -15  -3  -3    2.14    1.30
 -14  -3  -3    6.78    1.66
 -13  -3  -3   -0.68    0.60
 -12  -3  -3    0.24    0.74
 -11  -3  -3   12.74    1.98
 -10  -3  -3   34.61    2.50
  -9  -3  -3   46.41    2.62
  -8  -3  -3   42.51    2.41
  -7  -3  -3  163.42    4.44
  -6  -3  -3    1.12    0.49
  -5  -3  -3   88.87    2.88
  -4  -3  -3   23.87    1.67
  -3  -3  -3    8.13    0.95
  -2  -3  -3  116.76    3.03
  -1  -3  -3  180.80    4.09
   0  -3  -3    0.47    0.34
   1  -3  -3  173.59    4.06
   2  -3  -3  114.25    3.12
   3  -3  -3    7.63    0.91
   4  -3  -3   26.24    2.35
   5  -3  -3   85.62    2.97
   6  -3  -3    0.72    0.45
   7  -3  -3  165.27    4.58
   8  -3  -3   41.71    3.52
   9  -3  -3   50.68    4.11
  10  -3  -3   30.34    3.16
  11  -3  -3    9.29    1.45
  12  -3  -3    0.27    0.72
  13  -3  -3   -0.09    0.64
  14  -3  -3    5.80    1.50
  15  -3  -3    2.64    1.86
 -15  -2  -3    3.35    1.37
 -14  -2  -3    0.91    0.87
 -13  -2  -3    6.77    1.61
 -12  -2  -3   33.88    3.42
 -11  -2  -3   94.09    4.55
 -10  -2  -3    6.62    1.07
  -9  -2  -3    2.79    0.70
  -8  -2  -3   -0.21    0.30
  -7  -2  -3   36.86    2.12
  -6  -2  -3    2.60    0.64
  -5  -2  -3    3.74    0.70
  -4  -2  -3   31.42    1.79
  -3  -2  -3   15.95    1.31
  -2  -2  -3   37.81    1.60
  -1  -2  -3  174.44    3.78
   0  -2  -3    0.46    0.27
   1  -2  -3  169.13    3.99
   2  -2  -3   34.20    1.59
   3  -2  -3   21.28    1.49
   4  -2  -3   31.64    2.20
   5  -2  -3    5.99    0.90
   6  -2  -3    2.11    0.58
   7  -2  -3   40.61    2.27
   8  -2  -3    0.14    0.39
   9  -2  -3    2.38    0.98
  10  -2  -3    8.00    1.68
  11  -2  -3   89.05    3.92
  12  -2  -3   27.36    2.69
  13  -2  -3   11.02    1.75
  14  -2  -3    0.44    0.81
  15  -2  -3    3.49    1.83
 -15  -1  -3    9.03    1.99
 -14  -1  -3   27.55    3.24
 -13  -1  -3   21.95    2.77
 -12  -1  -3    4.70    1.30
 -11  -1  -3   20.99    2.58
 -10  -1  -3   56.89    2.66
  -9  -1  -3    0.62    0.46
  -8  -1  -3   30.69    2.19
  -7  -1  -3   -0.17    0.33
  -6  -1  -3    0.31    0.31
  -5  -1  -3  201.13    4.73
  -4  -1  -3   25.01    1.71
  -3  -1  -3   52.50    2.03
  -2  -1  -3   48.60    1.88
  -1  -1  -3    0.97    0.33
   0  -1  -3   -0.01    0.22
   1  -1  -3    1.11    0.33
   2  -1  -3   50.07    1.54
   3  -1  -3   49.08    1.86
   4  -1  -3   23.07    1.35
   5  -1  -3  206.30    4.77
   6  -1  -3    0.04    0.26
   7  -1  -3    0.01    0.42
   8  -1  -3   35.75    3.17
   9  -1  -3    0.80    0.66
  10  -1  -3   56.86    3.23
  11  -1  -3   20.51    2.16
  12  -1  -3    3.66    1.09
  13  -1  -3   19.78    3.00
  14  -1  -3   23.03    3.29
  15  -1  -3   11.46    2.41
 -15   0  -3    1.08    1.50
 -14   0  -3   28.94    3.31
 -13   0  -3   -0.39    0.66
 -12   0  -3    0.48    0.72
 -11   0  -3   -0.17    0.44
 -10   0  -3    3.00    0.76
  -9   0  -3    0.43    0.43
  -8   0  -3  237.41    5.68
  -7   0  -3    0.04    0.32
  -6   0  -3   17.68    1.55
  -5   0  -3    0.34    0.32
  -4   0  -3  152.96    3.89
  -3   0  -3   -0.04    0.21
  -2   0  -3  144.77    3.55
  -1   0  -3    0.19    0.23
   0   0  -3   18.38    0.94
   1   0  -3    0.31    0.23
   2   0  -3  145.14    2.89
   3   0  -3    0.22    0.19
   4   0  -3  157.31    3.60
   5   0  -3   -0.05    0.27
   6   0  -3   17.23    1.48
   7   0  -3    0.51    0.45
   8   0  -3  245.33    7.23
   9   0  -3    0.05    0.39
  10   0  -3    4.17    0.96
  11   0  -3    0.18    0.60
  12   0  -3   -0.23    0.74
  13   0  -3   -0.07    0.88
  14   0  -3   29.21    3.79
  15   0  -3    0.40    0.99
 -15   1  -3    4.47    2.19
 -14   1  -3   28.90    3.24
 -13   1  -3   20.64    2.62
 -12   1  -3    6.59    1.52
 -11   1  -3   18.81    1.82
 -10   1  -3   61.95    2.81
  -9   1  -3    1.14    0.51
  -8   1  -3   31.76    2.25
  -7   1  -3    0.11    0.32
  -6   1  -3    0.24    0.35
  -5   1  -3  203.23    4.82
  -4   1  -3   23.08    1.73
  -3   1  -3   49.01    2.00
  -2   1  -3   53.28    2.03
  -1   1  -3    0.89    0.27
   0   1  -3    0.01    0.17
   1   1  -3    1.02    0.29
   2   1  -3   56.79    1.89
   3   1  -3   52.63    1.61
   4   1  -3   24.28    1.40
   5   1  -3  209.32    4.66
   6   1  -3    0.14    0.27
   7   1  -3   -0.02    0.44
   8   1  -3   32.12    2.37
   9   1  -3    0.92    0.57
  10   1  -3   56.47    3.17
  11   1  -3   15.62    2.35
  12   1  -3    4.63    1.49
  13   1  -3   18.63    2.85
  14   1  -3   16.87    2.82
  15   1  -3    6.51    1.96
 -14   2  -3    1.07    0.94
 -13   2  -3   11.30    2.02
 -12   2  -3   30.41    3.09
 -11   2  -3   97.43    3.72
 -10   2  -3    6.52    1.12
  -9   2  -3    2.91    0.93
  -8   2  -3    0.35    0.54
  -7   2  -3   41.41    3.15
  -6   2  -3    2.35    0.77
  -5   2  -3    5.68    1.09
  -4   2  -3   32.56    2.49
  -3   2  -3   18.06    1.16
  -2   2  -3   36.07    1.57
  -1   2  -3  180.56    3.73
   0   2  -3    0.38    0.27
   1   2  -3  173.86    3.32
   2   2  -3   35.04    1.54
   3   2  -3   19.24    1.20
   4   2  -3   28.59    1.36
   5   2  -3    4.62    0.63
   6   2  -3    1.81    0.50
   7   2  -3   36.58    2.38
   8   2  -3    0.43    0.40
   9   2  -3    2.98    0.79
  10   2  -3    7.41    1.64
  11   2  -3   88.59    4.88
  12   2  -3   33.87    3.82
  13   2  -3    7.32    1.92
  14   2  -3   -0.27    0.99
  15   2  -3    0.45    1.69
 -14   3  -3    4.95    1.53
 -13   3  -3    0.34    0.78
 -12   3  -3    0.50    0.64
 -11   3  -3    9.07    1.60
 -10   3  -3   41.62    3.47
  -9   3  -3   48.10    3.65
  -8   3  -3   36.43    3.04
  -7   3  -3  161.69    5.50
  -6   3  -3    0.81    0.52
  -5   3  -3   85.49    2.75
  -4   3  -3   24.07    1.47
  -3   3  -3    7.34    0.86
  -2   3  -3  116.70    3.01
  -1   3  -3  171.96    3.20
   0   3  -3    0.09    0.19
   1   3  -3  177.35    3.89
   2   3  -3  113.75    3.00
   3   3  -3    9.23    1.26
   4   3  -3   24.07    1.42
   5   3  -3   89.69    2.74
   6   3  -3    0.40    0.37
   7   3  -3  172.80    4.58
   8   3  -3   40.61    2.39
   9   3  -3   48.22    3.95
  10   3  -3   40.11    3.80
  11   3  -3    4.86    1.44
  12   3  -3    0.31    0.85
  13   3  -3    0.92    0.96
  14   3  -3    7.75    2.01
  15   3  -3    1.24    2.01
 -14   4  -3   59.74    6.92
 -13   4  -3   -0.48    0.67
 -12   4  -3    1.10    0.88
 -11   4  -3    6.44    1.44
 -10   4  -3    8.28    1.56
  -9   4  -3    5.26    1.25
  -8   4  -3   34.15    3.01
  -7   4  -3   13.29    1.74
  -6   4  -3   28.96    1.79
  -5   4  -3    0.77    0.41
  -4   4  -3  194.70    4.48
  -3   4  -3    7.96    1.00
  -2   4  -3   19.28    1.48
  -1   4  -3   22.98    1.56
   0   4  -3    8.32    0.80
   1   4  -3   21.64    1.31
   2   4  -3   20.44    1.46
   4   4  -3  195.57    3.86
   5   4  -3    1.23    0.36
   6   4  -3   33.73    2.01
   7   4  -3   17.51    2.13
   8   4  -3   32.87    3.14
   9   4  -3    2.46    0.99
  10   4  -3    6.11    1.45
  11   4  -3    8.58    1.92
  12   4  -3    0.86    1.04
  13   4  -3    0.83    0.95
  14   4  -3   63.50    4.46
  15   4  -3    0.40    1.56
 -14   5  -3   28.63    4.83
 -13   5  -3    0.21    0.84
 -12   5  -3    4.24    1.28
 -11   5  -3   11.44    1.86
 -10   5  -3   56.49    3.66
  -9   5  -3    6.47    1.34
  -8   5  -3   16.22    2.09
  -7   5  -3   69.86    2.76
  -6   5  -3   31.21    2.11
  -5   5  -3    1.36    0.47
  -4   5  -3    3.98    0.75
  -3   5  -3   69.78    2.50
  -2   5  -3  142.09    3.73
  -1   5  -3    6.43    0.86
   0   5  -3   -0.04    0.23
   1   5  -3    7.46    0.91
   2   5  -3  146.20    3.16
   3   5  -3   66.85    2.09
   4   5  -3    2.37    0.47
   5   5  -3    1.01    0.37
   6   5  -3   31.73    2.28
   7   5  -3   77.31    3.81
   8   5  -3   10.62    1.70
   9   5  -3    6.55    1.51
  10   5  -3   59.07    3.46
  11   5  -3   11.93    1.74
  12   5  -3    6.08    1.31
  13   5  -3    1.23    0.78
  14   5  -3   24.58    2.76
 -14   6  -3    1.25    2.43
 -13   6  -3   44.31    4.12
 -12   6  -3    4.98    1.44
 -11   6  -3   90.33    4.50
 -10   6  -3   16.10    2.27
  -9   6  -3    0.17    0.48
  -8   6  -3   37.63    2.32
  -7   6  -3   13.83    1.49
  -6   6  -3    1.86    0.56
  -5   6  -3    9.79    1.18
  -4   6  -3    0.04    0.34
  -3   6  -3    1.83    0.55
  -2   6  -3    2.45    0.59
  -1   6  -3  180.99    5.32
   0   6  -3   77.18    2.49
   1   6  -3  175.77    3.57
   2   6  -3    3.18    0.55
   3   6  -3    0.90    0.35
   4   6  -3    0.45    0.27
   5   6  -3   13.24    1.40
   6   6  -3    0.72    0.44
   7   6  -3   12.50    1.50
   8   6  -3   32.48    2.55
   9   6  -3    0.39    0.50
  10   6  -3   17.46    2.06
  11   6  -3   87.57    3.99
  12   6  -3    6.10    1.68
  13   6  -3   43.63    4.38
  14   6  -3   -0.87    1.29
 -13   7  -3   63.44    7.18
 -12   7  -3    0.29    0.86
 -11   7  -3    7.27    1.60
 -10   7  -3    0.15    0.59
  -9   7  -3    0.49    0.50
  -8   7  -3   14.04    1.62
  -7   7  -3   18.02    1.81
  -6   7  -3    8.93    1.15
  -5   7  -3  217.02    5.27
  -4   7  -3    3.39    0.71
  -3   7  -3   15.90    1.53
  -2   7  -3    9.00    1.39
  -1   7  -3    3.39    0.86
   0   7  -3    0.85    0.36
   1   7  -3    2.53    0.60
   2   7  -3    7.43    0.97
   3   7  -3   15.50    1.50
   4   7  -3    2.70    0.69
   5   7  -3  212.53    6.53
   6   7  -3   12.39    1.81
   7   7  -3   18.77    2.31
   8   7  -3   10.32    1.79
   9   7  -3    1.78    0.90
  10   7  -3    1.19    0.81
  11   7  -3    5.02    1.41
  12   7  -3    0.10    0.79
  13   7  -3   67.31    5.47
 -13   8  -3    3.42    2.11
 -12   8  -3    5.95    1.56
 -11   8  -3   11.04    1.97
 -10   8  -3    0.52    0.58
  -9   8  -3   16.18    1.81
  -8   8  -3   54.55    3.03
  -7   8  -3   17.89    1.84
  -6   8  -3    0.77    0.52
  -5   8  -3   23.14    2.02
  -4   8  -3   26.27    2.11
  -3   8  -3   26.60    2.57
  -2   8  -3   59.70    3.06
  -1   8  -3   29.67    2.67
   0   8  -3   27.87    1.92
   1   8  -3   27.38    1.96
   2   8  -3   59.90    2.45
   3   8  -3   28.80    2.56
   4   8  -3   25.98    2.03
   5   8  -3   23.91    2.00
   6   8  -3    0.17    0.39
   7   8  -3   15.94    2.24
   8   8  -3   62.21    4.11
   9   8  -3   10.04    1.82
  10   8  -3    0.09    0.61
  11   8  -3   13.09    2.29
  12   8  -3    3.56    1.57
  13   8  -3    1.44    1.33
 -12   9  -3    3.53    1.85
 -11   9  -3    1.46    0.86
 -10   9  -3   20.42    2.11
  -9   9  -3   51.70    3.36
  -8   9  -3   31.09    2.50
  -7   9  -3    3.01    0.77
  -6   9  -3   18.56    1.83
  -5   9  -3   69.19    2.96
  -4   9  -3    0.21    0.40
  -3   9  -3    0.19    0.41
  -2   9  -3  128.51    4.86
  -1   9  -3   32.61    2.82
   0   9  -3   -0.07    0.40
   1   9  -3   28.77    2.11
   2   9  -3  124.74    3.85
   3   9  -3    0.26    0.44
   4   9  -3   -0.09    0.42
   5   9  -3   63.57    3.55
   6   9  -3   15.06    1.70
   7   9  -3    1.73    0.69
   8   9  -3   30.54    3.27
   9   9  -3   51.95    4.39
  10   9  -3   25.62    3.23
  11   9  -3    1.32    1.02
  12   9  -3    4.13    1.48
 -11  10  -3   43.38    3.22
 -10  10  -3    0.50    0.70
  -9  10  -3    6.57    1.27
  -8  10  -3    7.38    1.33
  -7  10  -3    0.88    0.59
  -6  10  -3   17.95    1.82
  -5  10  -3    2.25    0.69
  -4  10  -3   84.33    4.09
  -3  10  -3    6.70    1.33
  -2  10  -3    0.23    0.52
  -1  10  -3   55.79    3.21
   0  10  -3   20.37    2.35
   1  10  -3   59.69    2.60
   2  10  -3    0.41    0.39
   3  10  -3    5.81    1.24
   4  10  -3   86.45    4.15
   5  10  -3    1.46    0.73
   6  10  -3   20.18    2.49
   7  10  -3    1.23    0.63
   8  10  -3    5.69    1.17
   9  10  -3    5.06    1.15
  10  10  -3    1.38    1.07
  11  10  -3   39.28    4.12
  12  10  -3   17.06    4.13
 -11  11  -3   -0.02    0.77
 -10  11  -3    1.09    0.78
  -9  11  -3   28.22    2.62
  -8  11  -3    0.09    0.58
  -7  11  -3   79.93    3.53
  -6  11  -3   29.95    2.58
  -5  11  -3   16.07    1.88
  -4  11  -3   12.03    1.97
  -3  11  -3    0.87    0.64
  -2  11  -3   11.19    1.82
  -1  11  -3   55.89    3.69
   0  11  -3    0.48    0.52
   1  11  -3   53.09    2.71
   2  11  -3   14.52    1.64
   3  11  -3   -0.15    0.44
   4  11  -3   11.57    1.88
   5  11  -3   18.26    2.40
   6  11  -3   29.88    3.14
   7  11  -3   89.11    4.65
   8  11  -3    0.33    0.75
   9  11  -3   25.25    2.37
  10  11  -3    0.95    0.77
  11  11  -3   -0.05    0.96
 -10  12  -3   17.13    2.15
  -9  12  -3    4.14    1.11
  -8  12  -3    2.61    0.96
  -7  12  -3   18.17    2.03
  -6  12  -3   -0.11    0.53
  -5  12  -3   10.33    1.85
  -4  12  -3   30.04    3.09
  -3  12  -3   19.11    2.51
  -2  12  -3    1.86    0.77
  -1  12  -3    0.91    0.77
   0  12  -3   19.24    2.39
   1  12  -3    1.92    0.90
   2  12  -3    2.21    0.74
   3  12  -3   16.64    1.87
   4  12  -3   31.93    3.24
   5  12  -3   12.88    2.04
   6  12  -3    0.94    0.73
   7  12  -3   22.57    2.78
   8  12  -3    5.53    1.45
   9  12  -3    3.07    1.23
  10  12  -3   16.43    2.91
  -9  13  -3    6.13    1.47
  -8  13  -3   18.61    2.20
  -7  13  -3    4.06    1.12
  -6  13  -3   -0.04    0.60
  -5  13  -3    1.83    1.08
  -4  13  -3    5.50    1.48
  -3  13  -3   63.07    4.24
  -2  13  -3   28.24    3.17
  -1  13  -3    0.49    0.69
   0  13  -3    0.88    0.73
   1  13  -3   -0.19    0.57
   2  13  -3   30.03    2.60
   3  13  -3   59.74    3.21
   4  13  -3    3.85    1.27
   5  13  -3    0.53    0.85
   6  13  -3    0.00    0.69
   7  13  -3    4.56    1.43
   8  13  -3   16.75    2.64
   9  13  -3    7.75    2.66
  -8  14  -3   35.05    4.02
  -7  14  -3    0.31    0.71
  -6  14  -3    0.16    0.68
  -5  14  -3    0.50    0.89
  -4  14  -3   29.99    3.39
  -3  14  -3    0.59    0.74
  -2  14  -3    3.51    1.16
  -1  14  -3   18.36    2.59
   0  14  -3   51.75    4.41
   1  14  -3   14.41    2.28
   2  14  -3    2.08    1.01
   3  14  -3    0.44    0.69
   4  14  -3   24.90    2.48
   5  14  -3    0.83    0.84
   6  14  -3    0.36    0.83
   7  14  -3   -0.65    0.73
  -6  15  -3   31.04    4.08
  -5  15  -3   45.18    4.20
  -4  15  -3   10.74    2.06
  -3  15  -3    5.83    1.61
  -2  15  -3    1.06    0.97
  -1  15  -3    0.29    0.89
   0  15  -3    0.60    0.98
   1  15  -3    0.06    0.87
   2  15  -3    0.69    0.87
   3  15  -3    6.72    1.38
   4  15  -3   10.09    1.65
   5  15  -3   54.64    4.84
   6  15  -3   32.58    5.12
  -2  16  -3   24.82    6.09
  -1  16  -3   11.44    2.66
   0  16  -3   34.07    4.03
   1  16  -3    9.18    3.38
   4  16  -3   -1.58    1.27
  -5 -17  -2   10.68    3.39
  -4 -17  -2    8.50    2.04
  -3 -17  -2    0.41    0.97
  -2 -17  -2    3.16    1.52
  -1 -17  -2    8.55    2.04
   0 -17  -2   -0.51    1.20
   1 -17  -2    9.73    3.57
   2 -17  -2    5.36    2.57
   3 -17  -2    3.39    2.23
  -6 -16  -2    0.26    1.42
  -5 -16  -2    6.65    1.78
  -4 -16  -2   35.54    3.75
  -3 -16  -2    7.66    1.94
  -2 -16  -2    1.59    1.11
  -1 -16  -2    9.68    2.12
   0 -16  -2   37.74    3.86
   1 -16  -2    3.13    1.95
   2 -16  -2    4.61    2.48
   3 -16  -2    8.71    3.14
   4 -16  -2   57.45    7.73
   5 -16  -2    2.54    1.98
   6 -16  -2    0.42    1.28
   7 -16  -2    4.60    1.81
  -8 -15  -2   17.19    3.90
  -7 -15  -2    0.08    1.10
  -6 -15  -2    0.44    0.95
  -5 -15  -2    1.81    1.12
  -4 -15  -2    5.32    1.51
  -3 -15  -2   17.40    2.64
  -2 -15  -2   23.06    3.12
  -1 -15  -2    0.19    0.79
   0 -15  -2    0.20    0.79
   1 -15  -2    1.74    1.07
   2 -15  -2   14.93    3.76
   3 -15  -2   22.29    4.64
   4 -15  -2    5.08    1.72
   5 -15  -2    2.13    1.32
   6 -15  -2    0.42    1.18
   7 -15  -2   -1.27    0.98
   8 -15  -2   19.28    3.12
   9 -15  -2    3.92    2.35
  -9 -14  -2    6.51    2.55
  -8 -14  -2   59.68    7.28
  -7 -14  -2   -0.67    1.03
  -6 -14  -2    1.09    0.91
  -5 -14  -2    0.99    0.90
  -4 -14  -2   14.42    2.30
  -3 -14  -2    2.26    1.05
  -2 -14  -2    4.08    1.31
  -1 -14  -2   18.55    2.63
   0 -14  -2  138.90    5.90
   1 -14  -2   13.67    2.11
   2 -14  -2    4.13    2.10
   3 -14  -2    1.29    1.03
   4 -14  -2   16.20    2.66
   5 -14  -2    3.46    1.53
   6 -14  -2    0.43    1.01
   7 -14  -2    1.11    1.11
   8 -14  -2   73.37    5.93
   9 -14  -2    9.74    2.36
  10 -14  -2    9.04    2.75
 -11 -13  -2    0.04    1.39
 -10 -13  -2    1.07    1.36
  -9 -13  -2    1.52    1.52
  -8 -13  -2    1.53    1.30
  -7 -13  -2   10.51    2.80
  -6 -13  -2   59.09    4.60
  -5 -13  -2  102.31    5.07
  -4 -13  -2   28.93    3.13
  -3 -13  -2    4.80    1.44
  -2 -13  -2    5.02    1.29
  -1 -13  -2    2.53    1.08
   0 -13  -2    0.49    0.69
   1 -13  -2    3.50    0.93
   2 -13  -2    5.44    1.14
   3 -13  -2    2.38    1.09
   4 -13  -2   33.00    3.68
   5 -13  -2  102.48    5.43
   6 -13  -2   56.26    4.90
   7 -13  -2   10.13    2.06
   8 -13  -2    1.62    1.14
   9 -13  -2    0.38    1.05
  10 -13  -2    0.31    1.14
  11 -13  -2   -0.35    2.86
 -12 -12  -2   33.40    3.80
 -11 -12  -2   21.08    2.89
 -10 -12  -2    1.94    1.04
  -9 -12  -2    0.38    0.74
  -8 -12  -2    7.01    2.32
  -7 -12  -2   32.72    3.38
  -6 -12  -2   16.45    2.39
  -5 -12  -2    2.25    0.96
  -4 -12  -2   13.35    2.18
  -3 -12  -2   19.78    2.47
  -2 -12  -2   58.81    3.89
  -1 -12  -2   45.10    3.81
   0 -12  -2   36.76    2.55
   1 -12  -2   44.55    2.91
   2 -12  -2   60.55    3.14
   3 -12  -2   25.75    3.03
   4 -12  -2   10.62    1.93
   5 -12  -2    3.39    1.26
   6 -12  -2   21.67    2.95
   7 -12  -2   35.20    3.78
   8 -12  -2    5.34    1.62
   9 -12  -2    0.03    0.89
  10 -12  -2    3.14    2.36
  11 -12  -2   30.00    5.72
 -13 -11  -2    7.62    1.99
 -12 -11  -2    1.82    1.14
 -11 -11  -2    1.40    0.97
 -10 -11  -2   20.70    2.71
  -9 -11  -2   73.86    4.10
  -8 -11  -2    0.28    0.58
  -7 -11  -2    3.77    0.92
  -6 -11  -2    0.33    0.61
  -5 -11  -2    2.92    1.00
  -4 -11  -2   12.13    1.86
  -3 -11  -2   33.02    3.04
  -2 -11  -2   20.02    2.35
  -1 -11  -2  111.23    3.70
   0 -11  -2   -0.02    0.40
   1 -11  -2  105.07    3.63
   2 -11  -2   20.82    1.90
   3 -11  -2   30.11    2.99
   4 -11  -2   11.60    2.00
   5 -11  -2    1.60    0.90
   6 -11  -2    1.31    0.89
   7 -11  -2    2.88    1.15
   8 -11  -2    0.06    0.80
   9 -11  -2   72.33    4.93
  10 -11  -2   14.83    3.84
  11 -11  -2    0.75    1.65
  12 -11  -2    3.70    2.34
 -13 -10  -2   18.35    2.60
 -12 -10  -2   60.14    4.85
 -11 -10  -2    2.21    1.05
 -10 -10  -2    1.14    0.79
  -9 -10  -2    7.88    1.40
  -8 -10  -2    3.99    1.07
  -7 -10  -2   13.80    1.62
  -6 -10  -2   18.69    1.77
  -5 -10  -2    5.28    0.96
  -4 -10  -2   79.07    3.93
  -3 -10  -2   72.55    3.70
  -2 -10  -2   28.13    2.10
  -1 -10  -2   36.95    2.14
   0 -10  -2    2.93    0.73
   1 -10  -2   33.24    2.27
   2 -10  -2   29.84    2.24
   3 -10  -2   70.26    2.36
   4 -10  -2   76.20    3.07
   5 -10  -2    5.84    1.12
   6 -10  -2   18.38    1.87
   7 -10  -2   10.74    1.54
   8 -10  -2    3.15    0.96
   9 -10  -2   12.04    1.73
  10 -10  -2    0.66    1.01
  11 -10  -2    2.17    1.19
  12 -10  -2   67.21    5.66
  13 -10  -2   21.78    3.32
  14 -10  -2   19.19    4.40
 -14  -9  -2   12.04    2.35
 -13  -9  -2   -0.30    0.71
 -12  -9  -2    3.36    1.20
 -11  -9  -2   12.52    2.10
 -10  -9  -2   23.23    2.71
  -9  -9  -2    0.18    0.54
  -8  -9  -2    2.11    0.71
  -7  -9  -2   47.28    2.48
  -6  -9  -2  135.81    4.02
  -5  -9  -2   19.71    1.69
  -4  -9  -2    9.19    0.94
  -3  -9  -2   56.21    1.97
  -2  -9  -2   33.23    1.97
  -1  -9  -2    2.69    0.64
   0  -9  -2   -0.13    0.27
   1  -9  -2    1.86    0.58
   2  -9  -2   28.11    1.98
   3  -9  -2   55.20    2.00
   4  -9  -2    6.52    1.03
   5  -9  -2   18.66    1.83
   6  -9  -2  143.43    4.48
   7  -9  -2   45.72    3.11
   8  -9  -2    2.25    0.81
   9  -9  -2    0.21    0.60
  10  -9  -2   27.68    3.27
  11  -9  -2   16.45    2.70
  12  -9  -2    0.56    1.03
  13  -9  -2   -0.13    1.03
  14  -9  -2   17.88    3.02
 -15  -8  -2    4.22    2.41
 -14  -8  -2    4.07    1.34
 -13  -8  -2    0.94    0.83
 -12  -8  -2   16.00    2.36
 -11  -8  -2   26.92    2.94
 -10  -8  -2   60.49    3.86
  -9  -8  -2   11.82    1.92
  -8  -8  -2   41.84    2.46
  -7  -8  -2   37.82    2.47
  -6  -8  -2   26.33    2.03
  -5  -8  -2   24.23    1.37
  -4  -8  -2    4.65    0.65
  -3  -8  -2   65.39    1.97
  -2  -8  -2   -0.10    0.21
  -1  -8  -2   59.75    2.29
   0  -8  -2  217.70    4.97
   1  -8  -2   53.03    2.19
   2  -8  -2    0.15    0.30
   3  -8  -2   64.58    2.08
   4  -8  -2    5.35    0.87
   5  -8  -2   23.04    1.92
   6  -8  -2   21.45    1.95
   7  -8  -2   40.18    2.81
   8  -8  -2   45.56    3.07
   9  -8  -2    8.55    1.32
  10  -8  -2   57.59    4.74
  11  -8  -2   12.36    2.22
  12  -8  -2   16.98    2.15
  13  -8  -2   -0.44    0.98
  14  -8  -2    4.46    1.62
  15  -8  -2    3.17    3.67
 -15  -7  -2   -0.46    0.86
 -14  -7  -2    1.57    0.97
 -13  -7  -2   41.45    3.84
 -12  -7  -2    0.22    0.71
 -11  -7  -2   11.48    1.94
 -10  -7  -2   -0.23    0.46
  -9  -7  -2   73.51    3.70
  -8  -7  -2   16.52    1.55
  -7  -7  -2   54.76    2.37
  -6  -7  -2   12.15    1.31
  -5  -7  -2   23.24    1.30
  -4  -7  -2    9.67    0.90
  -3  -7  -2  154.99    3.19
  -2  -7  -2   18.04    1.17
  -1  -7  -2   41.49    1.38
   0  -7  -2    0.12    0.26
   1  -7  -2   39.53    1.80
   2  -7  -2   16.57    1.40
   3  -7  -2  164.79    3.91
   4  -7  -2   10.65    1.21
   5  -7  -2   23.61    1.87
   6  -7  -2   13.32    1.41
   7  -7  -2   56.02    2.72
   8  -7  -2   17.91    1.83
   9  -7  -2   78.14    3.34
  10  -7  -2   -0.47    0.68
  11  -7  -2   15.07    2.55
  12  -7  -2    0.23    0.69
  13  -7  -2   38.33    3.20
  14  -7  -2    1.18    1.17
  15  -7  -2    1.32    1.29
 -15  -6  -2   40.28    3.96
 -14  -6  -2    0.03    0.84
 -13  -6  -2   11.06    2.01
 -12  -6  -2    1.80    0.84
 -11  -6  -2    0.65    0.71
 -10  -6  -2   25.66    2.69
  -9  -6  -2   40.22    3.19
  -8  -6  -2   80.68    2.88
  -7  -6  -2   87.48    2.94
  -6  -6  -2    6.02    0.87
  -5  -6  -2   63.54    2.33
  -4  -6  -2    2.86    0.48
  -3  -6  -2  282.41    4.59
  -2  -6  -2   74.27    1.92
  -1  -6  -2    1.65    0.35
   0  -6  -2  128.59    2.43
   1  -6  -2    0.75    0.34
   2  -6  -2   74.32    2.38
   3  -6  -2  278.03    5.39
   4  -6  -2    2.13    0.39
   5  -6  -2   67.75    2.57
   6  -6  -2    6.15    0.99
   7  -6  -2   87.60    3.15
   8  -6  -2   73.37    3.02
   9  -6  -2   41.72    3.59
  10  -6  -2   21.99    2.75
  11  -6  -2    0.91    0.65
  12  -6  -2    3.09    0.99
  13  -6  -2    9.06    1.60
  14  -6  -2    0.21    0.79
  15  -6  -2   30.33    3.88
 -15  -5  -2    5.21    2.26
 -14  -5  -2    7.34    1.64
 -13  -5  -2   -0.33    0.60
 -12  -5  -2    2.64    1.03
 -11  -5  -2   10.22    1.63
 -10  -5  -2   44.33    3.05
  -9  -5  -2   42.70    2.34
  -8  -5  -2    0.36    0.35
  -7  -5  -2   11.92    1.25
  -6  -5  -2  177.78    4.26
  -5  -5  -2   22.32    1.57
  -4  -5  -2   25.07    1.45
  -3  -5  -2    0.02    0.21
  -2  -5  -2  114.22    2.41
  -1  -5  -2   65.70    1.65
   0  -5  -2    0.39    0.14
   1  -5  -2   66.47    2.12
   2  -5  -2  111.84    2.88
   3  -5  -2   -0.10    0.28
   4  -5  -2   26.45    1.21
   5  -5  -2   23.10    1.78
   6  -5  -2  181.13    4.53
   7  -5  -2   11.43    1.31
   8  -5  -2    0.02    0.38
   9  -5  -2   41.60    3.52
  10  -5  -2   44.63    3.79
  11  -5  -2   12.54    1.68
  12  -5  -2    2.46    0.92
  13  -5  -2    0.50    0.69
  14  -5  -2    6.78    1.46
  15  -5  -2    3.01    1.14
  16  -5  -2    8.49    3.14
 -16  -4  -2    0.15    1.30
 -15  -4  -2   14.08    3.32
 -14  -4  -2    5.83    1.43
 -13  -4  -2    0.17    0.68
 -12  -4  -2  179.17    6.45
 -11  -4  -2    5.57    1.28
 -10  -4  -2   17.29    2.08
  -9  -4  -2    4.40    0.78
  -8  -4  -2    0.40    0.37
  -7  -4  -2    3.41    0.64
  -6  -4  -2   66.06    2.32
  -5  -4  -2   10.95    1.07
  -4  -4  -2   96.42    2.66
  -3  -4  -2    4.59    0.65
  -2  -4  -2  191.72    3.76
  -1  -4  -2    2.62    0.36
   0  -4  -2  132.37    2.34
   1  -4  -2    2.49    0.46
   2  -4  -2  182.88    3.80
   3  -4  -2    5.83    0.66
   4  -4  -2   97.38    2.17
   5  -4  -2   10.85    1.12
   6  -4  -2   70.09    2.52
   7  -4  -2    4.29    0.81
   8  -4  -2    1.22    0.53
   9  -4  -2    3.17    1.03
  10  -4  -2   11.55    1.95
  11  -4  -2    3.10    0.89
  12  -4  -2  167.17    5.52
  13  -4  -2    0.40    0.57
  14  -4  -2    6.77    1.44
  15  -4  -2   20.99    3.07
  16  -4  -2   -0.29    1.03
 -16  -3  -2   12.83    3.34
 -15  -3  -2   23.73    4.42
 -14  -3  -2    3.78    1.23
 -13  -3  -2   20.23    2.55
 -12  -3  -2    1.74    0.81
 -11  -3  -2   15.62    2.04
 -10  -3  -2    1.47    0.75
  -9  -3  -2  199.42    4.70
  -8  -3  -2   42.97    1.93
  -7  -3  -2   18.84    1.52
  -6  -3  -2  190.10    3.39
  -5  -3  -2    9.35    0.69
  -4  -3  -2   42.44    1.11
  -3  -3  -2   77.25    2.20
  -2  -3  -2    3.39    0.50
  -1  -3  -2  188.27    3.49
   0  -3  -2    0.11    0.13
   1  -3  -2  180.65    3.66
   2  -3  -2    2.80    0.47
   3  -3  -2   80.30    2.10
   4  -3  -2   41.70    1.26
   5  -3  -2    8.73    0.98
   6  -3  -2  190.32    4.36
   7  -3  -2   13.50    1.32
   8  -3  -2   43.74    2.05
   9  -3  -2  185.78    6.37
  10  -3  -2    1.12    0.60
  11  -3  -2   14.52    1.79
  12  -3  -2    0.79    0.62
  13  -3  -2   20.69    2.32
  14  -3  -2    3.42    1.09
  15  -3  -2   17.29    2.29
  16  -3  -2    7.33    2.02
 -16  -2  -2    2.26    1.86
 -15  -2  -2   59.99    6.91
 -14  -2  -2   12.16    2.08
 -13  -2  -2    3.67    1.15
 -12  -2  -2   10.48    1.76
 -11  -2  -2    9.58    1.56
 -10  -2  -2   18.82    2.18
  -9  -2  -2   61.96    2.37
  -8  -2  -2    2.71    0.49
  -7  -2  -2   88.04    2.20
  -6  -2  -2   48.11    1.47
  -5  -2  -2   56.35    1.49
  -4  -2  -2  190.14    3.01
  -3  -2  -2  165.80    3.47
  -2  -2  -2   17.48    1.00
  -1  -2  -2    1.48    0.31
   0  -2  -2    2.33    0.35
   1  -2  -2    1.34    0.24
   2  -2  -2   19.76    0.69
   3  -2  -2  160.91    3.24
   4  -2  -2  182.19    3.08
   5  -2  -2   52.69    1.38
   6  -2  -2   50.38    1.94
   7  -2  -2   89.76    2.77
   8  -2  -2    3.40    0.87
   9  -2  -2   57.89    2.64
  10  -2  -2   19.24    1.91
  11  -2  -2    7.26    1.29
  12  -2  -2    9.22    1.45
  13  -2  -2    4.22    1.05
  14  -2  -2    9.43    1.65
  15  -2  -2   51.56    4.68
  16  -2  -2    0.95    1.16
 -16  -1  -2   12.77    3.29
 -15  -1  -2    0.56    1.14
 -14  -1  -2   -0.12    0.95
 -13  -1  -2   45.76    3.67
 -12  -1  -2   16.26    2.11
 -11  -1  -2   23.73    2.45
 -10  -1  -2    0.24    0.31
  -9  -1  -2   12.54    1.07
  -8  -1  -2   -0.07    0.21
  -7  -1  -2    6.94    0.72
  -6  -1  -2  171.03    3.19
  -5  -1  -2   27.19    1.05
  -4  -1  -2  116.78    2.22
  -3  -1  -2  167.72    2.66
  -2  -1  -2   34.56    1.30
  -1  -1  -2    6.21    0.63
   0  -1  -2    0.00    0.15
   1  -1  -2    6.81    0.58
   2  -1  -2   34.25    0.97
   3  -1  -2  166.15    3.23
   4  -1  -2  113.77    2.24
   5  -1  -2   28.94    0.94
   6  -1  -2  168.57    3.81
   7  -1  -2    8.60    0.94
   8  -1  -2    0.19    0.39
   9  -1  -2   15.25    1.60
  10  -1  -2    0.06    0.38
  11  -1  -2   23.35    2.17
  12  -1  -2   19.79    2.16
  13  -1  -2   48.07    3.44
  14  -1  -2    0.07    0.77
  15  -1  -2    1.17    1.14
  16  -1  -2   16.35    2.79
 -16   0  -2    2.48    1.48
 -15   0  -2   -0.30    1.03
 -14   0  -2   39.32    5.34
 -13   0  -2   -0.93    0.42
 -12   0  -2   66.47    3.55
 -11   0  -2    0.49    0.41
 -10   0  -2  190.70    4.01
  -9   0  -2   -0.01    0.24
  -8   0  -2  131.46    2.96
  -7   0  -2   -0.02    0.20
  -6   0  -2    0.57    0.30
  -5   0  -2    0.04    0.19
  -4   0  -2    7.05    0.68
  -3   0  -2   -0.09    0.13
  -2   0  -2    5.32    0.46
  -1   0  -2    0.10    0.12
   0   0  -2  970.69   11.09
   1   0  -2    0.04    0.15
   2   0  -2    5.46    0.61
   3   0  -2    0.07    0.16
   4   0  -2    6.74    0.58
   5   0  -2   -0.08    0.15
   6   0  -2    0.66    0.32
   7   0  -2   -0.01    0.24
   8   0  -2  126.67    3.73
   9   0  -2    0.19    0.34
  10   0  -2  186.01    5.19
  11   0  -2    0.07    0.45
  12   0  -2   67.86    3.46
  13   0  -2   -0.11    0.66
  14   0  -2   40.85    4.12
  15   0  -2    0.86    1.05
  16   0  -2    8.17    2.16
 -16   1  -2   20.41    4.30
 -15   1  -2    1.24    1.27
 -14   1  -2    0.66    1.07
 -13   1  -2   53.82    3.61
 -12   1  -2   20.67    1.89
 -11   1  -2   24.55    1.96
 -10   1  -2    0.10    0.35
  -9   1  -2   16.21    1.46
  -8   1  -2   -0.10    0.26
  -7   1  -2    7.34    0.84
  -6   1  -2  169.62    3.73
  -5   1  -2   26.13    1.38
  -4   1  -2  119.61    2.70
  -3   1  -2  164.98    3.23
  -2   1  -2   33.32    1.16
  -1   1  -2    6.15    0.57
   0   1  -2    0.02    0.14
   1   1  -2    6.24    0.65
   2   1  -2   31.80    1.48
   3   1  -2  165.95    3.21
   4   1  -2  117.93    2.75
   5   1  -2   27.81    1.29
   6   1  -2  171.63    3.64
   7   1  -2    7.72    1.00
   8   1  -2   -0.03    0.31
   9   1  -2   12.78    1.47
  10   1  -2   -0.10    0.42
  11   1  -2   21.99    2.08
  12   1  -2   20.14    2.66
  13   1  -2   52.45    4.63
  14   1  -2    0.66    0.82
  15   1  -2   -0.19    0.80
  16   1  -2   17.81    2.97
 -16   2  -2    1.98    1.59
 -15   2  -2   60.16    6.90
 -14   2  -2    8.91    2.37
 -13   2  -2    3.26    0.84
 -12   2  -2   13.60    1.58
 -11   2  -2    7.19    1.08
 -10   2  -2   21.50    1.76
  -9   2  -2   61.01    2.40
  -8   2  -2    3.05    0.62
  -7   2  -2   88.25    2.68
  -6   2  -2   51.01    1.87
  -5   2  -2   57.76    1.91
  -4   2  -2  180.50    3.71
  -3   2  -2  163.16    3.35
  -2   2  -2   21.21    0.73
  -1   2  -2    1.95    0.35
   0   2  -2    3.43    0.48
   1   2  -2    1.51    0.56
   3   2  -2  169.86    5.78
   4   2  -2  188.44    3.68
   5   2  -2   57.32    1.79
   6   2  -2   47.91    1.50
   7   2  -2   89.78    2.86
   8   2  -2    3.67    0.74
   9   2  -2   59.55    2.57
  10   2  -2   21.27    2.57
  11   2  -2    6.84    1.65
  12   2  -2   15.07    2.39
  13   2  -2    2.51    1.09
  14   2  -2    7.94    1.89
  15   2  -2   54.89    5.07
  16   2  -2   -0.27    1.05
 -16   3  -2    3.47    1.91
 -15   3  -2   22.87    4.20
 -14   3  -2    1.89    1.60
 -13   3  -2   22.00    2.66
 -12   3  -2    2.00    0.72
 -11   3  -2   12.94    1.48
 -10   3  -2    1.19    0.49
  -9   3  -2  189.16    4.64
  -8   3  -2   42.43    2.01
  -7   3  -2   14.66    1.31
  -6   3  -2  187.41    4.16
  -5   3  -2    8.62    0.90
  -4   3  -2   40.97    1.58
  -3   3  -2   77.72    1.72
  -2   3  -2    3.93    0.41
  -1   3  -2  185.80    3.39
   0   3  -2    0.10    0.16
   1   3  -2  185.32    6.11
   3   3  -2   81.79    3.87
   4   3  -2   41.64    1.58
   5   3  -2   10.51    0.82
   6   3  -2  188.23    3.41
   7   3  -2   16.72    1.44
   8   3  -2   43.27    2.23
   9   3  -2  188.50    6.46
  10   3  -2    2.09    0.87
  11   3  -2   12.53    2.05
  12   3  -2    0.75    0.81
  13   3  -2   20.13    2.89
  14   3  -2    2.92    1.41
  15   3  -2   18.88    3.08
  16   3  -2   10.33    1.94
 -16   4  -2   -0.68    1.25
 -15   4  -2   25.81    4.45
 -14   4  -2    7.37    1.65
 -13   4  -2    0.24    0.66
 -12   4  -2  177.51    5.02
 -11   4  -2    3.86    0.83
 -10   4  -2   16.49    1.60
  -9   4  -2    4.20    0.78
  -8   4  -2    1.71    0.53
  -7   4  -2    4.71    0.80
  -6   4  -2   66.52    2.31
  -5   4  -2    8.86    0.97
  -4   4  -2   91.20    1.94
  -3   4  -2    5.55    0.52
  -2   4  -2  186.38    3.48
  -1   4  -2    2.19    0.40
   0   4  -2  130.60    2.89
   1   4  -2    2.47    0.54
   2   4  -2  185.98    4.65
   3   4  -2    7.08    1.00
   4   4  -2   91.82    2.48
   5   4  -2   10.59    1.01
   6   4  -2   69.34    1.87
   7   4  -2    2.27    0.56
   8   4  -2    3.12    0.98
   9   4  -2    2.03    0.79
  10   4  -2   16.60    2.23
  11   4  -2    6.19    1.54
  12   4  -2  173.84    7.03
  13   4  -2    0.89    0.65
  14   4  -2    9.72    1.65
  15   4  -2   21.26    2.60
  16   4  -2    1.29    1.06
 -15   5  -2    2.03    1.16
 -14   5  -2    3.69    1.24
 -13   5  -2   -0.05    0.63
 -12   5  -2    7.03    1.20
 -11   5  -2   12.14    1.45
 -10   5  -2   38.40    2.31
  -9   5  -2   44.05    2.23
  -8   5  -2    0.07    0.30
  -7   5  -2   10.81    1.16
  -6   5  -2  174.55    4.21
  -5   5  -2   21.67    1.58
  -4   5  -2   25.12    1.04
  -3   5  -2    0.34    0.20
  -2   5  -2  117.53    2.12
  -1   5  -2   65.58    1.58
   0   5  -2   -0.14    0.15
   1   5  -2   69.66    2.02
   2   5  -2  109.66    2.84
   3   5  -2    0.14    0.22
   4   5  -2   26.66    1.18
   5   5  -2   24.30    1.25
   6   5  -2  180.37    3.96
   7   5  -2   10.62    1.31
   8   5  -2   -0.11    0.32
   9   5  -2   36.18    2.66
  10   5  -2   40.46    2.91
  11   5  -2   12.28    1.62
  12   5  -2    3.83    0.99
  13   5  -2    0.11    0.58
  14   5  -2    7.00    1.50
  15   5  -2    1.87    0.99
  16   5  -2    7.25    2.99
 -15   6  -2   35.07    3.73
 -14   6  -2    0.07    0.76
 -13   6  -2   10.60    1.96
 -12   6  -2    0.69    0.68
 -11   6  -2    0.74    0.52
 -10   6  -2   34.54    2.40
  -9   6  -2   42.78    2.40
  -8   6  -2   78.30    2.85
  -7   6  -2   88.69    2.96
  -6   6  -2    7.29    0.99
  -5   6  -2   68.08    2.42
  -4   6  -2    2.13    0.46
  -3   6  -2  276.32    5.08
  -2   6  -2   76.80    2.21
  -1   6  -2    1.98    0.33
   0   6  -2  125.73    2.55
   1   6  -2    2.19    0.47
   2   6  -2   72.54    1.89
   3   6  -2  282.43    5.27
   4   6  -2    2.63    0.44
   5   6  -2   64.47    2.38
   6   6  -2    7.52    1.02
   7   6  -2   84.91    3.07
   8   6  -2   79.66    3.13
   9   6  -2   34.12    2.59
  10   6  -2   29.60    2.45
  11   6  -2    0.46    0.59
  12   6  -2    1.87    0.82
  13   6  -2    8.36    1.59
  14   6  -2    1.17    0.78
  15   6  -2   38.41    3.44
 -15   7  -2   -0.37    0.82
 -14   7  -2    0.40    0.86
 -13   7  -2   37.67    3.59
 -12   7  -2   -0.16    0.62
 -11   7  -2   15.60    1.69
 -10   7  -2    0.12    0.41
  -9   7  -2   81.07    3.06
  -8   7  -2   16.05    1.57
  -7   7  -2   51.48    2.30
  -6   7  -2   13.05    1.36
  -5   7  -2   21.13    2.05
  -4   7  -2   10.20    1.01
  -3   7  -2  161.30    3.65
  -2   7  -2   16.65    1.29
  -1   7  -2   40.37    1.67
   0   7  -2    0.20    0.20
   1   7  -2   41.26    1.33
   2   7  -2   17.07    1.00
   3   7  -2  155.31    3.19
   4   7  -2    9.38    1.03
   5   7  -2   24.13    1.77
   6   7  -2   12.26    1.39
   7   7  -2   57.69    2.54
   8   7  -2   15.00    1.61
   9   7  -2   75.90    3.26
  10   7  -2    0.23    0.49
  11   7  -2   14.11    1.96
  12   7  -2    0.15    0.79
  13   7  -2   35.75    3.84
  14   7  -2    0.55    0.99
  15   7  -2    0.38    0.94
 -15   8  -2    1.24    1.65
 -14   8  -2    9.21    1.98
 -13   8  -2    2.52    1.21
 -12   8  -2   18.35    2.47
 -11   8  -2   19.13    1.94
 -10   8  -2   58.43    2.72
  -9   8  -2    9.16    1.25
  -8   8  -2   42.97    2.43
  -7   8  -2   35.26    2.36
  -6   8  -2   25.37    1.96
  -5   8  -2   20.24    2.03
  -4   8  -2    4.95    1.05
  -3   8  -2   63.92    2.26
  -2   8  -2    0.07    0.24
  -1   8  -2   53.42    2.07
   0   8  -2  222.73    4.82
   1   8  -2   57.17    2.06
   2   8  -2    0.11    0.26
   3   8  -2   61.59    2.37
   4   8  -2    4.95    0.86
   5   8  -2   21.27    2.19
   6   8  -2   20.82    2.28
   7   8  -2   40.32    3.41
   8   8  -2   43.52    3.68
   9   8  -2   10.49    1.88
  10   8  -2   57.14    4.51
  11   8  -2   15.35    2.39
  12   8  -2   21.08    2.84
  13   8  -2    0.49    0.97
  14   8  -2    5.05    1.71
 -14   9  -2   17.16    2.63
 -13   9  -2   -0.39    0.83
 -12   9  -2    2.42    1.02
 -11   9  -2   12.67    2.09
 -10   9  -2   25.09    2.20
  -9   9  -2    0.39    0.46
  -8   9  -2    1.53    0.57
  -7   9  -2   46.97    2.63
  -6   9  -2  131.27    4.95
  -5   9  -2   15.60    1.90
  -4   9  -2    7.11    1.28
  -3   9  -2   53.93    2.18
  -2   9  -2   27.01    1.84
  -1   9  -2    1.63    0.50
   0   9  -2   -0.02    0.26
   1   9  -2    2.05    0.66
   2   9  -2   31.37    2.03
   3   9  -2   54.39    2.27
   4   9  -2    6.78    1.02
   5   9  -2   16.32    1.60
   6   9  -2  135.92    5.15
   7   9  -2   38.00    3.31
   8   9  -2    2.96    1.07
   9   9  -2   -0.62    0.42
  10   9  -2   26.13    3.11
  11   9  -2   17.67    2.55
  12   9  -2    5.28    1.47
  13   9  -2    0.43    0.97
  14   9  -2   16.24    2.79
 -13  10  -2   24.46    3.11
 -12  10  -2   65.93    4.99
 -11  10  -2    3.01    1.07
 -10  10  -2    1.01    0.61
  -9  10  -2   10.82    1.50
  -8  10  -2    7.33    1.19
  -7  10  -2    9.56    1.30
  -6  10  -2   15.27    1.98
  -5  10  -2    4.99    1.09
  -4  10  -2   75.89    3.60
  -3  10  -2   69.57    2.62
  -2  10  -2   32.35    2.13
  -1  10  -2   33.40    1.99
   0  10  -2    3.61    0.74
   1  10  -2   32.78    2.36
   2  10  -2   28.42    2.49
   3  10  -2   70.35    3.44
   4  10  -2   76.99    2.96
   5  10  -2    4.04    0.80
   6  10  -2   15.99    1.72
   7  10  -2    8.99    1.31
   8  10  -2    4.26    1.23
   9  10  -2    9.75    1.84
  10  10  -2   -0.02    0.57
  11  10  -2    1.83    1.11
  12  10  -2   59.60    5.08
  13  10  -2   20.22    3.03
 -13  11  -2    5.82    1.56
 -12  11  -2    0.80    0.95
 -11  11  -2    0.73    0.79
 -10  11  -2   18.25    2.52
  -9  11  -2   73.64    3.28
  -8  11  -2   -0.03    0.46
  -7  11  -2    3.62    0.85
  -6  11  -2    0.63    0.63
  -5  11  -2    1.63    0.75
  -4  11  -2   11.69    1.79
  -3  11  -2   35.78    2.16
  -2  11  -2   18.44    1.69
  -1  11  -2   98.71    3.34
   0  11  -2    0.14    0.34
   1  11  -2   97.64    4.20
   2  11  -2   17.35    1.99
   3  11  -2   34.00    2.98
   4  11  -2    9.14    1.56
   5  11  -2    1.58    0.63
   6  11  -2    0.66    0.47
   7  11  -2    4.67    0.99
   8  11  -2   -0.04    0.48
   9  11  -2   76.69    3.54
  10  11  -2   19.86    2.69
  11  11  -2    3.17    1.18
  12  11  -2    0.33    0.96
  13  11  -2   10.24    3.59
 -12  12  -2   31.47    3.53
 -11  12  -2   23.08    2.93
 -10  12  -2    0.74    0.76
  -9  12  -2    0.17    0.57
  -8  12  -2    9.32    1.44
  -7  12  -2   33.73    3.30
  -6  12  -2   13.34    1.99
  -5  12  -2    3.13    1.02
  -4  12  -2   13.87    1.96
  -3  12  -2   23.97    2.31
  -2  12  -2   58.21    2.63
  -1  12  -2   41.38    2.66
   0  12  -2   34.39    2.46
   1  12  -2   43.50    2.56
   2  12  -2   58.45    3.33
   3  12  -2   19.43    2.31
   4  12  -2   14.04    2.01
   5  12  -2    2.11    0.84
   6  12  -2   13.36    2.06
   7  12  -2   33.39    2.69
   8  12  -2   10.01    1.48
   9  12  -2    0.03    0.59
  10  12  -2    1.68    0.86
  11  12  -2   21.23    2.44
  12  12  -2   36.39    4.59
 -11  13  -2   -0.20    0.86
 -10  13  -2    0.17    0.85
  -9  13  -2    0.30    0.67
  -8  13  -2    1.47    0.74
  -7  13  -2   10.08    1.86
  -6  13  -2   51.69    4.12
  -5  13  -2  102.73    4.78
  -4  13  -2   26.53    2.91
  -3  13  -2    2.42    0.97
  -2  13  -2    6.44    1.12
  -1  13  -2    3.98    0.86
   0  13  -2    0.10    0.37
   1  13  -2    3.92    0.92
   2  13  -2    4.25    1.15
   3  13  -2    2.34    0.95
   4  13  -2   25.70    2.83
   5  13  -2   97.67    4.76
   6  13  -2   57.89    4.44
   7  13  -2   11.25    2.04
   8  13  -2    0.07    0.73
   9  13  -2    0.01    0.67
  10  13  -2   -0.19    0.73
  11  13  -2    0.59    1.27
 -10  14  -2   10.61    2.41
  -9  14  -2   10.36    1.94
  -8  14  -2   68.76    4.56
  -7  14  -2    0.54    0.82
  -6  14  -2    0.44    0.78
  -5  14  -2    1.44    0.89
  -4  14  -2    9.11    1.72
  -3  14  -2    0.93    0.82
  -2  14  -2    4.97    1.12
  -1  14  -2   13.99    1.66
   0  14  -2  124.47    4.32
   1  14  -2   15.54    1.81
   2  14  -2    3.67    1.10
   3  14  -2    1.22    0.75
   4  14  -2   10.71    1.96
   5  14  -2    3.07    1.08
   6  14  -2    0.57    0.76
   7  14  -2    0.75    0.82
   8  14  -2   71.69    4.76
   9  14  -2    7.13    1.89
  -9  15  -2    4.38    2.29
  -8  15  -2   17.00    2.11
  -7  15  -2   -0.20    0.81
  -6  15  -2    0.11    0.72
  -5  15  -2    2.13    1.07
  -4  15  -2    4.88    1.35
  -3  15  -2   18.15    2.52
  -2  15  -2   24.55    2.86
  -1  15  -2   -0.21    0.49
   0  15  -2    0.62    0.61
   1  15  -2    0.73    0.62
   2  15  -2   23.21    2.31
   3  15  -2   17.26    2.43
   4  15  -2    8.99    1.84
   5  15  -2    0.60    0.85
   6  15  -2    0.38    0.84
   7  15  -2    0.42    0.85
   8  15  -2   18.84    2.89
  -7  16  -2   10.25    2.96
  -6  16  -2    0.39    0.95
  -5  16  -2    7.17    1.72
  -4  16  -2   37.18    3.69
  -3  16  -2    9.94    1.90
  -2  16  -2    4.89    1.47
  -1  16  -2    8.85    1.47
   0  16  -2   34.01    2.85
   1  16  -2    7.76    1.42
   2  16  -2    4.15    1.14
   3  16  -2    6.79    1.35
   4  16  -2   47.30    4.41
   5  16  -2    8.84    1.97
   6  16  -2   -0.15    0.91
  -5  17  -2   11.72    3.46
  -4  17  -2    4.21    1.98
  -3  17  -2   -0.09    0.83
  -2  17  -2    5.98    1.57
  -1  17  -2    7.66    1.88
   0  17  -2    0.26    0.71
   1  17  -2   10.55    1.69
   2  17  -2    5.14    1.27
   3  17  -2    0.25    0.76
   4  17  -2    6.77    2.52
  -4 -18  -1   12.82    3.59
  -3 -18  -1    9.91    2.23
  -2 -18  -1    0.07    1.00
  -1 -18  -1    1.12    1.15
   0 -18  -1    6.57    1.88
   1 -18  -1    2.95    1.30
   2 -18  -1    3.66    2.22
  -6 -17  -1    0.00    1.23
  -5 -17  -1   -0.81    1.07
  -4 -17  -1    7.38    1.93
  -3 -17  -1    7.04    1.83
  -2 -17  -1   16.66    2.65
  -1 -17  -1   46.69    4.42
   0 -17  -1    0.47    0.82
   1 -17  -1   39.82    4.10
   2 -17  -1    8.62    2.85
   3 -17  -1    4.10    2.29
   4 -17  -1   13.18    3.74
   5 -17  -1   -1.81    1.21
   6 -17  -1    0.53    1.64
  -8 -16  -1   -0.02    1.17
  -7 -16  -1   20.74    4.11
  -6 -16  -1    1.02    1.30
  -5 -16  -1    1.62    1.12
  -4 -16  -1   -0.04    0.86
  -3 -16  -1   30.36    3.21
  -2 -16  -1   29.32    3.25
  -1 -16  -1   21.31    2.95
   0 -16  -1   58.16    4.83
   1 -16  -1   18.38    2.64
   2 -16  -1   32.79    3.54
   3 -16  -1   39.36    5.99
   4 -16  -1   -0.09    0.95
   5 -16  -1    3.02    1.99
   6 -16  -1    3.28    1.52
   7 -16  -1   21.84    3.17
   8 -16  -1    2.30    1.43
   9 -16  -1    2.60    2.44
 -10 -15  -1    0.23    1.34
  -9 -15  -1    0.26    0.87
  -8 -15  -1   -0.06    0.85
  -7 -15  -1    0.02    0.71
  -6 -15  -1   59.35    6.68
  -5 -15  -1   67.29    4.61
  -4 -15  -1   18.38    2.56
  -3 -15  -1    8.70    1.87
  -2 -15  -1    1.18    0.89
  -1 -15  -1    1.66    1.00
   0 -15  -1    0.41    0.69
   1 -15  -1    0.66    0.87
   2 -15  -1    3.05    1.22
   3 -15  -1   14.50    2.63
   4 -15  -1   22.41    3.01
   5 -15  -1   79.52    5.89
   6 -15  -1   51.93    4.68
   7 -15  -1   -0.10    1.00
   8 -15  -1    0.59    1.01
   9 -15  -1    0.22    1.16
  10 -15  -1    0.01    1.18
 -11 -14  -1    4.12    1.51
 -10 -14  -1    1.66    1.13
  -9 -14  -1   13.75    2.37
  -8 -14  -1   45.64    3.98
  -7 -14  -1   -0.07    0.63
  -6 -14  -1    0.13    0.61
  -5 -14  -1    0.91    0.59
  -4 -14  -1   45.67    4.02
  -3 -14  -1    1.00    0.74
  -2 -14  -1    3.73    1.25
  -1 -14  -1   18.39    2.51
   0 -14  -1   74.20    4.19
   1 -14  -1   24.23    2.77
   2 -14  -1    5.21    1.36
   3 -14  -1    0.73    0.57
   4 -14  -1   45.36    4.17
   5 -14  -1    0.41    0.83
   6 -14  -1    0.74    0.96
   7 -14  -1    0.41    0.92
   8 -14  -1   63.29    5.31
   9 -14  -1   10.26    2.17
  10 -14  -1    4.41    1.65
  11 -14  -1    4.44    2.47
 -12 -13  -1    2.51    1.19
 -11 -13  -1   30.43    3.57
 -10 -13  -1   44.83    4.11
  -9 -13  -1    6.06    1.50
  -8 -13  -1   25.70    2.93
  -7 -13  -1    7.74    1.56
  -6 -13  -1    0.89    0.57
  -5 -13  -1    2.52    0.79
  -4 -13  -1    9.56    1.29
  -3 -13  -1   97.40    3.57
  -2 -13  -1   42.91    3.78
  -1 -13  -1    0.58    0.67
   0 -13  -1    0.05    0.55
   1 -13  -1    0.33    0.61
   2 -13  -1   37.37    2.66
   3 -13  -1  106.14    3.84
   4 -13  -1    7.87    1.75
   5 -13  -1    2.77    1.17
   6 -13  -1    0.64    0.81
   7 -13  -1    7.34    1.82
   8 -13  -1   28.18    3.46
   9 -13  -1    9.13    2.04
  10 -13  -1   38.70    4.04
  11 -13  -1   31.35    5.68
  12 -13  -1    6.88    3.15
 -13 -12  -1    0.11    0.88
 -12 -12  -1    0.10    0.89
 -11 -12  -1   14.89    2.40
 -10 -12  -1   30.68    3.24
  -9 -12  -1   11.13    1.95
  -8 -12  -1    7.96    1.65
  -7 -12  -1   23.52    2.64
  -6 -12  -1    0.13    0.45
  -5 -12  -1   19.94    1.93
  -4 -12  -1   51.53    2.61
  -3 -12  -1   30.53    2.29
  -2 -12  -1    7.11    1.11
  -1 -12  -1    3.98    0.80
   0 -12  -1   47.66    3.25
   1 -12  -1    1.81    0.63
   2 -12  -1    6.43    1.13
   3 -12  -1   30.08    2.35
   4 -12  -1   47.50    2.71
   5 -12  -1   22.59    2.89
   6 -12  -1   -0.59    0.62
   7 -12  -1   30.07    3.35
   8 -12  -1    7.68    1.86
   9 -12  -1    6.65    1.59
  10 -12  -1   25.91    3.18
  11 -12  -1    7.14    2.66
  12 -12  -1    0.22    1.51
 -14 -11  -1   -0.33    1.51
 -13 -11  -1    2.11    1.08
 -12 -11  -1   -0.18    0.84
 -11 -11  -1    0.19    0.64
 -10 -11  -1    1.70    0.88
  -9 -11  -1   44.31    3.78
  -8 -11  -1    0.37    0.52
  -7 -11  -1  121.43    4.98
  -6 -11  -1   43.46    2.55
  -5 -11  -1   27.02    2.10
  -4 -11  -1   19.84    1.77
  -3 -11  -1    0.34    0.42
  -2 -11  -1   24.76    1.91
  -1 -11  -1   87.39    2.55
   0 -11  -1    0.39    0.30
   1 -11  -1   86.04    3.16
   2 -11  -1   23.00    1.99
   3 -11  -1    0.85    0.47
   4 -11  -1   20.66    1.90
   5 -11  -1   22.75    2.79
   6 -11  -1   38.83    3.66
   7 -11  -1  141.69    5.97
   8 -11  -1   -0.29    0.57
   9 -11  -1   37.33    3.76
  10 -11  -1    3.52    1.25
  11 -11  -1    0.40    1.33
  12 -11  -1   -0.17    1.36
  13 -11  -1    1.25    1.80
 -14 -10  -1   16.03    2.49
 -13 -10  -1   14.74    2.39
 -12 -10  -1   13.89    2.17
 -11 -10  -1   70.83    4.05
 -10 -10  -1    1.23    0.77
  -9 -10  -1   12.29    1.91
  -8 -10  -1    7.29    1.09
  -7 -10  -1    1.29    0.49
  -6 -10  -1   31.01    1.87
  -5 -10  -1    3.85    0.79
  -4 -10  -1  131.94    3.81
  -3 -10  -1   17.36    1.56
  -2 -10  -1   -0.07    0.25
  -1 -10  -1   93.42    2.51
   0 -10  -1   31.71    1.49
   1 -10  -1   93.93    2.49
   2 -10  -1    0.34    0.28
   3 -10  -1   16.72    1.38
   4 -10  -1  136.89    3.27
   5 -10  -1    2.76    0.68
   6 -10  -1   34.73    2.27
   7 -10  -1    0.86    0.62
   8 -10  -1    7.47    1.24
   9 -10  -1   10.74    1.55
  10 -10  -1    2.57    0.89
  11 -10  -1   59.14    4.92
  12 -10  -1   13.74    2.40
  13 -10  -1   12.45    3.40
  14 -10  -1   20.08    4.61
 -15  -9  -1   11.05    4.76
 -14  -9  -1   19.10    2.71
 -13  -9  -1    0.57    0.78
 -12  -9  -1    2.61    1.12
 -11  -9  -1    2.16    1.00
 -10  -9  -1   44.00    3.68
  -9  -9  -1   84.57    3.17
  -8  -9  -1   49.69    2.44
  -7  -9  -1    3.49    0.63
  -6  -9  -1   29.21    1.71
  -5  -9  -1  110.52    2.84
  -4  -9  -1    0.05    0.31
  -3  -9  -1    0.09    0.22
  -2  -9  -1  206.30    3.85
  -1  -9  -1   49.40    1.66
   0  -9  -1    0.09    0.21
   1  -9  -1   50.63    1.67
   2  -9  -1  207.27    3.35
   3  -9  -1    0.10    0.22
   4  -9  -1    0.19    0.28
   5  -9  -1  117.14    2.95
   6  -9  -1   25.98    2.14
   7  -9  -1    3.96    0.79
   8  -9  -1   52.96    3.01
   9  -9  -1   79.57    3.42
  10  -9  -1   37.78    2.89
  11  -9  -1    2.60    1.14
  12  -9  -1    6.30    1.79
  13  -9  -1    0.34    0.97
  14  -9  -1   15.46    2.74
  15  -9  -1    7.31    2.11
 -15  -8  -1   13.73    3.71
 -14  -8  -1    6.04    1.55
 -13  -8  -1    2.17    0.99
 -12  -8  -1    5.56    1.35
 -11  -8  -1   24.40    2.74
 -10  -8  -1    2.09    0.69
  -9  -8  -1   28.77    2.12
  -8  -8  -1   82.16    2.95
  -7  -8  -1   32.39    1.60
  -6  -8  -1    0.65    0.33
  -5  -8  -1   37.64    1.53
  -4  -8  -1   47.84    1.53
  -3  -8  -1   49.35    1.72
  -2  -8  -1   99.29    2.35
  -1  -8  -1   47.23    1.53
   0  -8  -1   35.79    1.36
   1  -8  -1   47.99    1.65
   2  -8  -1  103.31    2.05
   3  -8  -1   45.30    1.60
   4  -8  -1   44.63    1.66
   5  -8  -1   39.06    1.62
   6  -8  -1    0.22    0.43
   7  -8  -1   35.59    2.49
   8  -8  -1   89.35    3.44
   9  -8  -1   31.74    2.51
  10  -8  -1    1.99    0.75
  11  -8  -1   27.50    3.31
  12  -8  -1    7.44    1.86
  13  -8  -1    4.65    1.51
  14  -8  -1    6.54    1.77
  15  -8  -1    7.79    1.81
 -15  -7  -1   12.17    3.23
 -14  -7  -1   -0.25    0.76
 -13  -7  -1   95.51    4.70
 -12  -7  -1   -0.04    0.62
 -11  -7  -1    8.39    1.23
 -10  -7  -1    0.94    0.50
  -9  -7  -1    3.06    0.69
  -8  -7  -1   23.23    1.81
  -7  -7  -1   31.25    1.49
  -6  -7  -1   24.91    1.33
  -5  -7  -1  355.20    4.64
  -4  -7  -1    7.01    0.59
  -3  -7  -1   26.89    1.15
  -2  -7  -1   19.16    1.03
  -1  -7  -1    9.24    0.75
   0  -7  -1    0.02    0.16
   1  -7  -1    7.74    0.68
   2  -7  -1   17.00    1.08
   3  -7  -1   27.63    1.24
   4  -7  -1    7.28    0.73
   5  -7  -1  344.03    5.47
   6  -7  -1   22.95    1.88
   7  -7  -1   32.76    2.34
   8  -7  -1   23.79    2.04
   9  -7  -1    2.76    0.79
  10  -7  -1    0.78    0.57
  11  -7  -1    9.67    1.43
  12  -7  -1    1.04    0.91
  13  -7  -1   87.65    5.11
  14  -7  -1   -0.05    0.96
  15  -7  -1   14.50    2.65
  16  -7  -1    2.02    1.37
 -16  -6  -1    4.71    2.33
 -15  -6  -1    1.15    1.39
 -14  -6  -1   -0.72    0.98
 -13  -6  -1   72.85    3.74
 -12  -6  -1    9.17    1.37
 -11  -6  -1  127.41    4.03
 -10  -6  -1   27.36    2.08
  -9  -6  -1    0.61    0.41
  -8  -6  -1   58.32    1.91
  -7  -6  -1   22.99    1.38
  -6  -6  -1    3.26    0.52
  -5  -6  -1   21.87    1.16
  -4  -6  -1    0.78    0.20
  -3  -6  -1    4.25    0.44
  -2  -6  -1    5.46    0.53
  -1  -6  -1  323.60    4.74
   0  -6  -1  146.13    2.61
   1  -6  -1  330.33    4.71
   2  -6  -1    6.04    0.74
   3  -6  -1    3.64    0.46
   4  -6  -1    0.43    0.23
   5  -6  -1   18.46    0.99
   6  -6  -1    4.15    0.76
   7  -6  -1   22.88    1.81
   8  -6  -1   52.28    2.54
   9  -6  -1    0.52    0.46
  10  -6  -1   24.99    2.17
  11  -6  -1  137.10    4.54
  12  -6  -1    6.68    1.24
  13  -6  -1   67.85    5.31
  14  -6  -1   -1.31    0.75
  15  -6  -1    0.43    1.02
  16  -6  -1    9.31    2.20
 -16  -5  -1    0.82    1.39
 -15  -5  -1   -0.19    1.19
 -14  -5  -1   28.34    4.42
 -13  -5  -1    1.63    0.65
 -12  -5  -1   11.02    1.42
 -11  -5  -1   14.73    1.56
 -10  -5  -1   80.41    2.95
  -9  -5  -1   11.40    1.28
  -8  -5  -1   20.48    1.29
  -7  -5  -1  126.09    2.75
  -6  -5  -1   55.23    1.64
  -5  -5  -1    3.68    0.49
  -4  -5  -1    5.72    0.57
  -3  -5  -1  140.09    2.20
  -2  -5  -1  263.86    3.91
  -1  -5  -1   13.71    0.74
   0  -5  -1    0.31    0.16
   1  -5  -1   14.17    0.68
   2  -5  -1  263.98    4.70
   3  -5  -1  136.91    2.59
   4  -5  -1    5.16    0.54
   5  -5  -1    1.99    0.36
   6  -5  -1   56.61    2.21
   7  -5  -1  132.10    3.72
   8  -5  -1   20.43    1.75
   9  -5  -1   11.43    1.10
  10  -5  -1   87.17    3.38
  11  -5  -1   14.67    1.67
  12  -5  -1    8.76    1.34
  13  -5  -1    0.60    0.64
  14  -5  -1   39.15    4.07
  15  -5  -1   -0.11    0.94
  16  -5  -1   -0.56    0.84
  17  -5  -1   49.64    6.87
 -16  -4  -1    8.28    2.82
 -15  -4  -1    0.27    1.08
 -14  -4  -1   82.98    4.26
 -13  -4  -1    0.16    0.42
 -12  -4  -1    2.16    0.66
 -11  -4  -1   10.14    1.26
 -10  -4  -1   13.95    1.40
  -9  -4  -1    6.81    0.94
  -8  -4  -1   54.49    1.68
  -7  -4  -1   28.27    1.23
  -6  -4  -1   58.94    1.63
  -5  -4  -1    1.04    0.28
  -4  -4  -1  354.68    4.90
  -3  -4  -1   15.34    0.76
  -2  -4  -1   48.51    1.04
  -1  -4  -1   53.03    1.25
   0  -4  -1   22.89    0.75
   1  -4  -1   51.25    1.12
   2  -4  -1   50.07    1.49
   3  -4  -1   15.49    0.76
   4  -4  -1  346.39    4.87
   5  -4  -1    1.29    0.24
   6  -4  -1   55.27    2.08
   7  -4  -1   28.64    1.75
   8  -4  -1   54.71    2.24
   9  -4  -1    6.09    0.88
  10  -4  -1   11.33    1.40
  11  -4  -1   10.74    1.40
  12  -4  -1    2.99    0.84
  13  -4  -1    0.11    0.57
  14  -4  -1   83.91    3.83
  15  -4  -1   -0.23    0.82
  16  -4  -1    9.68    2.19
 -16  -3  -1    1.80    1.50
 -15  -3  -1    3.81    1.17
 -14  -3  -1    8.32    1.72
 -13  -3  -1    0.61    0.51
 -12  -3  -1    0.15    0.40
 -11  -3  -1   18.31    1.66
 -10  -3  -1   55.20    2.30
  -9  -3  -1   77.24    2.61
  -8  -3  -1   76.24    1.99
  -7  -3  -1  290.32    4.46
  -6  -3  -1    3.35    0.45
  -5  -3  -1  170.01    2.88
  -4  -3  -1   49.71    1.28
  -3  -3  -1   21.78    0.76
  -2  -3  -1  252.71    3.41
  -1  -3  -1  364.38    4.58
   0  -3  -1    0.03    0.11
   1  -3  -1  353.30    5.37
   2  -3  -1  249.84    4.07
   3  -3  -1   23.10    0.76
   4  -3  -1   50.74    1.12
   5  -3  -1  164.45    3.62
   6  -3  -1    3.56    0.63
   7  -3  -1  280.03    5.58
   8  -3  -1   76.87    2.24
   9  -3  -1   78.32    2.99
  10  -3  -1   58.88    2.66
  11  -3  -1   14.99    1.70
  12  -3  -1   -0.14    0.44
  13  -3  -1    0.64    0.59
  14  -3  -1    9.90    1.55
  15  -3  -1    2.62    0.96
  16  -3  -1    2.84    1.90
 -17  -2  -1   -1.25    1.25
 -16  -2  -1    0.03    0.91
 -15  -2  -1    4.05    1.28
 -14  -2  -1    1.12    0.74
 -13  -2  -1   17.34    2.29
 -12  -2  -1   47.95    2.39
 -11  -2  -1  146.76    4.07
 -10  -2  -1   11.87    1.29
  -9  -2  -1    5.13    0.78
  -8  -2  -1    1.23    0.33
  -7  -2  -1   66.43    1.71
  -6  -2  -1    4.25    0.48
  -5  -2  -1    8.82    0.64
  -4  -2  -1   55.89    1.33
  -3  -2  -1   42.10    1.03
  -2  -2  -1   84.89    1.46
  -1  -2  -1  355.40    5.02
   0  -2  -1    2.88    0.25
   1  -2  -1  337.01    5.01
   2  -2  -1   87.78    1.76
   3  -2  -1   43.15    1.04
   4  -2  -1   57.78    1.72
   5  -2  -1   11.00    0.93
   6  -2  -1    4.75    0.65
   7  -2  -1   67.41    2.51
   8  -2  -1    0.98    0.32
   9  -2  -1    9.22    1.25
  10  -2  -1   12.45    1.53
  11  -2  -1  143.50    4.57
  12  -2  -1   54.57    3.17
  13  -2  -1   13.70    1.76
  14  -2  -1    0.09    0.61
  15  -2  -1    5.10    1.48
  16  -2  -1    1.03    1.04
  17  -2  -1    0.33    1.49
 -17  -1  -1    3.26    1.65
 -16  -1  -1    1.41    0.95
 -15  -1  -1   12.94    2.16
 -14  -1  -1   33.38    3.32
 -13  -1  -1   31.15    2.89
 -12  -1  -1    7.58    1.12
 -11  -1  -1   35.26    2.29
 -10  -1  -1   93.96    2.51
  -9  -1  -1    2.89    0.42
  -8  -1  -1   67.24    1.58
  -7  -1  -1    0.49    0.19
  -6  -1  -1    0.70    0.23
  -5  -1  -1  383.38    5.09
  -4  -1  -1   57.85    1.34
  -3  -1  -1  122.67    2.00
  -2  -1  -1  105.65    1.66
  -1  -1  -1    3.64    0.37
   0  -1  -1    0.14    0.12
   1  -1  -1    3.70    0.27
   2  -1  -1  104.09    1.90
   3  -1  -1  121.94    2.44
   4  -1  -1   56.42    1.60
   5  -1  -1  377.78    6.04
   6  -1  -1    0.98    0.30
   7  -1  -1    0.44    0.23
   8  -1  -1   60.18    2.43
   9  -1  -1    2.29    0.66
  10  -1  -1   99.38    3.51
  11  -1  -1   32.35    2.44
  12  -1  -1    7.93    1.29
  13  -1  -1   39.70    2.97
  14  -1  -1   25.17    3.12
  15  -1  -1   15.77    2.56
  16  -1  -1    1.95    1.23
  17  -1  -1    2.63    1.39
 -17   0  -1    1.28    1.05
 -16   0  -1  105.43    7.33
 -15   0  -1   -0.11    0.69
 -14   0  -1   34.23    3.32
 -13   0  -1   -0.16    0.50
 -12   0  -1   -0.02    0.39
 -11   0  -1    0.05    0.31
 -10   0  -1    7.17    0.96
  -9   0  -1    0.07    0.22
  -8   0  -1  392.62    5.68
  -7   0  -1    0.12    0.17
  -6   0  -1   37.82    1.14
  -5   0  -1    0.07    0.14
  -4   0  -1  319.70    6.12
  -3   0  -1    0.13    0.14
  -2   0  -1  313.52    4.55
  -1   0  -1    0.08    0.11
   0   0  -1   21.71    0.69
   1   0  -1   -0.02    0.13
   2   0  -1  319.85    5.65
   3   0  -1   -0.05    0.14
   4   0  -1  318.16    4.97
   5   0  -1   -0.02    0.15
   6   0  -1   37.89    1.15
   7   0  -1    0.00    0.16
   8   0  -1  377.53    7.32
   9   0  -1    0.25    0.36
  10   0  -1    6.08    1.05
  11   0  -1    0.03    0.39
  12   0  -1    0.91    0.54
  13   0  -1    0.27    0.60
  14   0  -1   37.57    3.90
  15   0  -1    0.00    0.67
  16   0  -1   92.62    5.47
  17   0  -1    0.69    1.05
 -17   1  -1    2.43    1.21
 -16   1  -1    2.06    1.04
 -15   1  -1   15.19    2.22
 -14   1  -1   31.07    3.18
 -13   1  -1   33.79    3.09
 -12   1  -1    8.18    1.45
 -11   1  -1   30.57    2.11
 -10   1  -1   95.80    3.00
  -9   1  -1    2.62    0.47
  -8   1  -1   61.85    1.74
  -7   1  -1    0.46    0.21
  -6   1  -1    0.97    0.23
  -5   1  -1  382.76    4.99
  -4   1  -1   60.16    1.22
  -3   1  -1  123.28    2.91
  -2   1  -1  105.81    2.43
  -1   1  -1    3.32    0.35
   0   1  -1    0.01    0.13
   2   1  -1  106.95    3.42
   3   1  -1  124.26    2.27
   4   1  -1   61.54    1.45
   5   1  -1  370.96    5.03
   6   1  -1    0.86    0.35
   7   1  -1    0.79    0.37
   8   1  -1   64.73    2.46
   9   1  -1    2.04    0.61
  10   1  -1   96.26    3.38
  11   1  -1   36.48    2.58
  12   1  -1   11.17    1.99
  13   1  -1   36.08    3.68
  14   1  -1   36.24    3.80
  15   1  -1   17.50    2.79
  16   1  -1    1.64    1.05
  17   1  -1    1.73    1.03
 -17   2  -1   -0.44    0.86
 -16   2  -1    0.55    0.84
 -15   2  -1    4.03    1.24
 -14   2  -1    1.25    0.78
 -13   2  -1   14.60    1.96
 -12   2  -1   44.32    3.40
 -11   2  -1  146.01    3.96
 -10   2  -1   10.96    1.18
  -9   2  -1    6.80    0.75
  -8   2  -1    0.39    0.22
  -7   2  -1   63.21    1.66
  -6   2  -1    4.18    0.47
  -5   2  -1    9.02    0.56
  -4   2  -1   58.74    1.26
  -3   2  -1   41.60    0.95
  -2   2  -1   85.95    1.63
  -1   2  -1  349.10    4.86
   0   2  -1    2.04    0.35
   2   2  -1   86.86    2.32
   3   2  -1   42.18    1.45
   4   2  -1   57.22    1.63
   5   2  -1   10.29    0.52
   6   2  -1    4.79    0.68
   7   2  -1   67.05    2.32
   8   2  -1    0.58    0.38
   9   2  -1    7.46    1.01
  10   2  -1   12.35    1.40
  11   2  -1  141.32    5.76
  12   2  -1   46.08    3.98
  13   2  -1   10.67    2.05
  14   2  -1    1.69    1.15
  15   2  -1    2.22    1.21
  16   2  -1    0.09    0.64
  17   2  -1   -0.37    0.86
 -17   3  -1   58.82    4.96
 -16   3  -1    2.86    1.23
 -15   3  -1    3.52    1.23
 -14   3  -1    8.69    1.72
 -13   3  -1    0.17    0.60
 -12   3  -1   -0.18    0.50
 -11   3  -1   18.62    1.58
 -10   3  -1   58.47    2.33
  -9   3  -1   74.02    2.23
  -8   3  -1   78.39    2.01
  -7   3  -1  283.12    4.36
  -6   3  -1    3.08    0.42
  -5   3  -1  163.00    2.76
  -4   3  -1   50.85    1.24
  -3   3  -1   22.11    0.83
  -2   3  -1  249.16    3.94
  -1   3  -1  362.32    4.39
   0   3  -1    0.06    0.13
   1   3  -1  363.94    6.53
   2   3  -1  252.71    4.12
   3   3  -1   22.69    0.87
   4   3  -1   49.85    1.48
   5   3  -1  163.94    3.40
   6   3  -1    3.87    0.61
   7   3  -1  266.66    5.41
   8   3  -1   77.03    2.62
   9   3  -1   76.57    2.90
  10   3  -1   55.53    3.70
  11   3  -1   22.48    2.71
  12   3  -1   -0.22    0.55
  13   3  -1    0.24    0.69
  14   3  -1   10.10    1.54
  15   3  -1    2.73    0.96
  16   3  -1    4.86    1.34
  17   3  -1   51.06    3.95
 -17   4  -1    0.95    1.05
 -16   4  -1   10.80    2.05
 -15   4  -1    0.14    0.71
 -14   4  -1   84.45    4.44
 -13   4  -1    0.28    0.61
 -12   4  -1    1.87    0.81
 -11   4  -1   11.24    1.66
 -10   4  -1   13.68    1.38
  -9   4  -1    5.63    0.80
  -8   4  -1   52.57    1.64
  -7   4  -1   27.81    1.19
  -6   4  -1   56.77    1.54
  -5   4  -1    1.38    0.29
  -4   4  -1  356.83    5.59
  -3   4  -1   15.35    0.83
  -2   4  -1   50.42    1.42
  -1   4  -1   51.76    1.11
   0   4  -1   22.06    1.00
   1   4  -1   55.17    1.52
   2   4  -1   47.60    1.40
   3   4  -1   15.53    0.68
   4   4  -1  354.47    4.88
   5   4  -1    0.96    0.28
   6   4  -1   57.12    1.64
   7   4  -1   29.17    1.52
   8   4  -1   52.69    2.94
   9   4  -1    3.59    0.72
  10   4  -1   11.27    1.42
  11   4  -1    8.90    1.37
  12   4  -1    1.64    0.72
  13   4  -1   -0.03    0.54
  14   4  -1   84.91    3.89
  15   4  -1   -0.24    0.63
  16   4  -1    9.46    1.75
  17   4  -1    2.12    1.39
 -16   5  -1    0.47    0.93
 -15   5  -1   -0.05    0.80
 -14   5  -1   40.54    3.59
 -13   5  -1    0.58    0.62
 -12   5  -1   11.48    1.86
 -11   5  -1   13.29    1.84
 -10   5  -1   87.79    2.93
  -9   5  -1   11.51    1.20
  -8   5  -1   22.10    1.21
  -7   5  -1  126.27    2.67
  -6   5  -1   54.55    1.58
  -5   5  -1    2.54    0.46
  -4   5  -1    4.40    0.56
  -3   5  -1  138.69    3.49
  -2   5  -1  257.68    4.48
  -1   5  -1   14.44    0.64
   0   5  -1    0.25    0.17
   1   5  -1   14.61    0.68
   2   5  -1  267.30    4.44
   3   5  -1  139.80    3.03
   4   5  -1    5.78    0.49
   5   5  -1    2.67    0.36
   6   5  -1   52.47    2.11
   7   5  -1  123.84    3.60
   8   5  -1   21.37    1.85
   9   5  -1   11.36    1.41
  10   5  -1   82.92    3.34
  11   5  -1   13.41    1.62
  12   5  -1   10.71    1.59
  13   5  -1   -0.19    0.52
  14   5  -1   31.26    2.81
  15   5  -1   -0.17    0.71
  16   5  -1    0.04    0.82
  17   5  -1   56.69    7.02
 -16   6  -1    9.38    2.06
 -15   6  -1    1.73    0.93
 -14   6  -1   -0.39    0.72
 -13   6  -1   79.28    4.27
 -12   6  -1    8.33    1.56
 -11   6  -1  137.88    5.20
 -10   6  -1   24.47    1.86
  -9   6  -1    0.37    0.33
  -8   6  -1   60.93    1.87
  -7   6  -1   23.91    1.26
  -6   6  -1    4.78    0.59
  -5   6  -1   19.38    1.19
  -4   6  -1    0.19    0.22
  -3   6  -1    4.29    0.58
  -2   6  -1    5.32    0.65
  -1   6  -1  334.86    4.56
   0   6  -1  140.48    2.89
   1   6  -1  333.48    4.49
   2   6  -1    5.32    0.53
   3   6  -1    4.51    0.60
   4   6  -1    0.48    0.17
   5   6  -1   21.57    1.56
   6   6  -1    3.44    0.71
   7   6  -1   26.20    1.93
   8   6  -1   54.40    2.48
   9   6  -1    0.47    0.40
  10   6  -1   22.31    2.07
  11   6  -1  129.16    4.43
  12   6  -1    7.27    1.26
  13   6  -1   72.65    3.74
  14   6  -1   -0.78    0.57
  15   6  -1    0.38    0.77
  16   6  -1   10.79    1.89
 -16   7  -1    4.03    1.40
 -15   7  -1   15.81    2.53
 -14   7  -1    0.14    0.71
 -13   7  -1   81.85    6.43
 -12   7  -1    0.75    0.65
 -11   7  -1    7.89    1.53
 -10   7  -1    0.14    0.48
  -9   7  -1    3.42    0.75
  -8   7  -1   22.16    1.40
  -7   7  -1   32.29    1.46
  -6   7  -1   25.09    1.52
  -5   7  -1  343.61    6.17
  -4   7  -1    7.20    0.81
  -3   7  -1   26.67    1.37
  -2   7  -1   17.12    0.72
  -1   7  -1    8.66    0.57
   0   7  -1    0.19    0.19
   1   7  -1    8.63    0.83
   2   7  -1   18.30    0.81
   3   7  -1   29.82    1.14
   4   7  -1    7.67    0.85
   5   7  -1  340.68    6.38
   6   7  -1   27.65    1.71
   7   7  -1   27.90    1.98
   8   7  -1   20.78    1.82
   9   7  -1    2.71    0.77
  10   7  -1    0.27    0.49
  11   7  -1   12.27    1.65
  12   7  -1    0.80    0.63
  13   7  -1   94.01    4.10
  14   7  -1   -0.07    0.71
  15   7  -1   17.60    2.24
  16   7  -1    3.04    1.95
 -15   8  -1    7.97    1.78
 -14   8  -1    4.57    1.38
 -13   8  -1    3.02    1.05
 -12   8  -1    6.66    1.44
 -11   8  -1   28.90    2.97
 -10   8  -1    1.57    0.77
  -9   8  -1   30.54    2.10
  -8   8  -1   88.58    2.98
  -7   8  -1   31.38    1.80
  -6   8  -1    0.79    0.39
  -5   8  -1   39.25    1.72
  -4   8  -1   48.18    1.87
  -3   8  -1   46.92    1.85
  -2   8  -1  100.65    2.76
  -1   8  -1   47.00    1.39
   0   8  -1   40.08    1.51
   1   8  -1   47.69    1.77
   2   8  -1   96.62    2.75
   3   8  -1   44.75    1.88
   4   8  -1   47.13    2.01
   5   8  -1   38.73    2.37
   6   8  -1    0.50    0.41
   7   8  -1   32.39    2.85
   8   8  -1   79.08    3.92
   9   8  -1   27.43    2.86
  10   8  -1    1.73    0.83
  11   8  -1   25.17    2.89
  12   8  -1    8.94    1.82
  13   8  -1    2.69    1.12
  14   8  -1    3.76    1.39
  15   8  -1   11.99    2.27
 -15   9  -1    9.94    2.11
 -14   9  -1   19.14    2.70
 -13   9  -1    0.33    0.82
 -12   9  -1    5.61    1.38
 -11   9  -1    2.65    0.95
 -10   9  -1   41.25    3.47
  -9   9  -1   82.41    3.02
  -8   9  -1   53.94    2.35
  -7   9  -1    5.62    0.89
  -6   9  -1   28.57    1.76
  -5   9  -1  110.46    3.20
  -4   9  -1    0.27    0.27
  -3   9  -1    0.13    0.24
  -2   9  -1  197.57    4.46
  -1   9  -1   50.29    1.99
   0   9  -1    0.23    0.23
   1   9  -1   50.00    1.90
   2   9  -1  206.91    4.54
   3   9  -1   -0.05    0.25
   4   9  -1    0.30    0.30
   5   9  -1  114.13    3.49
   6   9  -1   27.14    2.52
   7   9  -1    3.83    1.03
   8   9  -1   51.44    3.47
   9   9  -1   81.00    4.15
  10   9  -1   33.09    3.26
  11   9  -1    1.33    0.85
  12   9  -1    2.70    1.22
  13   9  -1    0.14    0.82
  14   9  -1   20.01    2.97
  15   9  -1    6.90    2.67
 -14  10  -1   14.48    2.39
 -13  10  -1   10.95    2.06
 -12  10  -1   11.28    2.01
 -11  10  -1   58.25    3.89
 -10  10  -1    1.84    0.87
  -9  10  -1   10.39    1.70
  -8  10  -1    8.52    1.16
  -7  10  -1    0.83    0.45
  -6  10  -1   30.43    2.06
  -5  10  -1    3.38    0.70
  -4  10  -1  130.63    3.63
  -3  10  -1   14.79    1.35
  -2  10  -1    0.45    0.33
  -1  10  -1   95.52    2.98
   0  10  -1   26.89    2.28
   1  10  -1   92.43    2.81
   2  10  -1    0.25    0.31
   3  10  -1   13.14    1.33
   4  10  -1  135.74    3.85
   5  10  -1    3.69    0.82
   6  10  -1   30.10    2.25
   7  10  -1    0.36    0.48
   8  10  -1    8.95    1.69
   9  10  -1    8.81    1.67
  10  10  -1    1.58    0.87
  11  10  -1   59.83    4.20
  12  10  -1   14.44    2.40
  13  10  -1   11.84    2.25
  14  10  -1   13.03    2.43
 -13  11  -1    0.92    1.03
 -12  11  -1   -0.17    0.74
 -11  11  -1    0.29    0.71
 -10  11  -1    0.95    0.74
  -9  11  -1   42.75    3.53
  -8  11  -1    0.01    0.46
  -7  11  -1  122.35    3.91
  -6  11  -1   42.33    2.22
  -5  11  -1   28.38    2.02
  -4  11  -1   21.75    1.83
  -3  11  -1    1.15    0.48
  -2  11  -1   19.61    1.64
  -1  11  -1   86.42    2.99
   0  11  -1    0.17    0.36
   1  11  -1   91.53    3.84
   2  11  -1   20.62    1.70
   3  11  -1    0.46    0.40
   4  11  -1   18.02    1.68
   5  11  -1   29.13    2.25
   6  11  -1   45.42    2.65
   7  11  -1  117.87    4.12
   8  11  -1   -0.11    0.43
   9  11  -1   36.86    3.57
  10  11  -1    2.00    0.98
  11  11  -1   -0.07    0.71
  12  11  -1   -0.21    0.79
  13  11  -1    0.91    1.16
 -13  12  -1   -0.25    1.97
 -12  12  -1    0.66    0.87
 -11  12  -1   13.81    2.07
 -10  12  -1   26.04    2.98
  -9  12  -1    5.15    1.31
  -8  12  -1    7.97    1.47
  -7  12  -1   24.35    2.59
  -6  12  -1    0.58    0.45
  -5  12  -1   18.73    1.77
  -4  12  -1   54.61    2.58
  -3  12  -1   29.69    2.22
  -2  12  -1    7.14    1.06
  -1  12  -1    1.49    0.54
   0  12  -1   41.02    3.19
   1  12  -1    1.37    0.61
   2  12  -1    4.27    1.04
   3  12  -1   31.05    2.28
   4  12  -1   50.49    2.56
   5  12  -1   20.52    1.90
   6  12  -1    0.43    0.50
   7  12  -1   30.59    2.54
   8  12  -1    8.29    1.36
   9  12  -1    5.43    1.15
  10  12  -1   24.89    2.46
  11  12  -1   13.28    1.86
  12  12  -1   -0.09    0.85
  13  12  -1   -0.05    1.02
 -12  13  -1    2.52    1.83
 -11  13  -1   28.63    3.50
 -10  13  -1   34.69    3.45
  -9  13  -1    9.68    1.83
  -8  13  -1   30.06    3.10
  -7  13  -1    7.53    1.56
  -6  13  -1    1.19    0.60
  -5  13  -1    0.99    0.53
  -4  13  -1    7.46    1.12
  -3  13  -1   97.57    3.50
  -2  13  -1   42.05    2.70
  -1  13  -1   -0.15    0.36
   0  13  -1   -0.05    0.37
   1  13  -1    0.29    0.47
   2  13  -1   37.82    3.22
   3  13  -1   94.02    4.41
   4  13  -1    9.35    1.74
   5  13  -1    1.55    0.63
   6  13  -1    0.80    0.55
   7  13  -1    6.43    1.25
   8  13  -1   26.43    2.51
   9  13  -1    7.68    1.41
  10  13  -1   39.24    3.14
  11  13  -1   34.39    3.04
  12  13  -1    2.32    0.99
 -11  14  -1    3.53    3.20
 -10  14  -1    4.76    2.33
  -9  14  -1   11.96    2.14
  -8  14  -1   45.32    3.97
  -7  14  -1   -0.58    0.58
  -6  14  -1    0.95    0.73
  -5  14  -1    0.43    0.48
  -4  14  -1   42.93    2.90
  -3  14  -1    1.21    0.58
  -2  14  -1    5.81    1.07
  -1  14  -1   20.55    1.96
   0  14  -1   79.02    3.26
   1  14  -1   23.62    2.66
   2  14  -1    6.19    1.38
   3  14  -1    0.14    0.51
   4  14  -1   40.09    3.58
   5  14  -1    0.42    0.58
   6  14  -1    0.45    0.65
   7  14  -1    0.46    0.56
   8  14  -1   48.84    3.39
   9  14  -1   12.19    1.64
  10  14  -1    2.99    1.02
  11  14  -1    1.38    0.97
  -9  15  -1   -0.22    1.28
  -8  15  -1   -0.11    1.02
  -7  15  -1   -0.04    0.79
  -6  15  -1   47.78    4.01
  -5  15  -1   75.93    3.35
  -4  15  -1   18.58    1.95
  -3  15  -1   11.76    1.56
  -2  15  -1    2.83    0.84
  -1  15  -1    0.04    0.46
   0  15  -1    0.15    0.51
   1  15  -1    0.89    0.63
   2  15  -1    2.39    1.05
   3  15  -1   12.27    2.07
   4  15  -1   16.83    2.40
   5  15  -1   68.84    4.61
   6  15  -1   49.58    4.24
   7  15  -1    0.10    0.78
   8  15  -1    0.62    0.90
   9  15  -1   -0.18    0.70
  10  15  -1   -0.24    0.94
  -8  16  -1    0.09    1.16
  -7  16  -1   25.02    4.74
  -6  16  -1    2.40    1.18
  -5  16  -1    3.53    1.08
  -4  16  -1   -0.18    0.55
  -3  16  -1   27.21    2.41
  -2  16  -1   26.13    2.39
  -1  16  -1   17.57    1.96
   0  16  -1   50.99    3.35
   1  16  -1   17.06    1.89
   2  16  -1   36.95    3.69
   3  16  -1   31.31    3.39
   4  16  -1    0.25    0.76
   5  16  -1    4.35    1.45
   6  16  -1    3.57    1.24
   7  16  -1   19.85    2.91
   8  16  -1    0.22    0.95
  -6  17  -1    0.69    1.39
  -5  17  -1   -0.96    0.95
  -4  17  -1    9.25    1.52
  -3  17  -1    4.04    1.06
  -2  17  -1   12.05    1.75
  -1  17  -1   48.90    3.43
   0  17  -1    0.42    0.71
   1  17  -1   48.99    3.41
   2  17  -1   12.13    1.73
   3  17  -1    4.88    1.49
   4  17  -1    7.67    1.90
   5  17  -1   -0.44    0.83
   6  17  -1   -0.49    0.87
  -3  18  -1   11.55    2.38
  -2  18  -1    3.12    1.07
  -1  18  -1    0.96    0.82
   0  18  -1    4.67    1.21
   1  18  -1    1.50    0.91
   2  18  -1    1.43    0.88
   3  18  -1   12.14    1.76
  -4 -18   0   25.98    5.51
  -3 -18   0    0.28    1.05
  -2 -18   0    0.03    0.94
  -1 -18   0   11.64    2.38
   0 -18   0    2.54    1.28
   1 -18   0   16.70    2.83
   2 -18   0   -0.16    1.07
   3 -18   0    0.59    1.10
   4 -18   0   40.04    9.71
  -7 -17   0   22.82    4.17
  -6 -17   0   36.85    3.85
  -5 -17   0   16.20    2.50
  -4 -17   0   10.01    1.60
  -3 -17   0    1.18    1.00
  -2 -17   0    6.79    1.81
  -1 -17   0    7.72    1.86
   0 -17   0    0.26    0.87
   1 -17   0    9.07    1.94
   2 -17   0    2.88    1.26
   3 -17   0    0.21    0.86
   4 -17   0    7.85    2.90
   5 -17   0   14.39    3.82
   6 -17   0   29.10    5.31
   7 -17   0   26.88    7.68
  -9 -16   0    2.53    1.79
  -8 -16   0    3.68    1.35
  -7 -16   0    9.41    2.08
  -6 -16   0    0.53    0.85
  -5 -16   0    8.90    1.77
  -4 -16   0   47.82    3.36
  -3 -16   0    9.64    1.48
  -2 -16   0    1.67    0.77
  -1 -16   0   10.70    1.64
   0 -16   0   45.11    4.17
   1 -16   0   14.03    2.34
   2 -16   0    4.28    1.40
   3 -16   0   14.49    2.42
   4 -16   0   45.47    4.20
   5 -16   0    8.64    2.88
   6 -16   0   -0.13    1.23
   7 -16   0   11.53    2.30
   8 -16   0    2.66    1.37
   9 -16   0    6.05    1.91
 -10 -15   0   19.42    2.87
  -9 -15   0    7.86    1.88
  -8 -15   0   20.97    2.80
  -7 -15   0    0.16    0.75
  -6 -15   0    0.07    0.65
  -5 -15   0    1.52    0.89
  -4 -15   0    7.86    1.34
  -3 -15   0   22.39    2.17
  -2 -15   0   27.51    2.43
  -1 -15   0    0.33    0.55
   0 -15   0    0.83    0.54
   1 -15   0    1.05    0.60
   2 -15   0   32.60    3.38
   3 -15   0   26.07    3.07
   4 -15   0    6.12    1.51
   5 -15   0    1.44    0.86
   6 -15   0   -0.21    0.86
   7 -15   0   -0.13    0.81
   8 -15   0   18.45    2.75
   9 -15   0    7.61    1.98
  10 -15   0   14.07    2.49
 -12 -14   0    9.04    4.22
 -11 -14   0    7.26    1.78
 -10 -14   0   12.54    2.33
  -9 -14   0    8.23    1.80
  -8 -14   0   72.16    4.55
  -7 -14   0    0.13    0.72
  -6 -14   0    0.90    0.75
  -5 -14   0    3.11    0.82
  -4 -14   0   14.12    1.74
  -3 -14   0    1.65    0.66
  -2 -14   0    4.17    0.91
  -1 -14   0   17.57    1.82
   0 -14   0  155.41    4.73
   1 -14   0   19.78    1.94
   2 -14   0    6.09    1.40
   3 -14   0    1.26    0.75
   4 -14   0   21.17    2.06
   5 -14   0    2.90    0.84
   6 -14   0    0.66    0.88
   7 -14   0    0.41    0.84
   8 -14   0   82.04    5.30
   9 -14   0   12.39    2.39
  10 -14   0   14.53    2.57
  11 -14   0    7.21    1.94
 -13 -13   0    1.66    2.06
 -12 -13   0   11.73    2.19
 -11 -13   0    0.88    0.72
 -10 -13   0    0.84    0.63
  -9 -13   0    0.82    0.56
  -8 -13   0    2.55    1.02
  -7 -13   0   17.83    2.46
  -6 -13   0   73.95    3.95
  -5 -13   0  120.66    4.15
  -4 -13   0   36.98    2.61
  -3 -13   0    3.48    0.83
  -2 -13   0    8.18    1.22
  -1 -13   0    3.56    0.81
   0 -13   0    0.82    0.48
   1 -13   0    4.53    0.91
   2 -13   0    5.31    0.86
   3 -13   0    3.76    0.89
   4 -13   0   40.46    2.80
   5 -13   0  127.14    4.29
   6 -13   0   74.31    4.30
   7 -13   0   10.53    1.95
   8 -13   0    2.06    1.05
   9 -13   0    0.02    0.84
  10 -13   0    0.11    0.89
  11 -13   0   -0.09    0.92
  12 -13   0    9.91    3.29
 -13 -12   0    1.31    0.98
 -12 -12   0   48.06    3.45
 -11 -12   0   27.67    2.61
 -10 -12   0    1.33    0.77
  -9 -12   0    0.31    0.51
  -8 -12   0   10.23    1.45
  -7 -12   0   41.26    2.78
  -6 -12   0   25.94    2.74
  -5 -12   0    2.25    0.66
  -4 -12   0   17.28    1.72
  -3 -12   0   26.76    2.10
  -2 -12   0   76.20    3.01
  -1 -12   0   54.33    2.47
   0 -12   0   46.20    2.34
   1 -12   0   49.73    2.03
   2 -12   0   79.85    2.56
   3 -12   0   25.86    2.16
   4 -12   0   18.30    1.82
   5 -12   0    2.96    0.80
   6 -12   0   22.80    2.16
   7 -12   0   44.28    3.99
   8 -12   0    6.57    1.59
   9 -12   0   -0.63    0.70
  10 -12   0    1.87    1.04
  11 -12   0   28.45    3.34
  12 -12   0   55.41    7.28
  13 -12   0    1.35    1.67
 -14 -11   0    9.50    3.35
 -13 -11   0    6.46    1.32
 -12 -11   0    1.23    0.73
 -11 -11   0    1.70    0.78
 -10 -11   0   22.67    2.13
  -9 -11   0   86.63    3.51
  -8 -11   0    0.73    0.48
  -7 -11   0    4.31    0.90
  -6 -11   0    0.37    0.35
  -5 -11   0    2.28    0.62
  -4 -11   0   11.78    1.38
  -3 -11   0   36.23    2.41
  -2 -11   0   28.23    2.09
  -1 -11   0  126.66    3.77
   0 -11   0    0.06    0.28
   1 -11   0  124.02    3.12
   2 -11   0   24.75    1.62
   3 -11   0   46.76    2.53
   4 -11   0    9.85    1.28
   5 -11   0    4.99    0.93
   6 -11   0    1.13    0.53
   7 -11   0    7.22    1.57
   8 -11   0    1.09    0.84
   9 -11   0   87.10    4.67
  10 -11   0   21.61    2.75
  11 -11   0   -0.37    0.62
  12 -11   0    0.73    1.41
  13 -11   0    8.21    2.85
 -14 -10   0   18.99    2.76
 -13 -10   0   30.29    2.62
 -12 -10   0   72.31    3.41
 -11 -10   0    2.12    0.74
 -10 -10   0    0.41    0.46
  -9 -10   0   11.56    1.44
  -8 -10   0    5.16    0.97
  -7 -10   0   13.64    1.47
  -6 -10   0   23.15    1.65
  -5 -10   0    6.73    0.88
  -4 -10   0   98.69    3.24
  -3 -10   0   83.63    2.90
  -2 -10   0   38.91    2.11
  -1 -10   0   49.36    1.73
   0 -10   0    4.32    0.61
   1 -10   0   48.96    1.78
   2 -10   0   36.42    1.77
   3 -10   0   82.96    2.98
   4 -10   0   96.12    3.29
   5 -10   0    5.19    0.94
   6 -10   0   26.63    2.08
   7 -10   0   16.62    2.27
   8 -10   0    4.35    1.24
   9 -10   0   12.17    1.98
  10 -10   0    0.07    0.65
  11 -10   0    1.23    0.86
  12 -10   0   75.94    8.17
  13 -10   0   24.78    4.55
  14 -10   0   16.54    3.87
 -15  -9   0   -0.22    0.86
 -14  -9   0   19.81    2.82
 -13  -9   0    0.27    0.65
 -12  -9   0    2.36    0.83
 -11  -9   0   20.42    2.01
 -10  -9   0   34.20    2.53
  -9  -9   0    0.68    0.48
  -8  -9   0    2.37    0.68
  -7  -9   0   56.89    2.45
  -6  -9   0  167.66    3.72
  -5  -9   0   26.03    1.59
  -4  -9   0    9.88    1.00
  -3  -9   0   73.07    2.60
  -2  -9   0   40.06    1.43
  -1  -9   0    2.87    0.50
   0  -9   0    0.00    0.20
   1  -9   0    2.94    0.51
   2  -9   0   40.15    1.60
   3  -9   0   81.18    2.78
   4  -9   0   11.18    1.01
   5  -9   0   25.93    1.48
   6  -9   0  173.39    3.81
   7  -9   0   60.02    2.28
   8  -9   0    1.88    0.68
   9  -9   0    1.17    0.59
  10  -9   0   30.71    2.52
  11  -9   0   22.99    2.53
  12  -9   0    2.50    1.10
  13  -9   0   -0.02    0.87
  14  -9   0   22.96    3.17
  15  -9   0    1.17    1.29
 -16  -8   0   13.43    3.36
 -15  -8   0    5.76    1.59
 -14  -8   0    5.06    1.44
 -13  -8   0    1.18    0.86
 -12  -8   0   20.53    2.02
 -11  -8   0   25.28    2.19
 -10  -8   0   71.44    2.96
  -9  -8   0   10.02    1.22
  -8  -8   0   52.28    2.36
  -7  -8   0   45.22    2.16
  -6  -8   0   31.59    1.62
  -5  -8   0   33.04    1.56
  -4  -8   0    7.94    0.83
  -3  -8   0   81.20    1.71
  -2  -8   0    0.15    0.18
  -1  -8   0   73.46    1.96
   0  -8   0  279.87    4.60
   1  -8   0   75.43    1.57
   2  -8   0    0.19    0.18
   3  -8   0   82.67    2.17
   4  -8   0    7.74    0.81
   5  -8   0   30.32    1.45
   6  -8   0   32.52    1.66
   7  -8   0   46.45    1.85
   8  -8   0   55.33    2.60
   9  -8   0   11.84    1.53
  10  -8   0   71.28    3.14
  11  -8   0   27.03    3.08
  12  -8   0   25.22    3.08
  13  -8   0    4.10    1.35
  14  -8   0    7.58    1.93
  15  -8   0    5.91    1.77
  16  -8   0   12.40    3.48
 -16  -7   0    5.16    1.65
 -15  -7   0    0.45    0.77
 -14  -7   0    0.75    0.85
 -13  -7   0   43.42    3.79
 -12  -7   0    0.24    0.47
 -11  -7   0   15.94    1.63
 -10  -7   0    0.23    0.41
  -9  -7   0  102.83    3.38
  -8  -7   0   20.56    1.70
  -7  -7   0   73.60    2.63
  -6  -7   0   17.84    1.22
  -5  -7   0   29.79    1.32
  -4  -7   0   14.73    1.05
  -3  -7   0  213.65    3.04
  -2  -7   0   22.64    0.99
  -1  -7   0   58.00    1.60
   0  -7   0    0.22    0.19
   1  -7   0   58.69    1.32
   2  -7   0   23.52    0.90
   3  -7   0  207.72    3.75
   4  -7   0   13.67    1.04
   5  -7   0   33.51    1.49
   6  -7   0   17.63    1.28
   7  -7   0   77.95    2.28
   8  -7   0   23.91    2.03
   9  -7   0  103.01    3.61
  10  -7   0    0.11    0.40
  11  -7   0   16.04    2.36
  12  -7   0    0.54    0.77
  13  -7   0   48.23    4.38
  14  -7   0   -0.10    0.87
  15  -7   0    1.53    1.07
  16  -7   0    5.81    1.84
 -16  -6   0   24.70    3.21
 -15  -6   0   45.27    4.21
 -14  -6   0    0.02    0.63
 -13  -6   0   13.84    2.15
 -12  -6   0    0.81    0.53
 -11  -6   0    1.54    0.60
 -10  -6   0   37.09    2.42
  -9  -6   0   49.53    2.23
  -8  -6   0   98.86    3.11
  -7  -6   0  111.40    2.59
  -6  -6   0   10.66    0.90
  -5  -6   0   86.68    2.17
  -4  -6   0    3.66    0.52
  -3  -6   0  363.99    5.36
  -2  -6   0  113.69    2.17
  -1  -6   0    3.25    0.43
   0  -6   0  177.87    2.49
   1  -6   0    3.54    0.36
   2  -6   0  112.52    2.00
   3  -6   0  364.04    5.42
   4  -6   0    3.70    0.51
   5  -6   0   91.77    2.29
   6  -6   0   11.22    0.94
   7  -6   0  114.12    2.36
   8  -6   0  104.62    2.78
   9  -6   0   55.64    2.26
  10  -6   0   41.81    2.45
  11  -6   0    1.36    0.80
  12  -6   0    2.04    0.97
  13  -6   0   15.94    2.27
  14  -6   0   -0.10    0.74
  15  -6   0   41.70    4.17
  16  -6   0   14.00    2.45
 -17  -5   0   -0.39    1.27
 -16  -5   0   13.44    2.39
 -15  -5   0    3.91    1.30
 -14  -5   0    9.18    1.76
 -13  -5   0    0.17    0.55
 -12  -5   0    2.95    0.79
 -11  -5   0   13.91    1.49
 -10  -5   0   57.54    2.41
  -9  -5   0   60.14    2.37
  -8  -5   0    0.05    0.23
  -7  -5   0   16.39    0.96
  -6  -5   0  241.20    3.96
  -5  -5   0   31.69    1.16
  -4  -5   0   36.50    1.22
  -3  -5   0    0.07    0.16
  -2  -5   0  164.43    2.38
  -1  -5   0  101.65    1.97
   0  -5   0    0.53    0.19
   1  -5   0   98.30    1.66
   2  -5   0  163.30    2.84
   3  -5   0    0.18    0.18
   4  -5   0   39.08    1.31
   5  -5   0   32.87    1.27
   6  -5   0  240.59    4.13
   7  -5   0   18.41    0.95
   8  -5   0    0.34    0.28
   9  -5   0   61.00    2.14
  10  -5   0   53.39    2.26
  11  -5   0   14.93    2.10
  12  -5   0    3.87    1.23
  13  -5   0    0.47    0.74
  14  -5   0    6.97    1.70
  15  -5   0    4.62    1.52
  16  -5   0   12.46    2.45
  17  -5   0   -0.45    1.47
 -17  -4   0    0.20    0.97
 -16  -4   0    2.24    1.07
 -15  -4   0   24.16    2.91
 -14  -4   0    9.07    1.74
 -13  -4   0    0.08    0.52
 -12  -4   0  222.98    5.67
 -11  -4   0    5.06    0.77
 -10  -4   0   18.19    1.38
  -9  -4   0    7.43    0.87
  -8  -4   0    2.26    0.46
  -7  -4   0    5.38    0.49
  -6  -4   0   93.58    2.03
  -5  -4   0   16.60    0.89
  -4  -4   0  132.62    2.79
  -3  -4   0    7.85    0.61
  -2  -4   0  284.75    3.98
  -1  -4   0   11.30    0.58
   0  -4   0  186.91    2.88
   1  -4   0   10.25    0.48
   2  -4   0  280.31    4.55
   3  -4   0    9.16    0.70
   4  -4   0  138.91    2.59
   5  -4   0   17.56    0.93
   6  -4   0   93.55    1.91
   7  -4   0    5.82    0.72
   8  -4   0    3.23    0.57
   9  -4   0    6.43    0.83
  10  -4   0   20.14    1.86
  11  -4   0    7.56    1.21
  12  -4   0  223.41    5.96
  13  -4   0    0.10    0.68
  14  -4   0    6.79    1.64
  15  -4   0   27.76    3.46
  16  -4   0    0.48    1.02
  17  -4   0    1.31    1.61
 -17  -3   0   11.81    2.18
 -16  -3   0   11.31    2.02
 -15  -3   0   25.48    2.90
 -14  -3   0    3.24    0.86
 -13  -3   0   25.02    2.10
 -12  -3   0    1.57    0.58
 -11  -3   0   18.54    1.43
 -10  -3   0    0.83    0.36
  -9  -3   0  244.40    4.50
  -8  -3   0   61.18    1.87
  -7  -3   0   22.59    1.30
  -6  -3   0  259.37    3.46
  -5  -3   0   17.04    0.72
  -4  -3   0   62.26    1.26
  -3  -3   0  137.16    2.28
  -2  -3   0    4.62    0.40
  -1  -3   0  260.84    3.37
   0  -3   0    0.19    0.13
   1  -3   0  262.00    3.08
   2  -3   0    4.81    0.44
   3  -3   0  140.44    2.40
   4  -3   0   58.42    1.59
   5  -3   0   17.39    0.74
   6  -3   0  253.26    4.28
   7  -3   0   22.24    1.16
   8  -3   0   58.39    1.91
   9  -3   0  255.10    4.66
  10  -3   0    0.68    0.49
  11  -3   0   16.83    1.73
  12  -3   0    1.05    0.58
  13  -3   0   27.24    2.44
  14  -3   0    3.89    1.24
  15  -3   0   21.06    2.64
  16  -3   0   13.23    2.41
  17  -3   0    8.10    2.90
 -17  -2   0    0.95    0.92
 -16  -2   0    0.99    0.91
 -15  -2   0   77.16    6.09
 -14  -2   0   11.85    1.60
 -13  -2   0    1.93    0.65
 -12  -2   0   14.81    1.56
 -11  -2   0   10.21    1.07
 -10  -2   0   27.22    1.61
  -9  -2   0   79.01    2.21
  -8  -2   0    5.90    0.66
  -7  -2   0  125.04    2.60
  -6  -2   0   67.23    1.71
  -5  -2   0   81.29    1.40
  -4  -2   0  296.19    3.50
  -3  -2   0  235.17    3.12
  -2  -2   0   34.50    0.92
  -1  -2   0    3.37    0.28
   0  -2   0    4.51    0.29
   1  -2   0    3.02    0.23
   2  -2   0   34.35    0.87
   3  -2   0  227.14    3.28
   4  -2   0  289.92    4.23
   5  -2   0   81.56    2.10
   6  -2   0   69.99    1.82
   7  -2   0  122.07    2.70
   8  -2   0    6.06    0.68
   9  -2   0   82.05    2.52
  10  -2   0   24.53    2.03
  11  -2   0    9.05    1.25
  12  -2   0   19.06    1.97
  13  -2   0    5.20    1.09
  14  -2   0   10.99    1.56
  15  -2   0   71.23    4.68
  16  -2   0    2.61    1.58
  17  -2   0    1.12    1.47
 -17  -1   0   -0.78    0.79
 -16  -1   0   23.84    4.22
 -15  -1   0    1.73    0.96
 -14  -1   0    0.54    0.72
 -13  -1   0   65.26    2.88
 -12  -1   0   24.93    2.00
 -11  -1   0   28.12    2.04
 -10  -1   0    0.51    0.31
  -9  -1   0   22.35    1.33
  -8  -1   0   -0.20    0.17
  -7  -1   0   11.93    0.52
  -6  -1   0  250.35    3.16
  -5  -1   0   42.12    0.87
  -4  -1   0  204.77    2.51
  -3  -1   0  252.54    3.29
  -2  -1   0   58.24    1.04
  -1  -1   0   12.95    0.36
   0  -1   0    0.04    0.07
   1  -1   0   13.59    0.44
   2  -1   0   56.91    1.05
   3  -1   0  244.22    3.42
   4  -1   0  198.94    3.49
   5  -1   0   41.59    1.22
   6  -1   0  250.92    3.97
   7  -1   0   13.84    0.95
   8  -1   0   -0.12    0.19
   9  -1   0   20.07    1.80
  10  -1   0    0.18    0.36
  11  -1   0   31.22    2.38
  12  -1   0   23.63    2.16
  13  -1   0   63.83    3.22
  14  -1   0    1.52    0.70
  15  -1   0    1.08    0.98
  16  -1   0   25.03    4.83
  17  -1   0    0.60    1.36
 -17   0   0    0.38    0.88
 -16   0   0    6.90    1.73
 -15   0   0    0.15    0.62
 -14   0   0   51.00    3.60
 -13   0   0    0.51    0.43
 -12   0   0   76.59    2.97
 -11   0   0   -0.19    0.30
 -10   0   0  241.99    4.36
  -9   0   0    0.10    0.22
  -8   0   0  171.28    3.22
  -7   0   0    0.24    0.19
  -6   0   0    1.27    0.27
  -5   0   0    0.14    0.13
  -4   0   0    9.32    0.56
  -3   0   0    0.06    0.12
  -2   0   0   11.76    0.37
  -1   0   0    0.02    0.05
   1   0   0    0.04    0.07
   2   0   0   11.34    0.54
   3   0   0    0.08    0.12
   4   0   0    9.76    0.51
   5   0   0   -0.05    0.13
   6   0   0    1.22    0.26
   7   0   0   -0.24    0.14
   8   0   0  174.55    3.16
   9   0   0    0.11    0.33
  10   0   0  238.04    5.68
  11   0   0    0.21    0.40
  12   0   0   78.71    3.26
  13   0   0   -0.22    0.44
  14   0   0   47.09    4.13
  15   0   0    0.35    0.78
  16   0   0    6.17    1.67
  17   0   0    0.51    1.58
 -17   1   0    1.33    1.02
 -16   1   0   15.34    2.39
 -15   1   0    0.29    0.63
 -14   1   0    0.94    0.72
 -13   1   0   64.39    2.83
 -12   1   0   21.92    1.89
 -11   1   0   29.20    2.08
 -10   1   0    0.26    0.33
  -9   1   0   20.41    1.11
  -8   1   0    0.18    0.19
  -7   1   0   12.65    0.84
  -6   1   0  244.93    3.69
  -5   1   0   41.97    1.09
  -4   1   0  197.56    2.84
  -3   1   0  252.68    2.87
  -2   1   0   57.22    0.86
  -1   1   0   12.91    0.48
   0   1   0   -0.03    0.05
   1   1   0   12.72    0.44
   2   1   0   57.31    1.24
   3   1   0  243.64    3.98
   4   1   0  204.02    3.71
   5   1   0   43.11    1.55
   6   1   0  240.07    4.79
   7   1   0   12.85    1.21
   8   1   0   -0.09    0.24
   9   1   0   20.38    1.69
  10   1   0    0.15    0.37
  11   1   0   25.44    2.03
  12   1   0   24.85    2.18
  13   1   0   67.90    4.51
  14   1   0    0.79    0.74
  15   1   0    0.70    0.85
  16   1   0   20.28    2.98
  17   1   0   -0.18    0.89
 -17   2   0   -0.86    0.79
 -16   2   0    0.56    0.85
 -15   2   0   69.45    5.95
 -14   2   0   13.97    2.15
 -13   2   0    6.76    1.05
 -12   2   0   17.00    1.67
 -11   2   0    9.15    1.14
 -10   2   0   28.66    1.94
  -9   2   0   82.42    2.08
  -8   2   0    6.02    0.61
  -7   2   0  124.64    2.42
  -6   2   0   70.45    1.60
  -5   2   0   81.24    1.60
  -4   2   0  300.46    3.49
  -3   2   0  238.24    3.15
  -2   2   0   33.91    0.76
  -1   2   0    3.43    0.24
   0   2   0    4.46    0.32
   1   2   0    3.47    0.30
   2   2   0   34.15    1.01
   3   2   0  231.19    3.20
   4   2   0  291.67    4.12
   5   2   0   81.33    2.15
   6   2   0   71.13    2.15
   7   2   0  124.28    3.20
   8   2   0    6.52    0.86
   9   2   0   83.12    2.82
  10   2   0   30.11    2.14
  11   2   0    9.52    1.43
  12   2   0   17.73    1.87
  13   2   0    6.12    1.14
  14   2   0   10.54    1.57
  15   2   0   67.48    4.73
  16   2   0    0.91    0.92
  17   2   0    1.23    1.11
 -17   3   0    9.94    2.08
 -16   3   0   15.52    3.47
 -15   3   0   23.07    2.71
 -14   3   0    4.25    1.27
 -13   3   0   23.22    2.29
 -12   3   0    1.29    0.52
 -11   3   0   15.51    1.48
 -10   3   0    0.83    0.45
  -9   3   0  243.34    4.21
  -8   3   0   65.78    1.72
  -7   3   0   22.77    0.98
  -6   3   0  263.12    3.49
  -5   3   0   16.25    0.67
  -4   3   0   61.17    1.38
  -3   3   0  142.18    2.21
  -2   3   0    4.72    0.35
  -1   3   0  270.04    3.34
   0   3   0    0.05    0.13
   1   3   0  267.52    3.34
   2   3   0    5.05    0.47
   3   3   0  137.04    2.77
   4   3   0   63.67    1.34
   5   3   0   17.57    0.82
   6   3   0  261.93    4.12
   7   3   0   23.21    1.15
   8   3   0   60.77    1.87
   9   3   0  251.03    4.61
  10   3   0    0.70    0.45
  11   3   0   18.26    1.83
  12   3   0    1.86    0.73
  13   3   0   26.66    2.44
  14   3   0    4.50    1.11
  15   3   0   24.33    2.99
  16   3   0   11.59    2.17
  17   3   0   12.12    2.49
 -17   4   0    1.01    1.06
 -16   4   0    1.08    1.03
 -15   4   0   24.74    2.93
 -14   4   0    8.62    1.68
 -13   4   0    0.28    0.62
 -12   4   0  223.95    5.50
 -11   4   0    6.22    0.99
 -10   4   0   21.09    1.64
  -9   4   0    6.95    0.90
  -8   4   0    2.26    0.38
  -7   4   0    4.49    0.47
  -6   4   0   94.68    1.79
  -5   4   0   17.91    0.98
  -4   4   0  133.29    2.32
  -3   4   0    9.28    0.58
  -2   4   0  290.48    4.28
  -1   4   0   11.88    0.64
   0   4   0  195.43    2.61
   1   4   0    9.43    0.45
   2   4   0  284.96    4.44
   3   4   0    8.77    0.75
   4   4   0  132.33    2.98
   5   4   0   15.63    0.67
   6   4   0   95.64    2.02
   7   4   0    5.14    0.55
   8   4   0    1.71    0.39
   9   4   0    5.31    0.91
  10   4   0   20.64    1.91
  11   4   0    5.36    1.07
  12   4   0  223.14    6.05
  13   4   0    0.28    0.52
  14   4   0    8.19    1.40
  15   4   0   21.16    2.97
  16   4   0    0.29    1.03
  17   4   0    0.10    1.11
 -16   5   0   13.27    2.33
 -15   5   0    3.46    1.24
 -14   5   0   11.10    1.87
 -13   5   0    0.35    0.63
 -12   5   0    4.79    0.96
 -11   5   0   18.18    1.68
 -10   5   0   54.21    2.28
  -9   5   0   63.72    2.36
  -8   5   0    0.14    0.20
  -7   5   0   17.15    0.87
  -6   5   0  236.70    3.85
  -5   5   0   31.95    1.08
  -4   5   0   38.07    1.13
  -3   5   0    0.17    0.14
  -2   5   0  170.61    2.62
  -1   5   0  102.21    2.56
   0   5   0    0.09    0.10
   1   5   0   99.96    1.72
   2   5   0  163.87    2.63
   3   5   0    0.16    0.18
   4   5   0   39.90    1.47
   5   5   0   33.01    1.46
   6   5   0  224.29    4.85
   7   5   0   16.52    1.43
   8   5   0    0.01    0.29
   9   5   0   60.68    2.60
  10   5   0   49.61    2.56
  11   5   0   15.63    1.70
  12   5   0    3.91    0.93
  13   5   0   -0.10    0.50
  14   5   0    9.05    1.50
  15   5   0    6.24    1.47
  16   5   0   13.69    2.37
  17   5   0    0.01    1.17
 -16   6   0   22.69    4.21
 -15   6   0   45.19    4.03
 -14   6   0   -0.14    0.65
 -13   6   0   12.57    1.94
 -12   6   0    3.63    0.87
 -11   6   0    1.89    0.63
 -10   6   0   41.27    2.25
  -9   6   0   46.32    2.06
  -8   6   0  100.50    2.12
  -7   6   0  113.07    2.20
  -6   6   0    9.94    0.79
  -5   6   0   89.51    2.02
  -4   6   0    3.20    0.42
  -3   6   0  376.03    5.05
  -2   6   0  110.58    2.10
  -1   6   0    3.34    0.47
   0   6   0  180.10    2.96
   1   6   0    3.69    0.34
   2   6   0  107.72    2.27
   3   6   0  375.52    5.96
   4   6   0    3.24    0.52
   5   6   0   89.55    2.57
   6   6   0    9.95    1.06
   7   6   0  110.10    3.29
   8   6   0   95.15    3.19
   9   6   0   54.98    2.45
  10   6   0   38.83    2.64
  11   6   0    1.33    0.61
  12   6   0    2.89    0.80
  13   6   0   12.37    1.67
  14   6   0   -0.04    0.59
  15   6   0   40.60    3.26
  16   6   0   23.52    3.41
 -16   7   0    4.18    2.24
 -15   7   0   -0.45    1.14
 -14   7   0   -0.27    0.60
 -13   7   0   51.71    4.03
 -12   7   0   -0.23    0.47
 -11   7   0   11.54    1.39
 -10   7   0    0.51    0.39
  -9   7   0  100.22    3.17
  -8   7   0   22.17    1.66
  -7   7   0   75.00    2.10
  -6   7   0   19.18    1.06
  -5   7   0   31.76    1.18
  -4   7   0   14.31    0.93
  -3   7   0  217.26    3.50
  -2   7   0   24.64    0.98
  -1   7   0   58.65    1.76
   0   7   0    0.34    0.20
   1   7   0   57.07    1.27
   2   7   0   23.35    0.85
   3   7   0  219.47    3.54
   4   7   0   15.23    1.03
   5   7   0   33.15    1.58
   6   7   0   16.62    1.39
   7   7   0   72.86    2.62
   8   7   0   20.67    1.76
   9   7   0   97.55    3.43
  10   7   0    0.19    0.43
  11   7   0   16.00    1.82
  12   7   0    0.06    0.51
  13   7   0   54.47    3.62
  14   7   0    0.44    0.73
  15   7   0   -0.01    0.73
  16   7   0    5.54    1.68
 -15   8   0    7.79    2.68
 -14   8   0    9.37    2.88
 -13   8   0    1.88    0.97
 -12   8   0   17.39    2.29
 -11   8   0   25.16    2.08
 -10   8   0   76.88    2.91
  -9   8   0   11.27    1.31
  -8   8   0   52.35    2.20
  -7   8   0   41.19    1.89
  -6   8   0   31.82    1.74
  -5   8   0   30.57    1.23
  -4   8   0    8.87    0.75
  -3   8   0   86.14    2.01
  -2   8   0    0.24    0.20
  -1   8   0   76.52    2.17
   0   8   0  280.10    5.11
   1   8   0   73.81    2.25
   2   8   0   -0.06    0.13
   3   8   0   82.23    1.92
   4   8   0    8.58    0.77
   5   8   0   30.84    1.62
   6   8   0   31.99    1.77
   7   8   0   43.41    2.01
   8   8   0   51.19    2.34
   9   8   0   11.25    1.43
  10   8   0   74.04    3.11
  11   8   0   29.55    2.50
  12   8   0   19.80    2.09
  13   8   0    1.88    0.87
  14   8   0    4.72    1.24
  15   8   0    6.78    1.79
 -15   9   0    0.68    1.48
 -14   9   0   21.33    4.33
 -13   9   0    0.74    1.14
 -12   9   0    3.77    1.78
 -11   9   0   17.65    1.76
 -10   9   0   32.34    2.30
  -9   9   0    0.24    0.43
  -8   9   0    2.33    0.63
  -7   9   0   60.16    2.37
  -6   9   0  178.11    4.27
  -5   9   0   25.72    1.77
  -4   9   0    9.05    0.80
  -3   9   0   77.80    2.00
  -2   9   0   37.76    1.34
  -1   9   0    4.07    0.65
   0   9   0    0.05    0.24
   1   9   0    3.65    0.59
   2   9   0   37.28    1.69
   3   9   0   74.13    2.54
   4   9   0   11.51    1.22
   5   9   0   28.04    1.98
   6   9   0  160.36    5.51
   7   9   0   61.57    3.32
   8   9   0    4.04    1.08
   9   9   0    1.42    0.68
  10   9   0   29.01    3.02
  11   9   0   20.59    2.60
  12   9   0    1.32    0.86
  13   9   0    0.23    0.84
  14   9   0   23.69    3.17
  15   9   0    1.92    1.29
 -14  10   0   14.72    3.54
 -13  10   0   23.97    4.28
 -12  10   0   76.56    6.34
 -11  10   0    2.28    1.35
 -10  10   0    0.88    0.51
  -9  10   0   16.41    1.67
  -8  10   0    5.81    0.95
  -7  10   0   14.43    1.44
  -6  10   0   23.85    1.83
  -5  10   0    6.92    0.95
  -4  10   0   98.85    2.99
  -3  10   0   84.10    2.71
  -2  10   0   39.38    1.45
  -1  10   0   47.84    1.91
   0  10   0    5.25    0.77
   1  10   0   47.71    1.97
   2  10   0   38.92    1.82
   3  10   0   83.59    2.80
   4  10   0   98.53    3.19
   5  10   0    6.16    0.98
   6  10   0   26.63    2.08
   7  10   0   15.82    1.63
   8  10   0    8.67    1.60
   9  10   0   13.64    2.01
  10  10   0    1.52    0.89
  11  10   0    5.01    1.48
  12  10   0   77.43    4.62
  13  10   0   26.34    3.25
  14  10   0   16.56    2.68
  15  10   0   28.81    4.96
 -14  11   0   12.98    5.10
 -13  11   0    8.93    2.92
 -12  11   0    0.69    1.26
 -11  11   0    0.82    1.13
 -10  11   0   28.41    2.98
  -9  11   0   92.82    4.33
  -8  11   0    0.47    0.46
  -7  11   0    6.12    0.99
  -6  11   0    0.90    0.42
  -5  11   0    2.03    0.59
  -4  11   0   14.10    1.40
  -3  11   0   41.10    1.94
  -2  11   0   26.50    1.88
  -1  11   0  128.64    2.98
   0  11   0    0.16    0.31
   1  11   0  128.95    3.58
   2  11   0   23.85    1.79
   3  11   0   43.74    2.19
   4  11   0   13.65    1.43
   5  11   0    3.05    0.75
   6  11   0    0.56    0.47
   7  11   0    7.72    1.22
   8  11   0   -0.17    0.39
   9  11   0   91.05    3.66
  10  11   0   25.77    3.04
  11  11   0   -0.17    0.76
  12  11   0    2.02    1.08
  13  11   0    7.22    1.86
  14  11   0   10.38    2.65
 -13  12   0    0.66    1.38
 -12  12   0   44.42    6.20
 -11  12   0   20.45    4.06
 -10  12   0    1.92    0.96
  -9  12   0    0.21    0.62
  -8  12   0   16.55    2.28
  -7  12   0   46.37    2.59
  -6  12   0   24.09    2.00
  -5  12   0    4.82    0.86
  -4  12   0   17.41    1.61
  -3  12   0   25.39    1.94
  -2  12   0   81.47    2.87
  -1  12   0   51.94    2.31
   0  12   0   52.54    2.21
   1  12   0   54.83    2.33
   2  12   0   70.72    2.77
   3  12   0   26.94    2.12
   4  12   0   19.58    1.84
   5  12   0    2.94    0.77
   6  12   0   22.00    1.99
   7  12   0   46.85    3.07
   8  12   0   12.29    1.61
   9  12   0    0.54    0.51
  10  12   0    2.84    0.90
  11  12   0   28.72    2.67
  12  12   0   39.76    3.21
  13  12   0    1.14    1.12
 -12  13   0   14.14    3.44
 -11  13   0    1.25    1.47
 -10  13   0   -0.19    0.94
  -9  13   0   -0.26    0.65
  -8  13   0    2.83    1.04
  -7  13   0   12.99    2.02
  -6  13   0   63.34    3.67
  -5  13   0  124.00    3.97
  -4  13   0   37.44    2.30
  -3  13   0    4.15    0.85
  -2  13   0    7.59    1.14
  -1  13   0    4.72    0.94
   0  13   0    0.08    0.47
   1  13   0    4.04    1.01
   2  13   0    6.11    1.00
   3  13   0    4.29    0.92
   4  13   0   38.58    2.67
   5  13   0  126.11    4.20
   6  13   0   72.88    3.19
   7  13   0   13.78    1.71
   8  13   0    1.91    0.83
   9  13   0    0.37    0.61
  10  13   0   -0.15    0.63
  11  13   0    0.37    0.74
  12  13   0    7.94    1.60
 -11  14   0    5.60    2.21
 -10  14   0   12.74    3.20
  -9  14   0   12.87    2.16
  -8  14   0   76.27    4.26
  -7  14   0    0.94    0.68
  -6  14   0    1.19    0.78
  -5  14   0    2.33    0.96
  -4  14   0   15.51    2.10
  -3  14   0    1.03    0.55
  -2  14   0    7.04    1.10
  -1  14   0   21.02    1.97
   0  14   0  153.75    4.56
   1  14   0   18.46    2.24
   2  14   0    7.60    1.53
   3  14   0    0.64    0.52
   4  14   0   15.01    1.76
   5  14   0    3.24    0.91
   6  14   0    0.91    0.62
   7  14   0   -0.19    0.53
   8  14   0   69.22    3.61
   9  14   0    9.42    1.54
  10  14   0   16.01    2.11
  11  14   0    5.74    1.40
 -10  15   0   14.02    3.61
  -9  15   0    6.32    2.64
  -8  15   0   17.30    2.54
  -7  15   0    0.48    0.77
  -6  15   0   -0.44    0.59
  -5  15   0    1.46    0.91
  -4  15   0    8.50    1.68
  -3  15   0   22.79    2.70
  -2  15   0   27.89    2.27
  -1  15   0    0.99    0.60
   0  15   0    0.77    0.60
   1  15   0    0.98    0.76
   2  15   0   25.20    2.81
   3  15   0   18.94    2.44
   4  15   0    6.28    1.50
   5  15   0    2.53    0.89
   6  15   0    0.21    0.57
   7  15   0    0.57    0.68
   8  15   0   22.73    2.39
   9  15   0    4.74    1.24
  10  15   0   17.25    2.24
  -8  16   0    2.46    1.18
  -7  16   0   12.20    2.06
  -6  16   0   -0.25    0.78
  -5  16   0    9.60    1.92
  -4  16   0   53.71    4.34
  -3  16   0   10.89    1.92
  -2  16   0    3.78    1.18
  -1  16   0   15.07    2.29
   0  16   0   44.39    3.09
   1  16   0   11.98    1.44
   2  16   0    2.36    1.02
   3  16   0    9.03    1.78
   4  16   0   54.81    4.49
   5  16   0    8.27    1.87
   6  16   0    0.33    0.83
   7  16   0   10.14    1.72
   8  16   0    2.08    1.00
   9  16   0    3.28    2.08
  -7  17   0   22.95    3.03
  -6  17   0   34.85    3.72
  -5  17   0   18.50    2.65
  -4  17   0    9.61    1.95
  -3  17   0    1.21    0.98
  -2  17   0    5.12    1.51
  -1  17   0   13.21    2.22
   0  17   0   -0.41    0.72
   1  17   0   10.94    2.05
   2  17   0    5.46    1.42
   3  17   0    1.00    0.95
   4  17   0    9.74    1.97
   5  17   0   17.17    2.59
   6  17   0   32.57    3.67
   7  17   0   28.38    4.75
  -5  18   0    0.17    1.18
  -4  18   0   37.57    3.87
  -3  18   0    0.81    1.08
  -2  18   0    0.16    0.93
  -1  18   0    7.42    1.64
   0  18   0    3.16    1.29
   1  18   0   13.22    2.34
   2  18   0    0.59    0.92
   3  18   0    1.49    1.18
   4  18   0   33.10    5.10
   5  18   0    1.23    1.60
  -4 -18   1   11.14    2.98
  -3 -18   1   10.94    2.96
  -2 -18   1    0.33    0.81
  -1 -18   1    2.34    1.00
   0 -18   1    3.42    1.44
   1 -18   1    1.51    1.07
   2 -18   1    2.41    1.34
   3 -18   1    8.21    2.28
   4 -18   1    9.35    2.96
  -6 -17   1    0.13    0.92
  -5 -17   1    0.53    0.85
  -4 -17   1    9.07    1.98
  -3 -17   1    5.05    1.15
  -2 -17   1   10.01    1.62
  -1 -17   1   50.02    3.67
   0 -17   1    0.14    0.69
   1 -17   1   41.91    4.18
   2 -17   1   13.28    2.40
   3 -17   1    5.43    1.62
   4 -17   1    8.04    1.87
   5 -17   1    0.24    1.06
   6 -17   1   -1.06    1.48
  -8 -16   1    1.21    1.17
  -7 -16   1   18.11    4.05
  -6 -16   1    2.50    1.21
  -5 -16   1    2.82    1.20
  -4 -16   1   -0.41    0.67
  -3 -16   1   27.45    2.58
  -2 -16   1   27.58    2.53
  -1 -16   1   18.35    2.11
   0 -16   1   47.21    3.35
   1 -16   1   16.28    2.55
   2 -16   1   35.82    3.74
   3 -16   1   28.68    3.38
   4 -16   1   -0.50    0.86
   5 -16   1    4.48    1.54
   6 -16   1    1.51    1.79
   7 -16   1   21.38    3.09
   8 -16   1    2.10    1.30
   9 -16   1   -0.23    1.69
 -10 -15   1    0.78    1.59
  -9 -15   1    0.33    0.86
  -8 -15   1    1.21    1.04
  -7 -15   1    0.88    1.00
  -6 -15   1   50.81    4.41
  -5 -15   1   59.47    4.12
  -4 -15   1   16.41    1.94
  -3 -15   1   10.34    1.57
  -2 -15   1    3.35    0.99
  -1 -15   1    0.10    0.51
   0 -15   1    0.02    0.50
   1 -15   1    0.68    0.62
   2 -15   1    1.05    0.91
   3 -15   1   13.20    2.21
   4 -15   1   18.01    2.66
   5 -15   1   82.11    4.61
   6 -15   1   51.28    3.51
   7 -15   1    0.34    0.92
   8 -15   1    0.37    0.91
   9 -15   1    0.46    1.04
  10 -15   1    1.20    1.19
 -11 -14   1    3.33    1.18
 -10 -14   1    5.08    1.29
  -9 -14   1   11.49    1.74
  -8 -14   1   52.71    4.37
  -7 -14   1   -0.06    0.66
  -6 -14   1    0.51    0.61
  -5 -14   1    0.30    0.65
  -4 -14   1   47.54    3.16
  -3 -14   1    0.20    0.53
  -2 -14   1    4.16    0.88
  -1 -14   1   23.83    2.22
   0 -14   1   78.00    3.39
   1 -14   1   27.57    2.48
   2 -14   1    5.58    1.38
   3 -14   1    1.08    0.77
   4 -14   1   40.95    2.95
   5 -14   1    1.07    0.70
   6 -14   1    0.25    0.58
   7 -14   1   -0.13    0.67
   8 -14   1   57.84    4.84
   9 -14   1   10.04    2.14
  10 -14   1    2.90    1.42
  11 -14   1    3.28    1.42
 -12 -13   1    3.60    1.11
 -11 -13   1   30.34    2.78
 -10 -13   1   39.97    3.13
  -9 -13   1    7.82    1.42
  -8 -13   1   24.28    2.34
  -7 -13   1    7.69    1.66
  -6 -13   1    0.04    0.61
  -5 -13   1    1.70    0.77
  -4 -13   1    7.26    1.17
  -3 -13   1   98.50    3.73
  -2 -13   1   39.24    2.81
  -1 -13   1   -0.06    0.42
   0 -13   1    0.23    0.46
   1 -13   1    0.22    0.40
   2 -13   1   43.70    3.79
   3 -13   1   96.36    3.64
   4 -13   1   11.78    1.52
   5 -13   1    1.32    0.69
   6 -13   1    0.71    0.52
   7 -13   1    5.32    1.10
   8 -13   1   26.05    3.23
   9 -13   1    8.07    1.91
  10 -13   1   40.62    4.16
  11 -13   1   33.95    3.82
  12 -13   1    3.87    1.76
 -13 -12   1   -0.87    1.20
 -12 -12   1   -0.15    0.78
 -11 -12   1   14.42    1.81
 -10 -12   1   26.22    2.51
  -9 -12   1    8.49    1.43
  -8 -12   1    8.86    1.40
  -7 -12   1   30.48    2.50
  -6 -12   1    0.18    0.41
  -5 -12   1   16.89    1.68
  -4 -12   1   49.42    2.72
  -3 -12   1   32.65    2.40
  -2 -12   1    6.34    1.00
  -1 -12   1    2.32    0.67
   0 -12   1   45.40    2.87
   1 -12   1    2.86    0.70
   2 -12   1    4.69    0.78
   3 -12   1   29.28    2.28
   4 -12   1   48.58    2.78
   5 -12   1   21.43    2.04
   6 -12   1    0.74    0.50
   7 -12   1   29.09    2.50
   8 -12   1   10.59    2.05
   9 -12   1    7.47    1.77
  10 -12   1   23.77    3.04
  11 -12   1   14.03    2.35
  12 -12   1   -0.66    1.37
 -14 -11   1    0.36    1.49
 -13 -11   1    1.71    1.02
 -12 -11   1    0.17    0.79
 -11 -11   1    0.07    0.53
 -10 -11   1    3.37    0.94
  -9 -11   1   41.48    2.90
  -8 -11   1    0.75    0.50
  -7 -11   1  123.21    4.19
  -6 -11   1   34.68    2.49
  -5 -11   1   23.33    1.71
  -4 -11   1   16.90    1.69
  -3 -11   1    0.76    0.41
  -2 -11   1   19.38    1.79
  -1 -11   1   87.32    3.21
   0 -11   1   -0.17    0.32
   1 -11   1   87.07    2.61
   2 -11   1   24.47    1.69
   3 -11   1    0.40    0.40
   4 -11   1   18.28    1.75
   5 -11   1   27.18    2.21
   6 -11   1   42.62    2.53
   7 -11   1  133.97    4.34
   8 -11   1    0.45    0.50
   9 -11   1   35.14    3.57
  10 -11   1    3.15    1.25
  11 -11   1    0.63    0.85
  12 -11   1   -0.03    1.19
  13 -11   1    4.13    2.13
 -14 -10   1   13.03    2.33
 -13 -10   1   15.92    2.45
 -12 -10   1    9.95    1.94
 -11 -10   1   60.08    3.23
 -10 -10   1    2.21    0.79
  -9 -10   1   11.72    1.50
  -8 -10   1    5.46    1.03
  -7 -10   1    1.71    0.60
  -6 -10   1   28.87    2.21
  -5 -10   1    4.59    0.74
  -4 -10   1  128.48    3.33
  -3 -10   1   15.48    1.52
  -2 -10   1    0.10    0.35
  -1 -10   1   94.97    2.81
   0 -10   1   35.24    1.69
   1 -10   1   97.67    2.68
   2 -10   1    0.14    0.28
   3 -10   1   15.56    1.49
   4 -10   1  126.38    3.94
   5 -10   1    5.10    0.93
   6 -10   1   32.44    2.34
   7 -10   1    0.37    0.46
   8 -10   1    5.85    1.06
   9 -10   1   11.77    2.07
  10 -10   1    1.17    0.88
  11 -10   1   69.26    4.49
  12 -10   1   12.50    3.37
  13 -10   1   11.15    3.42
  14 -10   1   19.50    4.22
 -15  -9   1    9.64    2.32
 -14  -9   1   15.81    2.43
 -13  -9   1   -0.45    0.71
 -12  -9   1    6.03    1.51
 -11  -9   1    1.67    0.73
 -10  -9   1   37.68    2.70
  -9  -9   1   77.19    3.19
  -8  -9   1   54.14    2.57
  -7  -9   1    3.80    0.79
  -6  -9   1   25.72    1.98
  -5  -9   1  114.93    2.99
  -4  -9   1    0.06    0.23
  -3  -9   1    0.06    0.25
  -2  -9   1  201.95    4.82
  -1  -9   1   51.77    1.70
   0  -9   1    0.33    0.24
   1  -9   1   47.08    1.78
   2  -9   1  202.61    4.07
   3  -9   1    0.10    0.33
   4  -9   1    0.74    0.39
   5  -9   1  116.27    3.65
   6  -9   1   28.34    2.10
   7  -9   1    5.43    0.98
   8  -9   1   53.02    2.74
   9  -9   1   85.27    4.41
  10  -9   1   40.15    3.66
  11  -9   1    2.64    1.16
  12  -9   1    2.62    1.62
  13  -9   1   -0.45    1.38
  14  -9   1   19.93    4.53
  15  -9   1    4.58    3.45
 -15  -8   1    6.90    1.72
 -14  -8   1    3.76    1.34
 -13  -8   1    3.48    1.20
 -12  -8   1    7.14    1.56
 -11  -8   1   29.24    2.43
 -10  -8   1    1.61    0.62
  -9  -8   1   26.44    2.14
  -8  -8   1   88.68    3.23
  -7  -8   1   28.89    2.12
  -6  -8   1    0.72    0.35
  -5  -8   1   38.46    1.63
  -4  -8   1   48.22    1.74
  -3  -8   1   45.13    1.66
  -2  -8   1  105.45    2.32
  -1  -8   1   47.15    1.53
   0  -8   1   34.74    1.45
   1  -8   1   45.60    1.62
   2  -8   1   99.05    2.54
   3  -8   1   45.87    1.44
   4  -8   1   48.48    1.60
   5  -8   1   40.02    1.64
   6  -8   1    0.40    0.30
   7  -8   1   35.68    1.80
   8  -8   1   83.94    2.64
   9  -8   1   26.35    2.27
  10  -8   1    1.94    0.75
  11  -8   1   29.67    2.50
  12  -8   1   10.60    2.05
  13  -8   1    3.18    1.31
  14  -8   1    3.11    1.39
  15  -8   1   15.24    2.69
 -16  -7   1    4.77    1.55
 -15  -7   1   14.29    2.35
 -14  -7   1    0.85    0.72
 -13  -7   1   89.05    4.66
 -12  -7   1    0.12    0.58
 -11  -7   1    7.57    1.35
 -10  -7   1    0.37    0.44
  -9  -7   1    2.45    0.69
  -8  -7   1   22.37    1.80
  -7  -7   1   30.51    2.11
  -6  -7   1   25.35    1.32
  -5  -7   1  345.45    5.53
  -4  -7   1    6.15    0.69
  -3  -7   1   28.30    0.93
  -2  -7   1   18.34    0.84
  -1  -7   1    8.60    0.75
   0  -7   1    0.20    0.19
   1  -7   1    8.51    0.76
   2  -7   1   15.96    0.72
   3  -7   1   29.58    1.24
   4  -7   1    7.35    0.74
   5  -7   1  330.59    5.54
   6  -7   1   25.67    1.56
   7  -7   1   29.58    1.61
   8  -7   1   23.34    1.62
   9  -7   1    3.59    0.84
  10  -7   1    0.36    0.47
  11  -7   1   10.48    1.49
  12  -7   1    1.46    0.90
  13  -7   1   90.20    5.01
  14  -7   1    0.19    0.86
  15  -7   1   12.74    2.53
  16  -7   1    4.07    1.71
 -16  -6   1    7.07    1.81
 -15  -6   1    0.82    0.95
 -14  -6   1    0.27    0.64
 -13  -6   1   76.64    4.21
 -12  -6   1    8.24    1.61
 -11  -6   1  126.60    4.23
 -10  -6   1   24.84    1.75
  -9  -6   1    0.65    0.39
  -8  -6   1   60.93    2.13
  -7  -6   1   21.45    1.66
  -6  -6   1    4.59    0.57
  -5  -6   1   21.54    1.29
  -4  -6   1    0.91    0.27
  -3  -6   1    3.54    0.36
  -2  -6   1    5.87    0.49
  -1  -6   1  334.80    4.82
   0  -6   1  148.88    2.79
   1  -6   1  337.77    4.18
   2  -6   1    5.07    0.44
   3  -6   1    3.73    0.48
   4  -6   1    0.45    0.23
   5  -6   1   19.15    1.23
   6  -6   1    3.50    0.59
   7  -6   1   20.41    1.40
   8  -6   1   55.76    2.47
   9  -6   1    0.90    0.53
  10  -6   1   26.50    2.18
  11  -6   1  137.03    4.94
  12  -6   1    5.50    1.42
  13  -6   1   71.36    4.74
  14  -6   1   -0.58    0.80
  15  -6   1    0.85    1.05
  16  -6   1    8.58    2.19
 -16  -5   1   -0.36    0.81
 -15  -5   1    0.19    0.66
 -14  -5   1   32.83    2.76
 -13  -5   1    0.58    0.56
 -12  -5   1    9.01    1.34
 -11  -5   1   14.85    1.63
 -10  -5   1   84.60    2.66
  -9  -5   1    9.82    1.05
  -8  -5   1   19.34    1.39
  -7  -5   1  119.63    2.93
  -6  -5   1   55.09    1.42
  -5  -5   1    3.60    0.44
  -4  -5   1    5.34    0.57
  -3  -5   1  139.58    2.19
  -2  -5   1  262.80    3.82
  -1  -5   1   15.37    0.72
   0  -5   1    0.30    0.13
   1  -5   1   14.77    0.62
   2  -5   1  265.68    3.97
   3  -5   1  135.39    2.63
   4  -5   1    5.94    0.63
   5  -5   1    2.02    0.42
   6  -5   1   54.99    1.38
   7  -5   1  125.05    3.61
   8  -5   1   23.28    1.89
   9  -5   1    9.49    1.25
  10  -5   1   85.66    3.23
  11  -5   1   16.25    2.19
  12  -5   1    8.76    1.81
  13  -5   1    3.81    1.31
  14  -5   1   41.29    4.08
  15  -5   1   -0.19    0.84
  16  -5   1   -0.65    0.93
  17  -5   1   47.39    6.52
 -17  -4   1    0.82    1.03
 -16  -4   1   10.15    1.58
 -15  -4   1    0.02    0.64
 -14  -4   1   81.46    3.62
 -13  -4   1   -0.54    0.35
 -12  -4   1    3.10    0.76
 -11  -4   1    7.90    1.20
 -10  -4   1   12.29    1.39
  -9  -4   1    5.88    0.78
  -8  -4   1   56.59    1.90
  -7  -4   1   25.30    1.35
  -6  -4   1   56.07    1.28
  -5  -4   1    0.96    0.22
  -4  -4   1  351.41    4.46
  -3  -4   1   13.71    0.58
  -2  -4   1   47.32    1.17
  -1  -4   1   53.15    1.00
   0  -4   1   23.24    0.68
   1  -4   1   52.98    1.13
   2  -4   1   47.91    1.26
   3  -4   1   14.71    0.83
   4  -4   1  346.18    5.13
   5  -4   1    1.23    0.24
   6  -4   1   54.12    1.59
   7  -4   1   28.92    1.32
   8  -4   1   53.98    1.86
   9  -4   1    7.19    1.07
  10  -4   1   12.59    1.41
  11  -4   1   10.55    1.78
  12  -4   1    1.95    0.93
  13  -4   1   -0.42    0.68
  14  -4   1   93.34    5.09
  15  -4   1    0.71    0.93
  16  -4   1    8.22    2.04
  17  -4   1    1.45    1.65
 -17  -3   1   43.67    3.54
 -16  -3   1    3.74    1.10
 -15  -3   1    3.66    1.05
 -14  -3   1   10.26    1.54
 -13  -3   1   -0.05    0.45
 -12  -3   1    0.42    0.41
 -11  -3   1   17.36    1.74
 -10  -3   1   55.63    2.43
  -9  -3   1   77.51    2.28
  -8  -3   1   74.73    2.15
  -7  -3   1  275.47    4.63
  -6  -3   1    3.13    0.49
  -5  -3   1  170.55    2.51
  -4  -3   1   49.78    1.14
  -3  -3   1   23.97    0.64
  -2  -3   1  249.74    2.82
  -1  -3   1  358.77    3.23
   0  -3   1    0.01    0.09
   1  -3   1  358.22    3.70
   2  -3   1  249.10    3.64
   3  -3   1   22.54    0.91
   4  -3   1   50.56    1.12
   5  -3   1  166.01    2.93
   6  -3   1    2.69    0.43
   7  -3   1  279.54    4.70
   8  -3   1   76.60    2.23
   9  -3   1   75.77    2.31
  10  -3   1   55.24    2.09
  11  -3   1   18.72    2.34
  12  -3   1    0.06    0.58
  13  -3   1    0.47    0.73
  14  -3   1    8.43    1.86
  15  -3   1    2.89    1.20
  16  -3   1    2.75    1.33
  17  -3   1   52.64    8.54
 -17  -2   1   -0.66    0.86
 -16  -2   1    0.49    0.77
 -15  -2   1    4.02    1.05
 -14  -2   1    0.49    0.55
 -13  -2   1   11.07    1.49
 -12  -2   1   48.43    2.72
 -11  -2   1  138.30    4.15
 -10  -2   1   12.05    1.32
  -9  -2   1    7.06    0.83
  -8  -2   1    0.38    0.24
  -7  -2   1   66.09    1.82
  -6  -2   1    4.32    0.52
  -5  -2   1    9.20    0.69
  -4  -2   1   57.29    1.09
  -3  -2   1   40.30    0.87
  -2  -2   1   86.95    1.12
  -1  -2   1  346.41    3.05
   0  -2   1    3.39    0.22
   1  -2   1  344.68    3.85
   2  -2   1   84.79    1.48
   3  -2   1   41.85    1.02
   4  -2   1   60.53    1.41
   5  -2   1   10.10    0.75
   6  -2   1    3.93    0.46
   7  -2   1   64.78    1.89
   8  -2   1    0.45    0.29
   9  -2   1    6.88    0.82
  10  -2   1   11.10    1.37
  11  -2   1  143.07    4.43
  12  -2   1   48.22    3.21
  13  -2   1   16.51    2.39
  14  -2   1    0.70    0.77
  15  -2   1    4.82    1.52
  16  -2   1    0.17    1.54
  17  -2   1    0.86    1.53
 -17  -1   1    3.07    1.35
 -16  -1   1    2.52    0.90
 -15  -1   1   13.59    1.78
 -14  -1   1   34.15    2.69
 -13  -1   1   35.38    2.63
 -12  -1   1    7.95    1.15
 -11  -1   1   30.61    2.24
 -10  -1   1   92.92    3.12
  -9  -1   1    2.72    0.64
  -8  -1   1   65.52    1.81
  -7  -1   1    0.57    0.22
  -6  -1   1    1.01    0.26
  -5  -1   1  377.92    4.65
  -4  -1   1   58.30    1.34
  -3  -1   1  123.96    1.65
  -2  -1   1  107.43    1.32
  -1  -1   1    3.42    0.22
   0  -1   1    0.06    0.07
   1  -1   1    3.87    0.26
   2  -1   1  104.37    1.76
   3  -1   1  121.57    2.08
   4  -1   1   59.30    1.43
   5  -1   1  376.40    6.04
   6  -1   1    1.12    0.31
   7  -1   1    0.34    0.24
   8  -1   1   61.12    1.90
   9  -1   1    2.67    0.52
  10  -1   1   94.47    3.34
  11  -1   1   30.25    2.29
  12  -1   1    9.99    1.35
  13  -1   1   37.42    2.82
  14  -1   1   33.71    3.44
  15  -1   1   16.74    3.92
  16  -1   1    1.18    1.63
  17  -1   1    3.15    2.15
 -17   0   1    0.59    0.97
 -16   0   1   94.93    4.07
 -15   0   1   -0.18    0.50
 -14   0   1   38.84    2.90
 -13   0   1    0.38    0.46
 -12   0   1    0.03    0.38
 -11   0   1   -0.11    0.33
 -10   0   1    6.15    0.92
  -9   0   1    0.03    0.24
  -8   0   1  388.61    6.91
  -7   0   1    0.06    0.15
  -6   0   1   37.47    0.98
  -5   0   1    0.03    0.11
  -4   0   1  322.89    3.83
  -3   0   1    0.05    0.09
  -2   0   1  322.60    3.27
  -1   0   1    0.06    0.07
   0   0   1   21.27    0.47
   1   0   1   -0.01    0.08
   2   0   1  315.31    4.72
   3   0   1    0.16    0.10
   4   0   1  326.71    3.84
   5   0   1    0.16    0.12
   6   0   1   37.66    1.28
   7   0   1    0.13    0.17
   8   0   1  387.22    5.96
   9   0   1    0.31    0.28
  10   0   1    6.17    1.05
  11   0   1    0.06    0.36
  12   0   1    0.16    0.42
  13   0   1   -0.05    0.52
  14   0   1   43.06    4.08
  15   0   1    0.43    1.45
  16   0   1   70.97    8.25
  17   0   1    1.97    1.78
 -17   1   1    3.19    1.93
 -16   1   1    2.31    0.98
 -15   1   1   16.79    1.89
 -14   1   1   32.36    2.53
 -13   1   1   30.86    2.41
 -12   1   1    8.18    1.21
 -11   1   1   29.56    2.17
 -10   1   1   95.38    3.11
  -9   1   1    1.91    0.50
  -8   1   1   63.68    1.97
  -7   1   1    0.14    0.18
  -6   1   1    1.02    0.27
  -5   1   1  376.65    5.26
  -4   1   1   59.51    1.41
  -3   1   1  121.83    1.87
  -2   1   1  106.40    1.69
  -1   1   1    3.84    0.22
   0   1   1    0.02    0.08
   1   1   1    3.68    0.32
   2   1   1  105.39    1.70
   3   1   1  124.84    1.98
   4   1   1   58.29    1.19
   5   1   1  384.05    4.60
   6   1   1    1.00    0.25
   7   1   1    0.20    0.18
   8   1   1   65.13    1.64
   9   1   1    2.45    0.50
  10   1   1   95.92    2.69
  11   1   1   31.54    2.31
  12   1   1    8.23    1.28
  13   1   1   33.08    3.40
  14   1   1   33.99    3.67
  15   1   1   16.48    2.66
  16   1   1    5.45    2.29
  17   1   1    1.83    1.75
 -17   2   1    0.10    1.31
 -16   2   1    0.44    0.80
 -15   2   1    3.59    0.96
 -14   2   1    0.71    0.63
 -13   2   1   18.51    1.89
 -12   2   1   48.44    2.49
 -11   2   1  146.11    4.14
 -10   2   1   11.31    1.25
  -9   2   1    6.44    0.80
  -8   2   1    0.19    0.24
  -7   2   1   61.78    1.81
  -6   2   1    4.34    0.51
  -5   2   1    9.36    0.71
  -4   2   1   59.08    1.39
  -3   2   1   40.96    0.93
  -2   2   1   87.45    1.64
  -1   2   1  339.76    4.33
   0   2   1    3.05    0.25
   1   2   1  342.69    4.97
   2   2   1   84.38    1.57
   3   2   1   43.42    1.09
   4   2   1   57.29    1.38
   5   2   1   10.37    0.72
   6   2   1    4.67    0.54
   7   2   1   66.53    1.84
   8   2   1    0.59    0.30
   9   2   1    7.66    0.85
  10   2   1   11.38    1.08
  11   2   1  146.73    3.92
  12   2   1   44.82    3.84
  13   2   1   14.05    2.28
  14   2   1    1.40    0.96
  15   2   1    4.33    1.47
  16   2   1    0.40    1.03
  17   2   1   -0.38    1.04
 -16   3   1    5.35    2.18
 -15   3   1    3.30    1.26
 -14   3   1    9.32    1.44
 -13   3   1    0.79    0.53
 -12   3   1    0.24    0.39
 -11   3   1   16.26    1.57
 -10   3   1   54.27    2.00
  -9   3   1   73.77    2.24
  -8   3   1   73.70    2.12
  -7   3   1  275.95    4.57
  -6   3   1    3.85    0.52
  -5   3   1  164.37    2.89
  -4   3   1   50.82    1.28
  -3   3   1   23.42    0.73
  -2   3   1  250.80    3.57
  -1   3   1  351.08    5.24
   0   3   1   -0.05    0.11
   1   3   1  354.86    4.01
   2   3   1  253.45    3.53
   3   3   1   21.95    0.80
   4   3   1   52.03    1.34
   5   3   1  165.39    2.92
   6   3   1    3.43    0.48
   7   3   1  281.32    4.59
   8   3   1   80.58    2.19
   9   3   1   73.53    2.22
  10   3   1   56.40    2.03
  11   3   1   18.25    1.75
  12   3   1    0.27    0.64
  13   3   1    0.73    0.84
  14   3   1    9.33    1.96
  15   3   1    3.69    1.39
  16   3   1    2.34    1.23
  17   3   1   43.23    4.72
 -16   4   1   14.17    3.41
 -15   4   1   -0.28    0.69
 -14   4   1   84.78    4.48
 -13   4   1   -0.48    0.45
 -12   4   1    2.08    0.69
 -11   4   1   12.49    1.39
 -10   4   1   13.30    1.15
  -9   4   1    6.12    0.77
  -8   4   1   49.83    1.72
  -7   4   1   28.35    1.29
  -6   4   1   52.06    1.55
  -5   4   1    1.40    0.29
  -4   4   1  350.60    4.82
  -3   4   1   15.15    0.63
  -2   4   1   48.10    1.04
  -1   4   1   53.79    1.27
   0   4   1   23.80    0.78
   1   4   1   51.49    1.19
   2   4   1   46.59    1.03
   3   4   1   14.29    0.75
   4   4   1  352.28    4.92
   5   4   1    1.22    0.29
   6   4   1   55.61    1.61
   7   4   1   30.96    1.32
   8   4   1   52.49    1.74
   9   4   1    5.66    0.75
  10   4   1   14.28    1.53
  11   4   1    8.91    1.27
  12   4   1    2.52    1.04
  13   4   1   -0.11    0.59
  14   4   1   89.97    5.08
  15   4   1   -0.33    0.73
  16   4   1    6.22    1.73
  17   4   1    0.21    1.68
 -16   5   1   -0.23    1.12
 -15   5   1   -0.35    0.70
 -14   5   1   38.49    3.64
 -13   5   1    1.81    0.97
 -12   5   1    8.21    1.44
 -11   5   1   12.98    1.21
 -10   5   1   84.06    2.56
  -9   5   1   11.76    1.07
  -8   5   1   22.97    1.43
  -7   5   1  125.15    2.75
  -6   5   1   53.04    1.60
  -5   5   1    3.17    0.44
  -4   5   1    6.03    0.54
  -3   5   1  139.79    2.18
  -2   5   1  268.23    3.37
  -1   5   1   14.49    0.76
   0   5   1    0.03    0.13
   1   5   1   14.23    0.69
   2   5   1  263.35    3.85
   3   5   1  137.93    2.18
   4   5   1    5.95    0.58
   5   5   1    3.29    0.46
   6   5   1   54.86    1.60
   7   5   1  127.04    2.76
   8   5   1   20.00    1.66
   9   5   1   11.21    1.30
  10   5   1   86.90    3.24
  11   5   1   14.12    1.62
  12   5   1    9.99    1.94
  13   5   1    0.44    0.78
  14   5   1   44.60    4.31
  15   5   1    0.55    0.94
  16   5   1    0.35    1.04
  17   5   1   33.57    8.63
 -16   6   1    4.40    2.17
 -15   6   1    0.40    0.83
 -14   6   1   -0.15    0.68
 -13   6   1   74.78    4.11
 -12   6   1   10.44    1.78
 -11   6   1  124.88    4.06
 -10   6   1   22.61    1.73
  -9   6   1    0.91    0.38
  -8   6   1   60.26    1.91
  -7   6   1   24.20    1.28
  -6   6   1    3.68    0.51
  -5   6   1   21.39    1.01
  -4   6   1    0.53    0.20
  -3   6   1    3.88    0.41
  -2   6   1    5.81    0.46
  -1   6   1  321.04    4.67
   0   6   1  142.24    2.59
   1   6   1  330.65    4.67
   2   6   1    5.56    0.54
   3   6   1    3.75    0.48
   4   6   1    0.64    0.24
   5   6   1   20.77    1.02
   6   6   1    3.62    0.49
   7   6   1   23.73    1.79
   8   6   1   58.04    2.43
   9   6   1    0.50    0.43
  10   6   1   27.64    2.25
  11   6   1  127.38    4.28
  12   6   1    9.15    1.60
  13   6   1   74.29    4.49
  14   6   1    0.42    0.76
  15   6   1    0.77    1.00
  16   6   1    8.71    2.10
 -15   7   1   18.60    3.91
 -14   7   1   -0.47    0.53
 -13   7   1   94.16    4.70
 -12   7   1    0.93    0.75
 -11   7   1    8.40    1.57
 -10   7   1    0.03    0.41
  -9   7   1    3.10    0.67
  -8   7   1   24.81    1.53
  -7   7   1   27.50    1.41
  -6   7   1   25.01    1.26
  -5   7   1  344.11    5.22
  -4   7   1    7.18    0.65
  -3   7   1   27.46    1.07
  -2   7   1   17.58    0.81
  -1   7   1    8.21    0.70
   0   7   1    0.07    0.15
   1   7   1    7.73    0.66
   2   7   1   20.12    0.97
   3   7   1   27.92    1.14
   4   7   1    7.94    0.77
   5   7   1  345.53    6.41
   6   7   1   24.00    1.74
   7   7   1   29.90    2.07
   8   7   1   21.75    1.83
   9   7   1    3.40    0.82
  10   7   1    0.42    0.44
  11   7   1   12.50    1.59
  12   7   1    1.27    0.70
  13   7   1   92.69    4.99
  14   7   1    0.15    0.82
  15   7   1   17.56    2.86
  16   7   1    9.42    2.28
 -15   8   1    7.11    2.65
 -14   8   1    3.90    1.39
 -13   8   1    5.16    1.41
 -12   8   1   10.41    1.88
 -11   8   1   21.59    2.55
 -10   8   1    0.08    0.46
  -9   8   1   27.02    2.02
  -8   8   1   85.75    3.00
  -7   8   1   31.84    2.07
  -6   8   1    0.82    0.32
  -5   8   1   35.44    1.38
  -4   8   1   47.68    1.52
  -3   8   1   47.90    1.47
  -2   8   1   99.66    1.95
  -1   8   1   50.57    1.50
   0   8   1   39.34    1.31
   1   8   1   48.93    1.47
   2   8   1   99.46    2.27
   3   8   1   45.52    1.50
   4   8   1   49.49    1.61
   5   8   1   38.21    1.48
   6   8   1    0.80    0.42
   7   8   1   34.54    2.04
   8   8   1   84.49    3.10
   9   8   1   26.45    2.16
  10   8   1    0.76    0.58
  11   8   1   26.16    2.31
  12   8   1   10.76    1.57
  13   8   1    1.92    1.11
  14   8   1    3.23    1.36
  15   8   1    6.71    1.94
 -14   9   1   17.73    2.56
 -13   9   1    1.11    0.99
 -12   9   1    3.36    1.08
 -11   9   1    4.03    1.11
 -10   9   1   40.08    3.41
  -9   9   1   82.82    4.00
  -8   9   1   49.11    2.94
  -7   9   1    3.89    0.74
  -6   9   1   25.87    1.85
  -5   9   1  113.93    3.32
  -4   9   1    0.03    0.20
  -3   9   1    0.00    0.19
  -2   9   1  204.94    3.23
  -1   9   1   49.27    1.57
   0   9   1   -0.04    0.18
   1   9   1   49.49    1.56
   2   9   1  207.48    3.73
   3   9   1    0.02    0.23
   4   9   1    0.27    0.25
   5   9   1  115.17    2.81
   6   9   1   27.81    1.54
   7   9   1    4.71    0.73
   8   9   1   51.79    2.45
   9   9   1   79.33    3.22
  10   9   1   37.71    2.64
  11   9   1    1.98    0.74
  12   9   1    5.60    1.21
  13   9   1    0.00    1.34
  14   9   1   14.48    3.76
  15   9   1   14.57    5.98
 -14  10   1   20.53    4.10
 -13  10   1   16.12    2.48
 -12  10   1   10.77    1.86
 -11  10   1   64.34    4.06
 -10  10   1    1.00    0.74
  -9  10   1   12.48    1.89
  -8  10   1    7.34    1.38
  -7  10   1    0.67    0.53
  -6  10   1   32.01    1.98
  -5  10   1    3.71    0.75
  -4  10   1  129.97    3.63
  -3  10   1   16.47    1.20
  -2  10   1    0.18    0.22
  -1  10   1   99.09    2.98
   0  10   1   34.16    1.78
   1  10   1   96.61    2.95
   2  10   1    0.19    0.30
   3  10   1   14.64    1.39
   4  10   1  136.16    3.79
   5  10   1    3.39    0.69
   6  10   1   26.40    2.03
   7  10   1    1.40    0.53
   8  10   1    9.34    1.27
   9  10   1    9.61    1.76
  10  10   1    2.13    1.10
  11  10   1   64.34    4.33
  12  10   1   10.96    2.14
  13  10   1   10.63    3.25
  14  10   1   19.84    4.56
 -13  11   1    0.17    0.90
 -12  11   1    0.07    0.76
 -11  11   1    0.21    0.64
 -10  11   1    2.91    1.03
  -9  11   1   45.54    3.82
  -8  11   1    0.20    0.55
  -7  11   1  129.44    5.12
  -6  11   1   39.79    3.25
  -5  11   1   25.28    2.50
  -4  11   1   20.75    1.72
  -3  11   1    0.37    0.35
  -2  11   1   23.11    1.77
  -1  11   1   91.35    2.44
   0  11   1   -0.16    0.29
   1  11   1   87.40    2.96
   2  11   1   23.09    1.78
   3  11   1    0.73    0.41
   4  11   1   19.30    1.73
   5  11   1   28.18    2.17
   6  11   1   34.24    2.38
   7  11   1  131.22    4.16
   8  11   1    0.37    0.52
   9  11   1   40.44    3.61
  10  11   1    3.85    1.39
  11  11   1    0.31    0.80
  12  11   1    0.13    1.02
  13  11   1    2.61    1.93
 -13  12   1   -0.23    1.00
 -12  12   1    0.64    0.86
 -11  12   1   15.67    2.37
 -10  12   1   21.15    2.66
  -9  12   1    6.83    1.58
  -8  12   1    7.30    1.54
  -7  12   1   25.67    2.75
  -6  12   1    1.19    0.71
  -5  12   1   24.15    2.54
  -4  12   1   46.73    3.18
  -3  12   1   28.24    2.06
  -2  12   1    6.34    0.98
  -1  12   1    3.32    0.72
   0  12   1   34.76    2.13
   1  12   1    3.47    0.76
   2  12   1    7.16    1.07
   3  12   1   30.59    2.21
   4  12   1   51.42    2.53
   5  12   1   18.86    1.77
   6  12   1    0.18    0.42
   7  12   1   27.65    3.00
   8  12   1   12.21    2.00
   9  12   1    4.32    1.39
  10  12   1   36.08    3.68
  11  12   1   17.14    2.60
  12  12   1   -0.18    0.94
 -12  13   1    1.93    1.14
 -11  13   1   29.41    3.31
 -10  13   1   34.13    3.50
  -9  13   1    6.64    1.53
  -8  13   1   26.30    2.93
  -7  13   1    8.25    1.70
  -6  13   1    0.59    0.66
  -5  13   1    2.16    0.87
  -4  13   1    8.45    1.53
  -3  13   1  100.60    4.48
  -2  13   1   44.28    3.03
  -1  13   1   -0.07    0.35
   0  13   1    0.54    0.46
   1  13   1   -0.03    0.38
   2  13   1   42.25    2.49
   3  13   1  100.12    3.55
   4  13   1    7.47    1.16
   5  13   1    1.34    0.61
   6  13   1    0.58    0.74
   7  13   1    6.81    1.58
   8  13   1   30.28    3.34
   9  13   1    5.79    1.55
  10  13   1   30.83    3.62
  11  13   1   28.67    3.50
  12  13   1    1.50    1.46
 -11  14   1    4.49    1.49
 -10  14   1    5.22    1.53
  -9  14   1   12.75    2.18
  -8  14   1   51.09    4.20
  -7  14   1    0.47    0.73
  -6  14   1    0.05    0.67
  -5  14   1    0.35    0.66
  -4  14   1   47.26    3.94
  -3  14   1    1.35    0.77
  -2  14   1    7.09    1.44
  -1  14   1   22.20    2.53
   0  14   1   80.80    3.19
   1  14   1   27.85    2.26
   2  14   1    5.95    1.07
   3  14   1    0.29    0.52
   4  14   1   46.29    3.04
   5  14   1    0.22    0.63
   6  14   1    0.59    0.79
   7  14   1   -0.10    0.66
   8  14   1   55.42    4.75
   9  14   1   10.99    2.12
  10  14   1    4.30    1.46
  11  14   1    2.13    1.38
 -10  15   1    0.78    1.05
  -9  15   1    0.09    0.87
  -8  15   1   -0.28    0.74
  -7  15   1    0.09    0.79
  -6  15   1   45.01    3.97
  -5  15   1   79.85    4.43
  -4  15   1   19.47    2.63
  -3  15   1   12.31    1.89
  -2  15   1    3.99    1.22
  -1  15   1    0.30    0.67
   0  15   1   -0.13    0.59
   1  15   1    0.84    0.78
   2  15   1    3.39    0.94
   3  15   1   12.70    1.97
   4  15   1   19.51    2.64
   5  15   1   68.86    4.19
   6  15   1   52.45    4.49
   7  15   1   -0.12    0.80
   8  15   1    0.21    0.93
   9  15   1    0.02    1.01
  10  15   1   -0.13    1.05
  -9  16   1    1.95    1.44
  -8  16   1    0.58    0.92
  -7  16   1   18.09    2.64
  -6  16   1    2.29    1.13
  -5  16   1    5.11    1.48
  -4  16   1    1.30    0.94
  -3  16   1   25.51    3.05
  -2  16   1   38.85    3.76
  -1  16   1   14.33    2.25
   0  16   1   56.15    3.90
   1  16   1   18.62    3.01
   2  16   1   37.05    5.39
   3  16   1   26.21    4.46
   4  16   1    0.57    0.82
   5  16   1    2.92    1.14
   6  16   1    3.25    1.23
   7  16   1   15.16    2.55
   8  16   1    1.87    1.25
  -7  17   1    1.11    1.54
  -6  17   1   -0.62    0.94
  -5  17   1    0.01    0.85
  -4  17   1    9.01    1.92
  -3  17   1    3.76    1.37
  -2  17   1   13.24    2.30
  -1  17   1   41.54    4.40
   0  17   1   -0.43    1.13
   1  17   1   44.25    5.85
   2  17   1   14.31    3.46
   3  17   1    5.00    2.44
   4  17   1    5.17    2.28
   5  17   1    0.62    1.51
   6  17   1    1.18    1.11
   7  17   1    1.82    1.82
  -4  18   1   16.90    4.06
  -3  18   1    6.89    2.98
  -2  18   1    1.62    1.73
  -1  18   1    0.88    1.44
   0  18   1    4.98    2.28
   1  18   1    3.15    1.90
   2  18   1    4.49    2.41
  -4 -17   2    6.88    2.70
  -3 -17   2   -0.32    0.86
  -2 -17   2    2.68    1.02
  -1 -17   2    6.59    1.45
   0 -17   2    1.09    1.10
   1 -17   2    9.24    2.12
   2 -17   2    3.66    1.31
   3 -17   2    1.22    1.23
   4 -17   2    8.88    2.78
   5 -17   2    8.90    3.15
  -7 -16   2   15.68    6.06
  -6 -16   2   -0.10    0.95
  -5 -16   2    4.56    1.50
  -4 -16   2   37.53    3.76
  -3 -16   2    8.82    1.98
  -2 -16   2    2.53    1.00
  -1 -16   2    7.36    1.46
   0 -16   2   33.67    3.02
   1 -16   2    9.32    2.05
   2 -16   2    1.43    1.10
   3 -16   2    8.36    1.82
   4 -16   2   41.79    4.27
   5 -16   2    6.12    1.75
   6 -16   2   -0.81    0.88
   7 -16   2    8.57    2.66
  -9 -15   2    3.73    2.37
  -8 -15   2   18.85    2.92
  -7 -15   2    1.04    1.00
  -6 -15   2    0.71    0.87
  -5 -15   2    1.73    1.08
  -4 -15   2    5.65    1.63
  -3 -15   2   20.83    2.31
  -2 -15   2   21.73    2.34
  -1 -15   2    0.39    0.68
   0 -15   2    0.37    0.71
   1 -15   2    0.04    0.77
   2 -15   2   28.56    3.35
   3 -15   2   20.35    2.89
   4 -15   2    5.11    1.55
   5 -15   2    2.04    1.15
   6 -15   2   -0.01    0.82
   7 -15   2   -0.35    0.72
   8 -15   2   20.39    3.12
   9 -15   2    9.04    3.21
 -10 -14   2   14.30    3.80
  -9 -14   2    9.26    1.94
  -8 -14   2   66.74    5.27
  -7 -14   2   -0.22    0.71
  -6 -14   2    1.12    0.88
  -5 -14   2    2.46    1.17
  -4 -14   2   11.77    2.09
  -3 -14   2    0.60    0.62
  -2 -14   2    3.94    1.00
  -1 -14   2   15.06    1.91
   0 -14   2  121.42    4.58
   1 -14   2   18.15    2.74
   2 -14   2    5.45    1.51
   3 -14   2    0.75    0.86
   4 -14   2   11.91    2.10
   5 -14   2    2.41    0.95
   6 -14   2    0.84    0.71
   7 -14   2   -0.05    0.66
   8 -14   2   60.56    3.95
   9 -14   2    7.44    1.88
  10 -14   2    9.42    2.12
 -11 -13   2   -0.16    1.41
 -10 -13   2    0.15    0.72
  -9 -13   2    0.16    0.72
  -8 -13   2    0.40    0.69
  -7 -13   2    9.69    1.94
  -6 -13   2   57.36    4.67
  -5 -13   2   93.48    4.81
  -4 -13   2   31.30    2.66
  -3 -13   2    3.61    0.91
  -2 -13   2    4.24    1.00
  -1 -13   2    2.78    0.83
   0 -13   2    0.03    0.51
   1 -13   2    4.96    1.10
   2 -13   2    4.09    1.28
   3 -13   2    3.73    1.02
   4 -13   2   25.06    2.32
   5 -13   2   94.93    3.92
   6 -13   2   50.84    3.46
   7 -13   2    8.87    1.41
   8 -13   2    1.13    0.72
   9 -13   2    0.65    1.04
  10 -13   2   -0.69    0.91
  11 -13   2    0.03    1.06
 -12 -12   2   32.62    8.27
 -11 -12   2   26.73    3.22
 -10 -12   2    2.47    1.02
  -9 -12   2    0.24    0.67
  -8 -12   2   11.30    1.63
  -7 -12   2   37.87    2.89
  -6 -12   2   17.50    1.97
  -5 -12   2    3.09    1.16
  -4 -12   2   12.00    1.60
  -3 -12   2   19.01    1.92
  -2 -12   2   56.66    2.97
  -1 -12   2   40.06    2.78
   0 -12   2   33.11    2.52
   1 -12   2   41.97    2.92
   2 -12   2   59.62    3.10
   3 -12   2   18.91    1.92
   4 -12   2   12.00    1.51
   5 -12   2    1.70    0.77
   6 -12   2   18.23    1.99
   7 -12   2   33.80    2.76
   8 -12   2    6.90    1.30
   9 -12   2   -0.36    0.57
  10 -12   2    0.87    1.03
  11 -12   2   30.55    3.76
  12 -12   2   29.02    4.90
 -12 -11   2    0.49    0.90
 -11 -11   2    0.20    0.79
 -10 -11   2   13.57    1.84
  -9 -11   2   74.35    3.49
  -8 -11   2    0.25    0.55
  -7 -11   2    3.41    0.88
  -6 -11   2    0.01    0.42
  -5 -11   2    1.92    0.66
  -4 -11   2   11.22    1.43
  -3 -11   2   35.41    2.59
  -2 -11   2   20.68    1.95
  -1 -11   2  104.62    3.70
   0 -11   2    0.04    0.39
   1 -11   2  100.92    3.03
   2 -11   2   19.61    1.82
   3 -11   2   31.81    2.43
   4 -11   2    8.12    1.26
   5 -11   2    1.98    0.78
   6 -11   2    0.90    0.59
   7 -11   2    4.60    1.01
   8 -11   2   -0.05    0.49
   9 -11   2   72.67    3.59
  10 -11   2   17.86    2.71
  11 -11   2    0.23    0.99
  12 -11   2    1.46    1.24
 -13 -10   2   25.35    3.28
 -12 -10   2   63.16    5.02
 -11 -10   2    2.10    1.01
 -10 -10   2    0.91    0.81
  -9 -10   2    9.71    1.42
  -8 -10   2    6.25    1.18
  -7 -10   2   12.50    1.61
  -6 -10   2   17.90    1.83
  -5 -10   2    5.23    0.85
  -4 -10   2   75.54    2.63
  -3 -10   2   69.10    2.87
  -2 -10   2   25.89    2.08
  -1 -10   2   39.09    2.60
   0 -10   2    3.26    0.63
   1 -10   2   34.95    2.03
   2 -10   2   32.04    2.32
   3 -10   2   66.73    2.84
   4 -10   2   82.78    3.25
   5 -10   2    4.83    0.98
   6 -10   2   15.71    1.72
   7 -10   2   10.88    1.49
   8 -10   2    6.28    1.22
   9 -10   2    8.45    1.83
  10 -10   2    0.99    0.98
  11 -10   2    2.70    1.14
  12 -10   2   63.63    5.20
  13 -10   2   27.17    5.19
 -14  -9   2   12.79    2.32
 -13  -9   2    0.02    0.84
 -12  -9   2    2.89    1.11
 -11  -9   2   13.30    2.18
 -10  -9   2   23.58    2.76
  -9  -9   2    0.05    0.44
  -8  -9   2    2.25    0.71
  -7  -9   2   46.22    2.95
  -6  -9   2  135.15    4.20
  -5  -9   2   17.13    1.37
  -4  -9   2    7.64    0.94
  -3  -9   2   55.27    2.43
  -2  -9   2   27.75    2.05
  -1  -9   2    1.92    0.48
   0  -9   2    0.04    0.27
   1  -9   2    2.11    0.52
   2  -9   2   33.45    2.29
   3  -9   2   50.66    2.45
   4  -9   2    7.83    1.18
   5  -9   2   16.77    1.67
   6  -9   2  129.23    4.23
   7  -9   2   44.21    2.91
   8  -9   2    0.77    0.59
   9  -9   2    0.19    0.74
  10  -9   2   29.79    3.32
  11  -9   2   12.96    2.28
  12  -9   2    2.80    1.27
  13  -9   2    0.41    1.50
  14  -9   2   22.26    5.64
 -14  -8   2    6.37    1.67
 -13  -8   2    1.95    1.12
 -12  -8   2   16.20    2.43
 -11  -8   2   18.28    2.45
 -10  -8   2   47.35    3.83
  -9  -8   2    7.56    1.23
  -8  -8   2   39.41    2.69
  -7  -8   2   38.36    2.57
  -6  -8   2   22.73    1.86
  -5  -8   2   21.65    1.50
  -4  -8   2    4.39    0.67
  -3  -8   2   64.11    2.17
  -2  -8   2    0.18    0.26
  -1  -8   2   54.73    1.85
   0  -8   2  227.28    4.33
   1  -8   2   56.40    1.96
   2  -8   2   -0.30    0.27
   3  -8   2   59.80    2.50
   4  -8   2    5.17    0.88
   5  -8   2   26.35    2.11
   6  -8   2   25.53    2.06
   7  -8   2   40.29    2.45
   8  -8   2   41.64    2.43
   9  -8   2   12.24    1.57
  10  -8   2   67.71    3.76
  11  -8   2   21.13    2.61
  12  -8   2   12.13    3.35
  13  -8   2    3.75    1.85
  14  -8   2    5.41    2.68
 -15  -7   2    0.27    1.02
 -14  -7   2    0.02    0.81
 -13  -7   2   36.60    3.70
 -12  -7   2   -0.29    0.58
 -11  -7   2   13.48    1.72
 -10  -7   2   -0.29    0.43
  -9  -7   2   81.70    2.81
  -8  -7   2   13.94    1.34
  -7  -7   2   55.54    2.46
  -6  -7   2   11.52    1.29
  -5  -7   2   23.06    1.47
  -4  -7   2    8.52    0.89
  -3  -7   2  153.40    2.86
  -2  -7   2   16.12    1.03
  -1  -7   2   41.97    1.26
   0  -7   2    0.11    0.17
   1  -7   2   40.01    1.29
   2  -7   2   16.05    0.98
   3  -7   2  154.89    3.26
   4  -7   2   10.72    0.98
   5  -7   2   24.54    1.42
   6  -7   2   13.20    1.20
   7  -7   2   56.85    2.20
   8  -7   2   15.22    1.65
   9  -7   2   71.81    3.12
  10  -7   2   -0.26    0.47
  11  -7   2   13.04    1.69
  12  -7   2   -0.23    0.75
  13  -7   2   40.17    4.06
  14  -7   2    0.23    1.10
  15  -7   2    0.95    1.17
 -15  -6   2   32.20    2.99
 -14  -6   2   -0.14    0.62
 -13  -6   2   10.49    1.66
 -12  -6   2    2.24    0.80
 -11  -6   2    1.47    0.72
 -10  -6   2   31.51    2.45
  -9  -6   2   37.58    2.59
  -8  -6   2   75.47    2.51
  -7  -6   2   82.82    2.59
  -6  -6   2    5.97    0.80
  -5  -6   2   64.32    1.79
  -4  -6   2    3.02    0.44
  -3  -6   2  285.66    4.11
  -2  -6   2   73.22    1.56
  -1  -6   2    1.31    0.28
   0  -6   2  124.63    2.35
   1  -6   2    1.15    0.28
   2  -6   2   74.90    2.00
   3  -6   2  273.57    4.68
   4  -6   2    3.40    0.56
   5  -6   2   63.30    2.04
   6  -6   2    7.75    0.88
   7  -6   2   88.90    3.15
   8  -6   2   71.64    2.95
   9  -6   2   38.32    2.65
  10  -6   2   25.06    2.23
  11  -6   2    2.02    0.71
  12  -6   2    2.58    1.08
  13  -6   2   10.75    2.05
  14  -6   2    0.83    1.06
  15  -6   2   27.46    3.49
 -16  -5   2    8.48    2.37
 -15  -5   2    4.42    1.28
 -14  -5   2    5.40    1.15
 -13  -5   2   -0.10    0.51
 -12  -5   2    3.99    0.94
 -11  -5   2   10.92    1.51
 -10  -5   2   39.00    2.70
  -9  -5   2   45.55    2.58
  -8  -5   2   -0.05    0.27
  -7  -5   2   11.55    1.09
  -6  -5   2  180.95    3.17
  -5  -5   2   24.11    1.17
  -4  -5   2   25.07    0.98
  -3  -5   2    0.03    0.13
  -2  -5   2  110.47    1.95
  -1  -5   2   65.90    1.30
   0  -5   2    0.25    0.15
   1  -5   2   63.92    1.36
   2  -5   2  115.21    2.03
   3  -5   2    0.32    0.21
   4  -5   2   26.54    1.35
   5  -5   2   23.20    1.46
   6  -5   2  180.69    4.47
   7  -5   2    9.28    1.14
   8  -5   2   -0.27    0.30
   9  -5   2   43.83    2.53
  10  -5   2   45.56    2.95
  11  -5   2   14.14    1.66
  12  -5   2    4.25    1.41
  13  -5   2    0.22    0.68
  14  -5   2   10.04    2.05
  15  -5   2    3.34    1.44
  16  -5   2   11.16    2.41
 -16  -4   2    1.37    1.11
 -15  -4   2   17.64    2.17
 -14  -4   2    6.04    1.26
 -13  -4   2   -0.31    0.47
 -12  -4   2  175.02    5.23
 -11  -4   2    5.36    1.01
 -10  -4   2   14.37    1.59
  -9  -4   2    3.54    0.78
  -8  -4   2    1.79    0.49
  -7  -4   2    3.71    0.60
  -6  -4   2   69.06    1.70
  -5  -4   2   10.51    0.77
  -4  -4   2   94.52    1.67
  -3  -4   2    5.87    0.43
  -2  -4   2  183.36    2.29
  -1  -4   2    2.45    0.25
   0  -4   2  133.00    2.08
   1  -4   2    2.63    0.34
   2  -4   2  188.35    2.83
   3  -4   2    5.80    0.48
   4  -4   2   96.43    1.83
   5  -4   2   10.90    1.13
   6  -4   2   65.58    2.45
   7  -4   2    2.53    0.61
   8  -4   2    0.58    0.41
   9  -4   2    4.50    0.87
  10  -4   2   17.80    1.80
  11  -4   2    4.15    0.94
  12  -4   2  177.26    6.97
  13  -4   2    0.70    0.78
  14  -4   2    4.28    1.42
  15  -4   2   17.65    2.78
  16  -4   2    0.54    1.10
 -16  -3   2    8.01    1.90
 -15  -3   2   18.71    2.08
 -14  -3   2    2.68    0.87
 -13  -3   2   19.07    2.04
 -12  -3   2    1.35    0.60
 -11  -3   2   13.57    1.62
 -10  -3   2    0.39    0.43
  -9  -3   2  187.90    4.84
  -8  -3   2   42.90    2.04
  -7  -3   2   17.97    1.24
  -6  -3   2  187.27    3.27
  -5  -3   2   10.24    0.68
  -4  -3   2   40.17    0.94
  -3  -3   2   80.55    1.35
  -2  -3   2    3.74    0.33
  -1  -3   2  186.83    2.20
   0  -3   2    0.01    0.10
   1  -3   2  183.05    2.78
   2  -3   2    3.51    0.39
   3  -3   2   80.90    1.67
   4  -3   2   41.63    1.29
   5  -3   2    8.92    0.73
   6  -3   2  185.78    3.47
   7  -3   2   15.64    1.45
   8  -3   2   39.24    2.24
   9  -3   2  192.41    4.97
  10  -3   2    1.42    0.59
  11  -3   2   13.80    2.18
  12  -3   2    0.67    0.78
  13  -3   2   19.68    2.78
  14  -3   2    3.70    1.33
  15  -3   2   24.18    3.13
  16  -3   2    6.66    1.94
 -16  -2   2    1.24    1.04
 -15  -2   2   55.57    4.61
 -14  -2   2   10.58    1.63
 -13  -2   2    2.51    0.78
 -12  -2   2   10.37    1.43
 -11  -2   2    5.36    0.96
 -10  -2   2   20.60    1.81
  -9  -2   2   63.08    2.55
  -8  -2   2    3.30    0.62
  -7  -2   2   88.79    2.04
  -6  -2   2   48.32    1.41
  -5  -2   2   53.81    1.44
  -4  -2   2  182.51    2.44
  -3  -2   2  165.67    2.08
  -2  -2   2   19.77    0.62
  -1  -2   2    1.37    0.20
   0  -2   2    2.25    0.25
   1  -2   2    1.37    0.22
   2  -2   2   21.08    0.82
   3  -2   2  169.30    2.98
   4  -2   2  185.73    3.27
   5  -2   2   54.89    1.60
   6  -2   2   46.50    1.55
   7  -2   2   87.42    2.32
   8  -2   2    3.74    0.58
   9  -2   2   62.04    2.58
  10  -2   2   23.26    1.95
  11  -2   2    8.32    1.66
  12  -2   2    8.90    1.82
  13  -2   2    4.70    1.41
  14  -2   2   11.05    2.12
  15  -2   2   52.90    4.65
  16  -2   2    0.96    1.38
 -16  -1   2   17.60    2.74
 -15  -1   2    0.58    0.92
 -14  -1   2    0.70    0.82
 -13  -1   2   50.68    3.26
 -12  -1   2   17.30    1.80
 -11  -1   2   22.22    1.95
 -10  -1   2    0.68    0.42
  -9  -1   2   14.51    1.25
  -8  -1   2    0.29    0.31
  -7  -1   2    9.91    0.96
  -6  -1   2  173.56    2.85
  -5  -1   2   27.63    0.96
  -4  -1   2  118.53    1.94
  -3  -1   2  164.88    2.03
  -2  -1   2   34.69    0.77
  -1  -1   2    6.06    0.38
   0  -1   2    0.05    0.10
   1  -1   2    6.69    0.50
   2  -1   2   33.70    0.87
   3  -1   2  163.52    2.97
   4  -1   2  115.57    2.45
   5  -1   2   28.06    1.19
   6  -1   2  172.24    3.37
   7  -1   2    6.17    0.73
   8  -1   2    0.03    0.22
   9  -1   2   14.78    1.21
  10  -1   2    0.00    0.30
  11  -1   2   22.47    2.64
  12  -1   2   16.12    2.15
  13  -1   2   55.98    4.48
  14  -1   2    1.69    0.97
  15  -1   2    0.75    1.45
  16  -1   2   16.65    4.30
 -16   0   2    6.06    1.71
 -15   0   2    0.19    0.83
 -14   0   2   36.63    3.63
 -13   0   2    0.25    0.63
 -12   0   2   61.79    3.03
 -11   0   2   -0.03    0.35
 -10   0   2  196.97    4.40
  -9   0   2    0.18    0.29
  -8   0   2  131.14    3.14
  -7   0   2   -0.15    0.19
  -6   0   2    0.92    0.31
  -5   0   2    0.26    0.19
  -4   0   2    7.26    0.60
  -3   0   2    0.25    0.13
  -2   0   2    5.46    0.41
  -1   0   2    0.18    0.12
   0   0   2  971.47    9.15
   1   0   2    0.01    0.10
   2   0   2    4.61    0.40
   3   0   2   -0.04    0.13
   4   0   2    5.73    0.59
   5   0   2    0.10    0.18
   6   0   2    0.67    0.30
   7   0   2   -0.05    0.23
   8   0   2  127.25    3.07
   9   0   2    0.05    0.24
  10   0   2  196.16    4.26
  11   0   2   -0.13    0.44
  12   0   2   67.43    4.21
  13   0   2    0.00    0.67
  14   0   2   45.83    4.29
  15   0   2    0.03    1.18
  16   0   2    7.12    2.93
 -16   1   2   19.32    2.83
 -15   1   2   -0.14    0.76
 -14   1   2    0.21    0.70
 -13   1   2   51.79    4.15
 -12   1   2   18.87    2.42
 -11   1   2   20.46    1.73
 -10   1   2   -0.01    0.35
  -9   1   2   12.77    1.17
  -8   1   2    0.07    0.24
  -7   1   2    6.95    0.75
  -6   1   2  168.91    3.28
  -5   1   2   26.88    1.04
  -4   1   2  115.87    2.10
  -3   1   2  166.45    2.52
  -2   1   2   33.88    0.84
  -1   1   2    6.73    0.50
   0   1   2   -0.04    0.09
   1   1   2    6.33    0.56
   2   1   2   32.57    0.93
   3   1   2  166.84    2.51
   4   1   2  119.71    1.98
   5   1   2   28.66    0.86
   6   1   2  169.46    3.40
   7   1   2    7.63    0.82
   8   1   2    0.14    0.27
   9   1   2   15.82    1.58
  10   1   2   -0.21    0.34
  11   1   2   21.44    2.03
  12   1   2   17.94    1.94
  13   1   2   48.23    4.02
  14   1   2    2.19    1.50
  15   1   2   -0.34    1.09
  16   1   2   11.84    3.51
 -16   2   2    1.55    1.12
 -15   2   2   62.81    5.00
 -14   2   2    9.32    1.84
 -13   2   2    3.85    1.23
 -12   2   2    9.69    1.73
 -11   2   2    6.60    1.12
 -10   2   2   18.49    1.76
  -9   2   2   61.29    2.14
  -8   2   2    2.51    0.50
  -7   2   2   91.83    2.35
  -6   2   2   48.01    1.53
  -5   2   2   53.76    1.39
  -4   2   2  186.66    2.80
  -3   2   2  170.26    2.47
  -2   2   2   20.96    0.94
  -1   2   2    1.13    0.22
   0   2   2    2.55    0.27
   1   2   2    1.47    0.29
   2   2   2   22.23    0.95
   3   2   2  162.12    2.84
   4   2   2  187.27    3.15
   5   2   2   52.97    1.47
   6   2   2   48.10    1.45
   7   2   2   85.12    2.79
   8   2   2    3.58    0.70
   9   2   2   59.78    2.56
  10   2   2   19.58    1.82
  11   2   2    6.36    1.11
  12   2   2   12.22    1.68
  13   2   2    3.89    1.27
  14   2   2    9.06    2.16
  15   2   2   60.68    7.61
  16   2   2    1.72    1.81
 -16   3   2   11.63    2.13
 -15   3   2   21.63    2.92
 -14   3   2    2.59    1.09
 -13   3   2   15.38    2.24
 -12   3   2    0.92    0.61
 -11   3   2   14.02    1.63
 -10   3   2    0.42    0.42
  -9   3   2  185.81    4.89
  -8   3   2   43.66    2.07
  -7   3   2   16.94    1.49
  -6   3   2  186.62    3.41
  -5   3   2   10.46    0.61
  -4   3   2   42.64    1.04
  -3   3   2   78.94    1.94
  -2   3   2    3.95    0.47
  -1   3   2  181.75    2.74
   0   3   2    0.27    0.12
   1   3   2  185.58    3.19
   2   3   2    3.43    0.45
   3   3   2   82.04    1.89
   4   3   2   39.33    1.29
   5   3   2    9.45    0.78
   6   3   2  186.06    3.46
   7   3   2   17.85    1.50
   8   3   2   38.06    2.00
   9   3   2  194.82    4.93
  10   3   2    0.72    0.51
  11   3   2   13.56    2.20
  12   3   2    0.89    0.82
  13   3   2   16.35    2.55
  14   3   2    5.53    1.65
  15   3   2   20.25    3.34
  16   3   2    6.30    2.53
 -16   4   2    0.37    1.07
 -15   4   2   19.63    2.73
 -14   4   2    7.66    1.69
 -13   4   2   -0.12    0.71
 -12   4   2  174.56    5.32
 -11   4   2    4.73    1.00
 -10   4   2   16.56    1.69
  -9   4   2    3.47    0.79
  -8   4   2    1.56    0.52
  -7   4   2    2.63    0.61
  -6   4   2   64.08    2.37
  -5   4   2    9.49    0.91
  -4   4   2   96.25    2.35
  -3   4   2    5.69    0.61
  -2   4   2  190.17    3.28
  -1   4   2    1.86    0.33
   0   4   2  133.92    2.17
   1   4   2    2.28    0.40
   2   4   2  187.22    3.30
   3   4   2    4.81    0.55
   4   4   2   98.81    1.76
   5   4   2   11.60    0.92
   6   4   2   69.70    1.97
   7   4   2    2.67    0.48
   8   4   2    1.11    0.47
   9   4   2    5.00    0.90
  10   4   2   16.31    2.26
  11   4   2    5.23    1.36
  12   4   2  163.75    6.80
  13   4   2    0.11    0.75
  14   4   2    7.41    1.87
  15   4   2   22.06    3.37
  16   4   2    0.29    1.68
 -16   5   2    8.28    2.85
 -15   5   2    5.31    1.55
 -14   5   2    8.89    1.91
 -13   5   2   -0.14    0.48
 -12   5   2    2.88    0.87
 -11   5   2   11.77    1.53
 -10   5   2   43.12    2.78
  -9   5   2   44.84    2.55
  -8   5   2   -0.06    0.28
  -7   5   2   11.70    1.29
  -6   5   2  177.08    4.32
  -5   5   2   24.23    1.46
  -4   5   2   22.92    1.38
  -3   5   2   -0.05    0.17
  -2   5   2  117.94    2.47
  -1   5   2   63.90    1.67
   0   5   2    0.10    0.14
   1   5   2   63.58    1.37
   2   5   2  115.17    1.94
   3   5   2    0.51    0.16
   4   5   2   26.64    1.33
   5   5   2   23.01    1.25
   6   5   2  185.18    3.63
   7   5   2   11.55    1.03
   8   5   2    0.42    0.33
   9   5   2   43.18    3.50
  10   5   2   37.95    3.47
  11   5   2   14.25    2.26
  12   5   2    2.66    1.15
  13   5   2   -0.34    0.71
  14   5   2   10.87    2.31
  15   5   2    3.59    1.48
  16   5   2   12.50    3.83
 -15   6   2   39.74    4.03
 -14   6   2   -0.75    0.70
 -13   6   2   12.02    1.70
 -12   6   2    1.40    0.70
 -11   6   2    1.26    0.66
 -10   6   2   33.84    2.51
  -9   6   2   39.58    2.60
  -8   6   2   76.03    2.90
  -7   6   2   81.38    2.93
  -6   6   2    7.51    1.02
  -5   6   2   65.91    2.07
  -4   6   2    2.57    0.49
  -3   6   2  270.83    4.59
  -2   6   2   71.75    1.93
  -1   6   2    1.29    0.32
   0   6   2  126.33    2.86
   1   6   2    2.38    0.38
   2   6   2   73.22    1.59
   3   6   2  278.74    4.62
   4   6   2    2.08    0.43
   5   6   2   64.40    1.96
   6   6   2    6.73    0.74
   7   6   2   87.50    2.47
   8   6   2   80.60    2.95
   9   6   2   37.38    3.40
  10   6   2   30.36    3.20
  11   6   2    1.30    0.81
  12   6   2    1.14    0.89
  13   6   2   11.20    2.25
  14   6   2    0.45    0.96
  15   6   2   36.75    4.25
 -15   7   2   -0.22    0.88
 -14   7   2    0.27    0.81
 -13   7   2   40.70    3.78
 -12   7   2   -0.21    0.46
 -11   7   2   13.87    1.71
 -10   7   2    0.50    0.46
  -9   7   2   72.01    3.00
  -8   7   2   18.08    1.70
  -7   7   2   50.84    2.33
  -6   7   2   10.88    1.24
  -5   7   2   23.47    1.75
  -4   7   2   10.39    0.97
  -3   7   2  159.61    3.30
  -2   7   2   16.48    1.12
  -1   7   2   38.71    1.39
   0   7   2   -0.03    0.18
   1   7   2   41.38    1.38
   2   7   2   15.78    1.04
   3   7   2  150.68    3.82
   4   7   2   10.88    0.95
   5   7   2   25.14    1.51
   6   7   2   12.95    1.14
   7   7   2   56.53    2.45
   8   7   2   15.89    1.58
   9   7   2   76.87    4.05
  10   7   2    0.62    0.61
  11   7   2   14.39    2.41
  12   7   2    0.31    0.67
  13   7   2   45.06    4.39
  14   7   2    0.19    0.95
  15   7   2    0.19    1.07
 -15   8   2    2.31    2.00
 -14   8   2    5.64    1.69
 -13   8   2    1.82    1.05
 -12   8   2   19.10    2.54
 -11   8   2   15.81    1.82
 -10   8   2   63.16    3.07
  -9   8   2    7.52    1.20
  -8   8   2   37.48    2.52
  -7   8   2   33.15    2.26
  -6   8   2   24.74    1.95
  -5   8   2   20.57    1.68
  -4   8   2    5.10    0.68
  -3   8   2   63.81    2.01
  -2   8   2   -0.15    0.20
  -1   8   2   54.74    1.76
   0   8   2  223.12    4.00
   1   8   2   55.73    1.72
   2   8   2    0.11    0.27
   3   8   2   61.46    2.36
   4   8   2    5.71    0.88
   5   8   2   23.30    1.84
   6   8   2   21.12    1.78
   7   8   2   38.81    2.57
   8   8   2   39.93    2.71
   9   8   2    9.40    1.67
  10   8   2   57.08    3.97
  11   8   2   19.68    2.73
  12   8   2   14.40    2.45
  13   8   2    0.76    0.98
  14   8   2    7.41    2.00
  15   8   2    3.50    2.31
 -14   9   2   15.59    2.52
 -13   9   2    0.38    0.86
 -12   9   2    3.36    1.32
 -11   9   2   19.90    2.63
 -10   9   2   22.00    2.10
  -9   9   2    0.89    0.56
  -8   9   2    2.33    0.68
  -7   9   2   47.36    2.45
  -6   9   2  134.95    4.01
  -5   9   2   18.97    1.69
  -4   9   2    7.46    0.87
  -3   9   2   53.76    1.89
  -2   9   2   29.81    1.55
  -1   9   2    2.50    0.51
   0   9   2   -0.22    0.19
   1   9   2    2.73    0.62
   2   9   2   29.27    1.79
   3   9   2   54.59    2.27
   4   9   2    8.91    1.15
   5   9   2   18.27    1.66
   6   9   2  139.45    4.12
   7   9   2   48.37    2.50
   8   9   2    2.83    0.77
   9   9   2    0.69    0.72
  10   9   2   25.30    2.96
  11   9   2   16.38    2.51
  12   9   2    2.92    1.31
  13   9   2    0.04    0.91
  14   9   2   15.48    2.74
 -13  10   2   29.54    3.34
 -12  10   2   57.69    4.57
 -11  10   2    2.95    1.10
 -10  10   2    1.01    0.84
  -9  10   2    8.67    1.14
  -8  10   2    4.99    1.01
  -7  10   2   11.58    1.45
  -6  10   2   21.18    1.88
  -5  10   2    4.99    0.90
  -4  10   2   79.29    2.91
  -3  10   2   73.31    2.32
  -2  10   2   31.30    1.54
  -1  10   2   36.76    1.66
   0  10   2    3.90    0.76
   1  10   2   32.91    1.94
   2  10   2   28.84    1.82
   3  10   2   66.18    2.63
   4  10   2   79.98    2.95
   5  10   2    3.96    0.83
   6  10   2   18.98    1.81
   7  10   2   10.29    1.41
   8  10   2    3.64    0.93
   9  10   2   11.07    1.54
  10  10   2    0.76    1.31
  11  10   2    2.34    1.93
  12  10   2   60.51    7.61
  13  10   2   21.20    4.64
 -13  11   2    5.72    1.64
 -12  11   2    2.09    1.16
 -11  11   2    0.42    0.86
 -10  11   2   18.65    2.58
  -9  11   2   73.81    4.12
  -8  11   2    0.43    0.68
  -7  11   2    5.81    1.11
  -6  11   2    0.58    0.44
  -5  11   2    1.97    0.65
  -4  11   2    8.95    1.24
  -3  11   2   29.47    2.18
  -2  11   2   19.78    1.70
  -1  11   2  112.24    4.52
   0  11   2   -0.16    0.38
   1  11   2  103.05    4.41
   2  11   2   18.99    2.08
   3  11   2   28.82    2.75
   4  11   2   10.98    1.79
   5  11   2    1.61    0.80
   6  11   2   -0.03    0.64
   7  11   2    4.03    1.20
   8  11   2   -0.18    0.69
   9  11   2   75.41    4.42
  10  11   2   16.03    3.61
  11  11   2    0.06    1.52
  12  11   2    0.55    1.58
 -12  12   2   35.39    3.86
 -11  12   2   21.40    2.94
 -10  12   2    1.56    0.96
  -9  12   2    0.15    0.70
  -8  12   2    5.93    1.45
  -7  12   2   37.27    3.45
  -6  12   2   20.94    2.00
  -5  12   2    2.23    0.72
  -4  12   2   12.37    1.45
  -3  12   2   24.31    2.09
  -2  12   2   57.99    3.33
  -1  12   2   33.61    3.03
   0  12   2   35.46    3.13
   1  12   2   43.78    3.62
   2  12   2   59.06    3.42
   3  12   2   21.55    2.57
   4  12   2   16.06    2.29
   5  12   2    4.36    1.25
   6  12   2   16.27    2.30
   7  12   2   36.59    3.61
   8  12   2   10.31    2.00
   9  12   2   -0.42    0.87
  10  12   2    0.95    1.22
  11  12   2   21.17    4.54
 -11  13   2    0.42    0.97
 -10  13   2    0.77    0.87
  -9  13   2    0.04    0.71
  -8  13   2    0.77    0.89
  -7  13   2   10.71    1.85
  -6  13   2   61.95    4.05
  -5  13   2  105.08    4.78
  -4  13   2   34.96    3.24
  -3  13   2    3.87    1.20
  -2  13   2    5.73    1.37
  -1  13   2    2.17    0.92
   0  13   2   -0.02    0.50
   1  13   2    2.84    0.99
   2  13   2    6.90    1.54
   3  13   2    1.47    0.78
   4  13   2   36.02    3.41
   5  13   2   88.96    4.74
   6  13   2   60.22    4.64
   7  13   2   11.09    1.99
   8  13   2    2.03    1.05
   9  13   2    0.05    0.93
  10  13   2    0.68    1.46
 -10  14   2    8.13    1.80
  -9  14   2    8.99    2.00
  -8  14   2   61.79    4.94
  -7  14   2    1.52    0.98
  -6  14   2    2.22    1.47
  -5  14   2    2.18    1.46
  -4  14   2   12.06    3.05
  -3  14   2    1.61    0.82
  -2  14   2    5.12    1.28
  -1  14   2   18.83    2.39
   0  14   2  121.45    5.29
   1  14   2    9.74    1.75
   2  14   2    3.54    1.19
   3  14   2    1.73    0.94
   4  14   2   12.36    2.11
   5  14   2    2.93    1.10
   6  14   2    0.09    0.72
   7  14   2    0.64    0.97
   8  14   2   70.64    5.42
   9  14   2   10.50    2.22
  -8  15   2   16.32    3.93
  -7  15   2    0.79    1.26
  -6  15   2    0.03    1.20
  -5  15   2    0.63    1.13
  -4  15   2    5.27    2.21
  -3  15   2   13.54    3.20
  -2  15   2   27.22    4.48
  -1  15   2    0.46    0.76
   0  15   2    0.05    0.71
   1  15   2    0.62    0.81
   2  15   2   19.73    2.69
   3  15   2   22.98    3.01
   4  15   2    4.62    1.41
   5  15   2    1.52    1.04
   6  15   2    0.01    0.90
   7  15   2   -0.05    0.92
   8  15   2   20.01    2.94
   9  15   2    4.11    2.13
  -6  16   2   -0.16    1.27
  -5  16   2    7.62    2.79
  -4  16   2   27.45    4.65
  -3  16   2    9.78    2.96
  -2  16   2    5.48    2.34
  -1  16   2   14.94    3.51
   0  16   2   28.12    4.91
   1  16   2    7.96    1.78
   2  16   2    3.57    1.34
   3  16   2    9.62    1.95
   4  16   2   34.46    3.70
   5  16   2    7.06    1.74
   6  16   2   -0.20    0.94
   7  16   2    7.18    1.91
  -3  17   2    0.43    1.24
  -2  17   2    9.14    3.04
  -1  17   2    7.49    2.62
   0  17   2    0.42    1.31
   1  17   2    6.99    2.55
   2  17   2    4.01    2.07
   3  17   2    0.12    0.93
   4  17   2   13.02    2.45
   5  17   2   10.24    2.99
  -1 -16   3    8.64    2.35
   0 -16   3   33.25    4.32
   1 -16   3    5.66    2.20
   2 -16   3   31.43    6.43
  -6 -15   3   39.17    6.83
  -5 -15   3   43.77    4.35
  -4 -15   3    8.38    1.95
  -3 -15   3    7.70    1.93
  -2 -15   3    2.05    0.95
  -1 -15   3    0.33    0.77
   0 -15   3   -0.21    0.92
   1 -15   3    0.10    0.92
   2 -15   3    1.72    1.27
   3 -15   3    8.70    2.00
   4 -15   3   11.99    2.36
   5 -15   3   42.79    4.47
   6 -15   3   36.36    6.26
  -8 -14   3   40.14    6.17
  -7 -14   3    1.11    1.13
  -6 -14   3    0.72    1.00
  -5 -14   3   -0.18    0.94
  -4 -14   3   28.50    4.96
  -3 -14   3    0.04    0.83
  -2 -14   3    4.59    1.24
  -1 -14   3   12.62    1.84
   0 -14   3   58.63    4.94
   1 -14   3   17.22    2.64
   2 -14   3    4.42    1.57
   3 -14   3    1.47    1.10
   4 -14   3   26.54    3.33
   5 -14   3    0.80    1.05
   6 -14   3   -0.45    0.72
   7 -14   3    0.59    0.84
   8 -14   3   33.80    3.69
  -9 -13   3    5.89    3.71
  -8 -13   3   18.82    2.91
  -7 -13   3    4.04    1.43
  -6 -13   3    0.73    0.88
  -5 -13   3   -0.27    0.67
  -4 -13   3    6.88    1.64
  -3 -13   3   63.57    3.97
  -2 -13   3   27.71    2.63
  -1 -13   3   -0.07    0.59
   0 -13   3    0.51    0.93
   1 -13   3    0.82    0.75
   2 -13   3   28.16    3.32
   3 -13   3   60.17    4.25
   4 -13   3    4.88    1.18
   5 -13   3    0.43    0.67
   6 -13   3   -0.03    0.75
   7 -13   3    3.92    1.10
   8 -13   3   18.92    2.32
   9 -13   3    3.99    1.64
 -10 -12   3   13.97    2.91
  -9 -12   3    5.05    1.48
  -8 -12   3    5.98    1.30
  -7 -12   3   18.60    2.27
  -6 -12   3    0.11    0.74
  -5 -12   3    9.59    1.82
  -4 -12   3   30.45    3.27
  -3 -12   3   19.03    2.09
  -2 -12   3    3.35    0.96
  -1 -12   3    1.57    0.75
   0 -12   3   21.57    2.85
   1 -12   3    0.89    0.88
   2 -12   3    3.05    1.19
   3 -12   3   20.60    2.15
   4 -12   3   34.66    2.90
   5 -12   3   14.39    1.86
   6 -12   3    0.68    0.66
   7 -12   3   13.85    1.93
   8 -12   3    7.34    1.45
   9 -12   3    6.40    1.84
  10 -12   3   20.98    3.19
 -11 -11   3    1.21    1.31
 -10 -11   3    1.41    1.09
  -9 -11   3   37.21    3.86
  -8 -11   3    0.42    0.66
  -7 -11   3   87.34    3.85
  -6 -11   3   28.04    2.57
  -5 -11   3   17.07    2.39
  -4 -11   3   10.70    1.50
  -3 -11   3    0.81    0.59
  -2 -11   3   10.59    1.54
  -1 -11   3   50.28    3.26
   0 -11   3    0.41    0.55
   1 -11   3   50.72    4.22
   2 -11   3   12.68    1.60
   3 -11   3   -0.11    0.47
   4 -11   3   13.17    1.77
   5 -11   3   19.05    2.06
   6 -11   3   25.64    2.46
   7 -11   3   78.02    3.75
   8 -11   3    0.90    0.95
   9 -11   3   16.82    2.64
  10 -11   3    1.02    1.13
  11 -11   3    0.15    1.13
 -12 -10   3    9.01    2.99
 -11 -10   3   40.06    4.06
 -10 -10   3    0.99    0.94
  -9 -10   3    5.86    1.51
  -8 -10   3    6.85    1.32
  -7 -10   3    0.70    0.63
  -6 -10   3   20.49    2.13
  -5 -10   3    1.43    0.71
  -4 -10   3   83.44    3.37
  -3 -10   3    7.56    1.27
  -2 -10   3    0.03    0.45
  -1 -10   3   55.91    2.89
   0 -10   3   20.82    1.65
   1 -10   3   57.70    3.07
   2 -10   3   -0.05    0.42
   3 -10   3    7.46    1.27
   4 -10   3   85.99    3.59
   5 -10   3    2.20    0.73
   6 -10   3   18.56    2.03
   7 -10   3    0.74    0.64
   8 -10   3    5.15    1.60
   9 -10   3    5.75    1.61
  10 -10   3    1.77    1.16
  11 -10   3   40.76    4.24
  12 -10   3   13.65    3.56
 -13  -9   3    0.04    1.31
 -12  -9   3    1.46    1.08
 -11  -9   3   -0.20    0.81
 -10  -9   3   27.42    3.24
  -9  -9   3   53.86    4.39
  -8  -9   3   29.51    3.15
  -7  -9   3    1.52    0.75
  -6  -9   3   19.18    1.95
  -5  -9   3   70.05    3.10
  -4  -9   3    0.08    0.40
  -3  -9   3   -0.13    0.40
  -2  -9   3  129.04    4.14
  -1  -9   3   30.69    1.93
   0  -9   3   -0.07    0.36
   1  -9   3   26.36    2.14
   2  -9   3  128.87    4.13
   3  -9   3    0.09    0.38
   4  -9   3   -0.09    0.35
   5  -9   3   65.05    3.20
   6  -9   3   15.35    1.80
   7  -9   3    2.96    0.90
   8  -9   3   27.36    3.27
   9  -9   3   51.17    4.47
  10  -9   3   26.25    3.31
  11  -9   3    1.95    1.21
  12  -9   3    2.09    1.39
 -13  -8   3    2.39    1.26
 -12  -8   3    5.24    1.56
 -11  -8   3   13.26    2.20
 -10  -8   3    0.60    0.75
  -9  -8   3   19.22    2.53
  -8  -8   3   49.20    3.94
  -7  -8   3   21.89    2.12
  -6  -8   3    1.43    0.66
  -5  -8   3   23.51    2.07
  -4  -8   3   29.66    1.90
  -3  -8   3   28.34    2.20
  -2  -8   3   55.84    2.06
  -1  -8   3   29.89    1.86
   0  -8   3   25.45    1.74
   1  -8   3   26.44    2.07
   2  -8   3   52.32    2.50
   3  -8   3   27.67    2.19
   4  -8   3   29.46    2.33
   5  -8   3   23.96    2.21
   6  -8   3    0.97    0.53
   7  -8   3   21.01    2.70
   8  -8   3   48.87    4.18
   9  -8   3   22.06    2.90
  10  -8   3    2.42    1.15
  11  -8   3   19.86    2.90
  12  -8   3    4.86    1.53
  13  -8   3    2.85    2.52
 -14  -7   3    0.52    1.40
 -13  -7   3   59.71    4.20
 -12  -7   3    0.29    0.63
 -11  -7   3    6.50    1.20
 -10  -7   3    0.31    0.59
  -9  -7   3    1.36    0.64
  -8  -7   3    9.81    1.43
  -7  -7   3   17.49    1.55
  -6  -7   3   13.26    1.35
  -5  -7   3  210.31    4.44
  -4  -7   3    2.75    0.59
  -3  -7   3   17.30    1.19
  -2  -7   3    7.87    0.90
  -1  -7   3    5.03    0.71
   0  -7   3   -0.01    0.28
   1  -7   3    3.04    0.65
   2  -7   3    8.86    0.99
   3  -7   3   16.88    1.33
   4  -7   3    2.52    0.57
   5  -7   3  207.63    4.58
   6  -7   3   12.51    1.42
   7  -7   3   17.12    1.80
   8  -7   3    9.24    1.34
   9  -7   3    1.61    0.75
  10  -7   3    0.53    0.65
  11  -7   3    7.41    1.45
  12  -7   3    0.19    0.98
  13  -7   3   66.47    8.05
 -14  -6   3   -0.60    0.99
 -13  -6   3   45.21    3.51
 -12  -6   3    4.36    1.09
 -11  -6   3   92.36    3.89
 -10  -6   3   14.83    1.78
  -9  -6   3    0.93    0.58
  -8  -6   3   36.55    2.59
  -7  -6   3   15.18    1.35
  -6  -6   3    1.85    0.54
  -5  -6   3   11.38    0.95
  -4  -6   3    0.71    0.29
  -3  -6   3    1.21    0.33
  -2  -6   3    2.85    0.39
  -1  -6   3  186.63    3.04
   0  -6   3   77.63    2.28
   1  -6   3  183.03    3.82
   2  -6   3    4.33    0.69
   3  -6   3    1.27    0.42
   4  -6   3    0.05    0.29
   5  -6   3   14.80    1.53
   6  -6   3    1.93    0.67
   7  -6   3   13.01    1.54
   8  -6   3   39.54    2.80
   9  -6   3    0.42    0.52
  10  -6   3   17.46    2.03
  11  -6   3   86.10    3.99
  12  -6   3    5.00    1.46
  13  -6   3   50.92    4.82
  14  -6   3   -0.27    1.10
 -14  -5   3   31.18    3.52
 -13  -5   3    0.14    0.74
 -12  -5   3    7.10    1.36
 -11  -5   3   10.33    1.55
 -10  -5   3   57.20    3.18
  -9  -5   3    4.68    0.96
  -8  -5   3   12.26    1.48
  -7  -5   3   72.08    2.90
  -6  -5   3   35.55    1.86
  -5  -5   3    1.74    0.39
  -4  -5   3    2.03    0.33
  -3  -5   3   72.03    1.52
  -2  -5   3  145.59    2.25
  -1  -5   3    7.59    0.67
   0  -5   3    0.61    0.23
   1  -5   3    7.10    0.80
   2  -5   3  146.16    3.35
   3  -5   3   72.34    2.29
   4  -5   3    2.03    0.60
   5  -5   3    1.18    0.52
   6  -5   3   33.54    2.37
   7  -5   3   73.63    3.03
   8  -5   3    9.78    1.37
   9  -5   3    4.35    0.96
  10  -5   3   56.48    3.50
  11  -5   3    7.78    1.37
  12  -5   3    6.73    1.68
  13  -5   3    0.37    1.00
  14  -5   3   29.83    3.75
 -14  -4   3   52.24    4.71
 -13  -4   3   -0.36    0.73
 -12  -4   3    0.73    0.82
 -11  -4   3    9.08    1.43
 -10  -4   3    6.27    1.19
  -9  -4   3    3.09    0.84
  -8  -4   3   30.33    2.29
  -7  -4   3   14.05    1.28
  -6  -4   3   31.75    1.65
  -5  -4   3    0.83    0.27
  -4  -4   3  200.34    2.77
  -3  -4   3    8.62    0.61
  -2  -4   3   19.46    0.90
  -1  -4   3   23.82    1.05
   0  -4   3    7.74    0.62
   1  -4   3   22.33    1.15
   2  -4   3   19.81    1.07
   3  -4   3    6.54    0.93
   4  -4   3  190.17    4.72
   5  -4   3    0.49    0.35
   6  -4   3   27.41    2.09
   7  -4   3   17.40    1.72
   8  -4   3   29.08    2.29
   9  -4   3    1.74    0.69
  10  -4   3    7.55    1.32
  11  -4   3    8.73    1.37
  12  -4   3    0.33    0.98
  13  -4   3   -0.54    0.85
  14  -4   3   53.14    5.03
  15  -4   3   -0.22    1.37
 -14  -3   3    6.22    1.57
 -13  -3   3   -0.46    0.77
 -12  -3   3   -0.31    0.57
 -11  -3   3   10.90    1.95
 -10  -3   3   30.39    2.39
  -9  -3   3   44.73    2.60
  -8  -3   3   39.26    2.09
  -7  -3   3  173.86    3.97
  -6  -3   3    1.33    0.38
  -5  -3   3   92.48    2.03
  -4  -3   3   22.01    0.97
  -3  -3   3    8.27    0.58
  -2  -3   3  117.65    1.90
  -1  -3   3  178.92    2.60
   0  -3   3    0.04    0.16
   1  -3   3  178.44    2.78
   2  -3   3  115.65    2.71
   3  -3   3    9.51    0.88
   4  -3   3   23.55    1.80
   5  -3   3   80.20    2.91
   6  -3   3    0.68    0.40
   7  -3   3  163.31    4.66
   8  -3   3   42.68    2.79
   9  -3   3   45.26    3.01
  10  -3   3   26.84    2.36
  11  -3   3   11.24    1.62
  12  -3   3   -0.34    0.87
  13  -3   3    0.65    1.08
  14  -3   3    4.39    1.60
  15  -3   3    3.42    1.62
 -15  -2   3    1.52    1.31
 -14  -2   3    0.50    0.98
 -13  -2   3   11.91    2.20
 -12  -2   3   27.86    3.12
 -11  -2   3   94.55    4.69
 -10  -2   3    6.46    1.43
  -9  -2   3    3.44    0.88
  -8  -2   3    0.20    0.32
  -7  -2   3   36.93    1.78
  -6  -2   3    1.60    0.45
  -5  -2   3    5.23    0.53
  -4  -2   3   30.33    1.09
  -3  -2   3   19.31    0.87
  -2  -2   3   34.56    0.96
  -1  -2   3  175.80    2.75
   0  -2   3    0.14    0.21
   1  -2   3  174.46    2.97
   2  -2   3   33.72    1.43
   3  -2   3   16.83    1.13
   4  -2   3   32.26    1.57
   5  -2   3    3.79    0.63
   6  -2   3    1.06    0.44
   7  -2   3   33.53    2.33
   8  -2   3    0.01    0.39
   9  -2   3    3.79    0.86
  10  -2   3    5.50    1.07
  11  -2   3   93.35    3.76
  12  -2   3   24.59    3.04
  13  -2   3    7.22    1.83
  14  -2   3   -0.09    0.93
  15  -2   3    1.74    1.33
 -15  -1   3   10.54    3.06
 -14  -1   3   20.21    2.89
 -13  -1   3   17.85    2.59
 -12  -1   3    5.74    1.44
 -11  -1   3   16.14    2.20
 -10  -1   3   57.29    3.25
  -9  -1   3    0.90    0.62
  -8  -1   3   33.20    2.37
  -7  -1   3    0.16    0.29
  -6  -1   3    0.27    0.29
  -5  -1   3  202.32    3.55
  -4  -1   3   24.39    1.18
  -3  -1   3   51.74    1.36
  -2  -1   3   49.94    1.35
  -1  -1   3    0.94    0.25
   0  -1   3    0.30    0.19
   1  -1   3    0.98    0.28
   2  -1   3   53.62    1.77
   3  -1   3   52.16    1.78
   4  -1   3   26.18    1.43
   5  -1   3  203.82    4.08
   6  -1   3    0.08    0.31
   7  -1   3    0.13    0.30
   8  -1   3   35.35    2.44
   9  -1   3    0.83    0.47
  10  -1   3   58.16    3.18
  11  -1   3   17.32    2.38
  12  -1   3    6.26    1.61
  13  -1   3   26.68    3.38
  14  -1   3   25.17    3.43
  15  -1   3   12.62    3.09
 -15   0   3    0.28    0.89
 -14   0   3   24.23    3.16
 -13   0   3    0.07    0.69
 -12   0   3   -0.61    0.58
 -11   0   3    0.17    0.54
 -10   0   3    2.63    0.75
  -9   0   3   -0.16    0.37
  -8   0   3  243.55    5.88
  -7   0   3    0.19    0.30
  -6   0   3   15.87    1.27
  -5   0   3   -0.08    0.19
  -4   0   3  160.51    2.88
  -3   0   3    0.26    0.17
  -2   0   3  143.89    2.67
  -1   0   3    0.11    0.16
   0   0   3   15.11    1.05
   1   0   3    0.15    0.17
   2   0   3  148.49    2.90
   3   0   3   -0.01    0.21
   4   0   3  155.72    3.41
   5   0   3   -0.16    0.19
   6   0   3   18.45    1.33
   7   0   3   -0.06    0.27
   8   0   3  236.73    4.87
   9   0   3    0.47    0.45
  10   0   3    2.99    0.86
  11   0   3    0.20    0.59
  12   0   3    0.15    0.67
  13   0   3    0.29    0.82
  14   0   3   25.77    3.19
  15   0   3   -0.78    1.71
 -15   1   3    9.65    2.20
 -14   1   3   24.50    3.13
 -13   1   3   24.86    3.02
 -12   1   3    6.08    1.24
 -11   1   3   21.06    2.16
 -10   1   3   59.15    3.10
  -9   1   3    1.38    0.61
  -8   1   3   32.41    2.33
  -7   1   3    0.23    0.37
  -6   1   3    0.11    0.26
  -5   1   3  214.24    4.20
  -4   1   3   24.45    1.36
  -3   1   3   53.69    1.73
  -2   1   3   51.49    1.46
  -1   1   3    1.00    0.26
   0   1   3    0.12    0.18
   1   1   3    1.13    0.33
   2   1   3   54.75    1.62
   3   1   3   51.31    2.06
   4   1   3   25.58    1.82
   5   1   3  203.71    4.78
   6   1   3    0.06    0.32
   7   1   3   -0.01    0.28
   8   1   3   37.93    2.29
   9   1   3    0.50    0.49
  10   1   3   56.86    3.83
  11   1   3   24.47    2.86
  12   1   3    5.77    1.59
  13   1   3   21.13    2.88
  14   1   3   13.39    3.81
  15   1   3   10.47    3.89
 -15   2   3    2.34    1.27
 -14   2   3    0.79    0.92
 -13   2   3    8.89    1.92
 -12   2   3   33.49    2.82
 -11   2   3   88.65    3.73
 -10   2   3    7.96    1.28
  -9   2   3    3.64    0.87
  -8   2   3    0.37    0.44
  -7   2   3   33.48    2.08
  -6   2   3    2.22    0.52
  -5   2   3    4.68    0.69
  -4   2   3   25.87    1.40
  -3   2   3   17.02    1.17
  -2   2   3   35.78    1.23
  -1   2   3  172.45    3.49
   0   2   3    0.44    0.25
   1   2   3  175.36    3.41
   2   2   3   34.05    1.35
   3   2   3   18.46    1.52
   4   2   3   31.20    1.88
   5   2   3    5.33    0.83
   6   2   3    2.44    0.58
   7   2   3   41.67    2.35
   8   2   3    0.14    0.38
   9   2   3    3.74    0.84
  10   2   3    8.13    1.25
  11   2   3   95.77    3.81
  12   2   3   36.20    3.59
  13   2   3   11.05    3.13
  14   2   3   -0.29    1.12
 -15   3   3    1.64    1.73
 -14   3   3    8.27    1.81
 -13   3   3    0.47    0.64
 -12   3   3    0.69    0.61
 -11   3   3   10.99    1.53
 -10   3   3   31.13    2.49
  -9   3   3   54.10    2.82
  -8   3   3   47.95    2.69
  -7   3   3  169.91    4.60
  -6   3   3    0.92    0.40
  -5   3   3   85.72    2.50
  -4   3   3   23.22    1.46
  -3   3   3    8.74    0.84
  -2   3   3  116.79    3.28
  -1   3   3  174.34    3.60
   0   3   3   -0.16    0.18
   1   3   3  176.57    3.53
   2   3   3  117.08    2.69
   3   3   3    7.02    0.75
   4   3   3   24.98    1.84
   5   3   3   80.37    2.86
   6   3   3    0.19    0.31
   7   3   3  177.09    4.68
   8   3   3   40.90    2.66
   9   3   3   45.54    2.68
  10   3   3   32.85    2.60
  11   3   3   12.84    1.67
  12   3   3    0.08    0.80
  13   3   3   -0.63    1.21
  14   3   3    4.53    2.60
 -14   4   3   52.23    4.60
 -13   4   3    0.03    0.65
 -12   4   3    1.18    0.71
 -11   4   3    7.35    1.30
 -10   4   3    4.66    0.90
  -9   4   3    3.19    0.83
  -8   4   3   33.74    2.44
  -7   4   3   16.01    1.60
  -6   4   3   32.27    1.94
  -5   4   3    0.16    0.27
  -4   4   3  197.44    3.99
  -3   4   3    7.45    1.03
  -2   4   3   21.63    1.66
  -1   4   3   19.30    1.54
   0   4   3    7.81    0.84
   1   4   3   24.29    1.49
   2   4   3   22.22    1.29
   3   4   3    6.72    0.73
   4   4   3  191.87    4.71
   5   4   3    0.33    0.32
   6   4   3   28.73    2.08
   7   4   3   17.13    1.71
   8   4   3   30.35    2.32
   9   4   3    2.92    0.68
  10   4   3    4.49    0.96
  11   4   3    8.81    1.86
  12   4   3    1.31    1.06
  13   4   3    0.14    0.98
  14   4   3   70.47    8.73
 -14   5   3   27.18    2.79
 -13   5   3    0.92    0.78
 -12   5   3    4.37    1.07
 -11   5   3    7.34    1.28
 -10   5   3   53.01    3.40
  -9   5   3    6.58    1.13
  -8   5   3   12.60    1.49
  -7   5   3   72.46    2.93
  -6   5   3   34.64    1.85
  -5   5   3    1.08    0.42
  -4   5   3    1.96    0.49
  -3   5   3   69.55    2.61
  -2   5   3  138.05    3.80
  -1   5   3    6.55    0.90
   0   5   3   -0.17    0.27
   1   5   3    6.26    0.75
   2   5   3  140.63    3.22
   3   5   3   64.52    2.08
   4   5   3    2.94    0.67
   5   5   3    2.67    0.67
   6   5   3   31.81    2.25
   7   5   3   69.11    2.86
   8   5   3   10.46    1.19
   9   5   3    5.79    1.26
  10   5   3   57.57    4.66
  11   5   3    7.09    1.71
  12   5   3    4.05    1.60
  13   5   3    1.00    1.12
  14   5   3   26.02    3.65
 -14   6   3   -0.35    0.82
 -13   6   3   47.79    3.53
 -12   6   3    3.03    0.89
 -11   6   3   84.19    3.72
 -10   6   3   13.10    1.62
  -9   6   3    0.70    0.52
  -8   6   3   34.46    2.47
  -7   6   3   14.68    1.59
  -6   6   3    1.04    0.44
  -5   6   3   13.01    1.24
  -4   6   3    0.19    0.40
  -3   6   3    0.91    0.45
  -2   6   3    2.81    0.65
  -1   6   3  176.36    4.47
   0   6   3   79.41    2.76
   1   6   3  186.57    4.51
   2   6   3    3.71    0.62
   3   6   3    1.03    0.36
   4   6   3    0.67    0.33
   5   6   3   11.71    1.31
   6   6   3    0.96    0.49
   7   6   3   14.23    1.59
   8   6   3   37.44    3.44
   9   6   3    0.26    0.63
  10   6   3   15.34    2.43
  11   6   3   98.12    5.24
  12   6   3    2.70    1.37
  13   6   3   55.63    5.21
  14   6   3    0.26    1.16
 -14   7   3   -0.17    0.99
 -13   7   3   55.98    3.82
 -12   7   3   -0.05    0.60
 -11   7   3    5.65    1.16
 -10   7   3   -0.04    0.51
  -9   7   3    1.09    0.57
  -8   7   3   15.45    1.71
  -7   7   3   17.19    1.69
  -6   7   3   14.35    1.62
  -5   7   3  219.17    5.49
  -4   7   3    3.87    0.82
  -3   7   3   16.07    1.56
  -2   7   3    8.58    1.16
  -1   7   3    4.11    0.78
   0   7   3   -0.04    0.26
   1   7   3    2.42    0.61
   2   7   3    7.52    1.05
   3   7   3   14.82    1.28
   4   7   3    3.70    0.64
   5   7   3  217.20    5.34
   6   7   3   13.89    1.56
   7   7   3   17.67    2.33
   8   7   3   16.12    2.31
   9   7   3    0.99    0.83
  10   7   3   -0.23    0.70
  11   7   3    5.15    1.59
  12   7   3    0.73    0.91
  13   7   3   59.00    5.38
  14   7   3   -0.46    1.55
 -13   8   3    3.51    1.16
 -12   8   3    5.45    1.26
 -11   8   3   16.59    1.98
 -10   8   3    0.45    0.57
  -9   8   3   16.81    1.86
  -8   8   3   49.94    2.92
  -7   8   3   21.11    2.52
  -6   8   3    0.13    0.47
  -5   8   3   23.40    2.08
  -4   8   3   28.13    2.22
  -3   8   3   32.84    2.35
  -2   8   3   55.49    2.50
  -1   8   3   27.27    2.05
   0   8   3   24.50    1.92
   1   8   3   29.67    2.16
   2   8   3   55.66    2.45
   3   8   3   30.85    2.28
   4   8   3   26.54    2.06
   5   8   3   21.62    1.90
   6   8   3    1.03    0.69
   7   8   3   15.96    2.22
   8   8   3   54.28    4.30
   9   8   3   18.16    2.48
  10   8   3    0.55    0.81
  11   8   3   18.65    2.76
  12   8   3    6.22    1.81
  13   8   3    2.16    1.28
 -13   9   3    1.23    1.75
 -12   9   3    3.29    1.07
 -11   9   3    1.46    0.78
 -10   9   3   31.20    2.74
  -9   9   3   47.36    3.92
  -8   9   3   34.02    3.36
  -7   9   3    2.47    0.95
  -6   9   3   21.15    2.54
  -5   9   3   64.52    2.95
  -4   9   3    0.17    0.34
  -3   9   3   -0.08    0.39
  -2   9   3  126.33    4.00
  -1   9   3   30.20    2.26
   0   9   3    0.29    0.37
   1   9   3   29.98    2.20
   2   9   3  124.53    3.92
   3   9   3   -0.20    0.33
   4   9   3    0.19    0.43
   5   9   3   70.62    3.00
   6   9   3   13.92    2.05
   7   9   3    2.63    1.06
   8   9   3   30.20    3.29
   9   9   3   53.09    4.39
  10   9   3   28.95    3.41
  11   9   3    1.06    1.07
  12   9   3    5.67    1.77
  13   9   3    0.60    1.59
 -11  10   3   47.36    4.27
 -10  10   3    0.06    0.80
  -9  10   3    5.65    1.49
  -8  10   3    6.32    1.56
  -7  10   3    0.62    0.70
  -6  10   3   23.57    3.94
  -5  10   3    0.72    0.57
  -4  10   3   83.44    3.32
  -3  10   3    8.11    1.25
  -2  10   3    0.30    0.39
  -1  10   3   55.85    2.75
   0  10   3   19.57    1.85
   1  10   3   57.23    2.63
   2  10   3    0.33    0.45
   3  10   3    7.90    1.17
   4  10   3   90.11    3.43
   5  10   3    1.19    0.58
   6  10   3   21.52    2.63
   7  10   3    0.59    0.76
   8  10   3    3.30    1.22
   9  10   3    6.99    1.78
  10  10   3    1.11    1.03
  11  10   3   37.09    4.09
  12  10   3    7.23    4.64
 -11  11   3   -0.11    1.70
 -10  11   3    1.78    1.53
  -9  11   3   31.42    3.47
  -8  11   3    0.30    0.75
  -7  11   3   81.67    4.52
  -6  11   3   24.60    2.86
  -5  11   3   19.26    2.50
  -4  11   3   11.62    1.45
  -3  11   3    0.58    0.53
  -2  11   3   15.69    1.75
  -1  11   3   56.65    2.98
   0  11   3    0.00    0.44
   1  11   3   55.63    2.79
   2  11   3   15.03    1.59
   3  11   3    0.20    0.52
   4  11   3   14.04    1.84
   5  11   3   16.60    2.38
   6  11   3   25.13    4.36
   7  11   3   80.52    6.81
   8  11   3    1.06    1.41
   9  11   3   22.32    4.55
  10  11   3   -0.25    1.50
  11  11   3   -0.24    1.35
 -10  12   3   12.10    4.85
  -9  12   3    4.26    2.07
  -8  12   3    5.50    1.45
  -7  12   3   19.45    2.72
  -6  12   3    0.97    0.80
  -5  12   3   13.22    2.15
  -4  12   3   37.31    3.49
  -3  12   3   13.12    2.01
  -2  12   3    3.56    1.18
  -1  12   3    2.80    1.04
   0  12   3   22.47    2.72
   1  12   3    1.87    0.89
   2  12   3    2.76    1.07
   3  12   3   16.84    2.40
   4  12   3   42.57    3.83
   5  12   3   14.31    2.31
   6  12   3   -0.01    1.19
   7  12   3   17.94    3.84
   8  12   3    6.73    2.50
   9  12   3    4.64    2.23
  10  12   3   12.22    5.68
  -8  13   3   14.33    3.42
  -7  13   3    6.80    1.85
  -6  13   3    0.96    0.99
  -5  13   3    1.53    1.03
  -4  13   3    6.52    1.46
  -3  13   3   65.41    3.98
  -2  13   3   27.60    3.17
  -1  13   3   -0.16    0.70
   0  13   3    0.39    0.69
   1  13   3    0.29    0.62
   2  13   3   30.53    3.33
   3  13   3   67.04    4.96
   4  13   3    3.44    1.29
   5  13   3    0.64    0.97
   6  13   3   -0.55    0.99
   7  13   3   10.07    3.09
   8  13   3   17.48    4.19
  -7  14   3   -0.33    1.15
  -6  14   3    0.28    1.36
  -5  14   3    1.15    1.02
  -4  14   3   30.28    3.39
  -3  14   3    0.22    0.83
  -2  14   3    4.78    1.43
  -1  14   3   14.96    2.33
   0  14   3   52.25    4.38
   1  14   3   13.53    2.24
   2  14   3    6.51    1.68
   3  14   3    1.17    1.03
   4  14   3   26.20    3.27
   5  14   3    0.35    0.95
   6  14   3    0.40    1.41
   7  14   3   -0.37    1.52
  -5  15   3   41.35    5.86
  -4  15   3   12.53    2.85
  -3  15   3    6.97    1.67
  -2  15   3    2.83    1.22
  -1  15   3   -0.28    0.88
   0  15   3   -0.33    0.84
   1  15   3    0.08    0.89
   2  15   3    1.39    1.18
   3  15   3    4.89    1.41
   4  15   3    9.06    2.00
   5  15   3   42.32    6.11
  -2  16   3   22.37    3.16
  -1  16   3   10.67    2.25
   0  16   3   44.95    4.39
   1  16   3    9.29    1.94
   2  16   3   24.79    3.28
   3  16   3   17.86    3.01
   4  16   3   -0.82    1.75
  -1 -14   4    7.59    3.05
   0 -14   4   70.74    8.51
   1 -14   4   12.31    3.91
  -5 -13   4   67.22    8.33
  -4 -13   4   18.37    2.89
  -3 -13   4    0.31    0.97
  -2 -13   4    2.32    1.39
  -1 -13   4    2.72    1.48
   0 -13   4   -0.13    0.94
   1 -13   4    2.34    1.36
   2 -13   4    1.68    1.23
   3 -13   4    2.07    1.32
   4 -13   4   15.33    2.81
   6 -13   4   36.97    5.81
  -7 -12   4   21.10    4.43
  -6 -12   4   11.09    2.36
  -5 -12   4    2.25    1.32
  -4 -12   4    4.26    1.50
  -3 -12   4   11.14    2.27
  -2 -12   4   31.72    3.66
  -1 -12   4   21.65    3.07
   0 -12   4   19.41    2.83
   1 -12   4   22.28    3.18
   2 -12   4   30.49    3.58
   3 -12   4   14.22    2.46
   4 -12   4    5.55    1.31
   5 -12   4    2.05    1.02
   6 -12   4    7.01    1.95
   7 -12   4   14.94    3.61
  -8 -11   4   -0.17    0.89
  -7 -11   4    2.76    1.73
  -6 -11   4    0.11    0.93
  -5 -11   4    1.40    1.13
  -4 -11   4    4.63    1.51
  -3 -11   4   15.35    2.03
  -2 -11   4    6.64    1.61
  -1 -11   4   55.98    4.72
   0 -11   4   -0.21    0.78
   1 -11   4   51.02    4.59
   2 -11   4    8.63    1.85
   3 -11   4   14.79    1.92
   4 -11   4    2.77    0.98
   5 -11   4    1.73    0.88
   6 -11   4    0.39    1.06
   7 -11   4    2.91    1.41
   8 -11   4    0.58    1.42
  -9 -10   4    4.32    1.52
  -8 -10   4    3.59    1.35
  -7 -10   4    6.63    1.75
  -6 -10   4   13.26    2.20
  -5 -10   4    3.22    1.22
  -4 -10   4   40.68    3.92
  -3 -10   4   29.11    2.55
  -2 -10   4   15.63    2.43
  -1 -10   4   19.31    2.67
   0 -10   4    1.75    0.90
   1 -10   4   18.71    2.08
   2 -10   4   10.42    1.58
   3 -10   4   29.24    2.65
   4 -10   4   40.52    3.19
   5 -10   4    1.75    0.91
   6 -10   4    9.39    2.06
   7 -10   4    8.87    2.06
   8 -10   4    4.77    1.58
   9 -10   4    6.32    1.88
 -10  -9   4   16.59    2.77
  -9  -9   4    0.41    0.99
  -8  -9   4    0.08    0.89
  -7  -9   4   22.21    2.84
  -6  -9   4   72.33    3.86
  -5  -9   4    6.79    1.47
  -4  -9   4    2.91    1.06
  -3  -9   4   24.21    2.26
  -2  -9   4   18.50    1.98
  -1  -9   4    1.21    0.84
   0  -9   4   -0.05    0.50
   1  -9   4    0.74    0.58
   2  -9   4   17.29    2.00
   3  -9   4   20.94    2.16
   4  -9   4    3.04    0.89
   5  -9   4    6.35    1.51
   6  -9   4   75.73    5.65
   7  -9   4   19.33    2.82
   8  -9   4    1.02    0.98
   9  -9   4   -0.41    0.99
  10  -9   4   11.57    3.38
 -11  -8   4   16.84    5.71
 -10  -8   4   35.04    5.45
  -9  -8   4    3.76    1.29
  -8  -8   4   19.67    2.74
  -7  -8   4   18.52    2.48
  -6  -8   4   11.54    1.94
  -5  -8   4   11.49    1.58
  -4  -8   4    1.97    0.74
  -3  -8   4   32.19    2.53
  -2  -8   4    0.43    0.72
  -1  -8   4   27.82    2.31
   0  -8   4  110.31    3.98
   1  -8   4   27.02    2.37
   2  -8   4    0.05    0.47
   3  -8   4   31.65    2.65
   4  -8   4    0.70    0.81
   5  -8   4   12.28    2.18
   6  -8   4   12.34    1.99
   7  -8   4   16.00    2.52
   8  -8   4   20.35    2.92
   9  -8   4    3.46    1.40
  10  -8   4   28.02    3.52
  11  -8   4    8.94    2.90
 -11  -7   4    4.36    1.50
 -10  -7   4    0.33    0.84
  -9  -7   4   41.12    3.86
  -8  -7   4    9.40    1.53
  -7  -7   4   22.71    2.21
  -6  -7   4    3.17    1.07
  -5  -7   4   10.88    1.47
  -4  -7   4    4.76    0.86
  -3  -7   4   81.82    2.76
  -2  -7   4    7.32    1.15
  -1  -7   4   18.67    1.85
   0  -7   4    0.30    0.44
   1  -7   4   18.39    1.93
   2  -7   4    5.22    0.99
   3  -7   4   71.45    4.07
   4  -7   4    3.29    1.11
   5  -7   4   11.29    1.76
   6  -7   4    6.91    1.68
   7  -7   4   26.73    3.12
   8  -7   4    6.78    1.71
   9  -7   4   51.78    4.70
  10  -7   4   -0.41    0.91
  11  -7   4    7.26    1.91
 -12  -6   4    0.79    1.37
 -11  -6   4    0.42    0.98
 -10  -6   4   14.19    2.33
  -9  -6   4   22.52    2.93
  -8  -6   4   42.60    3.89
  -7  -6   4   49.33    3.23
  -6  -6   4    2.89    0.81
  -5  -6   4   31.53    2.09
  -4  -6   4    1.42    0.37
  -3  -6   4  136.26    3.17
  -2  -6   4   33.64    2.03
  -1  -6   4    0.14    0.37
   0  -6   4   60.19    2.39
   1  -6   4   -0.07    0.36
   2  -6   4   33.64    2.41
   3  -6   4  127.81    4.22
   4  -6   4    0.38    0.54
   5  -6   4   30.56    2.51
   6  -6   4    2.81    0.87
   7  -6   4   44.21    3.20
   8  -6   4   38.68    2.97
   9  -6   4   21.64    2.25
  10  -6   4   18.51    2.24
  11  -6   4    0.65    1.04
  12  -6   4    1.15    1.52
 -12  -5   4    1.58    1.16
 -11  -5   4    4.82    1.50
 -10  -5   4   18.54    2.66
  -9  -5   4   25.68    2.93
  -8  -5   4   -0.13    0.65
  -7  -5   4    5.14    1.32
  -6  -5   4   89.24    2.99
  -5  -5   4    9.73    0.92
  -4  -5   4   10.63    0.80
  -3  -5   4    0.03    0.23
  -2  -5   4   55.94    1.93
  -1  -5   4   28.87    1.92
   0  -5   4   -0.09    0.35
   1  -5   4   31.11    2.23
   2  -5   4   56.67    2.86
   3  -5   4   -0.43    0.34
   4  -5   4   10.07    1.33
   5  -5   4    8.31    1.27
   6  -5   4   85.59    3.58
   7  -5   4    5.36    1.09
   8  -5   4    0.12    0.57
   9  -5   4   23.99    2.42
  10  -5   4   21.14    2.31
  11  -5   4    3.89    1.16
  12  -5   4    2.75    1.27
 -12  -4   4   95.70    5.39
 -11  -4   4    3.31    1.24
 -10  -4   4    5.88    1.53
  -9  -4   4    1.41    0.84
  -8  -4   4    0.95    0.61
  -7  -4   4    1.11    0.65
  -6  -4   4   32.66    2.49
  -5  -4   4    5.14    0.83
  -4  -4   4   47.30    1.43
  -3  -4   4    2.19    0.42
  -2  -4   4   80.07    2.56
  -1  -4   4    0.72    0.43
   0  -4   4   50.92    2.43
   1  -4   4    1.74    0.59
   2  -4   4   78.61    3.11
   3  -4   4    2.12    0.70
   4  -4   4   48.46    2.77
   5  -4   4    4.75    0.98
   6  -4   4   29.54    2.43
   7  -4   4    0.23    0.52
   8  -4   4   -0.59    0.50
   9  -4   4    2.22    0.90
  10  -4   4    5.86    1.29
  11  -4   4    2.78    1.03
  12  -4   4  105.60    5.84
  13  -4   4    0.16    1.78
 -13  -3   4    8.81    2.89
 -12  -3   4   -0.42    0.84
 -11  -3   4    2.98    1.33
 -10  -3   4    0.65    0.75
  -9  -3   4  101.46    4.10
  -8  -3   4   16.71    1.88
  -7  -3   4    7.28    1.21
  -6  -3   4   91.59    3.45
  -5  -3   4    2.19    0.60
  -4  -3   4   13.59    1.11
  -3  -3   4   33.51    1.75
  -2  -3   4    0.90    0.38
  -1  -3   4   79.25    2.56
   0  -3   4    0.20    0.35
   1  -3   4   76.94    2.62
   2  -3   4    0.86    0.52
   3  -3   4   37.73    2.59
   4  -3   4   13.61    1.53
   5  -3   4    2.91    0.81
   6  -3   4   85.99    3.54
   7  -3   4    6.31    1.13
   8  -3   4   19.84    2.08
   9  -3   4   97.08    4.05
  10  -3   4    0.21    0.72
  11  -3   4    6.90    1.37
  12  -3   4    0.12    1.08
  13  -3   4   10.04    2.44
 -13  -2   4    1.65    1.77
 -12  -2   4    6.03    1.62
 -11  -2   4    6.30    1.63
 -10  -2   4    8.09    1.44
  -9  -2   4   32.39    2.65
  -8  -2   4    2.00    0.75
  -7  -2   4   50.28    3.17
  -6  -2   4   20.22    1.66
  -5  -2   4   26.15    1.82
  -4  -2   4   83.37    2.71
  -3  -2   4   67.56    2.37
  -2  -2   4    6.94    0.87
  -1  -2   4    0.11    0.33
   0  -2   4    0.32    0.34
   1  -2   4    0.52    0.37
   2  -2   4    7.08    0.91
   3  -2   4   72.31    2.98
   4  -2   4   82.40    3.26
   5  -2   4   22.69    2.07
   6  -2   4   20.65    2.02
   7  -2   4   39.12    2.85
   8  -2   4    0.05    0.46
   9  -2   4   30.98    2.66
  10  -2   4    6.64    1.33
  11  -2   4    5.33    1.26
  12  -2   4    6.85    1.81
  13  -2   4   -0.06    1.06
 -13  -1   4   22.17    3.60
 -12  -1   4   12.00    2.22
 -11  -1   4   11.04    1.63
 -10  -1   4    0.80    0.68
  -9  -1   4    4.45    1.05
  -8  -1   4   -0.18    0.51
  -7  -1   4    2.25    0.74
  -6  -1   4   81.48    2.81
  -5  -1   4   13.30    1.50
  -4  -1   4   45.57    2.55
  -3  -1   4   63.58    2.31
  -2  -1   4   16.07    1.36
  -1  -1   4    2.63    0.69
   0  -1   4   -0.06    0.29
   1  -1   4    1.05    0.43
   2  -1   4   15.66    1.35
   3  -1   4   69.73    2.43
   4  -1   4   48.59    2.77
   5  -1   4   12.47    1.47
   6  -1   4   80.48    3.40
   7  -1   4    2.69    0.86
   8  -1   4    0.76    0.61
   9  -1   4    8.21    1.41
  10  -1   4    0.71    0.77
  11  -1   4   11.11    2.19
  12  -1   4    7.27    1.90
  13  -1   4   33.18    4.17
 -13   0   4    0.82    1.16
 -12   0   4   34.05    3.02
 -11   0   4   -0.25    0.69
 -10   0   4  101.47    4.19
  -9   0   4   -0.33    0.50
  -8   0   4   62.63    3.19
  -7   0   4   -0.52    0.48
  -6   0   4    0.27    0.50
  -5   0   4   -0.20    0.33
  -4   0   4    3.66    0.82
  -3   0   4   -0.05    0.32
  -2   0   4    1.27    0.43
  -1   0   4    0.12    0.34
   0   0   4  568.86   10.10
   1   0   4    0.19    0.38
   2   0   4    0.57    0.44
   3   0   4   -0.27    0.31
   4   0   4    3.14    0.75
   5   0   4   -0.22    0.32
   6   0   4    0.20    0.54
   7   0   4   -0.46    0.51
   8   0   4   71.65    4.09
   9   0   4    0.77    0.69
  10   0   4   94.62    5.13
  11   0   4   -0.07    0.74
  12   0   4   30.09    3.50
  13   0   4    1.08    1.23
 -13   1   4   23.44    3.61
 -12   1   4    8.56    1.59
 -11   1   4   16.64    2.00
 -10   1   4    0.00    0.59
  -9   1   4    6.94    1.32
  -8   1   4   -0.15    0.67
  -7   1   4    2.08    0.95
  -6   1   4   83.66    3.39
  -5   1   4   12.98    1.53
  -4   1   4   49.15    2.56
  -3   1   4   69.18    2.80
  -2   1   4   11.57    1.11
  -1   1   4    2.08    0.50
   0   1   4   -0.12    0.31
   1   1   4    2.47    0.63
   2   1   4   12.47    1.40
   3   1   4   69.98    2.86
   4   1   4   46.91    2.62
   5   1   4   12.36    1.47
   6   1   4   78.42    3.18
   7   1   4    3.20    1.09
   8   1   4    0.82    0.69
   9   1   4    6.32    1.48
  10   1   4    0.25    0.83
  11   1   4    9.73    2.03
  12   1   4   11.66    2.36
  13   1   4   33.52    4.48
 -13   2   4    1.17    1.67
 -12   2   4    6.63    1.43
 -11   2   4    1.77    1.04
 -10   2   4    9.10    1.83
  -9   2   4   23.45    2.87
  -8   2   4    0.31    0.65
  -7   2   4   40.81    3.58
  -6   2   4   21.53    2.05
  -5   2   4   24.48    2.10
  -4   2   4   87.91    3.29
  -3   2   4   76.11    2.97
  -2   2   4    6.44    0.87
  -1   2   4   -0.12    0.30
   0   2   4    0.18    0.37
   1   2   4    0.13    0.37
   2   2   4    8.23    1.17
   3   2   4   68.90    2.86
   4   2   4   78.95    3.11
   5   2   4   25.55    2.10
   6   2   4   18.39    1.84
   7   2   4   46.89    3.03
   8   2   4    1.52    0.78
   9   2   4   25.67    2.97
  10   2   4    7.57    1.72
  11   2   4    4.84    1.48
  12   2   4    6.40    1.69
 -12   3   4    2.46    1.27
 -11   3   4    4.84    1.39
 -10   3   4    0.43    0.77
  -9   3   4   91.05    4.83
  -8   3   4   19.82    2.62
  -7   3   4    8.59    1.35
  -6   3   4   90.76    3.64
  -5   3   4    2.63    0.78
  -4   3   4   12.31    1.50
  -3   3   4   34.44    2.39
  -2   3   4    0.37    0.44
  -1   3   4   80.61    2.62
   0   3   4    0.15    0.36
   1   3   4   77.80    3.06
   2   3   4    1.73    0.59
   3   3   4   34.63    2.46
   4   3   4   13.70    1.54
   5   3   4    2.69    0.74
   6   3   4   85.77    3.43
   7   3   4    7.70    1.26
   8   3   4   20.00    2.12
   9   3   4   98.17    3.98
  10   3   4    0.35    0.76
  11   3   4    5.08    1.57
  12   3   4    2.52    1.91
 -12   4   4   99.53    5.66
 -11   4   4    2.61    1.18
 -10   4   4    9.44    1.92
  -9   4   4    1.33    0.94
  -8   4   4   -0.43    0.54
  -7   4   4    2.03    0.97
  -6   4   4   37.06    2.78
  -5   4   4    3.65    0.89
  -4   4   4   46.40    2.75
  -3   4   4    1.84    0.68
  -2   4   4   73.70    2.99
  -1   4   4    0.48    0.40
   0   4   4   56.04    2.25
   1   4   4    1.04    0.55
   2   4   4   76.39    3.11
   3   4   4    1.59    0.59
   4   4   4   42.42    2.60
   5   4   4    4.73    0.97
   6   4   4   28.58    2.35
   7   4   4    1.48    0.64
   8   4   4    0.55    0.54
   9   4   4    2.41    0.90
  10   4   4    6.35    1.19
  11   4   4    3.59    2.11
  12   4   4   94.29    8.17
 -12   5   4    1.86    1.34
 -11   5   4    5.92    1.58
 -10   5   4   19.21    2.85
  -9   5   4   21.05    2.83
  -8   5   4   -0.02    0.69
  -7   5   4    7.32    1.64
  -6   5   4   80.12    3.53
  -5   5   4    9.38    1.40
  -4   5   4    9.57    1.35
  -3   5   4    0.40    0.45
  -2   5   4   53.73    2.56
  -1   5   4   30.29    2.23
   0   5   4    0.30    0.40
   1   5   4   26.80    2.22
   2   5   4   50.47    2.69
   3   5   4    0.05    0.32
   4   5   4    8.22    1.22
   5   5   4   10.00    1.40
   6   5   4   85.55    3.51
   7   5   4    5.02    1.08
   8   5   4   -0.41    0.47
   9   5   4   23.41    2.39
  10   5   4   21.24    2.94
  11   5   4    4.13    1.53
  12   5   4    4.36    2.32
 -11   6   4    1.37    1.15
 -10   6   4   14.92    2.44
  -9   6   4   24.31    3.05
  -8   6   4   44.29    3.99
  -7   6   4   43.48    3.83
  -6   6   4    3.15    0.84
  -5   6   4   30.57    2.46
  -4   6   4    0.54    0.46
  -3   6   4  134.08    4.35
  -2   6   4   32.49    2.45
  -1   6   4    0.29    0.41
   0   6   4   60.69    2.70
   1   6   4    0.34    0.52
   2   6   4   26.80    2.27
   3   6   4  120.92    4.21
   4   6   4    0.96    0.48
   5   6   4   29.80    2.49
   6   6   4    3.42    0.90
   7   6   4   45.89    3.23
   8   6   4   38.83    3.86
   9   6   4   17.40    2.63
  10   6   4   15.63    2.63
  11   6   4   -0.23    0.96
  12   6   4    1.92    1.95
 -11   7   4    5.27    1.67
 -10   7   4    0.56    1.02
  -9   7   4   47.27    4.32
  -8   7   4    5.16    1.35
  -7   7   4   25.34    2.97
  -6   7   4    3.98    1.03
  -5   7   4   12.43    1.66
  -4   7   4    4.06    0.96
  -3   7   4   72.35    3.18
  -2   7   4    6.16    1.07
  -1   7   4   17.72    1.82
   0   7   4   -0.49    0.40
   1   7   4   16.65    2.12
   2   7   4    5.39    1.31
   3   7   4   67.78    3.14
   4   7   4    3.72    0.93
   5   7   4   12.60    1.64
   6   7   4    4.55    1.03
   7   7   4   23.47    2.92
   8   7   4    5.90    1.54
   9   7   4   41.94    4.12
  10   7   4   -0.34    0.82
  11   7   4    8.22    2.20
 -11   8   4    9.84    3.58
 -10   8   4   30.73    3.58
  -9   8   4    5.81    1.57
  -8   8   4   16.36    2.52
  -7   8   4   17.36    2.54
  -6   8   4   10.60    1.57
  -5   8   4   12.89    1.69
  -4   8   4    1.87    0.71
  -3   8   4   28.75    2.43
  -2   8   4    0.06    0.42
  -1   8   4   26.45    2.27
   0   8   4  101.00    3.78
   1   8   4   26.17    2.88
   2   8   4   -0.37    0.49
   3   8   4   31.42    3.24
   4   8   4    1.77    0.85
   5   8   4   12.19    1.62
   6   8   4   10.06    1.96
   7   8   4   16.90    2.51
   8   8   4   20.57    2.91
   9   8   4    3.91    1.52
  10   8   4   28.30    3.66
  11   8   4    6.83    1.92
 -10   9   4   17.69    4.09
  -9   9   4    1.43    1.06
  -8   9   4   -0.05    0.81
  -7   9   4   25.81    3.18
  -6   9   4   72.01    3.71
  -5   9   4    8.65    1.48
  -4   9   4    4.18    0.98
  -3   9   4   26.60    2.38
  -2   9   4   19.31    2.01
  -1   9   4    1.08    0.62
   0   9   4   -0.41    0.47
   1   9   4    1.05    0.63
   2   9   4   12.49    2.03
   3   9   4   27.74    3.09
   4   9   4    5.88    1.50
   5   9   4    6.21    1.45
   6   9   4   73.24    4.87
   7   9   4   20.19    2.94
   8   9   4    2.07    1.18
   9   9   4    0.66    0.95
  10   9   4   18.95    2.99
  -9  10   4    5.16    1.72
  -8  10   4    3.15    1.28
  -7  10   4    3.38    1.30
  -6  10   4   10.68    2.12
  -5  10   4    3.34    1.05
  -4  10   4   43.23    3.17
  -3  10   4   33.66    2.71
  -2  10   4   14.13    1.81
  -1  10   4   17.89    1.90
   0  10   4    2.25    0.82
   1  10   4   14.19    1.77
   2  10   4   13.83    2.17
   3  10   4   32.96    3.38
   4  10   4   44.50    4.03
   5  10   4    3.32    1.22
   6  10   4    8.85    1.95
   7  10   4    6.49    1.66
   8  10   4    5.69    1.67
   9  10   4    5.44    1.79
  -8  11   4    0.29    1.15
  -7  11   4    1.02    1.02
  -6  11   4    0.21    0.89
  -5  11   4    1.74    0.88
  -4  11   4    5.29    1.25
  -3  11   4   16.14    2.01
  -2  11   4   11.03    1.63
  -1  11   4   54.72    3.53
   0  11   4    0.04    0.61
   1  11   4   53.03    3.49
   2  11   4   13.98    2.27
   3  11   4   20.11    2.74
   4  11   4    6.58    1.64
   5  11   4    1.44    1.09
   6  11   4   -0.13    0.97
   7  11   4    3.19    1.40
  -7  12   4   22.59    4.41
  -6  12   4    9.53    2.07
  -5  12   4    0.61    0.92
  -4  12   4    6.29    1.70
  -3  12   4   15.98    2.47
  -2  12   4   34.09    3.68
  -1  12   4   21.03    2.87
   0  12   4   19.25    2.79
   1  12   4   21.04    2.75
   2  12   4   29.81    4.93
   3  12   4   16.55    3.73
   4  12   4    8.34    2.76
   5  12   4    4.62    2.34
   6  12   4   13.82    3.73
  -5  13   4   57.88    5.67
  -4  13   4   14.50    2.27
  -3  13   4    3.51    1.30
  -2  13   4    3.42    1.38
  -1  13   4    2.29    1.08
   0  13   4   -0.17    0.95
   1  13   4    1.98    1.14
   2  13   4    0.48    1.69
   3  13   4    1.17    1.55
   4  13   4   15.36    3.70
  -2  14   4    1.46    1.34
  -1  14   4    6.82    1.97
   0  14   4   75.88    8.10
   1  14   4    8.27    2.81
  -1 -11   5   24.28    4.73
   0 -11   5    1.85    1.86
  -3 -10   5    4.53    2.51
  -2 -10   5   -0.38    1.03
  -1 -10   5   27.10    3.45
   0 -10   5   10.98    2.34
   1 -10   5   29.09    5.17
   2 -10   5   -0.07    1.50
   3 -10   5    3.09    1.89
   4 -10   5   33.39    5.36
  -3  -9   5    0.96    1.42
  -2  -9   5   58.26    4.73
  -1  -9   5   10.63    2.17
   0  -9   5   -0.50    1.11
   1  -9   5   11.14    2.21
   2  -9   5   53.53    4.64
   3  -9   5    0.00    1.07
   4  -9   5   -0.15    1.03
   5  -9   5   20.12    4.25
  -3  -8   5    6.02    2.17
  -2  -8   5   27.14    4.60
  -1  -8   5    8.73    2.83
   0  -8   5    8.57    1.89
   1  -8   5    9.42    1.94
   2  -8   5   28.45    3.38
   3  -8   5   13.16    2.42
   4  -8   5   12.12    2.34
   5  -8   5   11.71    2.43
   6  -8   5   -0.42    1.07
  -3  -7   5    7.95    2.73
  -2  -7   5    2.46    1.20
  -1  -7   5    1.61    0.99
   0  -7   5    0.10    0.83
   1  -7   5    1.41    1.01
   2  -7   5    2.76    1.17
   3  -7   5    6.45    1.76
   4  -7   5    2.09    1.27
   5  -7   5  101.16    5.64
   6  -7   5    4.59    1.54
   7  -7   5   12.42    2.54
  -8  -6   5   15.96    3.69
  -3  -6   5    0.53    0.77
  -2  -6   5    1.07    0.90
  -1  -6   5   81.06    4.44
   0  -6   5   38.44    3.73
   1  -6   5   84.36    4.68
   2  -6   5    0.18    0.93
   3  -6   5    0.40    0.84
   4  -6   5    0.57    0.97
   5  -6   5    6.03    1.70
   6  -6   5    0.09    0.99
   7  -6   5    7.37    1.92
   8  -6   5   18.88    4.76
  -9  -5   5    1.78    1.82
  -8  -5   5    4.76    2.12
  -6  -5   5   11.41    4.19
  -4  -5   5    0.54    0.90
  -3  -5   5   25.84    2.86
  -2  -5   5   65.99    3.32
  -1  -5   5    1.94    0.82
   0  -5   5    0.18    0.59
   1  -5   5    2.66    0.91
   2  -5   5   61.63    3.46
   3  -5   5   32.12    2.76
   4  -5   5    1.07    0.74
   5  -5   5    0.52    0.74
   6  -5   5   15.19    2.07
   7  -5   5   31.76    2.94
   8  -5   5    7.08    1.64
  -9  -4   5    1.04    1.65
  -8  -4   5   18.88    2.76
  -7  -4   5    7.66    1.78
  -6  -4   5   13.17    3.38
  -5  -4   5   -0.36    0.77
  -4  -4   5   91.29    4.54
  -3  -4   5    4.13    1.19
  -2  -4   5    3.32    1.16
  -1  -4   5    6.63    1.49
   0  -4   5    0.90    0.64
   1  -4   5    8.47    1.45
   2  -4   5    8.10    1.28
   3  -4   5    2.94    0.97
   4  -4   5   82.98    3.82
   5  -4   5    0.86    0.70
   6  -4   5   13.11    1.85
   7  -4   5    7.10    1.48
   8  -4   5   15.98    2.10
   9  -4   5    0.98    1.26
 -10  -3   5   22.29    5.98
  -9  -3   5   16.20    2.57
  -8  -3   5   17.11    2.65
  -7  -3   5   68.23    4.61
  -6  -3   5    0.96    1.25
  -5  -3   5   40.90    3.77
  -4  -3   5    7.70    1.57
  -3  -3   5    1.12    0.72
  -2  -3   5   56.24    4.29
  -1  -3   5   71.60    4.04
   0  -3   5   -0.03    0.71
   1  -3   5   67.88    3.95
   2  -3   5   47.75    3.36
   3  -3   5    2.43    0.81
   4  -3   5    6.52    1.33
   5  -3   5   42.13    3.30
   6  -3   5   -0.26    0.69
   7  -3   5   79.29    4.07
   8  -3   5   23.52    2.56
   9  -3   5   22.85    2.60
  10  -3   5    8.21    4.67
 -10  -2   5    0.81    1.77
  -9  -2   5    0.84    1.22
  -8  -2   5   -0.28    0.96
  -7  -2   5   20.55    2.79
  -6  -2   5    0.76    0.81
  -5  -2   5    0.87    0.93
  -4  -2   5   13.08    2.11
  -3  -2   5    9.16    1.49
  -2  -2   5   11.84    1.63
  -1  -2   5   75.05    3.67
   0  -2   5   -0.66    0.56
   1  -2   5   70.12    4.04
   2  -2   5    9.91    1.79
   3  -2   5    5.47    1.35
   4  -2   5   11.55    2.09
   5  -2   5    2.09    0.97
   6  -2   5    1.03    1.00
   7  -2   5   20.13    2.87
   8  -2   5    1.19    1.13
   9  -2   5    1.03    1.08
  10  -2   5    2.59    2.30
 -10  -1   5   25.95    4.74
  -9  -1   5    0.14    1.06
  -8  -1   5   15.55    2.54
  -7  -1   5    0.35    0.84
  -6  -1   5    0.34    0.68
  -5  -1   5   83.54    4.52
  -4  -1   5    9.94    1.86
  -3  -1   5   19.62    2.06
  -2  -1   5   19.22    2.04
  -1  -1   5    0.50    0.54
   0  -1   5   -0.21    0.49
   1  -1   5   -0.29    0.61
   2  -1   5   20.04    2.63
   3  -1   5   21.89    2.68
   4  -1   5    7.20    1.61
   5  -1   5   78.97    4.57
   6  -1   5    0.29    0.82
   7  -1   5    0.50    0.88
   8  -1   5   11.92    2.27
   9  -1   5    0.78    1.02
 -10   0   5    1.50    1.59
  -9   0   5    1.21    1.01
  -8   0   5  107.06    5.60
  -7   0   5    0.28    0.93
  -6   0   5    4.89    1.21
  -5   0   5   -0.62    0.64
  -4   0   5   61.73    4.23
  -3   0   5    0.06    0.63
  -2   0   5   53.28    3.48
  -1   0   5    0.07    0.48
   0   0   5    9.97    1.51
   1   0   5   -0.13    0.50
   2   0   5   49.23    4.09
   3   0   5   -0.05    0.59
   4   0   5   71.34    4.62
   5   0   5    0.10    0.79
   6   0   5    3.40    1.26
   7   0   5   -0.46    0.76
   8   0   5  112.05    5.83
   9   0   5   -1.35    0.79
  10   0   5    1.30    1.49
 -10   1   5   31.34    5.17
  -9   1   5    0.05    0.96
  -8   1   5   14.76    2.36
  -7   1   5    0.08    0.84
  -6   1   5   -0.02    0.64
  -5   1   5   82.29    4.62
  -4   1   5    7.05    1.60
  -3   1   5   22.98    2.86
  -2   1   5   24.70    2.37
  -1   1   5    0.59    0.57
   0   1   5   -0.13    0.52
   1   1   5    0.29    0.60
   2   1   5   18.76    1.98
   3   1   5   21.87    2.21
   4   1   5    6.40    1.50
   5   1   5   79.64    4.55
   6   1   5   -0.58    0.78
   7   1   5    0.92    0.85
   8   1   5   15.35    2.57
   9   1   5    1.02    1.08
  10   1   5   33.86    5.48
 -10   2   5    0.08    2.05
  -9   2   5   -0.30    0.96
  -8   2   5    0.19    0.87
  -7   2   5   17.92    2.71
  -6   2   5    1.45    0.82
  -5   2   5    1.90    0.85
  -4   2   5   10.55    2.01
  -3   2   5   10.50    2.01
  -2   2   5   10.33    1.98
  -1   2   5   70.39    3.34
   0   2   5   -0.16    0.47
   1   2   5   70.69    3.33
   2   2   5   12.73    1.66
   3   2   5    7.94    1.36
   4   2   5   12.88    1.67
   5   2   5    2.53    1.07
   6   2   5   -0.08    0.67
   7   2   5   18.11    2.77
   8   2   5    0.17    0.89
   9   2   5    0.66    0.98
  10   2   5    0.20    1.35
  -9   3   5   18.73    2.88
  -8   3   5   16.78    2.65
  -7   3   5   71.32    4.09
  -6   3   5   -0.25    0.69
  -5   3   5   35.68    2.92
  -4   3   5    7.77    1.81
  -3   3   5    2.31    0.97
  -2   3   5   42.46    3.92
  -1   3   5   70.36    4.13
   0   3   5   -0.23    0.44
   1   3   5   69.86    3.35
   2   3   5   45.98    3.18
   3   3   5    0.87    0.66
   4   3   5    8.21    1.34
   5   3   5   38.32    3.04
   6   3   5    0.08    0.78
   7   3   5   61.68    5.02
   8   3   5   15.64    2.60
   9   3   5   19.43    2.83
  10   3   5   10.39    2.97
  -9   4   5    1.17    1.53
  -8   4   5   14.65    2.57
  -7   4   5    6.43    1.44
  -6   4   5   16.62    2.13
  -5   4   5    0.34    0.59
  -4   4   5   79.60    4.68
  -3   4   5    2.53    0.98
  -2   4   5    6.98    1.72
  -1   4   5    9.17    1.87
   0   4   5    1.51    0.81
   1   4   5    8.62    1.44
   2   4   5    7.70    1.35
   3   4   5    2.89    0.95
   4   4   5   86.29    3.88
   5   4   5   -0.06    0.55
   6   4   5   12.64    1.78
   7   4   5    4.43    1.47
   8   4   5   16.61    2.62
   9   4   5    1.90    1.55
  -9   5   5    0.16    1.71
  -8   5   5    4.81    1.60
  -7   5   5   29.84    3.47
  -6   5   5   16.07    2.10
  -5   5   5    0.13    0.67
  -4   5   5    0.08    0.64
  -3   5   5   23.80    2.98
  -2   5   5   58.32    4.72
  -1   5   5    3.52    1.31
   0   5   5   -0.78    0.68
   1   5   5    0.90    0.86
   2   5   5   65.43    4.06
   3   5   5   27.05    2.50
   4   5   5    0.68    0.65
   5   5   5    0.77    0.70
   6   5   5   16.60    2.12
   7   5   5   32.16    2.96
   8   5   5    3.50    1.40
  -8   6   5    8.31    2.59
  -7   6   5    6.80    1.74
  -6   6   5    0.75    0.77
  -5   6   5    4.38    1.16
  -4   6   5   -0.16    0.62
  -3   6   5    0.62    0.77
  -2   6   5    2.18    1.04
  -1   6   5   79.78    4.59
   0   6   5   35.58    3.65
   1   6   5   73.96    4.42
   2   6   5    1.17    0.73
   3   6   5   -0.26    0.57
   4   6   5    0.36    0.67
   5   6   5    4.31    1.10
   6   6   5   -0.31    0.67
   7   6   5    6.87    1.45
   8   6   5   10.25    2.49
  -7   7   5    5.58    1.77
  -6   7   5    5.25    1.30
  -5   7   5   85.50    4.02
  -4   7   5    1.32    0.81
  -3   7   5    4.43    1.41
  -2   7   5    3.11    1.19
  -1   7   5    0.94    0.91
   0   7   5   -0.41    0.65
   1   7   5    0.15    0.80
   2   7   5    3.83    1.33
   3   7   5    6.20    1.65
   4   7   5    0.80    0.88
   5   7   5   99.73    4.40
   6   7   5    5.28    1.39
   7   7   5    7.67    1.93
   8   7   5    5.59    2.59
  -7   8   5    6.31    2.52
  -6   8   5   -0.68    0.84
  -5   8   5    9.58    1.67
  -4   8   5   13.01    1.88
  -3   8   5   10.24    2.13
  -2   8   5   25.83    3.32
  -1   8   5    9.52    1.89
   0   8   5    9.34    1.94
   1   8   5   12.57    2.23
   2   8   5   24.03    3.09
   3   8   5   10.35    2.02
   4   8   5   12.76    2.32
   5   8   5    8.66    2.04
   6   8   5    0.49    1.04
  -6   9   5    6.32    2.39
  -5   9   5   25.18    3.26
  -4   9   5   -0.49    0.73
  -3   9   5    0.99    1.06
  -2   9   5   49.37    4.53
  -1   9   5   10.34    2.08
   0   9   5   -0.56    0.82
   1   9   5   10.11    2.07
   2   9   5   65.20    5.31
   3   9   5   -0.89    0.80
   4   9   5    1.13    1.01
   5   9   5   25.77    3.53
  -4  10   5   38.70    3.92
  -3  10   5    4.28    2.16
  -2  10   5    0.12    0.99
  -1  10   5   28.57    3.48
   0  10   5    8.72    2.04
   1  10   5   25.74    3.20
   2  10   5   -0.36    0.94
   3  10   5    5.52    2.40
   4  10   5   32.58    5.35
  -1  11   5   31.44    5.19
   0  11   5    0.64    1.29
   1  11   5   18.46    3.93
  -3  -3   6   12.16    3.37
  -2  -3   6    0.64    1.14
  -1  -3   6   34.44    4.02
   0  -3   6    0.45    0.99
   1  -3   6   37.70    5.62
   2  -3   6    0.22    1.54
   3  -3   6    9.40    3.10
  -3  -2   6   27.09    4.95
  -2  -2   6    2.26    1.19
  -1  -2   6   -0.69    0.90
   0  -2   6    0.12    1.00
   1  -2   6   -0.56    1.08
   2  -2   6    2.11    1.81
   3  -2   6   29.48    4.91
  -3  -1   6   22.50    5.07
  -2  -1   6    4.08    1.88
  -1  -1   6    0.61    0.97
   0  -1   6    0.04    0.98
   1  -1   6    0.75    1.11
   2  -1   6    4.52    2.25
   3  -1   6   26.09    5.39
  -4   0   6    0.60    1.74
  -3   0   6    1.28    1.64
  -2   0   6    0.70    1.52
  -1   0   6   -0.65    0.93
   0   0   6  230.18    8.79
   1   0   6    1.24    1.11
   2   0   6   -0.14    1.28
  -4   1   6   14.81    4.37
  -3   1   6   21.99    4.30
  -2   1   6    3.62    1.54
  -1   1   6    1.41    1.46
   0   1   6   -0.06    0.96
   1   1   6    1.06    1.45
   2   1   6    6.06    3.50
  -3   2   6   28.06    5.15
  -2   2   6    4.43    2.36
  -1   2   6   -0.47    1.50
   0   2   6    0.71    1.15
  -2   3   6   -0.30    1.64
  -1   3   6   37.08    5.76
   0   3   6   -0.69    1.35
   1   3   6   32.03    5.13
   0   4   6   20.22    4.24
   1   4   6    0.21    1.68
   0   0   0    0.00    0.00
;
_shelx_hkl_checksum              10213
loop_
_space_group_symop_operation_xyz
'x, y, z'
'-x, -y, z'
'-x+1/2, y+1/2, -z'
'x+1/2, -y+1/2, -z'
'-x, -y, -z'
'x, y, -z'
'x-1/2, -y-1/2, z'
'-x-1/2, y-1/2, z'
loop_
_atom_site_label
_atom_site_type_symbol
_atom_site_fract_x
_atom_site_fract_y
_atom_site_fract_z
_atom_site_U_iso_or_equiv
_atom_site_adp_type
_atom_site_occupancy
_atom_site_site_symmetry_order
_atom_site_calc_flag
_atom_site_refinement_flags_posn
_atom_site_refinement_flags_adp
_atom_site_refinement_flags_occupancy
Ba Ba 0.0000 0.5000 0.5000 0.01737(13) Uani 1 4 d S T P
Nd Nd 0.11828(3) 0.14265(3) 0.5000 0.01186(10) Uani 1 2 d S T P
In In 0.29083(4) 0.37542(3) 0.0000 0.01297(11) Uani 1 2 d S T P
S1 S 0.36283(14) 0.28200(13) 0.5000 0.0144(3) Uani 1 2 d S T P
S2 S 0.08574(13) 0.30275(12) 0.0000 0.0119(3) Uani 1 2 d S T P
S3 S 0.28383(12) 0.06236(12) 0.0000 0.0125(3) Uani 1 2 d S T P
S4 S 0.0000 0.0000 0.0000 0.0134(4) Uani 1 4 d S T P
loop_
_atom_site_aniso_label
_atom_site_aniso_U_11
_atom_site_aniso_U_22
_atom_site_aniso_U_33
_atom_site_aniso_U_23
_atom_site_aniso_U_13
_atom_site_aniso_U_12
Ba 0.0168(3) 0.0236(3) 0.0117(2) 0.000 0.000 0.0056(2)
Nd 0.01415(17) 0.01264(16) 0.00879(15) 0.000 0.000 0.00102(11)
In 0.0148(2) 0.0132(2) 0.01089(19) 0.000 0.000 0.00108(14)
S1 0.0174(7) 0.0157(7) 0.0101(6) 0.000 0.000 0.0028(5)
S2 0.0124(6) 0.0108(6) 0.0124(6) 0.000 0.000 -0.0005(5)
S3 0.0120(6) 0.0116(6) 0.0141(6) 0.000 0.000 0.0001(5)
S4 0.0142(9) 0.0127(9) 0.0133(9) 0.000 0.000 -0.0017(7)
loop_
_atom_type_symbol
_atom_type_description
_atom_type_scat_dispersion_real
_atom_type_scat_dispersion_imag
_atom_type_scat_source
S S 0.1246 0.1234 'International Tables Vol C Tables 4.2.6.8 and 6.1.1.4'
In In -0.7276 1.3100 'International Tables Vol C Tables 4.2.6.8 and 6.1.1.4'
Ba Ba -0.3244 2.2819 'International Tables Vol C Tables 4.2.6.8 and 6.1.1.4'
Nd Nd -0.1943 3.0179 'International Tables Vol C Tables 4.2.6.8 and 6.1.1.4'
loop_
_geom_angle_atom_site_label_1
_geom_angle_atom_site_label_2
_geom_angle_atom_site_label_3
_geom_angle
_geom_angle_site_symmetry_1
_geom_angle_site_symmetry_3
S3 Ba S3 180.0 7_565 3_556
S3 Ba S3 74.75(3) 7_565 7_566
S3 Ba S3 105.25(3) 3_556 7_566
S3 Ba S3 105.25(3) 7_565 3
S3 Ba S3 74.75(3) 3_556 3
S3 Ba S3 180.0 7_566 3
S3 Ba S2 108.09(3) 7_565 5_566
S3 Ba S2 71.91(3) 3_556 5_566
S3 Ba S2 64.78(3) 7_566 5_566
S3 Ba S2 115.22(3) 3 5_566
S3 Ba S2 115.22(3) 7_565 1_556
S3 Ba S2 64.78(3) 3_556 1_556
S3 Ba S2 71.91(3) 7_566 1_556
S3 Ba S2 108.09(3) 3 1_556
S2 Ba S2 105.29(3) 5_566 1_556
S3 Ba S2 64.78(3) 7_565 5_565
S3 Ba S2 115.22(3) 3_556 5_565
S3 Ba S2 108.09(3) 7_566 5_565
S3 Ba S2 71.91(3) 3 5_565
S2 Ba S2 74.71(3) 5_566 5_565
S2 Ba S2 180.0 1_556 5_565
S3 Ba S2 71.91(3) 7_565 .
S3 Ba S2 108.09(3) 3_556 .
S3 Ba S2 115.22(3) 7_566 .
S3 Ba S2 64.78(3) 3 .
S2 Ba S2 180.0 5_566 .
S2 Ba S2 74.71(3) 1_556 .
S2 Ba S2 105.29(3) 5_565 .
S3 Ba Ba 127.375(15) 7_565 1_556
S3 Ba Ba 52.625(15) 3_556 1_556
S3 Ba Ba 52.625(15) 7_566 1_556
S3 Ba Ba 127.375(15) 3 1_556
S2 Ba Ba 52.643(16) 5_566 1_556
S2 Ba Ba 52.643(16) 1_556 1_556
S2 Ba Ba 127.357(16) 5_565 1_556
S2 Ba Ba 127.357(16) . 1_556
S3 Ba Ba 52.625(15) 7_565 1_554
S3 Ba Ba 127.375(15) 3_556 1_554
S3 Ba Ba 127.375(15) 7_566 1_554
S3 Ba Ba 52.625(15) 3 1_554
S2 Ba Ba 127.357(16) 5_566 1_554
S2 Ba Ba 127.357(16) 1_556 1_554
S2 Ba Ba 52.643(16) 5_565 1_554
S2 Ba Ba 52.643(16) . 1_554
Ba Ba Ba 180.0 1_556 1_554
S2 Nd S2 89.90(4) . 1_556
S2 Nd S3 143.17(4) . 1_556
S2 Nd S3 80.77(3) 1_556 1_556
S2 Nd S3 80.77(3) . .
S2 Nd S3 143.17(4) 1_556 .
S3 Nd S3 85.69(4) 1_556 .
S2 Nd S4 82.77(2) . .
S2 Nd S4 144.95(3) 1_556 .
S3 Nd S4 123.81(3) 1_556 .
S3 Nd S4 69.35(3) . .
S2 Nd S4 144.95(3) . 1_556
S2 Nd S4 82.77(2) 1_556 1_556
S3 Nd S4 69.34(3) 1_556 1_556
S3 Nd S4 123.81(3) . 1_556
S4 Nd S4 83.902(9) . 1_556
S2 Nd S1 70.44(4) . 7_565
S2 Nd S1 70.44(4) 1_556 7_565
S3 Nd S1 136.25(2) 1_556 7_565
S3 Nd S1 136.25(2) . 7_565
S4 Nd S1 74.82(2) . 7_565
S4 Nd S1 74.82(2) 1_556 7_565
S2 Nd S1 75.77(4) . .
S2 Nd S1 75.77(4) 1_556 .
S3 Nd S1 67.41(3) 1_556 .
S3 Nd S1 67.41(3) . .
S4 Nd S1 134.033(12) . .
S4 Nd S1 134.033(12) 1_556 .
S1 Nd S1 131.452(13) 7_565 .
S2 Nd Nd 134.95(2) . 1_556
S2 Nd Nd 45.05(2) 1_556 1_556
S3 Nd Nd 47.15(2) 1_556 1_556
S3 Nd Nd 132.85(2) . 1_556
S4 Nd Nd 131.951(5) . 1_556
S4 Nd Nd 48.048(5) 1_556 1_556
S1 Nd Nd 90.0 7_565 1_556
S1 Nd Nd 90.0 . 1_556
S2 Nd Nd 45.05(2) . 1_554
S2 Nd Nd 134.95(2) 1_556 1_554
S3 Nd Nd 132.85(2) 1_556 1_554
S3 Nd Nd 47.15(2) . 1_554
S4 Nd Nd 48.048(5) . 1_554
S4 Nd Nd 131.951(5) 1_556 1_554
S1 Nd Nd 90.0 7_565 1_554
S1 Nd Nd 90.0 . 1_554
Nd Nd Nd 180.0 1_556 1_554
S1 In S1 109.28(6) . 1_554
S1 In S3 123.92(3) . 3
S1 In S3 123.92(3) 1_554 3
S1 In S2 98.83(4) . .
S1 In S2 98.83(4) 1_554 .
S3 In S2 89.99(5) 3 .
S1 In S4 87.87(4) . 3
S1 In S4 87.87(4) 1_554 3
S3 In S4 78.32(4) 3 3
S2 In S4 168.31(4) . 3
In S1 In 109.28(6) 1_556 .
In S1 Nd 100.64(4) 1_556 7_665
In S1 Nd 100.64(4) . 7_665
In S1 Nd 87.21(4) 1_556 .
In S1 Nd 87.21(4) . .
Nd S1 Nd 166.22(6) 7_665 .
In S2 Nd 96.90(4) . .
In S2 Nd 96.90(4) . 1_554
Nd S2 Nd 89.90(4) . 1_554
In S2 Ba 91.32(4) . .
Nd S2 Ba 97.051(10) . .
Nd S2 Ba 168.54(5) 1_554 .
In S2 Ba 91.32(4) . 1_554
Nd S2 Ba 168.54(5) . 1_554
Nd S2 Ba 97.051(10) 1_554 1_554
Ba S2 Ba 74.71(3) . 1_554
In S3 Nd 94.84(4) 3_545 .
In S3 Nd 94.84(4) 3_545 1_554
Nd S3 Nd 85.69(4) . 1_554
In S3 Ba 92.86(4) 3_545 3_546
Nd S3 Ba 99.243(9) . 3_546
Nd S3 Ba 170.48(5) 1_554 3_546
In S3 Ba 92.86(4) 3_545 3_545
Nd S3 Ba 170.48(5) . 3_545
Nd S3 Ba 99.243(8) 1_554 3_545
Ba S3 Ba 74.75(3) 3_546 3_545
In S4 In 180.000(18) 7_565 3_545
In S4 Nd 85.763(10) 7_565 5
In S4 Nd 94.237(10) 3_545 5
In S4 Nd 94.237(10) 7_565 1_554
In S4 Nd 85.763(10) 3_545 1_554
Nd S4 Nd 96.097(9) 5 1_554
In S4 Nd 85.763(10) 7_565 5_556
In S4 Nd 94.237(10) 3_545 5_556
Nd S4 Nd 83.903(9) 5 5_556
Nd S4 Nd 180.000(15) 1_554 5_556
In S4 Nd 94.238(10) 7_565 .
In S4 Nd 85.762(10) 3_545 .
Nd S4 Nd 180.0 5 .
Nd S4 Nd 83.903(9) 1_554 .
Nd S4 Nd 96.097(9) 5_556 .
loop_
_geom_bond_atom_site_label_1
_geom_bond_atom_site_label_2
_geom_bond_distance
_geom_bond_site_symmetry_2
Ba S3 3.2971(12) 7_565
Ba S3 3.2971(12) 3_556
Ba S3 3.2971(12) 7_566
Ba S3 3.2971(12) 3
Ba S2 3.2984(12) 5_566
Ba S2 3.2984(12) 1_556
Ba S2 3.2984(12) 5_565
Ba S2 3.2984(12) .
Ba Ba 4.0028(2) 1_556
Ba Ba 4.0028(2) 1_554
Nd S2 2.8330(11) .
Nd S2 2.8330(11) 1_556
Nd S3 2.9431(11) 1_556
Nd S3 2.9431(11) .
Nd S4 2.9939(3) .
Nd S4 2.9939(3) 1_556
Nd S1 3.1022(17) 7_565
Nd S1 3.3122(17) .
Nd Nd 4.0028(2) 1_556
Nd Nd 4.0028(2) 1_554
In S1 2.4540(10) .
In S1 2.4541(10) 1_554
In S3 2.4568(16) 3
In S2 2.5394(16) .
In S4 2.8679(5) 3
S1 In 2.4540(10) 1_556
S1 Nd 3.1022(17) 7_665
S2 Nd 2.8330(11) 1_554
S2 Ba 3.2984(12) 1_554
S3 In 2.4569(16) 3_545
S3 Nd 2.9431(11) 1_554
S3 Ba 3.2970(12) 3_546
S3 Ba 3.2970(12) 3_545
S4 In 2.8679(5) 7_565
S4 In 2.8679(5) 3_545
S4 Nd 2.9939(3) 5
S4 Nd 2.9939(3) 1_554
S4 Nd 2.9939(3) 5_556
