#------------------------------------------------------------------------------
#$Date: 2016-08-07 12:09:56 +0300 (Sun, 07 Aug 2016) $
#$Revision: 185456 $
#$URL: file:///home/coder/svn-repositories/cod/cif/7/03/98/7039850.cif $
#------------------------------------------------------------------------------
#
# This file is available in the Crystallography Open Database (COD),
# http://www.crystallography.net/
#
# All data on this site have been placed in the public domain by the
# contributors.
#
data_7039850
loop_
_publ_author_name
'Yin, Wenlong'
'Iyer, Abishek K.'
'Lin, Xinsong'
'Li, Chao'
'Yao, Jiyong'
'Mar, Arthur'
_publ_section_title
;
 Quaternary chalcogenides BaRE2In2Ch7 (RE = La-Nd; Ch = S, Se) containing
 InCh5 trigonal bipyramids.
;
_journal_issue                   31
_journal_name_full
'Dalton transactions (Cambridge, England : 2003)'
_journal_page_first              12329
_journal_page_last               12337
_journal_paper_doi               10.1039/c6dt02385a
_journal_volume                  45
_journal_year                    2016
_chemical_formula_structural     'Ba Ce2 In2 S7'
_chemical_formula_sum            'Ba Ce2 In2 S7'
_chemical_formula_weight         871.64
_chemical_name_common            'barium cerium indium sulfide (1/2/2/7)'
_chemical_name_systematic        'barium cerium indium sulfide (1/2/2/7)'
_space_group_crystal_system      orthorhombic
_space_group_IT_number           55
_space_group_name_Hall           '-P 2 2ab'
_space_group_name_H-M_alt        'P b a m'
_symmetry_space_group_name_Hall  '-P 2 2ab'
_symmetry_space_group_name_H-M   'P b a m'
_audit_creation_method           SHELXL-2014/7
_cell_angle_alpha                90
_cell_angle_beta                 90
_cell_angle_gamma                90
_cell_formula_units_Z            2
_cell_length_a                   11.5947(7)
_cell_length_b                   12.3439(8)
_cell_length_c                   4.0413(3)
_cell_measurement_reflns_used    2315
_cell_measurement_temperature    296(2)
_cell_measurement_theta_max      26.17
_cell_measurement_theta_min      3.51
_cell_volume                     578.41(7)
_computing_cell_refinement       'Bruker SAINT 8.34A (Bruker, 2013)'
_computing_data_collection       'Bruker APEX 2 (Bruker, 2008)'
_computing_data_reduction        'Bruker SAINT 8.34A'
_computing_molecular_graphics    'ATOMS 5.1 (Dotwy, 1999)'
_computing_publication_material  'SHELXL-2014/7 (Sheldrick, 2014)'
_computing_structure_refinement  'SHELXL-2014/7 (Sheldrick, 2014)'
_computing_structure_solution    'SHELXS-97 (Sheldrick, 2008)'
_diffrn_ambient_temperature      296(2)
_diffrn_measured_fraction_theta_full 1.000
_diffrn_measured_fraction_theta_max 0.993
_diffrn_measurement_device_type  'Bruker PLATFORM SMART APEX II/CCD'
_diffrn_measurement_method       '\w and \f scans'
_diffrn_radiation_type           MoK\a
_diffrn_radiation_wavelength     0.71073
_diffrn_reflns_av_R_equivalents  0.0601
_diffrn_reflns_av_unetI/netI     0.0338
_diffrn_reflns_Laue_measured_fraction_full 1.000
_diffrn_reflns_Laue_measured_fraction_max 0.993
_diffrn_reflns_limit_h_max       17
_diffrn_reflns_limit_h_min       -17
_diffrn_reflns_limit_k_max       19
_diffrn_reflns_limit_k_min       -18
_diffrn_reflns_limit_l_max       6
_diffrn_reflns_limit_l_min       -6
_diffrn_reflns_number            8083
_diffrn_reflns_point_group_measured_fraction_full 1.000
_diffrn_reflns_point_group_measured_fraction_max 0.993
_diffrn_reflns_theta_full        25.242
_diffrn_reflns_theta_max         33.289
_diffrn_reflns_theta_min         2.410
_diffrn_source                   'fine-focus sealed tube'
_exptl_absorpt_coefficient_mu    16.194
_exptl_absorpt_correction_T_max  0.738
_exptl_absorpt_correction_T_min  0.515
_exptl_absorpt_correction_type   numerical
_exptl_absorpt_process_details   'SHELXL-2014/7 (Sheldrick, 2014)'
_exptl_crystal_colour            black
_exptl_crystal_density_diffrn    5.005
_exptl_crystal_description       needle
_exptl_crystal_F_000             764
_exptl_crystal_size_max          0.067
_exptl_crystal_size_mid          0.026
_exptl_crystal_size_min          0.024
_refine_diff_density_max         2.268
_refine_diff_density_min         -1.887
_refine_diff_density_rms         0.385
_refine_ls_extinction_method     none
_refine_ls_goodness_of_fit_ref   1.127
_refine_ls_hydrogen_treatment    undef
_refine_ls_matrix_type           full
_refine_ls_number_parameters     39
_refine_ls_number_reflns         1239
_refine_ls_number_restraints     0
_refine_ls_restrained_S_all      1.127
_refine_ls_R_factor_all          0.0436
_refine_ls_R_factor_gt           0.0331
_refine_ls_shift/su_max          0.000
_refine_ls_shift/su_mean         0.000
_refine_ls_structure_factor_coef Fsqd
_refine_ls_weighting_details
'w=1/[\s^2^(Fo^2^)+(0.0289P)^2^+3.7015P] where P=(Fo^2^+2Fc^2^)/3'
_refine_ls_weighting_scheme      calc
_refine_ls_wR_factor_gt          0.0708
_refine_ls_wR_factor_ref         0.0748
_reflns_Friedel_coverage         0.000
_reflns_number_gt                1022
_reflns_number_total             1239
_reflns_threshold_expression     'I > 2\s(I)'
_cod_data_source_file            c6dt02385a1.cif
_cod_data_source_block           pbam
_cod_depositor_comments
'Adding full bibliography for 7039846--7039853.cif.'
_cod_database_code               7039850
_shelx_shelxl_version_number     2014/7
_shelx_space_group_comment
;
The symmetry employed for this shelxl refinement is uniquely defined
by the following loop, which should always be used as a source of
symmetry information in preference to the above space-group names.
They are only intended as comments.
;
_shelx_estimated_absorpt_t_min   0.410
_shelx_estimated_absorpt_t_max   0.697
_shelx_res_file
;

    pbam.res created by SHELXL-2014/7

TITL BaCe2In2S7 Pbam lsf final refinement
CELL 0.71073  11.59470  12.34390   4.04130  90.0000  90.0000  90.0000
ZERR    2.00   0.00070   0.00080   0.00030   0.0000   0.0000   0.0000
LATT  1
SYMM -X, -Y, Z
SYMM 0.5-X, 0.5+Y, -Z
SYMM 0.5+X, 0.5-Y, -Z
SFAC S IN BA CE
UNIT 14 4 2 4
TEMP 23
SIZE 0.024 0.026 0.067

L.S. 4
ACTA

WGHT    0.028900    3.701500
FVAR       0.06639
BA    3    0.000000    0.500000    0.500000    10.25000    0.01732    0.02380 =
         0.01243    0.00000    0.00000    0.00501
CE    4    0.118843    0.143059    0.500000    10.50000    0.01423    0.01306 =
         0.00953    0.00000    0.00000    0.00078
IN    2    0.289255    0.376490    0.000000    10.50000    0.01734    0.01495 =
         0.01274    0.00000    0.00000    0.00140
S1    1    0.360162    0.284226    0.500000    10.50000    0.01844    0.01800 =
         0.01070    0.00000    0.00000    0.00146
S2    1    0.084448    0.304498    0.000000    10.50000    0.01414    0.01155 =
         0.01426    0.00000    0.00000   -0.00031
S3    1    0.285628    0.062623    0.000000    10.50000    0.01197    0.01167 =
         0.01574    0.00000    0.00000    0.00036
S4    1    0.000000    0.000000    0.000000    10.25000    0.01596    0.01435 =
         0.01620    0.00000    0.00000   -0.00216
HKLF 4

REM  BaCe2In2S7 Pbam lsf final refinement
REM R1 =  0.0331 for    1022 Fo > 4sig(Fo)  and  0.0436 for all    1239 data
REM     39 parameters refined using      0 restraints

END

WGHT      0.0289      3.7075

REM Highest difference peak  2.268,  deepest hole -1.887,  1-sigma level  0.385
Q1    1  -0.0487  0.3705  0.0000  10.50000  0.05    2.27
Q2    1   0.2142  0.4045  0.0000  10.50000  0.05    2.16
Q3    1   0.0955  0.2375  0.0000  10.50000  0.05    2.02
Q4    1  -0.0260  0.1264  0.0000  10.50000  0.05    1.90
Q5    1   0.2574 -0.0045 -0.5000  10.50000  0.05    1.84
Q6    1   0.0447  0.6350  0.5000  10.50000  0.05    1.84
Q7    1   0.3040  0.1397  0.5000  10.50000  0.05    1.67
Q8    1   0.1720  0.0175  0.0000  10.50000  0.05    1.67
Q9    1   0.3769  0.1518  0.0000  10.50000  0.05    1.61
Q10   1   0.1194  0.5978  0.5000  10.50000  0.05    1.60
Q11   1   0.0034  0.2208  0.5000  10.50000  0.05    1.55
Q12   1   0.1405  0.3581 -0.5000  10.50000  0.05    1.35
Q13   1   0.1225  0.1064  0.5000  10.50000  0.05    1.34
Q14   1  -0.0145  0.5936  0.5000  10.50000  0.05    1.32
Q15   1   0.1237  0.1410  0.3028  11.00000  0.05    1.31
Q16   1   0.1562  0.1905  0.0000  10.50000  0.05    1.30
Q17   1   0.1433  0.0971  0.0000  10.50000  0.05    1.29
Q18   1   0.1623  0.2765  0.0000  10.50000  0.05    1.29
Q19   1   0.4157  0.0125  0.0000  10.50000  0.05    1.29
Q20   1   0.0286  0.3335  0.0000  10.50000  0.05    1.24
;
_shelx_res_checksum              61376
_shelx_hkl_file
;
  -1  -5  -6    5.15    2.28
   1  -5  -6    6.37    2.60
  -2  -4  -6   18.46    3.74
  -1  -4  -6    0.92    1.49
  -3  -3  -6    3.78    2.06
  -2  -3  -6    0.15    1.33
  -1  -3  -6   18.16    3.49
  -4   0  -6    0.53    1.34
  -3   0  -6    1.34    1.97
  -4   1  -6   10.77    2.56
  -3   1  -6   20.59    3.66
  -2   1  -6    2.44    1.59
  -1   1  -6    1.02    1.36
  -4   2  -6   12.49    3.24
  -3   2  -6   15.15    3.21
  -2   2  -6    1.60    1.57
  -1   2  -6    0.50    1.07
   0   2  -6   -0.94    1.14
   4   2  -6   17.71    3.65
  -3   3  -6   11.55    3.26
  -2   3  -6    0.24    1.08
  -1   3  -6   16.43    3.24
   0   3  -6    1.13    1.32
   4   3  -6    4.46    2.24
  -1   4  -6   -0.82    1.12
   0   4  -6   16.12    3.39
   3   4  -6    2.30    1.84
   0 -11  -5    0.88    2.54
   1 -11  -5   11.75    3.12
   2 -11  -5    1.07    1.62
  -3 -10  -5    0.64    1.14
  -2 -10  -5    0.35    0.91
  -1 -10  -5   11.17    1.96
   0 -10  -5    5.83    1.52
   1 -10  -5   14.96    2.41
   2 -10  -5    0.47    0.99
   3 -10  -5    4.89    1.55
  -5  -9  -5   17.03    4.08
  -4  -9  -5    0.26    1.39
  -3  -9  -5   -0.85    0.70
  -2  -9  -5   32.49    3.46
  -1  -9  -5    7.39    1.64
   0  -9  -5    0.01    0.74
   1  -9  -5    8.76    1.84
   2  -9  -5   36.79    3.63
   3  -9  -5    0.38    0.76
   4  -9  -5    0.76    0.87
   5  -9  -5   13.08    2.39
  -6  -8  -5    0.62    1.37
  -5  -8  -5    6.84    2.36
  -4  -8  -5    6.82    2.27
  -3  -8  -5    7.57    1.55
  -2  -8  -5   15.29    2.36
  -1  -8  -5    8.10    1.60
   0  -8  -5    7.58    1.67
   1  -8  -5    4.93    1.47
   2  -8  -5   19.12    2.64
   3  -8  -5    7.94    1.75
   4  -8  -5    7.16    1.59
   5  -8  -5    8.71    1.90
   6  -8  -5    0.20    0.87
   7  -8  -5    2.49    1.87
  -7  -7  -5    6.07    2.31
  -6  -7  -5    4.70    2.06
  -4  -7  -5    1.29    1.34
  -3  -7  -5    5.81    1.54
  -2  -7  -5    2.16    1.00
  -1  -7  -5   -0.35    0.64
   0  -7  -5    0.68    0.73
   1  -7  -5    1.20    0.88
   2  -7  -5    2.67    0.89
   3  -7  -5    6.79    1.61
   4  -7  -5    1.42    0.95
   5  -7  -5   60.19    4.51
   6  -7  -5    2.58    1.23
   7  -7  -5    5.11    1.52
   8  -7  -5    3.65    2.35
  -8  -6  -5    6.04    2.47
  -7  -6  -5    3.48    1.87
  -6  -6  -5    0.58    1.16
  -5  -6  -5    2.71    1.50
  -4  -6  -5   -0.09    0.99
  -3  -6  -5    0.29    1.07
  -2  -6  -5    0.21    0.65
  -1  -6  -5   51.47    3.96
   0  -6  -5   19.94    2.50
   1  -6  -5   55.54    4.02
   2  -6  -5    0.20    0.60
   3  -6  -5    0.92    0.76
   4  -6  -5    0.68    0.83
   5  -6  -5    2.93    1.09
   6  -6  -5    0.68    0.87
   7  -6  -5    5.13    1.53
   8  -6  -5   12.34    2.19
  -8  -5  -5    2.73    1.83
  -7  -5  -5   17.95    3.60
  -6  -5  -5    6.87    2.55
  -5  -5  -5    1.39    1.38
  -4  -5  -5   -0.02    0.85
  -3  -5  -5   14.23    3.05
  -2  -5  -5   44.09    3.72
  -1  -5  -5    1.53    0.85
   0  -5  -5   -0.51    0.55
   1  -5  -5    0.95    0.77
   2  -5  -5   40.01    2.76
   3  -5  -5   19.43    2.41
   4  -5  -5   -0.17    0.66
   5  -5  -5    0.20    0.75
   6  -5  -5   10.84    1.87
   7  -5  -5   23.20    2.34
   8  -5  -5    1.75    1.01
 -10  -4  -5    0.45    1.42
  -9  -4  -5    1.87    1.17
  -8  -4  -5    6.49    1.51
  -7  -4  -5    5.08    1.67
  -6  -4  -5    5.59    2.04
  -5  -4  -5   -0.18    0.98
  -4  -4  -5   68.26    5.47
  -3  -4  -5    1.42    1.13
  -2  -4  -5    4.29    1.76
  -1  -4  -5    4.34    1.26
   0  -4  -5    0.62    0.74
   1  -4  -5    4.71    1.23
   2  -4  -5    6.54    1.12
   3  -4  -5    2.57    0.99
   4  -4  -5   61.03    3.50
   5  -4  -5    0.23    0.57
   6  -4  -5    4.92    1.42
   7  -4  -5    3.99    1.32
   8  -4  -5   10.30    1.95
   9  -4  -5    0.71    1.02
 -10  -3  -5   10.34    2.86
  -9  -3  -5   13.62    3.09
  -8  -3  -5   10.49    1.84
  -7  -3  -5   53.54    4.18
  -6  -3  -5    0.10    0.76
  -5  -3  -5   26.02    2.72
  -4  -3  -5    4.31    1.23
  -3  -3  -5    0.30    1.02
  -2  -3  -5   26.34    3.94
  -1  -3  -5   51.23    3.80
   0  -3  -5    0.39    0.60
   1  -3  -5   51.18    2.61
   2  -3  -5   21.95    2.37
   3  -3  -5    0.77    0.59
   4  -3  -5    4.43    0.98
   5  -3  -5   23.69    2.69
   6  -3  -5   -0.49    0.62
   7  -3  -5   52.90    4.16
   8  -3  -5   10.28    1.89
   9  -3  -5    9.92    1.98
  10  -3  -5   13.78    5.16
 -10  -2  -5    0.72    1.54
  -9  -2  -5   -1.11    1.11
  -8  -2  -5   -0.29    0.98
  -7  -2  -5    8.88    2.42
  -6  -2  -5    0.90    0.73
  -5  -2  -5    1.50    0.85
  -4  -2  -5    8.72    1.60
  -3  -2  -5    3.95    1.07
  -2  -2  -5    9.99    1.65
  -1  -2  -5   36.00    4.39
   0  -2  -5    0.27    0.58
   1  -2  -5   47.87    2.84
   2  -2  -5    7.94    1.19
   3  -2  -5    4.47    0.94
   4  -2  -5    6.84    1.46
   5  -2  -5    1.41    0.88
   6  -2  -5   -0.11    0.70
   7  -2  -5   13.32    2.09
   8  -2  -5    0.14    0.80
   9  -2  -5   -0.19    0.78
  10  -2  -5    6.24    2.41
 -10  -1  -5   19.40    3.59
  -9  -1  -5    1.04    1.40
  -8  -1  -5    9.21    2.44
  -7  -1  -5   -0.49    1.06
  -6  -1  -5    0.66    0.99
  -5  -1  -5   54.33    4.38
  -4  -1  -5    5.12    1.19
  -3  -1  -5   12.22    1.84
  -2  -1  -5   10.29    1.61
  -1  -1  -5   -0.15    0.55
   0  -1  -5   -0.26    0.46
   1  -1  -5    0.27    0.42
   2  -1  -5   12.43    1.42
   3  -1  -5   14.75    1.68
   4  -1  -5    4.15    0.92
   5  -1  -5   54.78    3.47
   6  -1  -5    0.92    0.71
   7  -1  -5    0.13    0.70
   8  -1  -5   10.95    1.98
   9  -1  -5    2.01    1.08
  10  -1  -5   22.70    4.06
 -10   0  -5   -1.17    1.13
  -9   0  -5   -0.87    1.18
  -8   0  -5   75.95    5.80
  -7   0  -5    0.30    1.09
  -6   0  -5    5.90    1.91
  -5   0  -5   -0.76    0.83
  -4   0  -5   38.31    4.37
  -3   0  -5   -0.42    0.71
  -2   0  -5   38.73    4.32
  -1   0  -5   -0.35    0.72
   0   0  -5    9.61    2.20
   1   0  -5    0.40    0.58
   2   0  -5   31.69    2.89
   3   0  -5   -0.04    0.57
   4   0  -5   40.44    3.40
   5   0  -5   -0.30    0.47
   6   0  -5    5.83    1.13
   7   0  -5   -0.02    0.58
   8   0  -5   71.43    4.07
   9   0  -5   -0.01    0.86
  10   0  -5    1.36    1.22
 -10   1  -5   15.46    4.46
  -9   1  -5    1.08    1.57
  -8   1  -5   11.35    2.84
  -7   1  -5    0.60    0.98
  -6   1  -5    0.53    1.00
  -5   1  -5   53.31    5.36
  -4   1  -5    3.67    1.48
  -3   1  -5   10.68    2.31
  -2   1  -5   13.41    2.61
  -1   1  -5    1.73    1.06
   0   1  -5   -0.39    0.65
   1   1  -5    0.06    0.60
   2   1  -5   15.08    2.87
   3   1  -5   14.33    1.93
   4   1  -5    5.35    1.30
   5   1  -5   45.72    3.71
   6   1  -5    0.28    0.75
   7   1  -5    0.30    0.75
   8   1  -5   10.26    1.96
   9   1  -5    0.59    1.00
  10   1  -5   25.76    7.12
  -9   2  -5   -0.31    1.12
  -8   2  -5    0.53    1.18
  -7   2  -5    9.66    2.53
  -6   2  -5   -0.66    0.75
  -5   2  -5    0.19    0.91
  -4   2  -5    9.13    2.20
  -3   2  -5    4.45    1.56
  -2   2  -5   11.18    2.38
  -1   2  -5   42.46    4.62
   0   2  -5   -0.02    0.77
   1   2  -5   48.18    3.17
   2   2  -5   11.10    2.61
   3   2  -5    3.69    1.12
   4   2  -5    7.49    1.54
   5   2  -5   -0.09    0.64
   6   2  -5    0.86    0.81
   7   2  -5   10.85    2.07
   8   2  -5   -0.03    0.80
   9   2  -5    0.09    0.76
  -9   3  -5   11.79    2.85
  -8   3  -5    6.00    2.12
  -7   3  -5   35.51    4.81
  -6   3  -5   -0.08    0.82
  -5   3  -5   22.76    3.59
  -4   3  -5    6.13    1.95
  -3   3  -5    0.97    0.91
  -2   3  -5   27.96    3.87
  -1   3  -5   53.48    5.26
   0   3  -5   -0.33    0.53
   1   3  -5   52.99    3.34
   2   3  -5   25.88    3.80
   3   3  -5    0.41    0.91
   4   3  -5    4.62    1.26
   5   3  -5   20.19    2.60
   6   3  -5    0.17    0.64
   7   3  -5   53.50    4.38
   8   3  -5    9.06    1.79
   9   3  -5   10.60    2.18
  -9   4  -5    1.02    1.42
  -8   4  -5    6.95    2.24
  -7   4  -5    5.96    2.02
  -6   4  -5    4.45    1.86
  -5   4  -5    0.98    1.04
  -4   4  -5   59.66    5.86
  -3   4  -5    1.67    1.16
  -2   4  -5    6.89    1.95
  -1   4  -5    6.45    1.95
   0   4  -5    1.72    0.90
   1   4  -5    3.59    1.12
   2   4  -5    4.46    1.74
   3   4  -5    2.43    1.54
   4   4  -5   67.37    3.73
   5   4  -5    0.23    0.69
   6   4  -5    5.67    1.38
   7   4  -5    4.78    1.33
   8   4  -5    4.14    1.34
   9   4  -5    0.93    0.97
  -8   5  -5    3.43    1.74
  -7   5  -5   14.40    3.02
  -6   5  -5    7.72    2.30
  -5   5  -5    1.14    0.95
  -4   5  -5   -1.05    0.80
  -3   5  -5   19.01    3.32
  -2   5  -5   40.65    4.83
  -1   5  -5    2.30    1.27
   0   5  -5    0.00    0.61
   1   5  -5    1.27    0.78
   2   5  -5   40.85    5.35
   3   5  -5   15.35    3.18
   4   5  -5    0.47    1.14
   5   5  -5    0.11    0.79
   6   5  -5    9.99    1.99
   7   5  -5   22.21    2.84
   8   5  -5    2.79    1.19
   9   5  -5    3.39    1.96
  -8   6  -5    9.81    3.03
  -7   6  -5    5.59    1.92
  -6   6  -5   -0.41    0.90
  -5   6  -5    2.85    1.65
  -4   6  -5    0.15    0.76
  -3   6  -5    0.43    0.92
  -2   6  -5    1.41    1.09
  -1   6  -5   51.46    3.93
   0   6  -5   22.67    2.61
   1   6  -5   50.95    5.75
   2   6  -5    1.04    1.04
   3   6  -5    0.60    1.04
   4   6  -5   -0.32    1.09
   5   6  -5    2.81    1.19
   6   6  -5    0.21    0.98
   7   6  -5    3.48    1.41
   8   6  -5    9.25    1.92
  -7   7  -5    4.30    1.82
  -6   7  -5    3.64    1.64
  -5   7  -5   58.03    5.94
  -4   7  -5   -0.22    1.03
  -3   7  -5    5.42    1.98
  -2   7  -5    4.98    1.81
  -1   7  -5    1.02    0.81
   0   7  -5    0.77    0.75
   1   7  -5    0.52    1.14
   2   7  -5    1.30    1.40
   3   7  -5    6.58    2.39
   4   7  -5    0.76    1.19
   5   7  -5   56.20    6.83
   6   7  -5    4.34    1.38
   7   7  -5    4.59    1.52
   8   7  -5    3.67    2.12
  -6   8  -5    0.42    1.15
  -5   8  -5    5.76    2.23
  -4   8  -5    6.04    1.98
  -3   8  -5    8.48    2.44
  -2   8  -5   17.49    3.31
  -1   8  -5    4.69    1.37
   0   8  -5    3.54    1.21
   1   8  -5    6.37    2.22
   2   8  -5   17.32    3.60
   3   8  -5    3.67    1.81
   4   8  -5    2.70    1.80
   5   8  -5    6.70    2.32
   6   8  -5   -0.92    1.09
   7   8  -5    3.76    2.23
  -5   9  -5   10.03    2.93
  -4   9  -5    0.16    1.12
  -3   9  -5    0.02    1.06
  -2   9  -5   35.50    3.72
  -1   9  -5    9.65    1.91
   0   9  -5    0.61    1.36
   1   9  -5   13.33    3.33
   2   9  -5   41.81    5.80
   3   9  -5    1.24    1.45
   4   9  -5   -1.09    1.24
   5   9  -5   15.61    3.59
  -3  10  -5    4.76    2.24
  -2  10  -5   -0.64    0.84
  -1  10  -5   16.41    3.62
   0  10  -5    6.78    2.71
   1  10  -5   13.63    3.20
   2  10  -5    0.23    1.56
   3  10  -5    2.07    1.84
  -2  11  -5    7.48    2.75
  -1  11  -5   16.69    3.79
   0  11  -5   -0.01    1.60
   1  11  -5    5.13    2.84
  -1 -14  -4    4.45    2.39
   0 -14  -4   40.83    4.29
   1 -14  -4    4.16    1.81
   2 -14  -4    1.84    1.91
   3 -14  -4   -0.89    1.39
  -5 -13  -4   37.29    5.38
  -4 -13  -4    8.73    1.85
  -3 -13  -4    1.56    1.01
  -2 -13  -4    0.59    0.88
  -1 -13  -4    0.94    1.04
   0 -13  -4   -0.53    0.73
   1 -13  -4    1.76    1.09
   2 -13  -4    1.24    1.02
   3 -13  -4    1.51    1.02
   4 -13  -4    7.64    1.85
   5 -13  -4   34.66    3.92
  -6 -12  -4    5.45    2.38
  -5 -12  -4    0.95    0.98
  -4 -12  -4    2.71    1.10
  -3 -12  -4    7.17    1.66
  -2 -12  -4   16.03    3.23
  -1 -12  -4   14.65    2.24
   0 -12  -4   13.34    2.18
   1 -12  -4   14.18    2.28
   2 -12  -4   18.41    2.47
   3 -12  -4    8.18    1.73
   4 -12  -4    2.69    0.96
   5 -12  -4    0.52    0.77
   6 -12  -4    4.84    1.47
  -8 -11  -4    1.00    1.32
  -7 -11  -4    2.75    1.73
  -6 -11  -4    0.30    1.29
  -5 -11  -4    1.39    0.93
  -4 -11  -4    4.04    1.25
  -3 -11  -4    6.62    1.55
  -2 -11  -4   10.75    1.90
  -1 -11  -4   30.55    3.28
   0 -11  -4   -0.31    0.64
   1 -11  -4   39.69    3.72
   2 -11  -4    6.25    1.50
   3 -11  -4    6.58    1.27
   4 -11  -4    2.73    0.89
   5 -11  -4    1.44    0.80
   6 -11  -4    1.12    0.89
   7 -11  -4    4.64    1.46
   8 -11  -4   -0.44    0.98
  -9 -10  -4    2.35    1.72
  -8 -10  -4    1.77    1.52
  -7 -10  -4    1.62    1.30
  -6 -10  -4    3.02    1.75
  -5 -10  -4    1.50    0.94
  -4 -10  -4   28.67    3.08
  -3 -10  -4   19.82    2.54
  -2 -10  -4    5.95    1.37
  -1 -10  -4   11.51    1.95
   0 -10  -4   -0.34    0.65
   1 -10  -4    9.54    1.75
   2 -10  -4    4.22    0.93
   3 -10  -4   22.76    2.17
   4 -10  -4   29.43    2.42
   5 -10  -4    2.19    0.81
   6 -10  -4    6.87    1.54
   7 -10  -4    2.18    1.03
   8 -10  -4    1.69    0.94
   9 -10  -4    3.64    1.28
 -10  -9  -4    7.31    2.48
  -9  -9  -4   -0.59    1.02
  -8  -9  -4    0.53    1.23
  -7  -9  -4   12.59    2.84
  -6  -9  -4   42.98    5.35
  -5  -9  -4    3.85    1.72
  -4  -9  -4    0.59    0.68
  -3  -9  -4   13.35    2.03
  -2  -9  -4   12.15    1.96
  -1  -9  -4    1.30    0.67
   0  -9  -4   -0.47    0.49
   1  -9  -4    0.33    0.62
   2  -9  -4   10.15    1.39
   3  -9  -4   15.11    1.73
   4  -9  -4    1.40    0.65
   5  -9  -4    5.03    1.02
   6  -9  -4   50.47    4.00
   7  -9  -4   17.97    2.44
   8  -9  -4    0.63    0.85
   9  -9  -4    0.89    0.98
  10  -9  -4    9.33    2.29
 -11  -8  -4    8.58    2.62
 -10  -8  -4   13.45    3.00
  -9  -8  -4    0.73    1.12
  -8  -8  -4   19.96    3.74
  -7  -8  -4   10.78    2.76
  -6  -8  -4    4.02    1.65
  -5  -8  -4   10.55    2.73
  -4  -8  -4    3.40    1.18
  -3  -8  -4   16.88    2.16
  -2  -8  -4   -0.34    0.47
  -1  -8  -4   19.94    2.38
   0  -8  -4   61.10    3.43
   1  -8  -4   18.71    1.89
   2  -8  -4    0.03    0.44
   3  -8  -4   17.09    1.78
   4  -8  -4    2.28    0.71
   5  -8  -4    8.47    1.33
   6  -8  -4    4.17    1.15
   7  -8  -4   11.38    1.93
   8  -8  -4   13.82    2.03
   9  -8  -4    1.47    0.98
  10  -8  -4   22.20    2.92
  11  -8  -4    7.06    2.68
 -12  -7  -4    0.12    1.57
 -11  -7  -4    3.84    1.47
 -10  -7  -4    0.09    0.84
  -9  -7  -4   29.34    4.34
  -8  -7  -4    9.07    2.46
  -7  -7  -4   10.76    2.66
  -6  -7  -4    3.93    1.59
  -5  -7  -4    6.68    1.93
  -4  -7  -4    2.18    0.89
  -3  -7  -4   42.49    3.33
  -2  -7  -4    3.04    0.87
  -1  -7  -4    7.14    1.42
   0  -7  -4    0.99    0.64
   1  -7  -4   10.69    1.38
   2  -7  -4    4.99    0.98
   3  -7  -4   44.38    2.76
   4  -7  -4    3.08    0.81
   5  -7  -4   10.10    1.68
   6  -7  -4    3.94    1.10
   7  -7  -4   18.11    2.29
   8  -7  -4    5.74    1.34
   9  -7  -4   27.37    3.02
  10  -7  -4    0.70    0.87
  11  -7  -4    6.52    1.70
  12  -7  -4    2.16    1.96
 -12  -6  -4    1.50    1.17
 -11  -6  -4   -0.08    0.87
 -10  -6  -4   10.03    1.85
  -9  -6  -4   14.31    2.00
  -8  -6  -4   30.89    2.89
  -7  -6  -4   24.36    2.52
  -6  -6  -4    1.60    0.86
  -5  -6  -4   29.45    4.06
  -4  -6  -4    1.77    0.82
  -3  -6  -4   78.07    3.76
  -2  -6  -4   30.21    2.77
  -1  -6  -4    0.36    0.57
   0  -6  -4   38.17    3.06
   1  -6  -4   -0.24    0.33
   2  -6  -4   25.39    2.04
   3  -6  -4   89.39    3.16
   4  -6  -4    1.55    0.57
   5  -6  -4   19.99    2.26
   6  -6  -4    2.77    0.89
   7  -6  -4   22.06    2.07
   8  -6  -4   25.21    2.21
   9  -6  -4   12.97    1.68
  10  -6  -4    8.07    1.42
  11  -6  -4    1.01    0.76
  12  -6  -4    0.52    1.60
 -12  -5  -4    2.94    1.25
 -11  -5  -4    2.28    0.97
 -10  -5  -4   15.96    2.18
  -9  -5  -4   14.23    2.06
  -8  -5  -4    0.28    0.60
  -7  -5  -4    2.83    0.90
  -6  -5  -4   59.00    3.37
  -5  -5  -4    5.93    1.16
  -4  -5  -4    6.69    1.25
  -3  -5  -4    0.38    0.58
  -2  -5  -4   31.81    2.76
  -1  -5  -4   20.38    2.21
   0  -5  -4   -0.10    0.36
   1  -5  -4   19.40    1.72
   2  -5  -4   36.25    2.32
   3  -5  -4    0.78    0.45
   4  -5  -4    4.29    0.70
   5  -5  -4    5.75    0.96
   6  -5  -4   56.11    2.59
   7  -5  -4    3.87    0.91
   8  -5  -4    0.23    0.51
   9  -5  -4   16.81    1.88
  10  -5  -4   12.58    1.78
  11  -5  -4    2.40    0.90
  12  -5  -4    2.87    1.21
 -12  -4  -4   71.02    7.14
 -11  -4  -4    3.08    1.20
 -10  -4  -4    4.64    1.25
  -9  -4  -4    1.39    0.75
  -8  -4  -4   -0.05    0.56
  -7  -4  -4    0.76    0.65
  -6  -4  -4   23.95    2.37
  -5  -4  -4    2.09    0.78
  -4  -4  -4   31.84    2.65
  -3  -4  -4    1.33    0.49
  -2  -4  -4   58.34    2.25
  -1  -4  -4    0.32    0.34
   0  -4  -4   37.01    2.35
   1  -4  -4    0.59    0.44
   2  -4  -4   51.11    2.22
   3  -4  -4    1.25    0.46
   4  -4  -4   29.75    1.80
   5  -4  -4    1.84    0.61
   6  -4  -4   26.42    2.16
   7  -4  -4    1.01    0.59
   8  -4  -4    0.16    0.46
   9  -4  -4    0.86    0.66
  10  -4  -4    3.88    0.97
  11  -4  -4    2.75    1.11
  12  -4  -4   71.14    4.68
 -13  -3  -4    7.66    3.97
 -12  -3  -4    1.45    1.55
 -11  -3  -4    3.92    1.64
 -10  -3  -4   -0.26    0.62
  -9  -3  -4   61.70    3.48
  -8  -3  -4   10.12    1.75
  -7  -3  -4    6.73    1.34
  -6  -3  -4   56.54    3.03
  -5  -3  -4    2.43    0.78
  -4  -3  -4   10.64    1.52
  -3  -3  -4   21.45    2.07
  -2  -3  -4    0.69    0.43
  -1  -3  -4   56.72    2.16
   0  -3  -4    0.05    0.28
   1  -3  -4   53.09    1.80
   2  -3  -4    1.07    0.42
   3  -3  -4   24.05    1.55
   4  -3  -4   10.02    1.22
   5  -3  -4    1.94    0.53
   6  -3  -4   62.88    2.63
   7  -3  -4    7.78    1.08
   8  -3  -4   15.67    1.73
   9  -3  -4   63.37    3.69
  10  -3  -4   -0.18    0.64
  11  -3  -4    3.22    1.17
  12  -3  -4    0.20    0.77
 -13  -2  -4    2.23    1.44
 -12  -2  -4    6.13    1.95
 -11  -2  -4    4.16    1.75
 -10  -2  -4    6.84    2.12
  -9  -2  -4   14.29    2.11
  -8  -2  -4    0.27    0.58
  -7  -2  -4   23.90    2.46
  -6  -2  -4   12.38    1.72
  -5  -2  -4   14.52    1.80
  -4  -2  -4   46.82    2.61
  -3  -2  -4   49.38    2.54
  -2  -2  -4    6.03    0.92
  -1  -2  -4    0.29    0.35
   0  -2  -4    0.58    0.28
   1  -2  -4    0.26    0.25
   2  -2  -4    4.93    0.56
   3  -2  -4   45.36    1.55
   4  -2  -4   55.93    1.98
   5  -2  -4   16.70    1.59
   6  -2  -4   12.70    1.44
   7  -2  -4   24.56    1.98
   8  -2  -4    2.16    0.84
   9  -2  -4   16.76    2.25
  10  -2  -4    6.68    1.47
  11  -2  -4    1.84    1.01
  12  -2  -4    3.83    1.39
  13  -2  -4    0.63    1.11
 -13  -1  -4   14.44    3.34
 -12  -1  -4    9.99    2.65
 -11  -1  -4    5.29    1.99
 -10  -1  -4    0.17    1.04
  -9  -1  -4    2.82    1.56
  -8  -1  -4   -0.38    0.57
  -7  -1  -4    1.23    0.72
  -6  -1  -4   53.81    2.93
  -5  -1  -4    8.49    1.43
  -4  -1  -4   29.27    2.54
  -3  -1  -4   49.13    2.77
  -2  -1  -4    7.46    1.19
  -1  -1  -4    1.97    0.47
   0  -1  -4   -0.09    0.19
   1  -1  -4    1.08    0.29
   2  -1  -4    9.57    0.76
   3  -1  -4   48.03    1.57
   4  -1  -4   30.03    1.77
   5  -1  -4    7.63    0.91
   6  -1  -4   50.55    2.03
   7  -1  -4    2.34    0.76
   8  -1  -4   -0.48    0.55
   9  -1  -4    4.79    1.27
  10  -1  -4    0.25    0.65
  11  -1  -4   11.55    2.07
  12  -1  -4    6.90    1.64
  13  -1  -4   13.23    2.16
 -13   0  -4    0.14    1.14
 -12   0  -4   21.69    3.98
 -11   0  -4   -0.83    0.88
 -10   0  -4   56.29    5.83
  -9   0  -4    0.23    0.80
  -8   0  -4   42.18    4.65
  -7   0  -4   -0.21    0.61
  -6   0  -4    0.04    0.68
  -5   0  -4   -0.01    0.36
  -4   0  -4    1.73    0.67
  -3   0  -4   -0.41    0.34
  -2   0  -4    0.90    0.53
  -1   0  -4    0.06    0.26
   0   0  -4  434.77    4.76
   1   0  -4    0.13    0.21
   2   0  -4    0.88    0.29
   3   0  -4    0.19    0.27
   4   0  -4    2.12    0.51
   5   0  -4    0.03    0.35
   6   0  -4   -0.19    0.37
   7   0  -4    0.06    0.40
   8   0  -4   46.27    2.78
   9   0  -4   -0.24    0.48
  10   0  -4   61.72    4.06
  11   0  -4   -0.09    0.75
  12   0  -4   18.16    2.54
  13   0  -4    0.46    0.96
 -13   1  -4   12.69    3.54
 -12   1  -4    5.65    2.13
 -11   1  -4    7.14    2.26
 -10   1  -4    0.57    0.95
  -9   1  -4    6.35    1.95
  -8   1  -4   -0.08    0.71
  -7   1  -4    2.37    1.16
  -6   1  -4   45.81    4.78
  -5   1  -4    6.49    1.87
  -4   1  -4   36.18    3.91
  -3   1  -4   51.69    3.62
  -2   1  -4    7.47    1.16
  -1   1  -4    0.63    0.45
   0   1  -4    0.06    0.25
   1   1  -4    0.79    0.30
   2   1  -4    9.55    0.82
   3   1  -4   45.15    1.97
   4   1  -4   31.18    2.07
   5   1  -4    8.78    1.16
   6   1  -4   49.00    2.34
   7   1  -4    2.17    0.70
   8   1  -4    0.29    0.48
   9   1  -4    5.69    1.10
  10   1  -4    0.13    0.54
  11   1  -4    9.64    1.86
  12   1  -4    7.45    1.76
  13   1  -4   11.37    2.25
 -12   2  -4    2.04    1.37
 -11   2  -4    3.78    1.62
 -10   2  -4    9.93    2.48
  -9   2  -4   21.26    3.52
  -8   2  -4    0.11    0.64
  -7   2  -4   23.54    3.52
  -6   2  -4   11.16    2.34
  -5   2  -4   21.39    3.18
  -4   2  -4   53.66    3.88
  -3   2  -4   48.44    3.61
  -2   2  -4    6.86    1.17
  -1   2  -4    0.16    0.41
   0   2  -4    0.48    0.32
   1   2  -4    0.18    0.35
   2   2  -4    4.77    0.68
   3   2  -4   44.71    1.96
   4   2  -4   56.03    2.27
   5   2  -4   19.33    1.72
   6   2  -4   13.13    1.46
   7   2  -4   24.00    2.06
   8   2  -4    0.53    0.49
   9   2  -4   16.61    1.80
  10   2  -4    8.12    1.37
  11   2  -4    3.57    1.02
  12   2  -4    3.61    1.04
  13   2  -4    1.34    1.56
 -12   3  -4   -0.26    1.05
 -11   3  -4    3.68    1.78
 -10   3  -4    0.52    0.97
  -9   3  -4   62.39    4.96
  -8   3  -4   14.75    2.82
  -7   3  -4    8.24    2.09
  -6   3  -4   56.23    4.30
  -5   3  -4    1.98    1.14
  -4   3  -4    8.84    2.01
  -3   3  -4   19.71    2.84
  -2   3  -4    0.97    0.53
  -1   3  -4   48.46    2.49
   0   3  -4   -0.10    0.34
   1   3  -4   56.34    2.19
   2   3  -4    1.50    0.55
   3   3  -4   22.77    2.24
   4   3  -4    7.35    1.37
   5   3  -4    1.39    0.57
   6   3  -4   58.24    2.53
   7   3  -4    6.12    1.11
   8   3  -4   15.86    1.72
   9   3  -4   64.96    3.17
  10   3  -4    0.20    0.58
  11   3  -4    4.81    1.14
  12   3  -4    1.13    0.81
  13   3  -4    7.50    2.67
 -12   4  -4   63.77    6.73
 -11   4  -4    1.30    1.27
 -10   4  -4    4.28    1.57
  -9   4  -4   -0.45    0.74
  -8   4  -4    0.76    0.97
  -7   4  -4    1.97    1.05
  -6   4  -4   28.80    3.87
  -5   4  -4    4.11    1.44
  -4   4  -4   28.74    3.54
  -3   4  -4    1.68    0.64
  -2   4  -4   51.44    2.63
  -1   4  -4    0.78    0.54
   0   4  -4   34.05    2.75
   1   4  -4    0.44    0.38
   2   4  -4   54.68    2.29
   3   4  -4    1.16    0.64
   4   4  -4   28.03    2.63
   5   4  -4    2.24    0.83
   6   4  -4   22.34    2.44
   7   4  -4    0.76    0.63
   8   4  -4    0.34    0.61
   9   4  -4    1.19    0.71
  10   4  -4    3.68    1.03
  11   4  -4    1.83    0.90
  12   4  -4   65.56    5.09
  13   4  -4    0.53    1.67
 -12   5  -4    3.72    1.90
 -11   5  -4    4.03    1.82
 -10   5  -4   17.48    3.41
  -9   5  -4   14.22    3.08
  -8   5  -4   -0.35    0.76
  -7   5  -4    2.18    1.20
  -6   5  -4   57.99    4.46
  -5   5  -4    5.89    1.68
  -4   5  -4    5.06    1.57
  -3   5  -4    0.42    0.48
  -2   5  -4   35.13    2.74
  -1   5  -4   19.75    2.05
   0   5  -4    0.05    0.45
   1   5  -4   19.03    1.61
   2   5  -4   39.04    2.63
   3   5  -4    0.36    0.49
   4   5  -4    5.10    1.18
   5   5  -4    6.12    1.28
   6   5  -4   53.22    3.57
   7   5  -4    5.00    1.30
   8   5  -4    0.31    0.64
   9   5  -4   16.19    2.35
  10   5  -4   10.03    1.89
  11   5  -4    0.90    0.95
  12   5  -4    1.67    1.12
 -11   6  -4    0.91    1.41
 -10   6  -4    8.22    2.27
  -9   6  -4   10.55    2.49
  -8   6  -4   23.66    3.59
  -7   6  -4   27.99    3.77
  -6   6  -4    0.90    0.80
  -5   6  -4   21.47    3.39
  -4   6  -4    0.56    0.58
  -3   6  -4   91.07    3.75
  -2   6  -4   24.61    2.42
  -1   6  -4    0.11    0.46
   0   6  -4   44.51    3.23
   1   6  -4    0.06    0.47
   2   6  -4   24.77    2.46
   3   6  -4   89.24    3.91
   4   6  -4    1.54    0.78
   5   6  -4   24.81    2.66
   6   6  -4    0.12    0.64
   7   6  -4   26.26    2.96
   8   6  -4   22.99    2.75
   9   6  -4   12.03    2.06
  10   6  -4    7.94    1.66
  11   6  -4   -0.22    0.83
  12   6  -4   -0.64    1.76
 -11   7  -4    6.72    2.26
 -10   7  -4   -0.29    0.94
  -9   7  -4   24.52    3.74
  -8   7  -4    7.19    2.03
  -7   7  -4   10.75    2.38
  -6   7  -4    2.17    1.27
  -5   7  -4    7.85    2.12
  -4   7  -4    1.69    0.75
  -3   7  -4   47.42    3.09
  -2   7  -4    4.37    1.05
  -1   7  -4   11.27    1.42
   0   7  -4   -0.09    0.49
   1   7  -4   12.76    1.81
   2   7  -4    1.99    0.86
   3   7  -4   48.54    3.21
   4   7  -4    1.50    0.81
   5   7  -4    5.46    1.26
   6   7  -4    4.46    1.25
   7   7  -4   13.68    2.16
   8   7  -4    7.77    1.62
   9   7  -4   28.51    3.33
  10   7  -4   -0.34    0.72
  11   7  -4    6.56    1.70
 -11   8  -4    8.20    2.98
 -10   8  -4   17.91    3.61
  -9   8  -4    1.21    1.33
  -8   8  -4   15.77    3.09
  -7   8  -4    4.90    1.70
  -6   8  -4    5.56    1.75
  -5   8  -4    5.08    1.81
  -4   8  -4    1.45    0.76
  -3   8  -4   19.69    2.32
  -2   8  -4   -0.32    0.45
  -1   8  -4   17.79    2.18
   0   8  -4   65.52    3.41
   1   8  -4   17.10    3.09
   2   8  -4   -0.45    0.83
   3   8  -4   18.03    2.25
   4   8  -4    3.06    1.10
   5   8  -4    8.42    1.61
   6   8  -4    7.78    1.60
   7   8  -4    8.80    1.77
   8   8  -4   14.46    2.32
   9   8  -4    3.88    1.31
  10   8  -4   14.00    2.14
 -10   9  -4   10.28    2.65
  -9   9  -4   -0.30    0.94
  -8   9  -4    2.47    1.46
  -7   9  -4   19.70    3.50
  -6   9  -4   43.00    5.06
  -5   9  -4    5.42    1.31
  -4   9  -4    0.73    0.75
  -3   9  -4   17.12    2.17
  -2   9  -4    9.59    1.52
  -1   9  -4    0.17    0.60
   0   9  -4   -0.18    0.54
   1   9  -4    1.69    1.20
   2   9  -4   10.92    2.71
   3   9  -4   17.38    2.24
   4   9  -4    1.69    0.84
   5   9  -4    7.72    1.62
   6   9  -4   52.03    4.27
   7   9  -4   14.61    2.43
   8   9  -4    0.83    0.81
   9   9  -4   -0.21    0.90
  10   9  -4    9.18    1.87
  -9  10  -4    1.57    1.42
  -8  10  -4    2.80    1.39
  -7  10  -4    2.57    1.41
  -6  10  -4   10.92    2.51
  -5  10  -4    0.61    0.89
  -4  10  -4   26.81    2.80
  -3  10  -4   20.18    2.44
  -2  10  -4    9.36    1.74
  -1  10  -4   11.61    1.92
   0  10  -4   -0.14    0.91
   1  10  -4    8.85    2.48
   2  10  -4    5.10    1.90
   3  10  -4   21.50    3.78
   4  10  -4   27.81    3.08
   5  10  -4    0.49    0.83
   6  10  -4    9.11    1.81
   7  10  -4    3.40    1.24
   8  10  -4    2.52    1.19
   9  10  -4    2.15    1.18
  -8  11  -4    1.16    1.23
  -7  11  -4    0.74    1.11
  -6  11  -4   -0.11    0.94
  -5  11  -4    1.26    0.91
  -4  11  -4    3.23    1.12
  -3  11  -4   10.88    1.84
  -2  11  -4    9.40    1.73
  -1  11  -4   34.90    3.27
   0  11  -4    0.85    1.33
   1  11  -4   36.35    5.04
   2  11  -4    2.87    1.70
   3  11  -4    7.25    2.46
   4  11  -4    3.07    1.60
   5  11  -4    0.59    0.83
   6  11  -4    0.35    0.85
   7  11  -4    2.94    1.23
   8  11  -4    0.25    1.03
  -7  12  -4   12.01    2.69
  -6  12  -4    2.61    1.43
  -5  12  -4    1.25    0.99
  -4  12  -4    3.91    1.30
  -3  12  -4    6.72    1.61
  -2  12  -4   21.38    2.67
  -1  12  -4   24.59    4.18
   0  12  -4    9.42    2.68
   1  12  -4   20.06    4.06
   2  12  -4   22.96    4.00
   3  12  -4    6.59    2.34
   4  12  -4    6.48    2.36
   5  12  -4    0.14    0.82
   6  12  -4    4.35    1.42
   7  12  -4   12.20    3.30
  -6  13  -4   17.08    3.64
  -5  13  -4   45.88    5.54
  -4  13  -4    8.56    1.72
  -3  13  -4    1.06    1.00
  -2  13  -4    2.91    1.73
  -1  13  -4    1.54    1.63
   0  13  -4   -0.61    1.22
   1  13  -4    0.89    1.65
   2  13  -4    1.36    1.62
   3  13  -4    2.03    1.59
   4  13  -4    9.98    3.01
   6  13  -4   19.99    4.45
  -3  14  -4   -0.67    1.77
  -2  14  -4    1.07    1.58
  -1  14  -4    5.66    2.35
   0  14  -4   35.71    5.54
   1  14  -4    2.61    2.68
  -4 -16  -3    0.83    1.46
  -3 -16  -3    9.58    2.89
  -2 -16  -3   15.64    2.88
  -1 -16  -3    3.85    1.45
   0 -16  -3   23.45    3.01
   1 -16  -3    5.93    1.60
   2 -16  -3   15.06    2.53
   3 -16  -3   11.21    3.04
  -6 -15  -3   20.45    4.47
  -5 -15  -3   27.37    3.09
  -4 -15  -3   10.50    1.94
  -3 -15  -3    5.01    1.40
  -2 -15  -3    2.57    1.16
  -1 -15  -3    0.33    0.83
   0 -15  -3   -0.14    0.79
   1 -15  -3    0.12    0.78
   2 -15  -3    1.23    0.91
   3 -15  -3    5.80    1.57
   4 -15  -3    8.72    1.88
   5 -15  -3   22.12    2.97
   6 -15  -3   21.90    3.91
  -8 -14  -3   20.13    3.89
  -7 -14  -3   -1.35    1.03
  -6 -14  -3   -0.27    1.13
  -5 -14  -3    0.19    0.80
  -4 -14  -3   18.89    2.54
  -3 -14  -3    0.91    0.86
  -2 -14  -3    3.55    1.28
  -1 -14  -3    8.55    1.71
   0 -14  -3   43.51    3.84
   1 -14  -3    7.70    1.67
   2 -14  -3    0.85    0.83
   3 -14  -3    0.47    0.77
   4 -14  -3   16.63    2.48
   5 -14  -3    1.41    0.77
   6 -14  -3    0.18    0.68
   7 -14  -3   -0.20    0.73
   8 -14  -3   20.61    3.75
  -9 -13  -3    7.35    2.56
  -8 -13  -3   12.54    3.03
  -7 -13  -3    2.04    1.28
  -6 -13  -3   -0.02    0.95
  -5 -13  -3    0.83    0.76
  -4 -13  -3    0.80    0.78
  -3 -13  -3   48.73    3.82
  -2 -13  -3   19.44    2.48
  -1 -13  -3    0.19    0.65
   0 -13  -3   -0.36    0.58
   1 -13  -3   -0.77    0.60
   2 -13  -3   17.41    2.40
   3 -13  -3   36.16    3.37
   4 -13  -3    2.37    0.79
   5 -13  -3    0.24    0.62
   6 -13  -3    0.36    0.59
   7 -13  -3    4.29    1.10
   8 -13  -3   10.33    2.02
   9 -13  -3    4.89    2.08
 -10 -12  -3   11.40    2.83
  -9 -12  -3    3.30    1.78
  -8 -12  -3    1.40    1.13
  -7 -12  -3    5.85    2.02
  -6 -12  -3    0.46    1.03
  -5 -12  -3    9.58    1.67
  -4 -12  -3   22.80    2.55
  -3 -12  -3   11.84    1.88
  -2 -12  -3    1.18    0.77
  -1 -12  -3    1.91    0.88
   0 -12  -3   16.50    2.23
   1 -12  -3    1.36    0.71
   2 -12  -3    2.91    0.93
   3 -12  -3   12.41    1.56
   4 -12  -3   21.97    2.11
   5 -12  -3    7.35    1.27
   6 -12  -3    0.06    0.53
   7 -12  -3   12.42    1.67
   8 -12  -3    3.63    1.20
   9 -12  -3    3.86    1.27
  10 -12  -3   12.82    2.37
 -11 -11  -3    0.52    1.26
 -10 -11  -3   -0.50    1.04
  -9 -11  -3   18.07    3.43
  -8 -11  -3    1.38    1.18
  -7 -11  -3   51.72    5.62
  -6 -11  -3   15.30    3.04
  -5 -11  -3    8.22    1.54
  -4 -11  -3    7.95    1.52
  -3 -11  -3   -0.06    0.49
  -2 -11  -3    7.59    1.53
  -1 -11  -3   34.49    3.14
   0 -11  -3    0.57    0.58
   1 -11  -3   29.46    2.95
   2 -11  -3    7.54    1.19
   3 -11  -3    0.37    0.46
   4 -11  -3    4.64    0.95
   5 -11  -3    5.04    1.00
   6 -11  -3   14.29    1.70
   7 -11  -3   56.46    3.24
   8 -11  -3    0.05    0.69
   9 -11  -3   15.38    2.26
  10 -11  -3    0.94    0.83
  11 -11  -3    0.21    0.88
 -11 -10  -3   28.39    4.32
 -10 -10  -3    0.20    1.16
  -9 -10  -3    2.01    1.48
  -8 -10  -3    2.76    1.44
  -7 -10  -3    0.26    0.73
  -6 -10  -3   12.63    2.62
  -5 -10  -3    1.26    0.73
  -4 -10  -3   56.35    3.97
  -3 -10  -3    9.24    1.55
  -2 -10  -3   -0.23    0.44
  -1 -10  -3   34.42    3.02
   0 -10  -3   13.89    1.87
   1 -10  -3   36.43    3.10
   2 -10  -3    0.10    0.36
   3 -10  -3    6.45    1.04
   4 -10  -3   49.52    2.73
   5 -10  -3    0.73    0.56
   6 -10  -3   12.42    1.49
   7 -10  -3    0.66    0.61
   8 -10  -3    3.88    1.13
   9 -10  -3    3.65    1.13
  10 -10  -3    0.07    0.73
  11 -10  -3   27.69    3.13
  12 -10  -3    7.34    1.88
 -13  -9  -3    0.11    1.52
 -12  -9  -3    0.03    0.88
 -11  -9  -3    1.11    0.90
 -10  -9  -3   20.07    2.47
  -9  -9  -3   39.42    3.51
  -8  -9  -3   14.86    2.93
  -7  -9  -3    1.42    1.16
  -6  -9  -3   10.34    2.39
  -5  -9  -3   34.78    2.94
  -4  -9  -3    0.08    0.50
  -3  -9  -3    0.00    0.50
  -2  -9  -3   79.64    3.63
  -1  -9  -3   19.44    2.18
   0  -9  -3    0.61    0.51
   1  -9  -3   20.39    1.82
   2  -9  -3   79.05    2.94
   3  -9  -3    0.16    0.38
   4  -9  -3    0.26    0.39
   5  -9  -3   40.63    2.61
   6  -9  -3   10.39    1.35
   7  -9  -3    1.85    0.69
   8  -9  -3   18.56    2.33
   9  -9  -3   35.63    3.23
  10  -9  -3   15.18    2.23
  11  -9  -3    0.67    0.85
  12  -9  -3   -0.05    0.83
 -13  -8  -3    2.05    1.88
 -12  -8  -3    4.18    1.36
 -11  -8  -3    6.57    1.52
 -10  -8  -3    2.09    0.94
  -9  -8  -3   10.16    1.68
  -8  -8  -3   23.31    2.46
  -7  -8  -3   12.17    1.67
  -6  -8  -3    0.22    0.51
  -5  -8  -3   13.55    1.83
  -4  -8  -3   13.33    1.78
  -3  -8  -3   18.57    2.00
  -2  -8  -3   33.25    2.70
  -1  -8  -3   15.04    1.80
   0  -8  -3   15.17    1.80
   1  -8  -3   16.53    1.59
   2  -8  -3   37.91    2.18
   3  -8  -3   19.05    1.62
   4  -8  -3   13.88    1.43
   5  -8  -3   17.34    1.64
   6  -8  -3    0.62    0.44
   7  -8  -3   12.66    1.48
   8  -8  -3   33.35    3.10
   9  -8  -3   11.73    1.84
  10  -8  -3    0.15    0.70
  11  -8  -3    8.60    1.74
  12  -8  -3    3.35    1.34
  13  -8  -3    0.24    0.99
 -14  -7  -3    0.82    2.42
 -13  -7  -3   51.01    6.43
 -12  -7  -3   -0.05    0.77
 -11  -7  -3    3.92    1.22
 -10  -7  -3    0.44    0.68
  -9  -7  -3    0.62    0.70
  -8  -7  -3    7.65    1.41
  -7  -7  -3   10.52    1.57
  -6  -7  -3   10.14    1.47
  -5  -7  -3  146.14    3.73
  -4  -7  -3    2.64    0.63
  -3  -7  -3   13.95    1.75
  -2  -7  -3    6.66    1.20
  -1  -7  -3    2.52    0.77
   0  -7  -3   -0.13    0.33
   1  -7  -3    3.21    0.69
   2  -7  -3    6.45    0.94
   3  -7  -3   11.91    1.27
   4  -7  -3    1.61    0.55
   5  -7  -3  141.61    3.81
   6  -7  -3    8.56    1.08
   7  -7  -3    7.70    1.42
   8  -7  -3    8.42    1.26
   9  -7  -3    0.47    0.51
  10  -7  -3    0.63    0.62
  11  -7  -3    3.94    1.01
  12  -7  -3    0.56    0.64
  13  -7  -3   39.45    3.06
  14  -7  -3   -0.01    0.99
 -14  -6  -3   -0.45    1.28
 -13  -6  -3   33.18    3.45
 -12  -6  -3    4.46    1.31
 -11  -6  -3   49.91    3.80
 -10  -6  -3    8.33    1.52
  -9  -6  -3    0.63    0.66
  -8  -6  -3   22.97    2.32
  -7  -6  -3    8.49    1.35
  -6  -6  -3    2.15    0.74
  -5  -6  -3    7.10    1.15
  -4  -6  -3    0.54    0.32
  -3  -6  -3    1.77    0.47
  -2  -6  -3    1.40    0.42
  -1  -6  -3  123.84    4.15
   0  -6  -3   56.75    2.19
   1  -6  -3  122.05    3.33
   2  -6  -3    0.56    0.37
   3  -6  -3    0.68    0.37
   4  -6  -3    0.49    0.37
   5  -6  -3    7.37    0.89
   6  -6  -3    0.99    0.41
   7  -6  -3    8.29    1.16
   8  -6  -3   23.27    1.98
   9  -6  -3    0.16    0.50
  10  -6  -3   11.11    1.49
  11  -6  -3   50.61    3.25
  12  -6  -3    3.21    0.98
  13  -6  -3   30.08    2.72
  14  -6  -3    0.46    0.84
 -14  -5  -3   18.34    3.73
 -13  -5  -3    0.00    1.18
 -12  -5  -3    3.24    1.15
 -11  -5  -3   11.66    1.86
 -10  -5  -3   39.39    3.25
  -9  -5  -3    3.81    0.99
  -8  -5  -3    5.42    1.17
  -7  -5  -3   50.94    2.68
  -6  -5  -3   20.51    2.06
  -5  -5  -3    1.20    0.56
  -4  -5  -3    1.28    0.45
  -3  -5  -3   49.62    1.89
  -2  -5  -3   89.20    2.48
  -1  -5  -3    4.19    0.63
   0  -5  -3    0.13    0.22
   1  -5  -3    4.69    0.77
   2  -5  -3   94.84    2.76
   3  -5  -3   48.42    1.69
   4  -5  -3    1.07    0.39
   5  -5  -3    1.03    0.35
   6  -5  -3   21.07    1.45
   7  -5  -3   47.30    2.21
   8  -5  -3    6.74    1.06
   9  -5  -3    3.13    0.73
  10  -5  -3   33.46    2.52
  11  -5  -3    7.24    1.25
  12  -5  -3    2.04    0.77
  13  -5  -3    0.08    0.65
  14  -5  -3   14.76    1.96
 -14  -4  -3   37.17    5.33
 -13  -4  -3    1.41    1.24
 -12  -4  -3    2.06    0.89
 -11  -4  -3    4.67    1.18
 -10  -4  -3    5.47    1.24
  -9  -4  -3    2.83    0.93
  -8  -4  -3   15.41    1.91
  -7  -4  -3    6.18    1.11
  -6  -4  -3   11.89    1.50
  -5  -4  -3    0.33    0.37
  -4  -4  -3  143.72    3.39
  -3  -4  -3    6.27    0.82
  -2  -4  -3   14.30    1.22
  -1  -4  -3   13.29    1.10
   0  -4  -3    6.77    0.68
   1  -4  -3   13.53    0.94
   2  -4  -3   11.83    0.78
   3  -4  -3    4.57    0.63
   4  -4  -3  138.65    2.89
   5  -4  -3    0.05    0.25
   6  -4  -3   17.29    1.55
   7  -4  -3   10.51    1.23
   8  -4  -3   14.99    1.57
   9  -4  -3    2.02    0.63
  10  -4  -3    4.39    0.90
  11  -4  -3    4.59    1.02
  12  -4  -3    0.69    0.67
  13  -4  -3   -0.36    0.58
  14  -4  -3   39.40    3.91
  15  -4  -3   -0.71    1.27
 -14  -3  -3    1.78    1.49
 -13  -3  -3   -0.09    1.00
 -12  -3  -3    0.62    1.09
 -11  -3  -3    6.71    1.39
 -10  -3  -3   21.81    2.35
  -9  -3  -3   28.42    2.62
  -8  -3  -3   24.48    2.32
  -7  -3  -3  110.30    3.97
  -6  -3  -3    0.94    0.55
  -5  -3  -3   51.28    2.44
  -4  -3  -3   17.69    1.67
  -3  -3  -3    4.57    0.64
  -2  -3  -3   78.55    2.27
  -1  -3  -3  123.68    2.52
   0  -3  -3    0.05    0.20
   1  -3  -3  124.73    2.21
   2  -3  -3   76.49    1.69
   3  -3  -3    6.84    0.75
   4  -3  -3   17.71    1.18
   5  -3  -3   51.24    1.68
   6  -3  -3    0.94    0.43
   7  -3  -3  113.52    3.34
   8  -3  -3   26.54    1.99
   9  -3  -3   29.67    2.19
  10  -3  -3   21.94    1.94
  11  -3  -3    7.65    1.22
  12  -3  -3    0.35    0.59
  13  -3  -3    0.38    0.75
  14  -3  -3    5.35    1.55
  15  -3  -3    3.81    2.09
 -15  -2  -3    1.94    2.54
 -14  -2  -3    0.74    1.03
 -13  -2  -3    7.81    2.31
 -12  -2  -3   18.82    3.37
 -11  -2  -3   50.42    5.53
 -10  -2  -3    2.58    1.26
  -9  -2  -3    0.56    0.61
  -8  -2  -3   -0.44    0.35
  -7  -2  -3   28.29    2.36
  -6  -2  -3    1.19    0.55
  -5  -2  -3    1.07    0.48
  -4  -2  -3   19.49    1.79
  -3  -2  -3   11.29    1.06
  -2  -2  -3   27.08    1.14
  -1  -2  -3  120.78    2.11
   0  -2  -3    0.17    0.17
   1  -2  -3  119.72    1.94
   2  -2  -3   26.70    0.94
   3  -2  -3   10.39    0.77
   4  -2  -3   20.16    1.11
   5  -2  -3    1.61    0.35
   6  -2  -3    1.44    0.49
   7  -2  -3   28.70    1.97
   8  -2  -3   -0.42    0.29
   9  -2  -3    1.03    0.51
  10  -2  -3    4.07    0.87
  11  -2  -3   52.98    2.92
  12  -2  -3   17.00    2.32
  13  -2  -3    8.25    1.72
  14  -2  -3   -0.22    0.74
  15  -2  -3    2.54    1.33
 -15  -1  -3    1.73    1.68
 -14  -1  -3   14.41    3.32
 -13  -1  -3   16.77    3.43
 -12  -1  -3    2.12    1.31
 -11  -1  -3    9.45    2.32
 -10  -1  -3   41.60    4.63
  -9  -1  -3    1.28    0.95
  -8  -1  -3   26.59    2.43
  -7  -1  -3    0.24    0.45
  -6  -1  -3    0.09    0.35
  -5  -1  -3  133.38    4.07
  -4  -1  -3   14.37    1.53
  -3  -1  -3   38.90    1.40
  -2  -1  -3   35.67    1.22
  -1  -1  -3    0.54    0.19
   0  -1  -3   -0.13    0.13
   1  -1  -3    0.52    0.20
   2  -1  -3   34.85    1.00
   3  -1  -3   39.94    1.21
   4  -1  -3   17.28    1.01
   5  -1  -3  132.92    2.60
   6  -1  -3    0.11    0.26
   7  -1  -3   -0.30    0.23
   8  -1  -3   23.44    1.61
   9  -1  -3    1.43    0.55
  10  -1  -3   41.86    2.68
  11  -1  -3   11.60    1.84
  12  -1  -3    2.73    1.03
  13  -1  -3   19.97    2.61
  14  -1  -3   17.37    2.51
  15  -1  -3    4.30    1.53
 -15   0  -3    1.95    1.35
 -14   0  -3   13.38    3.12
 -13   0  -3   -0.30    0.76
 -12   0  -3    0.55    0.80
 -11   0  -3    0.24    0.67
 -10   0  -3    1.45    1.22
  -9   0  -3    0.01    0.65
  -8   0  -3  156.29    6.97
  -7   0  -3    0.01    0.55
  -6   0  -3   17.50    1.87
  -5   0  -3   -0.23    0.31
  -4   0  -3  114.07    3.61
  -3   0  -3   -0.19    0.18
  -2   0  -3  104.80    2.49
  -1   0  -3    0.06    0.15
   0   0  -3   10.42    0.66
   1   0  -3    0.14    0.16
   2   0  -3  101.23    1.75
   3   0  -3   -0.09    0.16
   4   0  -3  111.85    2.09
   5   0  -3   -0.08    0.22
   6   0  -3   17.71    1.25
   7   0  -3   -0.01    0.26
   8   0  -3  160.57    3.50
   9   0  -3    0.02    0.37
  10   0  -3    1.73    0.64
  11   0  -3    0.19    0.57
  12   0  -3    0.15    0.62
  13   0  -3    0.64    0.79
  14   0  -3   13.95    2.30
  15   0  -3    0.02    0.98
 -15   1  -3    6.78    2.46
 -14   1  -3   17.01    3.62
 -13   1  -3   18.16    3.46
 -12   1  -3    2.32    1.26
 -11   1  -3    8.93    2.30
 -10   1  -3   37.75    4.40
  -9   1  -3    0.93    0.89
  -8   1  -3   26.25    3.37
  -7   1  -3    0.14    0.56
  -6   1  -3    0.53    0.58
  -5   1  -3  132.92    5.64
  -4   1  -3   14.88    1.15
  -3   1  -3   39.20    1.51
  -2   1  -3   35.08    1.16
  -1   1  -3    0.77    0.26
   0   1  -3    0.10    0.15
   1   1  -3    1.04    0.23
   2   1  -3   33.17    0.96
   3   1  -3   36.60    1.11
   4   1  -3   13.16    0.98
   5   1  -3  139.36    2.81
   6   1  -3   -0.07    0.25
   7   1  -3   -0.03    0.32
   8   1  -3   25.54    2.00
   9   1  -3    2.08    0.67
  10   1  -3   42.33    2.76
  11   1  -3    9.11    1.25
  12   1  -3    2.63    1.07
  13   1  -3   15.11    2.23
  14   1  -3   14.04    2.34
  15   1  -3    3.59    1.30
 -15   2  -3    1.29    1.43
 -14   2  -3   -0.35    0.99
 -13   2  -3    6.35    2.03
 -12   2  -3   13.91    2.87
 -11   2  -3   48.19    5.16
 -10   2  -3    3.64    1.33
  -9   2  -3    0.85    0.76
  -8   2  -3    0.96    0.83
  -7   2  -3   26.99    3.29
  -6   2  -3    1.49    0.80
  -5   2  -3    1.83    0.87
  -4   2  -3   20.44    1.64
  -3   2  -3    9.22    1.10
  -2   2  -3   25.79    1.17
  -1   2  -3  123.37    2.66
   0   2  -3    0.17    0.20
   1   2  -3  121.04    2.07
   2   2  -3   24.77    1.00
   3   2  -3   11.59    0.86
   4   2  -3   20.20    1.17
   5   2  -3    1.27    0.45
   6   2  -3    1.37    0.47
   7   2  -3   27.51    1.97
   8   2  -3    0.13    0.33
   9   2  -3    1.08    0.52
  10   2  -3    4.05    0.88
  11   2  -3   60.57    3.20
  12   2  -3   17.29    1.96
  13   2  -3    5.60    1.53
  14   2  -3    0.50    1.00
  15   2  -3    2.68    1.19
 -15   3  -3    7.78    3.78
 -14   3  -3    1.60    1.21
 -13   3  -3   -0.25    0.71
 -12   3  -3    1.53    1.18
 -11   3  -3   11.47    2.62
 -10   3  -3   24.89    3.45
  -9   3  -3   26.95    3.61
  -8   3  -3   32.39    3.91
  -7   3  -3  120.73    5.79
  -6   3  -3    1.24    0.81
  -5   3  -3   49.52    2.18
  -4   3  -3   15.56    1.49
  -3   3  -3    4.61    0.83
  -2   3  -3   76.56    2.00
  -1   3  -3  128.69    2.78
   0   3  -3   -0.01    0.17
   1   3  -3  125.82    2.40
   2   3  -3   72.40    1.84
   3   3  -3    5.24    0.57
   4   3  -3   15.66    1.29
   5   3  -3   52.69    2.08
   6   3  -3    0.72    0.41
   7   3  -3  113.12    3.35
   8   3  -3   26.56    2.02
   9   3  -3   27.96    2.18
  10   3  -3   22.11    2.07
  11   3  -3    6.16    1.19
  12   3  -3    0.36    0.54
  13   3  -3   -0.11    0.56
  14   3  -3    2.34    1.12
  15   3  -3    4.08    1.55
 -14   4  -3   43.49    5.66
 -13   4  -3   -0.22    0.80
 -12   4  -3    2.37    1.58
 -11   4  -3    4.27    1.68
 -10   4  -3    5.88    1.92
  -9   4  -3    2.29    1.17
  -8   4  -3   19.57    3.11
  -7   4  -3    9.39    1.95
  -6   4  -3   15.19    2.48
  -5   4  -3    0.03    0.32
  -4   4  -3  135.88    3.94
  -3   4  -3    6.05    0.98
  -2   4  -3   12.71    1.41
  -1   4  -3   15.39    1.20
   0   4  -3    7.03    0.82
   1   4  -3   13.44    0.92
   2   4  -3   12.14    0.91
   3   4  -3    6.37    0.83
   4   4  -3  137.80    3.33
   5   4  -3    0.32    0.31
   6   4  -3   18.71    1.59
   7   4  -3   10.72    1.26
   8   4  -3   18.91    1.76
   9   4  -3    1.84    0.68
  10   4  -3    3.85    0.92
  11   4  -3    3.19    0.88
  12   4  -3    1.69    0.75
  13   4  -3    0.22    0.61
  14   4  -3   38.39    3.05
  15   4  -3    1.36    2.04
 -14   5  -3   16.27    3.42
 -13   5  -3    1.18    1.09
 -12   5  -3    2.19    1.28
 -11   5  -3    8.75    2.23
 -10   5  -3   41.50    4.69
  -9   5  -3    3.30    1.40
  -8   5  -3    6.58    1.70
  -7   5  -3   44.38    3.59
  -6   5  -3   21.67    1.94
  -5   5  -3    0.74    0.44
  -4   5  -3    1.23    0.54
  -3   5  -3   47.77    2.33
  -2   5  -3   91.20    3.28
  -1   5  -3    5.50    0.74
   0   5  -3    0.01    0.27
   1   5  -3    5.29    0.77
   2   5  -3   93.57    2.71
   3   5  -3   45.60    1.84
   4   5  -3    0.76    0.38
   5   5  -3    1.48    0.48
   6   5  -3   25.58    1.88
   7   5  -3   49.56    2.25
   8   5  -3    6.42    1.04
   9   5  -3    3.15    0.78
  10   5  -3   34.96    2.61
  11   5  -3    8.13    1.36
  12   5  -3    2.25    0.82
  13   5  -3    0.24    0.69
  14   5  -3   16.13    2.07
 -14   6  -3    0.34    1.09
 -13   6  -3   35.58    4.74
 -12   6  -3    3.32    1.53
 -11   6  -3   42.78    4.78
 -10   6  -3   11.64    2.46
  -9   6  -3    0.84    0.85
  -8   6  -3   22.54    3.16
  -7   6  -3    7.81    1.89
  -6   6  -3    1.86    0.65
  -5   6  -3    7.70    1.22
  -4   6  -3    0.52    0.47
  -3   6  -3    1.81    0.66
  -2   6  -3    1.41    0.62
  -1   6  -3  119.23    2.98
   0   6  -3   56.98    2.04
   1   6  -3  127.38    3.24
   2   6  -3    1.81    0.67
   3   6  -3    0.52    0.44
   4   6  -3    0.03    0.40
   5   6  -3    5.68    1.15
   6   6  -3    1.18    0.53
   7   6  -3    9.56    1.22
   8   6  -3   22.45    1.93
   9   6  -3    0.76    0.52
  10   6  -3   10.33    1.40
  11   6  -3   50.32    3.26
  12   6  -3    4.32    1.01
  13   6  -3   27.53    2.58
  14   6  -3    0.61    0.79
 -14   7  -3    0.33    1.23
 -13   7  -3   52.60    5.94
 -12   7  -3    0.38    0.91
 -11   7  -3    3.07    1.59
 -10   7  -3    0.52    0.89
  -9   7  -3    0.83    0.83
  -8   7  -3    6.96    1.83
  -7   7  -3   10.36    1.49
  -6   7  -3    9.69    1.45
  -5   7  -3  136.19    4.43
  -4   7  -3    1.90    0.66
  -3   7  -3    9.45    1.30
  -2   7  -3    4.70    0.97
  -1   7  -3    2.10    0.69
   0   7  -3    0.05    0.30
   1   7  -3    2.28    0.57
   2   7  -3    6.23    1.16
   3   7  -3   13.99    1.78
   4   7  -3    1.47    0.62
   5   7  -3  128.98    4.69
   6   7  -3   10.90    1.65
   7   7  -3   10.21    1.57
   8   7  -3    6.29    1.38
   9   7  -3    0.18    0.47
  10   7  -3    0.31    0.55
  11   7  -3    3.10    0.92
  12   7  -3    0.22    0.67
  13   7  -3   41.45    3.10
  14   7  -3    0.11    0.99
 -13   8  -3    1.65    1.37
 -12   8  -3    2.97    1.58
 -11   8  -3    7.29    2.04
 -10   8  -3    1.08    1.23
  -9   8  -3    9.40    2.22
  -8   8  -3   27.52    3.65
  -7   8  -3   11.81    1.62
  -6   8  -3    0.14    0.43
  -5   8  -3   16.52    1.94
  -4   8  -3   16.21    1.85
  -3   8  -3   18.62    1.98
  -2   8  -3   38.05    2.49
  -1   8  -3   20.01    2.13
   0   8  -3   14.82    1.36
   1   8  -3   16.13    1.49
   2   8  -3   44.42    2.76
   3   8  -3   17.99    2.06
   4   8  -3   19.33    2.23
   5   8  -3   15.62    2.00
   6   8  -3    0.35    0.50
   7   8  -3   17.24    2.30
   8   8  -3   24.53    2.73
   9   8  -3   11.65    1.86
  10   8  -3    1.28    0.91
  11   8  -3    9.24    1.89
  12   8  -3    4.15    1.35
  13   8  -3    0.77    1.02
 -13   9  -3   -0.45    1.29
 -12   9  -3    0.09    1.06
 -11   9  -3   -0.48    0.93
 -10   9  -3   10.74    2.46
  -9   9  -3   36.89    4.27
  -8   9  -3   16.20    2.82
  -7   9  -3    3.01    0.96
  -6   9  -3   16.21    1.97
  -5   9  -3   41.78    3.11
  -4   9  -3    0.40    0.49
  -3   9  -3   -0.13    0.43
  -2   9  -3   88.05    3.67
  -1   9  -3   20.05    2.14
   0   9  -3    0.07    0.36
   1   9  -3   22.33    2.30
   2   9  -3   84.51    3.67
   3   9  -3    0.00    0.43
   4   9  -3    0.34    0.53
   5   9  -3   40.74    3.37
   6   9  -3    9.51    1.69
   7   9  -3    1.04    0.70
   8   9  -3   15.53    2.17
   9   9  -3   41.05    3.71
  10   9  -3   16.20    2.33
  11   9  -3    2.33    1.08
  12   9  -3    1.06    1.01
  13   9  -3   -0.01    1.27
 -12  10  -3    5.53    1.90
 -11  10  -3   24.95    3.79
 -10  10  -3    0.24    0.88
  -9  10  -3    1.56    1.05
  -8  10  -3    1.61    0.99
  -7  10  -3    0.36    0.61
  -6  10  -3   11.38    1.74
  -5  10  -3    1.10    0.64
  -4  10  -3   47.62    3.05
  -3  10  -3    7.82    1.35
  -2  10  -3    0.34    0.47
  -1  10  -3   31.64    2.76
   0  10  -3   12.32    2.62
   1  10  -3   35.17    2.94
   2  10  -3    0.42    0.55
   3  10  -3    7.37    1.42
   4  10  -3   56.83    3.24
   5  10  -3    0.72    0.62
   6  10  -3   13.57    2.08
   7  10  -3    1.00    0.81
   8  10  -3    1.84    0.92
   9  10  -3    1.52    0.95
  10  10  -3    1.77    0.92
  11  10  -3   28.33    3.25
  12  10  -3    7.34    2.52
 -10  11  -3    0.02    0.94
  -9  11  -3   21.88    3.63
  -8  11  -3    0.22    0.73
  -7  11  -3   55.82    3.62
  -6  11  -3   19.56    2.34
  -5  11  -3    5.69    1.20
  -4  11  -3    7.96    1.49
  -3  11  -3    0.82    0.56
  -2  11  -3    9.82    1.55
  -1  11  -3   37.01    3.04
   0  11  -3   -0.39    0.79
   1  11  -3   26.67    2.66
   2  11  -3    8.58    1.60
   3  11  -3    0.04    0.55
   4  11  -3    8.82    1.71
   5  11  -3    7.86    1.54
   6  11  -3   20.54    2.68
   7  11  -3   58.33    4.01
   8  11  -3    0.35    0.72
   9  11  -3   18.41    2.66
  10  11  -3    0.50    0.92
  11  11  -3    0.71    0.91
  -9  12  -3    7.79    2.61
  -8  12  -3    2.01    0.99
  -7  12  -3   12.39    1.81
  -6  12  -3   -0.74    0.61
  -5  12  -3    7.81    1.49
  -4  12  -3   28.36    2.81
  -3  12  -3   12.21    1.82
  -2  12  -3    1.06    0.67
  -1  12  -3   -0.18    0.89
   0  12  -3   14.45    3.01
   1  12  -3    0.32    0.91
   2  12  -3    1.79    0.91
   3  12  -3    8.65    1.67
   4  12  -3   21.20    2.60
   5  12  -3    8.74    1.70
   6  12  -3   -0.31    0.58
   7  12  -3   10.63    1.87
   8  12  -3    2.59    1.13
   9  12  -3    3.09    1.29
  10  12  -3    7.51    1.78
  -8  13  -3    9.02    2.98
  -7  13  -3    3.67    1.88
  -6  13  -3    0.08    0.73
  -5  13  -3   -0.01    0.64
  -4  13  -3    4.13    1.18
  -3  13  -3   45.02    3.61
  -2  13  -3   17.79    3.47
  -1  13  -3   -0.23    1.01
   0  13  -3    0.30    0.90
   1  13  -3    0.33    0.93
   2  13  -3   15.84    2.47
   3  13  -3   36.74    3.54
   4  13  -3    3.03    1.14
   5  13  -3    1.40    0.91
   6  13  -3    0.32    0.78
   7  13  -3    1.98    1.01
   8  13  -3    9.10    1.96
   9  13  -3    3.67    1.34
  -8  14  -3   24.68    4.54
  -7  14  -3   -2.08    1.22
  -6  14  -3    0.27    1.45
  -5  14  -3   -0.41    1.29
  -4  14  -3   15.48    2.24
  -3  14  -3    1.04    1.19
  -2  14  -3   -0.73    0.97
  -1  14  -3    7.57    2.33
   0  14  -3   46.35    5.82
   1  14  -3    6.75    2.18
   2  14  -3    2.49    1.50
   3  14  -3    1.25    0.90
   4  14  -3   13.99    2.38
   5  14  -3    1.28    0.89
   6  14  -3   -0.31    0.75
   7  14  -3   -0.51    0.85
   8  14  -3   13.76    2.73
  -6  15  -3   23.22    4.34
  -5  15  -3   29.65    4.91
  -4  15  -3   12.97    3.22
  -3  15  -3    4.66    1.95
  -2  15  -3    1.84    1.62
  -1  15  -3    0.14    1.24
   0  15  -3   -0.61    1.01
   1  15  -3    0.32    1.23
   2  15  -3    1.08    1.31
   3  15  -3    4.59    2.18
   4  15  -3    5.97    1.69
   5  15  -3   23.98    3.07
   6  15  -3   15.61    3.64
  -2  16  -3   13.86    3.91
  -1  16  -3    1.93    1.53
   1  16  -3    5.21    2.50
  -5 -17  -2   13.89    3.70
  -4 -17  -2    6.16    2.41
  -3 -17  -2    0.06    1.07
  -2 -17  -2    2.13    1.63
  -1 -17  -2   10.43    3.02
   0 -17  -2   -1.18    1.04
   1 -17  -2    9.53    2.07
   2 -17  -2    1.39    1.05
   3 -17  -2    1.11    0.98
   4 -17  -2    3.93    1.39
   5 -17  -2    5.37    2.29
  -7 -16  -2    3.54    2.00
  -6 -16  -2    1.59    1.50
  -5 -16  -2    3.25    1.85
  -4 -16  -2   29.06    4.59
  -3 -16  -2    5.96    2.17
  -2 -16  -2    1.45    1.47
  -1 -16  -2    9.63    1.63
   0 -16  -2   25.40    2.90
   1 -16  -2    9.63    1.83
   2 -16  -2    0.32    0.84
   3 -16  -2    3.58    1.32
   4 -16  -2   21.36    2.71
   5 -16  -2    2.13    1.08
   6 -16  -2    0.66    0.91
   7 -16  -2    4.25    1.49
  -8 -15  -2    6.03    2.35
  -7 -15  -2    0.85    1.34
  -6 -15  -2    0.13    1.13
  -5 -15  -2    1.58    1.40
  -4 -15  -2    4.73    2.02
  -3 -15  -2   12.32    1.87
  -2 -15  -2   12.92    2.00
  -1 -15  -2    0.35    0.60
   0 -15  -2    0.47    0.70
   1 -15  -2    0.57    0.76
   2 -15  -2   13.15    2.01
   3 -15  -2   11.69    1.94
   4 -15  -2    5.09    1.37
   5 -15  -2    1.49    0.99
   6 -15  -2   -0.56    0.69
   7 -15  -2    0.03    0.84
   8 -15  -2    7.61    1.75
   9 -15  -2    2.36    2.11
  -8 -14  -2   29.49    4.20
  -7 -14  -2   -0.32    0.91
  -6 -14  -2    2.17    1.38
  -5 -14  -2    0.73    1.02
  -4 -14  -2    7.68    1.52
  -3 -14  -2    0.53    0.62
  -2 -14  -2    3.24    1.09
  -1 -14  -2   11.99    1.86
   0 -14  -2   81.20    4.01
   1 -14  -2    8.73    1.60
   2 -14  -2    2.99    0.97
   3 -14  -2    0.40    0.64
   4 -14  -2    6.76    1.19
   5 -14  -2    1.72    0.76
   6 -14  -2    2.02    0.84
   7 -14  -2    0.01    0.52
   8 -14  -2   35.05    3.56
   9 -14  -2    5.18    1.57
  -9 -13  -2    0.77    1.04
  -8 -13  -2    0.30    1.09
  -7 -13  -2    7.19    2.18
  -6 -13  -2   40.24    3.35
  -5 -13  -2   66.97    3.50
  -4 -13  -2   15.14    2.00
  -3 -13  -2    1.49    0.77
  -2 -13  -2    3.06    0.93
  -1 -13  -2    1.48    0.70
   0 -13  -2   -0.21    0.52
   1 -13  -2    1.87    0.83
   2 -13  -2    2.24    0.80
   3 -13  -2    1.92    0.79
   4 -13  -2   15.16    1.67
   5 -13  -2   72.25    3.22
   6 -13  -2   35.93    2.66
   7 -13  -2    8.32    1.33
   8 -13  -2    1.57    0.76
   9 -13  -2   -0.13    0.58
  10 -13  -2   -0.25    0.73
  11 -13  -2    0.15    1.36
  -9 -12  -2    0.14    0.76
  -8 -12  -2    1.33    0.99
  -7 -12  -2   28.74    3.98
  -6 -12  -2   11.65    1.76
  -5 -12  -2    1.56    0.73
  -4 -12  -2    8.63    1.45
  -3 -12  -2   10.92    1.60
  -2 -12  -2   46.11    3.00
  -1 -12  -2   31.87    2.75
   0 -12  -2   18.53    2.07
   1 -12  -2   31.31    2.69
   2 -12  -2   38.70    3.11
   3 -12  -2   13.66    1.52
   4 -12  -2    6.43    1.03
   5 -12  -2    0.71    0.51
   6 -12  -2    7.18    1.16
   7 -12  -2   19.59    1.91
   8 -12  -2    4.72    1.05
   9 -12  -2    0.03    0.51
  10 -12  -2    0.44    0.74
  11 -12  -2   18.84    2.58
  12 -12  -2   20.74    3.73
 -13 -11  -2    4.01    2.14
 -12 -11  -2    1.70    1.57
 -11 -11  -2    0.41    1.10
 -10 -11  -2   15.28    2.16
  -9 -11  -2   52.15    3.74
  -8 -11  -2    0.26    0.74
  -7 -11  -2    1.27    1.13
  -6 -11  -2    0.63    0.58
  -5 -11  -2    1.91    0.72
  -4 -11  -2    5.53    1.19
  -3 -11  -2   14.92    1.81
  -2 -11  -2   17.98    2.04
  -1 -11  -2   65.28    3.16
   0 -11  -2   -0.06    0.41
   1 -11  -2   64.34    3.13
   2 -11  -2   15.78    1.53
   3 -11  -2   13.10    1.41
   4 -11  -2    7.17    1.08
   5 -11  -2    1.22    0.57
   6 -11  -2    0.59    0.48
   7 -11  -2    2.77    0.76
   8 -11  -2   -0.08    0.40
   9 -11  -2   40.94    2.86
  10 -11  -2   13.64    2.04
  11 -11  -2    0.39    0.78
  12 -11  -2    0.23    0.75
  13 -11  -2    2.54    1.65
 -14 -10  -2   10.92    3.35
 -13 -10  -2   15.22    3.33
 -12 -10  -2   33.96    4.88
 -11 -10  -2    1.78    1.36
 -10 -10  -2    0.42    0.71
  -9 -10  -2    3.70    1.06
  -8 -10  -2    5.01    1.13
  -7 -10  -2    4.87    1.14
  -6 -10  -2   13.13    2.03
  -5 -10  -2    4.58    1.03
  -4 -10  -2   57.01    2.86
  -3 -10  -2   48.21    2.61
  -2 -10  -2   18.50    1.96
  -1 -10  -2   23.41    2.18
   0 -10  -2    0.61    0.50
   1 -10  -2   20.84    1.69
   2 -10  -2   16.68    1.50
   3 -10  -2   41.61    2.25
   4 -10  -2   51.17    2.28
   5 -10  -2    4.05    0.80
   6 -10  -2   10.14    1.28
   7 -10  -2    7.21    1.07
   8 -10  -2    2.13    0.70
   9 -10  -2    3.98    0.92
  10 -10  -2    0.22    0.64
  11 -10  -2    1.15    0.79
  12 -10  -2   38.93    3.66
  13 -10  -2   15.04    2.27
  14 -10  -2    9.21    2.61
 -14  -9  -2    6.52    2.34
 -13  -9  -2    1.45    1.31
 -12  -9  -2    0.91    1.34
 -11  -9  -2    9.85    2.50
 -10  -9  -2   16.26    2.08
  -9  -9  -2    0.24    0.55
  -8  -9  -2    1.19    0.71
  -7  -9  -2   31.35    2.61
  -6  -9  -2   84.39    3.41
  -5  -9  -2   12.87    1.27
  -4  -9  -2    1.67    0.52
  -3  -9  -2   38.20    2.46
  -2  -9  -2   18.55    1.91
  -1  -9  -2    1.75    0.63
   0  -9  -2    0.26    0.40
   1  -9  -2    1.39    0.47
   2  -9  -2   19.44    1.55
   3  -9  -2   34.78    1.99
   4  -9  -2    3.31    0.69
   5  -9  -2   13.54    1.29
   6  -9  -2   72.95    2.74
   7  -9  -2   31.80    2.23
   8  -9  -2    1.31    0.58
   9  -9  -2    0.91    0.55
  10  -9  -2   15.30    2.13
  11  -9  -2   12.15    1.94
  12  -9  -2    3.69    1.25
  13  -9  -2   -0.15    0.76
  14  -9  -2   12.57    2.19
 -14  -8  -2    1.59    1.24
 -13  -8  -2    3.25    1.66
 -12  -8  -2    6.86    2.23
 -11  -8  -2   14.46    1.95
 -10  -8  -2   37.10    3.06
  -9  -8  -2    5.65    1.22
  -8  -8  -2   37.82    2.93
  -7  -8  -2   17.30    1.90
  -6  -8  -2   14.73    1.70
  -5  -8  -2   17.17    1.39
  -4  -8  -2    5.24    0.78
  -3  -8  -2   31.57    1.51
  -2  -8  -2   -0.27    0.29
  -1  -8  -2   42.44    2.25
   0  -8  -2  138.00    3.42
   1  -8  -2   37.25    1.79
   2  -8  -2   -0.09    0.28
   3  -8  -2   37.29    1.82
   4  -8  -2    6.24    0.86
   5  -8  -2   14.34    1.37
   6  -8  -2   11.38    1.24
   7  -8  -2   18.10    1.62
   8  -8  -2   32.55    2.25
   9  -8  -2    6.52    1.20
  10  -8  -2   28.10    2.79
  11  -8  -2   12.66    2.03
  12  -8  -2   12.29    2.10
  13  -8  -2    2.85    1.03
  14  -8  -2    4.15    1.42
  15  -8  -2    1.30    2.08
 -15  -7  -2   -0.35    1.00
 -14  -7  -2    0.40    1.22
 -13  -7  -2   16.46    3.53
 -12  -7  -2    0.05    0.94
 -11  -7  -2   10.69    1.67
 -10  -7  -2    0.60    0.56
  -9  -7  -2   46.26    2.88
  -8  -7  -2   12.89    1.68
  -7  -7  -2   36.42    2.42
  -6  -7  -2    7.84    1.18
  -5  -7  -2   17.40    1.41
  -4  -7  -2    7.03    0.86
  -3  -7  -2  101.25    2.57
  -2  -7  -2   10.36    0.91
  -1  -7  -2   24.13    1.13
   0  -7  -2    0.07    0.26
   1  -7  -2   22.92    1.58
   2  -7  -2   10.48    1.05
   3  -7  -2  101.01    2.82
   4  -7  -2    4.88    0.76
   5  -7  -2   16.14    1.41
   6  -7  -2    7.34    0.97
   7  -7  -2   36.71    2.09
   8  -7  -2   12.98    1.13
   9  -7  -2   53.83    2.41
  10  -7  -2    0.63    0.49
  11  -7  -2   11.66    1.50
  12  -7  -2    0.06    0.47
  13  -7  -2   22.98    2.19
  14  -7  -2    0.42    0.86
  15  -7  -2    0.48    0.98
 -15  -6  -2   17.45    3.87
 -14  -6  -2   -0.30    0.92
 -13  -6  -2    6.00    2.11
 -12  -6  -2    2.24    1.41
 -11  -6  -2    1.21    0.72
 -10  -6  -2   15.07    1.88
  -9  -6  -2   24.20    2.30
  -8  -6  -2   53.00    2.68
  -7  -6  -2   43.08    2.34
  -6  -6  -2    4.23    0.86
  -5  -6  -2   45.54    1.79
  -4  -6  -2    2.26    0.47
  -3  -6  -2  190.00    3.58
  -2  -6  -2   56.38    1.97
  -1  -6  -2    1.33    0.32
   0  -6  -2   86.70    1.72
   1  -6  -2    1.59    0.28
   2  -6  -2   48.58    1.81
   3  -6  -2  191.82    3.86
   4  -6  -2    1.97    0.51
   5  -6  -2   44.23    1.57
   6  -6  -2    4.49    0.64
   7  -6  -2   45.34    1.71
   8  -6  -2   55.38    1.95
   9  -6  -2   24.01    1.95
  10  -6  -2   15.23    1.56
  11  -6  -2    0.44    0.51
  12  -6  -2    1.30    0.67
  13  -6  -2    5.22    1.15
  14  -6  -2   -0.33    0.60
  15  -6  -2   26.42    3.20
 -15  -5  -2    2.26    1.49
 -14  -5  -2    2.48    1.76
 -13  -5  -2    0.10    0.83
 -12  -5  -2    1.54    0.82
 -11  -5  -2    6.55    1.31
 -10  -5  -2   21.96    2.21
  -9  -5  -2   35.45    2.46
  -8  -5  -2    0.07    0.40
  -7  -5  -2    8.42    1.24
  -6  -5  -2  110.43    3.56
  -5  -5  -2   16.21    1.56
  -4  -5  -2   14.01    1.13
  -3  -5  -2    0.09    0.21
  -2  -5  -2   75.64    1.96
  -1  -5  -2   42.79    1.36
   0  -5  -2   -0.09    0.12
   1  -5  -2   44.08    1.10
   2  -5  -2   77.35    2.18
   3  -5  -2    0.18    0.21
   4  -5  -2   13.10    0.98
   5  -5  -2   15.77    1.11
   6  -5  -2  112.75    2.55
   7  -5  -2   10.68    0.97
   8  -5  -2   -0.03    0.26
   9  -5  -2   32.82    2.23
  10  -5  -2   22.71    1.91
  11  -5  -2    5.69    1.04
  12  -5  -2    3.37    0.81
  13  -5  -2    0.98    0.64
  14  -5  -2    6.52    1.29
  15  -5  -2    1.50    1.04
  16  -5  -2    2.24    1.95
 -16  -4  -2    1.22    1.79
 -15  -4  -2    9.40    2.59
 -14  -4  -2    3.75    1.81
 -13  -4  -2    0.27    1.05
 -12  -4  -2  115.85    4.52
 -11  -4  -2    4.05    1.03
 -10  -4  -2    8.46    1.41
  -9  -4  -2    4.91    1.03
  -8  -4  -2    0.46    0.44
  -7  -4  -2    3.64    0.83
  -6  -4  -2   49.22    2.28
  -5  -4  -2    6.11    0.94
  -4  -4  -2   58.10    1.85
  -3  -4  -2    2.66    0.46
  -2  -4  -2  134.89    2.71
  -1  -4  -2    1.50    0.30
   0  -4  -2   90.17    1.73
   1  -4  -2    1.55    0.28
   2  -4  -2  136.18    2.48
   3  -4  -2    3.37    0.48
   4  -4  -2   57.00    1.60
   5  -4  -2    4.88    0.61
   6  -4  -2   48.28    1.55
   7  -4  -2    3.01    0.50
   8  -4  -2    0.20    0.33
   9  -4  -2    3.67    0.79
  10  -4  -2    5.82    0.97
  11  -4  -2    4.04    0.90
  12  -4  -2  122.19    3.94
  13  -4  -2    0.14    0.52
  14  -4  -2    3.03    0.92
  15  -4  -2   12.80    1.74
  16  -4  -2    1.08    1.09
 -16  -3  -2    5.61    2.01
 -15  -3  -2   16.17    3.51
 -14  -3  -2    0.42    1.09
 -13  -3  -2    7.07    2.12
 -12  -3  -2    0.46    0.85
 -11  -3  -2    9.35    1.48
 -10  -3  -2    0.18    0.43
  -9  -3  -2  126.73    4.23
  -8  -3  -2   37.37    2.36
  -7  -3  -2   13.60    1.55
  -6  -3  -2  131.49    3.72
  -5  -3  -2    7.46    1.02
  -4  -3  -2   23.44    1.51
  -3  -3  -2   49.22    1.58
  -2  -3  -2    2.38    0.43
  -1  -3  -2  127.01    2.16
   0  -3  -2   -0.16    0.12
   1  -3  -2  125.90    1.87
   2  -3  -2    1.11    0.22
   3  -3  -2   50.98    1.40
   4  -3  -2   26.43    1.06
   5  -3  -2    7.89    0.70
   6  -3  -2  125.98    2.50
   7  -3  -2   13.83    0.97
   8  -3  -2   30.41    2.00
   9  -3  -2  123.21    3.49
  10  -3  -2    0.23    0.39
  11  -3  -2    8.47    1.21
  12  -3  -2    0.74    0.53
  13  -3  -2    8.69    1.33
  14  -3  -2    1.92    0.83
  15  -3  -2   14.94    1.89
  16  -3  -2    6.43    2.25
 -16  -2  -2   -0.62    1.09
 -15  -2  -2   44.71    5.51
 -14  -2  -2    5.50    1.97
 -13  -2  -2    0.03    0.95
 -12  -2  -2    5.94    1.77
 -11  -2  -2    6.40    1.86
 -10  -2  -2   20.58    2.10
  -9  -2  -2   35.55    2.35
  -8  -2  -2    3.34    0.83
  -7  -2  -2   46.62    2.24
  -6  -2  -2   28.00    1.79
  -5  -2  -2   39.51    1.88
  -4  -2  -2  123.92    3.29
  -3  -2  -2  110.78    2.45
  -2  -2  -2   14.89    1.00
  -1  -2  -2    1.63    0.25
   0  -2  -2    2.30    0.27
   1  -2  -2    1.76    0.24
   2  -2  -2   14.47    0.61
   3  -2  -2  109.47    1.85
   4  -2  -2  127.79    2.06
   5  -2  -2   41.74    1.26
   6  -2  -2   33.25    1.15
   7  -2  -2   48.85    1.88
   8  -2  -2    3.67    0.70
   9  -2  -2   39.98    1.92
  10  -2  -2   17.46    1.65
  11  -2  -2    6.23    1.04
  12  -2  -2    4.65    0.95
  13  -2  -2    1.13    0.64
  14  -2  -2    4.69    1.07
  15  -2  -2   43.20    3.94
  16  -2  -2    1.16    1.51
 -16  -1  -2    9.54    2.70
 -15  -1  -2   -0.68    0.86
 -14  -1  -2    1.61    1.33
 -13  -1  -2   22.78    3.56
 -12  -1  -2    9.73    2.27
 -11  -1  -2   16.51    2.80
 -10  -1  -2   -0.18    0.51
  -9  -1  -2    9.97    2.02
  -8  -1  -2   -0.14    0.33
  -7  -1  -2    4.53    0.85
  -6  -1  -2  116.92    3.47
  -5  -1  -2   18.19    1.54
  -4  -1  -2   79.52    1.54
  -3  -1  -2  118.22    2.11
  -2  -1  -2   21.55    0.78
  -1  -1  -2    2.74    0.27
   0  -1  -2   -0.13    0.09
   1  -1  -2    2.30    0.26
   2  -1  -2   20.78    0.63
   3  -1  -2  111.55    1.81
   4  -1  -2   77.47    1.50
   5  -1  -2   19.17    0.83
   6  -1  -2  114.63    1.93
   7  -1  -2    4.43    0.57
   8  -1  -2   -0.08    0.26
   9  -1  -2    9.72    1.19
  10  -1  -2    0.18    0.36
  11  -1  -2   22.82    1.90
  12  -1  -2   10.97    1.42
  13  -1  -2   25.27    2.19
  14  -1  -2    0.32    0.66
  15  -1  -2    0.13    0.72
  16  -1  -2    9.23    1.90
 -16   0  -2    1.48    1.49
 -15   0  -2   -0.89    0.75
 -14   0  -2   35.79    4.93
 -13   0  -2    0.77    0.94
 -12   0  -2   43.33    4.67
 -11   0  -2    0.40    0.71
 -10   0  -2  115.06    5.83
  -9   0  -2   -0.41    0.42
  -8   0  -2   88.65    4.66
  -7   0  -2   -0.27    0.34
  -6   0  -2    0.85    0.42
  -5   0  -2    0.09    0.15
  -4   0  -2    2.16    0.33
  -3   0  -2    0.04    0.15
  -2   0  -2    3.73    0.44
  -1   0  -2    0.01    0.10
   0   0  -2  984.27    7.25
   1   0  -2    0.01    0.10
   2   0  -2    4.44    0.36
   3   0  -2    0.04    0.13
   4   0  -2    2.09    0.29
   5   0  -2   -0.08    0.13
   6   0  -2    0.93    0.30
   7   0  -2   -0.04    0.21
   8   0  -2   87.35    2.30
   9   0  -2   -0.28    0.26
  10   0  -2  102.00    3.19
  11   0  -2   -0.18    0.38
  12   0  -2   35.22    2.46
  13   0  -2   -0.31    0.55
  14   0  -2   31.41    3.19
  15   0  -2    0.49    0.81
  16   0  -2    3.17    1.28
 -16   1  -2   10.96    2.80
 -15   1  -2    0.00    0.92
 -14   1  -2    0.41    0.98
 -13   1  -2   27.96    3.97
 -12   1  -2   12.01    2.39
 -11   1  -2   18.61    2.89
 -10   1  -2   -0.19    0.46
  -9   1  -2    9.42    1.91
  -8   1  -2    0.11    0.50
  -7   1  -2    4.52    1.25
  -6   1  -2  117.84    2.75
  -5   1  -2   18.11    1.04
  -4   1  -2   79.06    1.84
  -3   1  -2  114.02    2.66
  -2   1  -2   21.16    0.71
  -1   1  -2    2.75    0.30
   0   1  -2   -0.02    0.10
   1   1  -2    2.77    0.29
   2   1  -2   20.74    0.62
   3   1  -2  114.23    1.71
   4   1  -2   79.72    1.39
   5   1  -2   18.75    0.97
   6   1  -2  115.14    2.37
   7   1  -2    4.22    0.58
   8   1  -2   -0.11    0.21
   9   1  -2    8.46    0.93
  10   1  -2    0.02    0.28
  11   1  -2   15.94    1.42
  12   1  -2   12.54    1.96
  13   1  -2   25.44    2.72
  14   1  -2    0.89    0.78
  15   1  -2   -0.33    0.73
  16   1  -2    9.42    1.94
 -16   2  -2    1.45    1.32
 -15   2  -2   39.75    4.97
 -14   2  -2    3.39    1.45
 -13   2  -2    1.21    0.98
 -12   2  -2    5.62    1.71
 -11   2  -2    5.50    1.63
 -10   2  -2   21.91    3.09
  -9   2  -2   35.73    3.81
  -8   2  -2    1.31    0.81
  -7   2  -2   47.16    1.89
  -6   2  -2   33.28    1.58
  -5   2  -2   39.59    1.60
  -4   2  -2  126.65    3.04
  -3   2  -2  113.22    1.89
  -2   2  -2   13.57    0.70
  -1   2  -2    1.53    0.30
   0   2  -2    2.67    0.33
   1   2  -2    1.62    0.24
   2   2  -2   14.02    0.61
   3   2  -2  109.59    1.92
   4   2  -2  130.12    2.48
   5   2  -2   39.81    1.23
   6   2  -2   31.32    1.20
   7   2  -2   47.88    1.54
   8   2  -2    3.48    0.57
   9   2  -2   31.94    1.58
  10   2  -2   15.61    1.55
  11   2  -2    5.71    0.95
  12   2  -2    7.80    1.17
  13   2  -2    1.69    0.90
  14   2  -2    4.38    1.25
  15   2  -2   47.85    4.11
  16   2  -2    0.67    0.82
 -16   3  -2    6.24    2.39
 -15   3  -2   11.70    2.83
 -14   3  -2    0.71    1.10
 -13   3  -2    7.81    2.19
 -12   3  -2    2.44    1.25
 -11   3  -2    7.84    1.98
 -10   3  -2    0.05    0.55
  -9   3  -2  128.65    5.93
  -8   3  -2   28.13    3.14
  -7   3  -2   15.64    1.44
  -6   3  -2  119.21    3.26
  -5   3  -2    5.25    0.79
  -4   3  -2   25.21    1.47
  -3   3  -2   51.05    1.19
  -2   3  -2    1.55    0.31
  -1   3  -2  124.14    2.36
   0   3  -2    0.12    0.13
   1   3  -2  127.70    2.07
   2   3  -2    1.37    0.24
   3   3  -2   51.87    1.20
   4   3  -2   25.63    0.89
   5   3  -2    8.61    0.66
   6   3  -2  126.55    2.38
   7   3  -2   13.53    0.98
   8   3  -2   34.98    1.99
   9   3  -2  122.37    3.50
  10   3  -2    0.02    0.34
  11   3  -2    9.36    1.29
  12   3  -2    0.76    0.52
  13   3  -2    8.10    1.24
  14   3  -2    0.83    0.71
  15   3  -2    8.62    1.72
  16   3  -2    3.86    1.42
 -16   4  -2    0.75    1.28
 -15   4  -2   12.76    2.97
 -14   4  -2    4.14    1.75
 -13   4  -2   -0.47    0.76
 -12   4  -2  118.91    6.44
 -11   4  -2    3.82    1.40
 -10   4  -2    6.40    1.70
  -9   4  -2    1.92    0.91
  -8   4  -2    0.25    0.38
  -7   4  -2    2.18    0.62
  -6   4  -2   49.35    2.09
  -5   4  -2    6.17    0.91
  -4   4  -2   61.76    2.24
  -3   4  -2    3.19    0.38
  -2   4  -2  135.32    2.48
  -1   4  -2    1.59    0.33
   0   4  -2   88.74    1.55
   1   4  -2    1.20    0.24
   2   4  -2  137.16    2.31
   3   4  -2    3.71    0.54
   4   4  -2   56.09    1.83
   5   4  -2    5.83    0.77
   6   4  -2   50.16    1.91
   7   4  -2    3.30    0.64
   8   4  -2   -0.02    0.27
   9   4  -2    3.28    0.73
  10   4  -2    5.98    0.95
  11   4  -2    2.75    0.70
  12   4  -2  114.05    3.84
  13   4  -2    0.21    0.47
  14   4  -2    3.26    0.94
  15   4  -2   18.01    2.64
  16   4  -2    0.97    0.96
 -16   5  -2    4.58    1.95
 -15   5  -2    3.02    1.47
 -14   5  -2    4.50    1.64
 -13   5  -2   -0.18    0.75
 -12   5  -2    4.00    1.42
 -11   5  -2    5.65    1.58
 -10   5  -2   27.58    3.55
  -9   5  -2   38.47    3.86
  -8   5  -2   -0.09    0.33
  -7   5  -2    8.32    1.16
  -6   5  -2  108.78    3.36
  -5   5  -2   15.27    1.53
  -4   5  -2   11.96    1.27
  -3   5  -2   -0.04    0.18
  -2   5  -2   79.57    1.93
  -1   5  -2   41.36    1.44
   0   5  -2    0.19    0.21
   1   5  -2   41.46    1.11
   2   5  -2   79.08    1.94
   3   5  -2   -0.11    0.17
   4   5  -2   13.86    1.12
   5   5  -2   15.72    1.26
   6   5  -2  109.57    2.97
   7   5  -2    7.75    0.96
   8   5  -2    0.19    0.32
   9   5  -2   29.60    2.11
  10   5  -2   20.04    1.78
  11   5  -2    6.33    1.10
  12   5  -2    4.85    1.02
  13   5  -2   -0.10    0.50
  14   5  -2    6.37    1.40
  15   5  -2    3.13    1.31
  16   5  -2    5.45    2.63
 -16   6  -2   14.15    3.04
 -15   6  -2   20.61    3.50
 -14   6  -2    0.09    0.80
 -13   6  -2    3.66    1.45
 -12   6  -2    0.70    0.86
 -11   6  -2    1.68    0.97
 -10   6  -2   20.01    2.98
  -9   6  -2   26.49    2.32
  -8   6  -2   42.71    3.26
  -7   6  -2   44.01    2.22
  -6   6  -2    3.89    0.81
  -5   6  -2   46.47    2.15
  -4   6  -2    2.59    0.67
  -3   6  -2  192.48    3.36
  -2   6  -2   54.55    1.69
  -1   6  -2    1.65    0.41
   0   6  -2   88.45    2.34
   1   6  -2    1.41    0.27
   2   6  -2   55.51    1.62
   3   6  -2  194.51    3.58
   4   6  -2    1.23    0.41
   5   6  -2   42.76    1.75
   6   6  -2    4.10    0.71
   7   6  -2   43.70    1.97
   8   6  -2   53.25    2.26
   9   6  -2   19.46    1.71
  10   6  -2   15.41    1.54
  11   6  -2    0.58    0.53
  12   6  -2    1.01    0.58
  13   6  -2    5.24    1.14
  14   6  -2   -0.12    0.76
  15   6  -2   26.56    3.22
 -15   7  -2    0.04    1.19
 -14   7  -2    0.13    1.08
 -13   7  -2   25.65    3.73
 -12   7  -2   -0.06    0.79
 -11   7  -2    9.17    2.10
 -10   7  -2    0.01    0.63
  -9   7  -2   50.84    2.69
  -8   7  -2   11.07    1.44
  -7   7  -2   35.83    2.30
  -6   7  -2   10.02    1.33
  -5   7  -2   17.50    1.71
  -4   7  -2    7.64    1.15
  -3   7  -2  103.33    2.48
  -2   7  -2   10.47    0.95
  -1   7  -2   23.96    1.53
   0   7  -2   -0.02    0.23
   1   7  -2   21.72    1.49
   2   7  -2   11.60    1.41
   3   7  -2  101.46    2.55
   4   7  -2    3.45    0.62
   5   7  -2   17.11    1.41
   6   7  -2    8.70    1.07
   7   7  -2   35.96    2.05
   8   7  -2   13.90    1.48
   9   7  -2   52.27    2.39
  10   7  -2    0.42    0.44
  11   7  -2    9.87    1.36
  12   7  -2    0.01    0.50
  13   7  -2   24.05    2.26
  14   7  -2    0.17    0.79
  15   7  -2    0.36    0.95
 -13   8  -2    3.74    1.55
 -12   8  -2    9.21    2.19
 -11   8  -2   12.69    2.51
 -10   8  -2   29.93    3.61
  -9   8  -2    5.30    1.12
  -8   8  -2   29.97    2.50
  -7   8  -2   22.34    2.15
  -6   8  -2   14.83    1.64
  -5   8  -2   16.48    1.72
  -4   8  -2    5.88    1.00
  -3   8  -2   32.58    1.52
  -2   8  -2    0.07    0.25
  -1   8  -2   38.66    1.72
   0   8  -2  137.52    3.28
   1   8  -2   36.52    2.10
   2   8  -2   -0.14    0.31
   3   8  -2   37.76    2.24
   4   8  -2    5.41    0.91
   5   8  -2   15.91    1.39
   6   8  -2   10.44    1.12
   7   8  -2   20.04    1.72
   8   8  -2   29.98    2.17
   9   8  -2    4.25    0.83
  10   8  -2   31.34    2.38
  11   8  -2   13.05    1.61
  12   8  -2   10.38    1.49
  13   8  -2    1.55    1.00
  14   8  -2    3.46    1.32
  15   8  -2    1.17    1.78
 -12   9  -2    1.58    1.21
 -11   9  -2    7.57    1.92
 -10   9  -2   16.19    2.06
  -9   9  -2    0.26    0.52
  -8   9  -2    1.83    0.75
  -7   9  -2   34.89    2.70
  -6   9  -2   84.67    3.35
  -5   9  -2   14.63    1.64
  -4   9  -2    2.81    0.77
  -3   9  -2   38.91    2.14
  -2   9  -2   22.47    1.60
  -1   9  -2    1.75    0.49
   0   9  -2   -0.03    0.26
   1   9  -2    1.28    0.57
   2   9  -2   18.35    2.00
   3   9  -2   34.70    2.78
   4   9  -2    1.51    0.55
   5   9  -2   14.94    1.88
   6   9  -2   85.94    3.71
   7   9  -2   32.31    2.22
   8   9  -2    1.40    0.58
   9   9  -2    0.06    0.46
  10   9  -2   18.57    1.91
  11   9  -2   10.17    1.43
  12   9  -2    2.31    0.84
  13   9  -2   -0.43    0.79
  14   9  -2   18.46    2.73
 -10  10  -2   -0.11    0.62
  -9  10  -2    4.42    1.09
  -8  10  -2    3.97    1.03
  -7  10  -2    5.92    1.17
  -6  10  -2   12.88    1.66
  -5  10  -2    3.16    0.87
  -4  10  -2   57.22    2.74
  -3  10  -2   45.83    2.62
  -2  10  -2   13.92    1.31
  -1  10  -2   22.39    1.70
   0  10  -2    0.67    0.50
   1  10  -2   19.15    2.04
   2  10  -2   14.22    1.75
   3  10  -2   39.16    3.09
   4  10  -2   58.50    3.11
   5  10  -2    3.63    1.01
   6  10  -2   10.53    1.58
   7  10  -2    4.70    1.15
   8  10  -2    3.91    1.10
   9  10  -2    4.37    1.21
  10  10  -2    0.34    0.67
  11  10  -2    0.73    0.76
  12  10  -2   35.01    4.26
  13  10  -2    8.61    2.16
  14  10  -2    4.74    3.63
 -10  11  -2   15.23    3.22
  -9  11  -2   46.01    5.32
  -8  11  -2    0.37    0.60
  -7  11  -2    4.67    1.10
  -6  11  -2    0.82    0.54
  -5  11  -2    1.71    0.66
  -4  11  -2    5.28    1.13
  -3  11  -2   15.87    1.83
  -2  11  -2   15.60    1.46
  -1  11  -2   62.45    3.10
   0  11  -2    0.45    0.48
   1  11  -2   61.26    3.16
   2  11  -2   14.31    1.85
   3  11  -2   13.30    1.85
   4  11  -2    5.90    1.32
   5  11  -2    1.42    0.72
   6  11  -2    0.02    0.53
   7  11  -2    3.30    1.07
   8  11  -2    0.33    0.59
   9  11  -2   44.50    3.69
  10  11  -2   14.80    2.22
  11  11  -2    0.10    0.67
  12  11  -2    0.61    1.36
 -10  12  -2    0.80    1.32
  -9  12  -2   -0.40    1.04
  -8  12  -2    7.75    2.21
  -7  12  -2   17.42    3.15
  -6  12  -2   11.82    1.73
  -5  12  -2    3.41    1.01
  -4  12  -2    6.88    1.27
  -3  12  -2   12.72    1.69
  -2  12  -2   42.66    2.73
  -1  12  -2   31.96    2.88
   0  12  -2   19.98    2.26
   1  12  -2   31.83    2.86
   2  12  -2   41.38    3.25
   3  12  -2   11.70    1.79
   4  12  -2    6.96    1.40
   5  12  -2    1.51    0.76
   6  12  -2    7.61    1.48
   7  12  -2   18.83    2.38
   8  12  -2    5.55    1.35
   9  12  -2    0.48    0.63
  10  12  -2    0.19    0.65
  11  12  -2   18.49    4.05
  12  12  -2   25.49    7.21
 -10  13  -2   -1.53    1.14
  -9  13  -2    1.57    1.45
  -8  13  -2    2.19    1.53
  -7  13  -2    4.78    1.95
  -6  13  -2   37.87    5.03
  -5  13  -2   74.58    5.73
  -4  13  -2   12.70    2.77
  -3  13  -2    0.45    0.53
  -2  13  -2    6.28    2.07
  -1  13  -2    1.91    0.80
   0  13  -2    0.12    0.51
   1  13  -2    1.73    0.83
   2  13  -2    1.77    0.88
   3  13  -2    0.63    0.67
   4  13  -2   19.60    2.48
   5  13  -2   68.93    3.86
   6  13  -2   32.39    3.27
   7  13  -2    6.57    1.53
   8  13  -2    1.56    0.86
   9  13  -2   -0.04    0.70
  10  13  -2    0.20    0.90
  11  13  -2   -0.29    1.47
 -10  14  -2    7.80    2.54
  -9  14  -2    4.61    2.18
  -8  14  -2   37.58    5.23
  -7  14  -2   -0.35    1.08
  -6  14  -2    0.94    1.23
  -5  14  -2    0.15    0.96
  -4  14  -2    7.72    2.24
  -3  14  -2   -0.25    0.88
  -2  14  -2    4.04    1.60
  -1  14  -2   10.25    2.50
   0  14  -2   75.34    3.92
   1  14  -2   12.61    2.03
   2  14  -2    4.90    1.37
   3  14  -2    0.53    0.58
   4  14  -2    6.66    1.49
   5  14  -2    0.81    0.77
   6  14  -2    1.46    0.87
   7  14  -2   -0.46    0.59
   8  14  -2   39.38    3.65
   9  14  -2    2.64    1.17
  -9  15  -2    3.13    1.96
  -8  15  -2    6.05    2.61
  -7  15  -2   -1.32    1.13
  -6  15  -2   -0.43    1.20
  -5  15  -2    2.50    1.49
  -4  15  -2    0.59    1.18
  -3  15  -2   15.83    3.30
  -2  15  -2    9.54    2.60
  -1  15  -2   -1.55    0.68
   0  15  -2   -0.15    0.81
   1  15  -2   -0.66    0.58
   2  15  -2   12.93    2.15
   3  15  -2    9.63    1.77
   4  15  -2    4.00    1.26
   5  15  -2    2.34    1.14
   6  15  -2    0.23    0.80
   7  15  -2    0.08    0.80
   8  15  -2   10.21    2.04
   9  15  -2    1.53    1.47
  -7  16  -2    3.25    2.20
  -6  16  -2    2.81    1.76
  -5  16  -2    3.09    1.91
  -4  16  -2   26.45    4.30
  -3  16  -2    1.96    1.55
  -2  16  -2    1.57    1.32
  -1  16  -2    7.99    2.35
   0  16  -2   16.50    3.53
   1  16  -2    7.49    1.80
   2  16  -2    0.53    0.84
   3  16  -2    2.25    1.11
   4  16  -2   26.83    3.11
   5  16  -2    3.93    1.31
   6  16  -2   -0.04    0.87
   7  16  -2    3.46    1.33
  -4  17  -2    2.55    2.67
  -3  17  -2   -0.16    1.33
  -2  17  -2    1.22    1.49
  -1  17  -2    4.46    2.08
   0  17  -2    0.40    1.20
   1  17  -2    4.96    2.15
   2  17  -2    2.83    1.18
   3  17  -2   -0.29    0.87
   4  17  -2    2.83    1.29
   5  17  -2    9.68    2.25
  -5 -18  -1    1.09    1.55
  -4 -18  -1    6.29    2.33
  -3 -18  -1    5.22    2.11
  -2 -18  -1    1.68    1.56
  -1 -18  -1    1.54    1.46
   0 -18  -1    1.73    1.73
   1 -18  -1    0.58    1.38
   2 -18  -1    2.60    1.93
   3 -18  -1    4.10    2.79
  -6 -17  -1   -0.53    1.25
  -5 -17  -1    0.76    1.19
  -4 -17  -1    6.13    2.31
  -3 -17  -1    4.07    1.73
  -2 -17  -1    4.05    1.89
  -1 -17  -1   36.03    4.90
   0 -17  -1    0.38    1.24
   1 -17  -1   29.15    4.64
   2 -17  -1    5.78    2.16
   3 -17  -1    5.63    2.02
   4 -17  -1    4.43    2.01
   5 -17  -1    1.13    1.03
   6 -17  -1    0.05    0.84
   7 -17  -1    4.24    1.92
  -6 -16  -1    0.83    1.14
  -5 -16  -1    2.05    1.46
  -4 -16  -1   -0.48    0.94
  -3 -16  -1   23.85    3.99
  -2 -16  -1   19.25    3.46
  -1 -16  -1    8.94    2.45
   0 -16  -1   44.47    5.44
   1 -16  -1   13.65    3.11
   2 -16  -1   30.10    4.67
   3 -16  -1   21.43    2.57
   4 -16  -1    0.29    0.70
   5 -16  -1    2.03    1.05
   6 -16  -1    3.19    1.17
   7 -16  -1   10.50    1.94
   8 -16  -1    0.92    0.90
   9 -16  -1    2.23    1.43
  -7 -15  -1    0.06    1.11
  -6 -15  -1   41.70    4.82
  -5 -15  -1   42.08    4.99
  -4 -15  -1   14.28    2.92
  -3 -15  -1   10.88    2.60
  -2 -15  -1    4.00    1.68
  -1 -15  -1    0.68    0.97
   0 -15  -1   -0.40    0.88
   1 -15  -1    0.25    0.60
   2 -15  -1    2.83    0.97
   3 -15  -1    9.04    1.65
   4 -15  -1   12.44    1.94
   5 -15  -1   39.64    3.54
   6 -15  -1   30.53    3.18
   7 -15  -1   -0.03    0.70
   8 -15  -1    0.34    0.84
   9 -15  -1    0.07    0.87
  10 -15  -1    1.17    1.19
  -7 -14  -1    0.45    1.07
  -6 -14  -1    0.79    0.86
  -5 -14  -1    2.01    1.11
  -4 -14  -1   32.70    4.28
  -3 -14  -1    0.98    0.99
  -2 -14  -1    3.68    1.56
  -1 -14  -1   16.06    2.04
   0 -14  -1   55.83    3.06
   1 -14  -1   12.83    1.81
   2 -14  -1    3.27    0.98
   3 -14  -1    0.78    0.60
   4 -14  -1   29.17    2.83
   5 -14  -1    1.63    0.74
   6 -14  -1    0.08    0.65
   7 -14  -1    0.10    0.54
   8 -14  -1   31.86    3.23
   9 -14  -1    7.74    1.69
  10 -14  -1    1.79    1.04
  11 -14  -1    1.43    1.14
 -12 -13  -1    2.28    1.69
 -11 -13  -1   25.52    4.18
 -10 -13  -1   29.98    4.68
  -7 -13  -1    7.27    1.96
  -6 -13  -1    0.77    0.87
  -5 -13  -1    0.33    0.72
  -4 -13  -1    4.56    1.55
  -3 -13  -1   66.37    3.26
  -2 -13  -1   27.10    2.42
  -1 -13  -1    0.07    0.46
   0 -13  -1   -0.19    0.33
   1 -13  -1   -0.17    0.45
   2 -13  -1   23.76    2.41
   3 -13  -1   67.25    3.37
   4 -13  -1    3.27    0.75
   5 -13  -1    0.60    0.60
   6 -13  -1    0.70    0.64
   7 -13  -1    5.93    1.42
   8 -13  -1   18.29    2.44
   9 -13  -1    8.72    1.75
  10 -13  -1   20.73    4.00
  11 -13  -1   22.28    2.86
  12 -13  -1    0.89    1.49
 -13 -12  -1    0.18    1.44
 -12 -12  -1    0.42    1.27
 -11 -12  -1    7.89    2.46
 -10 -12  -1   12.82    2.92
  -9 -12  -1    7.89    2.38
  -8 -12  -1    3.72    1.04
  -7 -12  -1   21.41    2.25
  -6 -12  -1    0.75    0.73
  -5 -12  -1   15.42    2.74
  -4 -12  -1   45.07    2.62
  -3 -12  -1   20.84    2.02
  -2 -12  -1    3.76    0.89
  -1 -12  -1    1.09    0.58
   0 -12  -1   30.21    2.53
   1 -12  -1    0.55    0.47
   2 -12  -1    6.00    1.18
   3 -12  -1   19.37    1.65
   4 -12  -1   38.68    2.15
   5 -12  -1   14.86    1.49
   6 -12  -1    0.11    0.43
   7 -12  -1   18.59    1.74
   8 -12  -1    2.93    1.06
   9 -12  -1    6.10    1.31
  10 -12  -1   16.65    2.30
  11 -12  -1    6.64    1.58
  12 -12  -1    0.57    1.16
 -14 -11  -1   -1.23    1.11
 -13 -11  -1    1.08    1.49
 -12 -11  -1    0.40    1.05
 -11 -11  -1   -0.32    0.88
 -10 -11  -1    1.18    0.97
  -9 -11  -1   22.76    3.61
  -8 -11  -1    0.90    0.61
  -7 -11  -1   84.56    3.53
  -6 -11  -1   32.18    2.63
  -5 -11  -1   10.75    1.18
  -4 -11  -1   12.75    1.26
  -3 -11  -1    0.20    0.44
  -2 -11  -1   14.13    1.58
  -1 -11  -1   55.86    2.64
   0 -11  -1   -0.50    0.28
   1 -11  -1   50.51    2.59
   2 -11  -1   14.07    1.31
   3 -11  -1   -0.01    0.30
   4 -11  -1   10.98    1.19
   5 -11  -1    9.73    1.19
   6 -11  -1   34.00    2.23
   7 -11  -1   85.73    2.98
   8 -11  -1    0.86    0.48
   9 -11  -1   25.73    2.14
  10 -11  -1    0.42    0.51
  11 -11  -1    0.30    0.70
  12 -11  -1    0.50    1.14
  13 -11  -1    1.84    1.41
 -14 -10  -1    8.46    2.60
 -13 -10  -1   10.02    2.70
 -12 -10  -1   10.12    2.63
 -11 -10  -1   41.89    5.03
 -10 -10  -1    0.10    0.83
  -9 -10  -1    5.81    1.34
  -8 -10  -1    3.37    0.93
  -7 -10  -1    1.80    0.69
  -6 -10  -1   21.90    2.10
  -5 -10  -1    3.40    0.66
  -4 -10  -1   80.98    2.44
  -3 -10  -1   13.99    1.24
  -2 -10  -1    0.01    0.30
  -1 -10  -1   62.16    2.67
   0 -10  -1   22.20    1.97
   1 -10  -1   65.61    2.80
   2 -10  -1    0.01    0.25
   3 -10  -1   11.88    1.17
   4 -10  -1   79.10    2.58
   5 -10  -1    1.51    0.50
   6 -10  -1   21.22    1.70
   7 -10  -1    0.58    0.43
   8 -10  -1    4.39    0.88
   9 -10  -1    3.77    0.84
  10 -10  -1    0.30    0.50
  11 -10  -1   34.80    2.55
  12 -10  -1    8.65    1.67
  13 -10  -1   10.35    2.91
  14 -10  -1    9.56    2.87
 -15  -9  -1    2.20    1.71
 -14  -9  -1    5.86    2.36
 -13  -9  -1    1.35    1.25
 -12  -9  -1   -0.58    0.85
 -11  -9  -1    0.38    1.01
 -10  -9  -1   21.75    3.43
  -9  -9  -1   64.98    3.11
  -8  -9  -1   25.73    2.29
  -7  -9  -1    4.32    0.97
  -6  -9  -1   20.64    1.94
  -5  -9  -1   71.91    2.29
  -4  -9  -1   -0.22    0.23
  -3  -9  -1    0.08    0.26
  -2  -9  -1  138.45    3.04
  -1  -9  -1   41.34    1.51
   0  -9  -1   -0.03    0.24
   1  -9  -1   39.67    1.65
   2  -9  -1  135.46    3.21
   3  -9  -1    0.08    0.26
   4  -9  -1    0.34    0.28
   5  -9  -1   68.54    2.37
   6  -9  -1   21.03    1.66
   7  -9  -1    4.51    0.82
   8  -9  -1   29.49    2.05
   9  -9  -1   67.58    2.68
  10  -9  -1   25.99    2.11
  11  -9  -1    0.85    0.67
  12  -9  -1    1.00    0.73
  13  -9  -1    0.15    0.70
  14  -9  -1   10.01    1.94
  15  -9  -1    9.29    4.27
 -15  -8  -1    4.51    2.00
 -14  -8  -1    0.46    1.25
 -13  -8  -1    1.70    1.30
 -12  -8  -1    4.01    1.60
 -11  -8  -1   14.26    2.97
 -10  -8  -1    1.70    1.29
  -9  -8  -1   18.03    1.89
  -8  -8  -1   48.84    2.49
  -7  -8  -1   21.63    1.93
  -6  -8  -1   -0.02    0.31
  -5  -8  -1   25.80    1.62
  -4  -8  -1   26.72    1.45
  -3  -8  -1   36.45    1.46
  -2  -8  -1   70.91    2.00
  -1  -8  -1   27.48    1.20
   0  -8  -1   22.82    0.97
   1  -8  -1   28.00    1.37
   2  -8  -1   74.52    2.19
   3  -8  -1   32.48    1.46
   4  -8  -1   27.31    1.54
   5  -8  -1   29.51    1.65
   6  -8  -1   -0.26    0.25
   7  -8  -1   20.76    1.65
   8  -8  -1   43.02    1.99
   9  -8  -1   19.84    1.69
  10  -8  -1    1.55    0.57
  11  -8  -1   15.93    2.06
  12  -8  -1    3.59    1.04
  13  -8  -1    2.27    0.96
  14  -8  -1    2.87    1.10
  15  -8  -1    7.03    1.71
  16  -8  -1    7.99    2.58
 -15  -7  -1    8.71    2.56
 -14  -7  -1   -0.16    0.88
 -13  -7  -1   49.68    5.53
 -12  -7  -1    0.14    0.79
 -11  -7  -1    4.70    1.55
 -10  -7  -1    0.18    0.70
  -9  -7  -1    2.13    0.69
  -8  -7  -1   15.39    1.72
  -7  -7  -1   16.73    1.69
  -6  -7  -1   17.12    1.65
  -5  -7  -1  235.45    4.20
  -4  -7  -1    5.08    0.65
  -3  -7  -1   19.80    1.26
  -2  -7  -1   14.31    1.02
  -1  -7  -1    6.60    0.65
   0  -7  -1    0.18    0.16
   1  -7  -1    7.01    0.77
   2  -7  -1   13.13    1.02
   3  -7  -1   21.74    1.37
   4  -7  -1    3.51    0.55
   5  -7  -1  231.03    4.36
   6  -7  -1   15.40    1.29
   7  -7  -1   16.59    1.40
   8  -7  -1   15.25    1.38
   9  -7  -1    2.80    0.70
  10  -7  -1    0.66    0.48
  11  -7  -1    5.15    1.17
  12  -7  -1    0.18    0.58
  13  -7  -1   67.07    4.06
  14  -7  -1    0.21    0.67
  15  -7  -1    6.44    1.70
  16  -7  -1    1.83    1.20
 -16  -6  -1    3.57    1.83
 -15  -6  -1   -0.03    0.96
 -14  -6  -1    1.43    1.36
 -13  -6  -1   37.37    4.87
 -12  -6  -1    7.84    2.13
 -11  -6  -1   80.48    5.38
 -10  -6  -1   18.93    1.91
  -9  -6  -1    1.02    0.56
  -8  -6  -1   39.91    2.34
  -7  -6  -1   15.12    1.54
  -6  -6  -1    4.24    0.82
  -5  -6  -1   14.59    1.41
  -4  -6  -1    0.11    0.23
  -3  -6  -1    4.10    0.51
  -2  -6  -1    2.22    0.40
  -1  -6  -1  242.69    3.63
   0  -6  -1  109.55    1.78
   1  -6  -1  246.12    3.93
   2  -6  -1    2.10    0.42
   3  -6  -1    4.12    0.58
   4  -6  -1    0.03    0.22
   5  -6  -1   11.54    1.03
   6  -6  -1    5.25    0.76
   7  -6  -1   14.49    1.08
   8  -6  -1   40.18    1.55
   9  -6  -1    1.45    0.44
  10  -6  -1   19.92    1.45
  11  -6  -1   78.61    2.89
  12  -6  -1    8.61    1.28
  13  -6  -1   46.50    3.76
  14  -6  -1    0.45    0.71
  15  -6  -1   -0.36    0.68
  16  -6  -1    6.68    1.73
 -16  -5  -1    0.33    1.21
 -15  -5  -1   -0.26    1.03
 -14  -5  -1   10.75    2.66
 -13  -5  -1    0.51    0.90
 -12  -5  -1    4.68    1.65
 -11  -5  -1    9.81    2.29
 -10  -5  -1   59.74    2.71
  -9  -5  -1    7.06    1.12
  -8  -5  -1   10.64    1.29
  -7  -5  -1   87.11    3.02
  -6  -5  -1   34.42    1.78
  -5  -5  -1    2.35    0.60
  -4  -5  -1    3.32    0.50
  -3  -5  -1   97.75    2.15
  -2  -5  -1  173.31    2.89
  -1  -5  -1    9.09    0.68
   0  -5  -1    0.03    0.12
   1  -5  -1    8.63    0.74
   2  -5  -1  168.17    3.03
   3  -5  -1   98.55    2.24
   4  -5  -1    3.01    0.44
   5  -5  -1    2.19    0.39
   6  -5  -1   36.37    1.30
   7  -5  -1   88.72    2.16
   8  -5  -1   12.67    1.04
   9  -5  -1    6.58    0.76
  10  -5  -1   58.17    2.31
  11  -5  -1   12.96    1.42
  12  -5  -1    3.38    0.84
  13  -5  -1    0.56    0.67
  14  -5  -1   23.04    2.72
  15  -5  -1   -0.51    0.61
  16  -5  -1    0.08    0.83
 -16  -4  -1   10.80    2.90
 -15  -4  -1   -0.12    1.00
 -14  -4  -1   50.94    5.90
 -13  -4  -1   -0.64    0.56
 -12  -4  -1    1.47    1.06
 -11  -4  -1    7.27    1.95
 -10  -4  -1    8.06    1.20
  -9  -4  -1    5.08    0.92
  -8  -4  -1   28.61    1.83
  -7  -4  -1   16.20    1.48
  -6  -4  -1   30.57    1.61
  -5  -4  -1    1.08    0.41
  -4  -4  -1  257.80    4.90
  -3  -4  -1   12.16    0.87
  -2  -4  -1   32.00    1.05
  -1  -4  -1   32.00    0.97
   0  -4  -1   20.02    0.59
   1  -4  -1   29.73    1.07
   2  -4  -1   33.68    1.14
   3  -4  -1   13.02    0.81
   4  -4  -1  260.62    3.51
   5  -4  -1    0.74    0.26
   6  -4  -1   27.57    1.09
   7  -4  -1   17.74    1.13
   8  -4  -1   28.40    1.33
   9  -4  -1    4.50    0.67
  10  -4  -1    7.20    0.99
  11  -4  -1    7.68    1.04
  12  -4  -1    1.81    0.64
  13  -4  -1    0.55    0.57
  14  -4  -1   52.72    4.06
  15  -4  -1    1.14    0.86
  16  -4  -1   12.18    2.16
  17  -4  -1    0.50    1.10
 -17  -3  -1   31.80    7.20
 -16  -3  -1    3.63    1.86
 -15  -3  -1    3.71    1.63
 -14  -3  -1    3.65    1.58
 -13  -3  -1   -0.31    0.84
 -12  -3  -1    0.84    1.01
 -11  -3  -1   12.65    2.56
 -10  -3  -1   32.23    2.10
  -9  -3  -1   43.27    2.14
  -8  -3  -1   46.41    2.13
  -7  -3  -1  207.76    3.10
  -6  -3  -1    4.31    0.39
  -5  -3  -1   99.86    2.79
  -4  -3  -1   38.17    1.55
  -3  -3  -1   14.03    0.87
  -2  -3  -1  174.39    2.70
  -1  -3  -1  283.91    3.60
   0  -3  -1    0.12    0.11
   1  -3  -1  291.53    2.99
   2  -3  -1  170.93    2.39
   3  -3  -1   14.25    0.72
   4  -3  -1   37.35    1.07
   5  -3  -1  100.77    1.95
   6  -3  -1    2.88    0.42
   7  -3  -1  198.42    3.21
   8  -3  -1   49.51    1.55
   9  -3  -1   43.13    1.52
  10  -3  -1   36.10    2.00
  11  -3  -1   12.65    1.38
  12  -3  -1    1.13    0.50
  13  -3  -1    0.10    0.39
  14  -3  -1    4.41    1.24
  15  -3  -1    5.22    1.34
  16  -3  -1    1.67    1.10
  17  -3  -1   37.32    3.79
 -17  -2  -1    0.94    1.34
 -16  -2  -1    0.34    0.89
 -15  -2  -1    3.01    1.72
 -14  -2  -1   -0.58    0.57
 -13  -2  -1   11.28    2.53
 -12  -2  -1   31.44    4.06
 -11  -2  -1   82.33    5.15
 -10  -2  -1    6.89    1.70
  -9  -2  -1    1.70    0.55
  -8  -2  -1    0.32    0.33
  -7  -2  -1   47.69    1.25
  -6  -2  -1    1.21    0.41
  -5  -2  -1    3.03    0.58
  -4  -2  -1   37.38    2.17
  -3  -2  -1   22.46    1.07
  -2  -2  -1   65.88    1.43
  -1  -2  -1  263.06    3.96
   0  -2  -1    2.31    0.25
   1  -2  -1  268.88    2.52
   2  -2  -1   66.63    1.25
   3  -2  -1   20.80    0.71
   4  -2  -1   37.40    1.02
   5  -2  -1    2.66    0.34
   6  -2  -1    2.40    0.37
   7  -2  -1   45.61    1.35
   8  -2  -1    0.21    0.22
   9  -2  -1    2.02    0.52
  10  -2  -1    7.06    0.96
  11  -2  -1   85.40    2.87
  12  -2  -1   33.46    2.29
  13  -2  -1   10.68    1.36
  14  -2  -1    0.23    0.66
  15  -2  -1    1.37    0.88
  16  -2  -1    0.59    0.82
  17  -2  -1    0.51    0.99
 -17  -1  -1    3.30    1.93
 -16  -1  -1    1.92    1.54
 -15  -1  -1    9.00    2.46
 -14  -1  -1   25.20    3.94
 -13  -1  -1   21.27    3.44
 -12  -1  -1    3.39    1.34
 -11  -1  -1   17.40    2.84
 -10  -1  -1   66.63    4.29
  -9  -1  -1    2.27    0.98
  -8  -1  -1   44.49    1.63
  -7  -1  -1    0.05    0.17
  -6  -1  -1    0.45    0.20
  -5  -1  -1  269.66    3.42
  -4  -1  -1   33.54    1.39
  -3  -1  -1   91.55    2.20
  -2  -1  -1   66.61    1.41
  -1  -1  -1    3.37    0.28
   0  -1  -1    0.01    0.09
   1  -1  -1    3.09    0.23
   2  -1  -1   66.67    1.05
   3  -1  -1   87.96    1.31
   4  -1  -1   37.16    0.92
   5  -1  -1  267.03    2.95
   6  -1  -1    0.55    0.20
   7  -1  -1    0.16    0.16
   8  -1  -1   45.36    1.33
   9  -1  -1    3.87    0.71
  10  -1  -1   68.15    2.43
  11  -1  -1   17.17    1.52
  12  -1  -1    5.57    0.98
  13  -1  -1   25.49    2.11
  14  -1  -1   23.26    2.10
  15  -1  -1    7.94    1.64
  16  -1  -1    2.72    1.20
  17  -1  -1    1.21    1.43
 -17   0  -1    0.83    1.23
 -16   0  -1   62.78    6.33
 -15   0  -1   -0.14    1.06
 -14   0  -1   18.31    3.25
 -13   0  -1   -0.10    0.61
 -12   0  -1    0.17    0.63
 -11   0  -1    0.76    0.73
 -10   0  -1    5.05    1.46
  -9   0  -1   -0.16    0.41
  -8   0  -1  252.88    4.92
  -7   0  -1    0.06    0.19
  -6   0  -1   35.53    1.30
  -5   0  -1    0.12    0.13
  -4   0  -1  231.64    3.05
  -3   0  -1    0.05    0.12
  -2   0  -1  238.70    2.91
  -1   0  -1   -0.02    0.09
   0   0  -1   11.75    0.33
   1   0  -1    0.13    0.09
   2   0  -1  242.20    2.33
   3   0  -1   -0.07    0.09
   4   0  -1  226.77    2.38
   5   0  -1   -0.01    0.10
   6   0  -1   35.70    0.82
   7   0  -1    0.01    0.13
   8   0  -1  257.93    3.93
   9   0  -1    0.09    0.28
  10   0  -1    5.55    0.79
  11   0  -1   -0.24    0.29
  12   0  -1    0.13    0.38
  13   0  -1   -0.07    0.42
  14   0  -1   23.12    2.07
  15   0  -1   -0.16    0.71
  16   0  -1   67.93    7.24
  17   0  -1    0.44    1.25
 -17   1  -1    1.33    1.45
 -16   1  -1    1.94    1.41
 -15   1  -1    8.68    2.47
 -14   1  -1   19.00    3.28
 -13   1  -1   30.86    4.13
 -12   1  -1    4.57    1.60
 -11   1  -1   12.97    2.37
 -10   1  -1   71.42    4.26
  -9   1  -1    2.70    0.64
  -8   1  -1   43.81    1.82
  -7   1  -1    0.31    0.26
  -6   1  -1    0.55    0.26
  -5   1  -1  261.04    4.43
  -4   1  -1   36.64    1.22
  -3   1  -1   92.47    1.97
  -2   1  -1   69.78    1.58
  -1   1  -1    2.80    0.25
   0   1  -1    0.01    0.08
   1   1  -1    2.54    0.20
   2   1  -1   68.44    1.27
   3   1  -1   91.83    1.49
   4   1  -1   35.81    0.98
   5   1  -1  265.16    3.42
   6   1  -1    0.52    0.22
   7   1  -1    0.29    0.22
   8   1  -1   45.20    1.49
   9   1  -1    3.30    0.54
  10   1  -1   70.69    2.45
  11   1  -1   20.26    1.70
  12   1  -1    5.47    0.91
  13   1  -1   25.77    2.08
  14   1  -1   22.07    2.05
  15   1  -1    9.67    2.78
  16   1  -1    1.68    1.43
  17   1  -1   -0.07    1.09
 -17   2  -1   -0.28    0.97
 -16   2  -1   -0.40    0.98
 -15   2  -1    3.87    1.64
 -14   2  -1   -0.03    0.78
 -13   2  -1    7.47    1.93
 -12   2  -1   28.60    3.68
 -11   2  -1   90.42    5.01
 -10   2  -1    9.35    1.29
  -9   2  -1    2.17    0.60
  -8   2  -1    0.12    0.30
  -7   2  -1   44.91    1.80
  -6   2  -1    1.38    0.41
  -5   2  -1    4.27    0.62
  -4   2  -1   41.19    1.42
  -3   2  -1   22.37    1.00
  -2   2  -1   67.37    1.15
  -1   2  -1  264.69    3.19
   0   2  -1    2.13    0.22
   1   2  -1  265.42    2.44
   2   2  -1   66.70    1.06
   3   2  -1   23.99    0.74
   4   2  -1   40.45    1.02
   5   2  -1    4.18    0.43
   6   2  -1    2.02    0.37
   7   2  -1   48.01    1.43
   8   2  -1   -0.02    0.19
   9   2  -1    1.53    0.38
  10   2  -1    7.24    0.82
  11   2  -1   87.48    2.45
  12   2  -1   26.42    2.02
  13   2  -1   10.44    1.34
  14   2  -1    0.05    0.64
  15   2  -1    2.67    1.00
  16   2  -1    0.12    1.15
  17   2  -1   -0.14    1.44
 -17   3  -1   26.95    3.98
 -16   3  -1    2.35    1.60
 -15   3  -1    2.45    1.32
 -14   3  -1    4.34    1.61
 -13   3  -1   -0.10    0.69
 -12   3  -1    0.25    0.76
 -11   3  -1    9.54    2.10
 -10   3  -1   36.28    1.98
  -9   3  -1   43.73    2.07
  -8   3  -1   49.32    2.08
  -7   3  -1  200.36    3.08
  -6   3  -1    4.15    0.42
  -5   3  -1  103.45    1.74
  -4   3  -1   38.77    1.48
  -3   3  -1   14.11    0.58
  -2   3  -1  174.67    2.47
  -1   3  -1  283.45    3.60
   0   3  -1    0.04    0.09
   1   3  -1  287.42    3.12
   2   3  -1  176.94    2.73
   3   3  -1   14.44    0.50
   4   3  -1   38.18    1.05
   5   3  -1  105.59    1.90
   6   3  -1    3.18    0.43
   7   3  -1  193.36    3.19
   8   3  -1   47.81    1.54
   9   3  -1   40.39    1.50
  10   3  -1   39.02    1.58
  11   3  -1   10.74    1.02
  12   3  -1    0.07    0.37
  13   3  -1    0.20    0.53
  14   3  -1    5.16    1.19
  15   3  -1    5.01    1.31
  16   3  -1    3.61    1.79
 -17   4  -1    0.70    1.37
 -16   4  -1   10.64    2.52
 -15   4  -1    0.30    0.78
 -14   4  -1   52.77    4.27
 -13   4  -1    0.55    0.87
 -12   4  -1    1.98    1.08
 -11   4  -1    7.55    1.82
 -10   4  -1    7.96    1.24
  -9   4  -1    4.63    0.86
  -8   4  -1   28.56    1.79
  -7   4  -1   17.85    0.88
  -6   4  -1   32.47    1.03
  -5   4  -1    0.61    0.19
  -4   4  -1  262.93    3.54
  -3   4  -1   11.84    0.65
  -2   4  -1   32.16    1.00
  -1   4  -1   32.03    1.02
   0   4  -1   18.91    0.54
   1   4  -1   31.12    0.83
   2   4  -1   31.21    1.06
   3   4  -1   10.45    0.81
   4   4  -1  266.13    3.17
   5   4  -1    1.13    0.26
   6   4  -1   31.07    1.08
   7   4  -1   19.35    1.03
   8   4  -1   27.64    1.26
   9   4  -1    3.05    0.53
  10   4  -1    9.20    0.94
  11   4  -1    8.36    1.13
  12   4  -1    1.40    0.52
  13   4  -1   -0.50    0.42
  14   4  -1   53.86    3.61
  15   4  -1    0.05    0.67
  16   4  -1    8.96    2.79
 -16   5  -1   -0.76    1.07
 -15   5  -1   -0.74    0.75
 -14   5  -1   25.27    3.73
 -13   5  -1    1.84    1.06
 -12   5  -1    3.40    1.30
 -11   5  -1   10.54    1.37
 -10   5  -1   61.17    2.73
  -9   5  -1    7.73    1.17
  -8   5  -1   11.87    1.33
  -7   5  -1   87.66    2.92
  -6   5  -1   36.18    1.19
  -5   5  -1    2.02    0.37
  -4   5  -1    3.60    0.46
  -3   5  -1   97.46    2.01
  -2   5  -1  167.54    2.81
  -1   5  -1    9.59    0.76
   0   5  -1    0.19    0.12
   1   5  -1    8.71    0.58
   2   5  -1  168.06    2.90
   3   5  -1  101.35    2.28
   4   5  -1    3.63    0.55
   5   5  -1    2.45    0.34
   6   5  -1   34.79    1.15
   7   5  -1   89.01    2.03
   8   5  -1   10.26    0.92
   9   5  -1    6.88    0.92
  10   5  -1   55.63    2.29
  11   5  -1   10.20    1.25
  12   5  -1    4.04    0.90
  13   5  -1    0.27    0.57
  14   5  -1   19.80    2.48
  15   5  -1   -0.02    0.69
  16   5  -1    0.41    0.85
 -14   6  -1    0.18    0.87
 -13   6  -1   48.99    3.93
 -12   6  -1    5.92    1.62
 -11   6  -1   76.50    3.26
 -10   6  -1   18.48    1.91
  -9   6  -1    0.54    0.47
  -8   6  -1   46.25    2.20
  -7   6  -1   14.79    1.48
  -6   6  -1    4.26    0.56
  -5   6  -1   13.77    0.98
  -4   6  -1    0.32    0.20
  -3   6  -1    4.96    0.58
  -2   6  -1    2.56    0.43
  -1   6  -1  241.73    3.79
   0   6  -1  107.38    1.78
   1   6  -1  245.21    3.70
   2   6  -1    1.98    0.38
   3   6  -1    3.81    0.54
   4   6  -1    0.43    0.26
   5   6  -1   12.81    0.66
   6   6  -1    2.85    0.58
   7   6  -1   14.29    1.27
   8   6  -1   42.73    1.89
   9   6  -1    1.18    0.47
  10   6  -1   20.09    1.67
  11   6  -1   76.58    2.87
  12   6  -1    7.48    1.52
  13   6  -1   45.59    3.76
  14   6  -1   -0.09    0.64
  15   6  -1   -0.62    0.71
  16   6  -1    6.44    1.59
 -13   7  -1   55.44    5.52
 -12   7  -1    0.07    0.50
 -11   7  -1    8.96    1.46
 -10   7  -1    0.58    0.46
  -9   7  -1    2.00    0.62
  -8   7  -1   14.46    1.51
  -7   7  -1   19.98    1.74
  -6   7  -1   17.92    1.07
  -5   7  -1  236.24    3.93
  -4   7  -1    4.19    0.58
  -3   7  -1   20.31    0.72
  -2   7  -1   13.58    0.59
  -1   7  -1    7.19    0.45
   0   7  -1    0.12    0.15
   1   7  -1    7.22    0.72
   2   7  -1   12.17    0.98
   3   7  -1   19.24    1.29
   4   7  -1    5.82    0.76
   5   7  -1  236.73    4.41
   6   7  -1   17.80    1.44
   7   7  -1   16.32    1.38
   8   7  -1   15.63    1.42
   9   7  -1    2.69    0.69
  10   7  -1    0.15    0.41
  11   7  -1    7.28    1.11
  12   7  -1   -0.06    0.50
  13   7  -1   62.24    3.97
  14   7  -1    0.21    0.72
  15   7  -1    5.15    1.42
  16   7  -1    2.48    1.37
 -12   8  -1    1.98    1.32
 -11   8  -1   13.52    1.76
 -10   8  -1    2.57    0.82
  -9   8  -1   22.95    2.12
  -8   8  -1   44.45    2.27
  -7   8  -1   20.36    1.81
  -6   8  -1    0.25    0.34
  -5   8  -1   24.74    1.25
  -4   8  -1   31.01    1.37
  -3   8  -1   32.57    1.35
  -2   8  -1   73.87    1.50
  -1   8  -1   29.63    0.96
   0   8  -1   22.28    1.08
   1   8  -1   28.13    1.20
   2   8  -1   72.78    2.08
   3   8  -1   31.48    1.50
   4   8  -1   30.07    1.53
   5   8  -1   26.76    1.60
   6   8  -1    0.06    0.28
   7   8  -1   17.84    1.50
   8   8  -1   44.14    2.15
   9   8  -1   21.78    1.86
  10   8  -1    0.84    0.47
  11   8  -1   14.58    2.12
  12   8  -1    7.51    1.60
  13   8  -1    2.18    0.99
  14   8  -1    1.53    0.97
  15   8  -1    5.99    1.58
 -12   9  -1    1.12    1.29
 -11   9  -1    1.34    1.15
 -10   9  -1   30.15    3.93
  -9   9  -1   69.23    3.33
  -8   9  -1   27.24    2.24
  -7   9  -1    2.80    0.74
  -6   9  -1   21.66    1.85
  -5   9  -1   71.18    2.17
  -4   9  -1    0.04    0.25
  -3   9  -1   -0.14    0.23
  -2   9  -1  142.08    3.66
  -1   9  -1   37.62    1.56
   0   9  -1   -0.02    0.24
   1   9  -1   40.22    1.51
   2   9  -1  136.95    3.12
   3   9  -1    0.03    0.22
   4   9  -1    0.37    0.33
   5   9  -1   76.30    2.50
   6   9  -1   20.07    1.65
   7   9  -1    3.06    0.73
   8   9  -1   28.71    2.07
   9   9  -1   63.16    2.62
  10   9  -1   26.35    2.09
  11   9  -1   -0.31    0.53
  12   9  -1    2.10    1.00
  13   9  -1   -0.10    0.73
  14   9  -1    8.53    1.84
  15   9  -1    8.81    1.91
 -12  10  -1    9.11    2.39
 -11  10  -1   45.54    5.30
 -10  10  -1    2.74    1.37
  -9  10  -1    7.29    2.01
  -8  10  -1    1.58    1.04
  -7  10  -1    0.33    0.65
  -6  10  -1   26.01    2.11
  -5  10  -1    3.14    0.60
  -4  10  -1   81.72    2.42
  -3  10  -1   12.15    1.11
  -2  10  -1   -0.13    0.22
  -1  10  -1   60.19    2.74
   0  10  -1   23.75    2.12
   1  10  -1   57.66    2.72
   2  10  -1   -0.11    0.33
   3  10  -1   11.36    1.15
   4  10  -1   78.28    2.57
   5  10  -1    2.45    0.60
   6  10  -1   21.77    1.74
   7  10  -1    1.16    0.48
   8  10  -1    4.13    0.88
   9  10  -1    2.67    0.75
  10  10  -1    0.78    0.72
  11  10  -1   39.97    3.61
  12  10  -1    8.07    1.58
  13  10  -1   13.56    2.24
  14  10  -1    9.41    1.87
 -12  11  -1   -0.96    1.14
 -11  11  -1    0.00    1.06
 -10  11  -1    2.49    1.47
  -9  11  -1   26.89    3.99
  -8  11  -1    1.47    1.07
  -7  11  -1   86.07    5.61
  -6  11  -1   32.07    4.04
  -5  11  -1   12.48    2.60
  -4  11  -1   11.50    1.16
  -3  11  -1    0.52    0.35
  -2  11  -1   18.18    1.84
  -1  11  -1   58.74    2.83
   0  11  -1    0.28    0.43
   1  11  -1   52.63    2.73
   2  11  -1   18.65    2.05
   3  11  -1    1.10    0.55
   4  11  -1    8.93    1.47
   5  11  -1   11.10    1.26
   6  11  -1   30.99    2.15
   7  11  -1   83.75    3.01
   8  11  -1    0.28    0.42
   9  11  -1   27.05    2.27
  10  11  -1    0.68    0.78
  11  11  -1   -0.13    0.66
  12  11  -1   -0.30    0.75
  13  11  -1    1.44    1.04
  14  11  -1   -0.30    1.09
 -13  12  -1   -0.15    1.64
 -12  12  -1   -0.44    1.42
 -11  12  -1    7.92    2.55
 -10  12  -1   11.12    2.87
  -9  12  -1   10.78    2.69
  -8  12  -1    2.98    1.48
  -7  12  -1   12.92    2.71
  -6  12  -1    0.57    0.86
  -5  12  -1   11.98    2.66
  -4  12  -1   35.78    2.90
  -3  12  -1   18.85    2.08
  -2  12  -1    3.53    0.95
  -1  12  -1    1.29    0.66
   0  12  -1   26.75    2.58
   1  12  -1    0.96    0.61
   2  12  -1    4.41    1.07
   3  12  -1   19.63    2.16
   4  12  -1   33.36    2.87
   5  12  -1   13.00    1.84
   6  12  -1    0.04    0.48
   7  12  -1   15.87    2.09
   8  12  -1    3.82    1.09
   9  12  -1    9.21    1.55
  10  12  -1   17.11    2.31
  11  12  -1    6.42    1.57
  12  12  -1    0.80    0.93
  13  12  -1    0.48    0.98
 -12  13  -1    3.56    2.11
 -11  13  -1   26.29    4.47
 -10  13  -1   26.06    4.28
  -9  13  -1    4.14    1.91
  -8  13  -1   16.96    3.27
  -7  13  -1    8.47    2.34
  -6  13  -1   -0.14    0.79
  -5  13  -1    0.73    0.96
  -4  13  -1    3.35    1.37
  -3  13  -1   65.21    3.32
  -2  13  -1   24.93    2.48
  -1  13  -1    0.44    0.48
   0  13  -1   -0.13    0.42
   1  13  -1   -0.30    0.36
   2  13  -1   22.75    2.47
   3  13  -1   65.44    3.40
   4  13  -1    4.15    1.09
   5  13  -1    0.48    0.64
   6  13  -1    0.00    0.55
   7  13  -1    5.05    1.29
   8  13  -1   16.42    2.25
   9  13  -1    7.15    2.58
  10  13  -1   22.41    4.36
  11  13  -1   17.02    3.61
  12  13  -1    2.57    1.63
 -11  14  -1    1.15    1.65
 -10  14  -1    2.81    2.00
  -9  14  -1    3.96    2.04
  -8  14  -1   29.82    4.50
  -7  14  -1   -0.63    0.90
  -6  14  -1    0.32    0.95
  -5  14  -1    1.40    0.93
  -4  14  -1   37.78    4.88
  -3  14  -1    1.33    0.80
  -2  14  -1    4.89    1.17
  -1  14  -1   11.86    1.74
   0  14  -1   66.92    3.51
   1  14  -1    8.82    1.58
   2  14  -1    2.80    0.95
   3  14  -1    0.60    0.64
   4  14  -1   25.23    2.73
   5  14  -1    0.52    0.60
   6  14  -1    0.26    0.57
   7  14  -1   -0.41    0.55
   8  14  -1   30.70    5.05
   9  14  -1    7.45    2.73
  10  14  -1   -0.41    1.44
  11  14  -1    1.20    1.59
 -10  15  -1   -1.05    1.42
  -9  15  -1    0.92    1.47
  -8  15  -1   -0.67    1.23
  -7  15  -1   -0.44    0.96
  -6  15  -1   42.69    5.60
  -5  15  -1   42.52    5.34
  -4  15  -1   14.33    3.24
  -3  15  -1   13.93    2.93
  -2  15  -1    3.09    1.06
  -1  15  -1    0.10    0.57
   0  15  -1    0.16    0.52
   1  15  -1    0.27    0.63
   2  15  -1    2.26    0.96
   3  15  -1   14.40    2.16
   4  15  -1   12.11    2.06
   5  15  -1   39.24    3.50
   6  15  -1   35.92    3.42
   7  15  -1    0.12    0.68
   8  15  -1   -1.45    0.99
   9  15  -1   -0.14    1.21
  -8  16  -1    1.92    1.61
  -7  16  -1    8.93    2.73
  -6  16  -1    0.75    1.14
  -5  16  -1    0.23    1.29
  -4  16  -1    2.42    1.58
  -3  16  -1   18.57    3.56
  -2  16  -1   13.91    3.05
  -1  16  -1    4.59    1.21
   0  16  -1   35.47    3.37
   1  16  -1    6.25    1.59
   2  16  -1   18.32    2.47
   3  16  -1   21.23    2.73
   4  16  -1    0.19    0.71
   5  16  -1    1.39    0.93
   6  16  -1    2.97    1.22
   7  16  -1    8.79    3.01
   8  16  -1   -0.17    1.18
  -6  17  -1    0.48    1.28
  -5  17  -1   -0.88    1.00
  -4  17  -1    4.21    1.89
  -3  17  -1    4.92    2.03
  -2  17  -1   10.66    2.98
  -1  17  -1   40.43    5.38
   0  17  -1    0.16    0.74
   1  17  -1   37.24    5.05
   2  17  -1    5.95    1.53
   3  17  -1    2.47    1.18
   4  17  -1    2.79    1.18
   5  17  -1   -0.15    0.85
   6  17  -1   -0.23    0.86
  -3  18  -1    6.88    3.04
  -2  18  -1    2.41    1.62
  -1  18  -1    0.93    1.56
   0  18  -1    2.67    1.22
   1  18  -1    0.02    0.86
   2  18  -1    0.70    1.06
   3  18  -1    6.70    1.69
   4  18  -1    3.94    1.46
   5  18  -1    1.94    1.47
  -4 -18   0   23.36    4.03
  -3 -18   0    1.10    1.44
  -2 -18   0    0.69    1.31
  -1 -18   0    5.56    2.11
   0 -18   0    0.99    1.47
   1 -18   0    4.54    2.20
   2 -18   0    2.09    1.68
   3 -18   0    0.42    1.23
   4 -18   0   35.22    5.97
  -4 -17   0    3.31    1.71
  -3 -17   0   -0.23    1.06
  -2 -17   0    7.59    2.46
  -1 -17   0   11.44    2.93
   0 -17   0    0.96    1.22
   1 -17   0    7.29    2.18
   2 -17   0    1.47    1.49
   3 -17   0   -1.32    0.76
   4 -17   0    4.11    1.97
   5 -17   0   13.62    3.20
   6 -17   0   16.56    3.60
   7 -17   0   20.62    5.71
  -5 -16   0    3.86    1.77
  -4 -16   0   35.56    4.66
  -3 -16   0    3.82    1.70
  -2 -16   0    3.27    1.58
  -1 -16   0    7.60    2.27
   0 -16   0   22.70    3.74
   1 -16   0    8.28    2.33
   2 -16   0    0.55    1.03
   3 -16   0    3.27    1.58
   4 -16   0   30.29    4.51
   5 -16   0    6.45    2.24
   6 -16   0   -0.04    0.96
   7 -16   0    6.51    2.31
   8 -16   0    2.58    1.08
   9 -16   0    1.59    1.06
  -5 -15   0    1.54    1.05
  -4 -15   0    6.42    2.02
  -3 -15   0   14.32    2.79
  -2 -15   0   18.10    3.29
  -1 -15   0    0.17    0.86
   0 -15   0    1.02    0.88
   1 -15   0    0.54    0.85
   2 -15   0   10.76    2.46
   3 -15   0    8.54    2.27
   4 -15   0    2.90    1.52
   5 -15   0    2.09    0.89
   6 -15   0   -0.52    0.60
   7 -15   0   -0.17    0.65
   8 -15   0   11.53    1.97
   9 -15   0    2.77    1.22
  10 -15   0   14.71    2.40
 -12 -14   0    0.87    1.54
 -11 -14   0    1.89    1.44
 -10 -14   0    6.45    2.28
  -9 -14   0    0.87    1.26
  -8 -14   0   55.27    5.74
  -7 -14   0    1.17    1.81
  -6 -14   0    0.53    1.46
  -5 -14   0    0.74    0.75
  -4 -14   0   12.99    2.60
  -3 -14   0    0.31    0.85
  -2 -14   0    5.38    1.68
  -1 -14   0   16.34    2.92
   0 -14   0   93.40    5.81
   1 -14   0   11.73    2.60
   2 -14   0    4.29    1.51
   3 -14   0    1.17    0.67
   4 -14   0   10.10    1.46
   5 -14   0    1.12    0.82
   6 -14   0    1.27    0.72
   7 -14   0    0.17    0.61
   8 -14   0   53.96    4.11
   9 -14   0    5.17    1.43
  10 -14   0    5.56    1.57
  11 -14   0    2.77    1.30
  12 -14   0    5.24    2.42
 -12 -13   0    5.39    2.15
 -11 -13   0    1.09    1.24
 -10 -13   0    0.77    1.21
  -9 -13   0   -0.19    1.00
  -8 -13   0    1.72    1.31
  -7 -13   0    8.58    2.19
  -6 -13   0   44.30    2.84
  -5 -13   0   94.46    3.78
  -4 -13   0   17.57    2.76
  -3 -13   0    1.63    0.94
  -2 -13   0    4.19    1.67
  -1 -13   0    1.51    0.91
   0 -13   0   -0.27    0.63
   1 -13   0    2.04    0.71
   2 -13   0    2.71    0.81
   3 -13   0    2.40    0.78
   4 -13   0   22.25    2.29
   5 -13   0   85.35    3.82
   6 -13   0   44.15    3.02
   7 -13   0   10.62    1.77
   8 -13   0    1.32    0.79
   9 -13   0    0.53    0.69
  10 -13   0    0.34    0.75
  11 -13   0   -0.33    0.77
  12 -13   0    7.85    1.77
 -13 -12   0    2.24    1.61
 -12 -12   0   19.54    3.55
 -11 -12   0   18.32    3.50
 -10 -12   0   -0.52    0.81
  -9 -12   0    0.78    1.11
  -8 -12   0    7.76    2.17
  -7 -12   0   27.46    3.76
  -6 -12   0   13.13    1.66
  -5 -12   0    2.05    0.76
  -4 -12   0    9.60    1.45
  -3 -12   0   18.82    1.89
  -2 -12   0   53.08    2.56
  -1 -12   0   50.36    3.78
   0 -12   0   30.05    1.99
   1 -12   0   46.96    2.42
   2 -12   0   51.76    2.61
   3 -12   0   18.22    1.91
   4 -12   0    9.05    1.39
   5 -12   0    3.19    0.92
   6 -12   0   18.99    2.23
   7 -12   0   26.68    2.68
   8 -12   0    5.25    1.30
   9 -12   0   -0.66    0.52
  10 -12   0   -0.02    0.66
  11 -12   0   19.97    2.55
  12 -12   0   29.17    3.29
  13 -12   0    1.89    1.77
 -14 -11   0    5.66    2.44
 -13 -11   0    3.03    1.57
 -12 -11   0    0.01    0.86
 -11 -11   0    0.95    1.04
 -10 -11   0   18.12    3.29
  -9 -11   0   55.82    4.54
  -8 -11   0    0.27    0.74
  -7 -11   0    3.13    1.12
  -6 -11   0    1.05    0.54
  -5 -11   0    1.22    0.57
  -4 -11   0    7.43    1.18
  -3 -11   0   24.30    2.09
  -2 -11   0   22.07    1.47
  -1 -11   0   78.60    2.28
   0 -11   0    0.18    0.27
   1 -11   0   83.08    3.09
   2 -11   0   19.26    1.82
   3 -11   0   20.39    1.97
   4 -11   0   10.81    1.49
   5 -11   0    2.26    0.73
   6 -11   0    0.18    0.50
   7 -11   0    3.48    0.99
   8 -11   0   -0.03    0.50
   9 -11   0   56.76    3.28
  10 -11   0   18.57    2.35
  11 -11   0    0.15    0.58
  12 -11   0    0.09    0.68
  13 -11   0    3.27    1.76
  14 -11   0    5.10    2.38
 -14 -10   0   23.36    4.26
 -13 -10   0   17.32    3.41
 -12 -10   0   35.43    4.68
 -11 -10   0    1.72    1.16
 -10 -10   0    0.15    0.95
  -9 -10   0    7.64    2.05
  -8 -10   0    4.05    1.51
  -7 -10   0    7.44    1.17
  -6 -10   0   18.52    1.86
  -5 -10   0    4.29    0.88
  -4 -10   0   72.49    2.85
  -3 -10   0   62.84    1.97
  -2 -10   0   23.97    1.34
  -1 -10   0   31.48    1.34
   0 -10   0    0.85    0.32
   1 -10   0   35.39    1.44
   2 -10   0   24.83    1.26
   3 -10   0   65.86    2.08
   4 -10   0   70.73    2.23
   5 -10   0    4.02    0.71
   6 -10   0   15.04    1.43
   7 -10   0    5.85    1.23
   8 -10   0    4.71    1.08
   9 -10   0    6.63    1.26
  10 -10   0    1.45    0.72
  11 -10   0    0.72    0.82
  12 -10   0   45.28    3.76
  13 -10   0   22.27    4.05
  14 -10   0    7.47    2.43
 -15  -9   0    0.31    1.24
 -14  -9   0   13.24    3.19
 -13  -9   0    0.82    0.97
 -12  -9   0    2.02    1.29
 -11  -9   0   10.47    2.56
 -10  -9   0   21.35    3.52
  -9  -9   0    0.03    0.73
  -8  -9   0    2.91    1.27
  -7  -9   0   45.50    2.30
  -6  -9   0  108.39    3.55
  -5  -9   0   22.30    1.92
  -4  -9   0    3.31    0.55
  -3  -9   0   49.10    1.63
  -2  -9   0   28.33    1.38
  -1  -9   0    1.88    0.43
   0  -9   0    0.01    0.22
   1  -9   0    2.39    0.46
   2  -9   0   30.86    1.07
   3  -9   0   51.70    1.37
   4  -9   0    3.50    0.57
   5  -9   0   19.55    1.40
   6  -9   0  109.31    2.90
   7  -9   0   47.71    1.95
   8  -9   0    3.56    0.74
   9  -9   0    0.17    0.37
  10  -9   0   19.46    2.24
  11  -9   0   13.52    1.94
  12  -9   0    2.55    1.00
  13  -9   0    0.36    0.91
  14  -9   0   10.33    2.78
  15  -9   0    1.02    1.38
 -15  -8   0    3.47    1.92
 -14  -8   0    5.47    2.07
 -13  -8   0    3.30    1.62
 -12  -8   0   16.21    3.13
 -11  -8   0    9.40    2.29
 -10  -8   0   41.51    4.74
  -9  -8   0    7.86    1.98
  -8  -8   0   36.01    4.00
  -7  -8   0   25.52    1.77
  -6  -8   0   20.45    1.79
  -5  -8   0   20.43    1.74
  -4  -8   0    9.26    0.85
  -3  -8   0   46.90    1.52
  -2  -8   0   -0.13    0.16
  -1  -8   0   56.48    1.60
   0  -8   0  194.77    3.26
   1  -8   0   57.09    1.58
   2  -8   0    0.22    0.17
   3  -8   0   48.34    1.61
   4  -8   0    7.96    0.80
   5  -8   0   21.33    1.28
   6  -8   0   18.00    1.37
   7  -8   0   25.98    1.71
   8  -8   0   41.93    1.87
   9  -8   0    7.34    0.99
  10  -8   0   42.68    2.32
  11  -8   0   14.30    1.48
  12  -8   0   11.58    1.51
  13  -8   0    1.66    1.32
  14  -8   0    5.57    2.05
  15  -8   0    5.63    2.08
 -16  -7   0    1.65    1.50
 -15  -7   0    0.35    1.18
 -14  -7   0   -0.11    0.91
 -13  -7   0   42.56    5.19
 -12  -7   0    0.64    0.85
 -11  -7   0   15.07    2.90
 -10  -7   0    1.32    1.19
  -9  -7   0   66.21    4.54
  -8  -7   0   17.31    1.90
  -7  -7   0   51.02    2.17
  -6  -7   0   14.23    1.43
  -5  -7   0   22.35    1.49
  -4  -7   0    8.80    0.78
  -3  -7   0  145.15    2.71
  -2  -7   0   14.79    0.87
  -1  -7   0   31.56    1.11
   0  -7   0   -0.12    0.15
   1  -7   0   33.03    1.03
   2  -7   0   17.43    0.73
   3  -7   0  144.46    2.80
   4  -7   0    8.52    0.83
   5  -7   0   21.76    1.24
   6  -7   0   11.99    1.06
   7  -7   0   46.46    1.83
   8  -7   0   19.80    1.54
   9  -7   0   67.18    2.40
  10  -7   0    0.34    0.38
  11  -7   0   13.02    1.42
  12  -7   0    0.74    0.47
  13  -7   0   32.14    2.98
  14  -7   0    0.16    0.61
  15  -7   0   -0.19    1.07
  16  -7   0    3.11    1.81
 -16  -6   0   12.97    3.10
 -15  -6   0   26.10    4.26
 -14  -6   0    0.37    0.87
 -13  -6   0    4.59    1.65
 -12  -6   0    2.40    1.26
 -11  -6   0    1.29    1.06
 -10  -6   0   25.92    3.72
  -9  -6   0   31.60    3.67
  -8  -6   0   70.03    2.54
  -7  -6   0   57.59    2.23
  -6  -6   0    6.82    0.96
  -5  -6   0   69.38    2.33
  -4  -6   0    1.81    0.48
  -3  -6   0  273.24    3.89
  -2  -6   0   86.36    1.83
  -1  -6   0    2.58    0.38
   0  -6   0  127.90    2.55
   1  -6   0    2.63    0.32
   2  -6   0   88.53    2.21
   3  -6   0  273.47    4.04
   4  -6   0    1.69    0.36
   5  -6   0   67.99    1.93
   6  -6   0    7.63    0.83
   7  -6   0   59.84    1.99
   8  -6   0   73.28    2.35
   9  -6   0   32.91    1.80
  10  -6   0   22.14    1.67
  11  -6   0    1.19    0.52
  12  -6   0    0.83    0.62
  13  -6   0    7.37    1.46
  14  -6   0    0.05    0.63
  15  -6   0   32.15    3.38
  16  -6   0   17.87    2.95
 -16  -5   0    3.97    1.93
 -15  -5   0    2.07    1.39
 -14  -5   0    7.03    2.28
 -13  -5   0    0.48    0.97
 -12  -5   0    2.02    1.19
 -11  -5   0    7.57    2.02
 -10  -5   0   20.46    3.18
  -9  -5   0   48.99    3.71
  -8  -5   0    0.14    0.31
  -7  -5   0   14.92    1.29
  -6  -5   0  155.02    3.57
  -5  -5   0   24.56    1.36
  -4  -5   0   20.09    1.22
  -3  -5   0    0.19    0.17
  -2  -5   0  116.25    2.06
  -1  -5   0   68.87    1.46
   0  -5   0   -0.12    0.12
   1  -5   0   69.74    1.34
   2  -5   0  120.69    2.18
   3  -5   0   -0.08    0.15
   4  -5   0   21.26    1.07
   5  -5   0   25.12    1.14
   6  -5   0  148.07    3.07
   7  -5   0   14.29    0.95
   8  -5   0    0.29    0.24
   9  -5   0   45.68    1.55
  10  -5   0   32.47    1.88
  11  -5   0    8.97    1.13
  12  -5   0    4.41    1.03
  13  -5   0   -0.42    0.52
  14  -5   0    8.45    1.65
  15  -5   0    3.23    1.06
  16  -5   0    4.18    1.36
  17  -5   0    1.08    1.45
 -17  -4   0   -1.32    1.14
 -16  -4   0    0.94    1.18
 -15  -4   0   17.87    3.45
 -14  -4   0    3.98    1.64
 -13  -4   0    0.77    0.82
 -12  -4   0  158.86    7.59
 -11  -4   0    4.21    1.43
 -10  -4   0    6.13    1.01
  -9  -4   0    7.94    1.82
  -8  -4   0    0.52    0.31
  -7  -4   0    4.85    0.73
  -6  -4   0   69.98    2.16
  -5  -4   0    9.58    0.93
  -4  -4   0   89.97    2.32
  -3  -4   0    4.47    0.61
  -2  -4   0  232.28    3.06
  -1  -4   0    7.37    0.51
   0  -4   0  137.98    2.02
   1  -4   0    6.01    0.48
   2  -4   0  229.09    3.15
   3  -4   0    3.48    0.43
   4  -4   0   89.51    1.96
   5  -4   0    9.35    0.66
   6  -4   0   69.17    1.60
   7  -4   0    5.46    0.59
   8  -4   0    0.41    0.22
   9  -4   0    4.45    0.51
  10  -4   0    9.63    0.86
  11  -4   0    5.97    0.95
  12  -4   0  145.72    5.00
  13  -4   0    0.16    0.52
  14  -4   0    4.63    1.18
  15  -4   0   16.97    2.39
  16  -4   0    0.38    0.79
  17  -4   0   -0.96    0.82
 -17  -3   0    7.83    2.57
 -16  -3   0    7.00    2.30
 -15  -3   0   14.27    3.13
 -14  -3   0    2.85    1.45
 -13  -3   0   11.11    2.55
 -12  -3   0    1.22    1.07
 -11  -3   0   10.67    2.21
 -10  -3   0    0.45    0.38
  -9  -3   0  165.19    4.21
  -8  -3   0   46.26    1.81
  -7  -3   0   18.51    1.14
  -6  -3   0  186.97    3.71
  -5  -3   0   14.60    0.92
  -4  -3   0   38.26    1.35
  -3  -3   0   95.71    2.11
  -2  -3   0    2.55    0.29
  -1  -3   0  210.25    2.59
   0  -3   0    0.04    0.11
   1  -3   0  213.76    2.66
   2  -3   0    2.36    0.31
   3  -3   0   91.06    1.76
   4  -3   0   41.11    1.01
   5  -3   0   14.78    0.75
   6  -3   0  187.16    2.77
   7  -3   0   18.36    0.96
   8  -3   0   48.02    1.44
   9  -3   0  171.73    3.06
  10  -3   0    0.18    0.26
  11  -3   0   11.65    1.21
  12  -3   0    1.43    0.71
  13  -3   0   12.20    1.80
  14  -3   0    2.64    0.95
  15  -3   0   17.24    2.38
  16  -3   0    6.74    1.51
  17  -3   0    6.58    1.67
 -17  -2   0    0.73    1.20
 -16  -2   0    1.36    1.39
 -15  -2   0   47.96    5.60
 -14  -2   0    5.43    1.79
 -13  -2   0    2.03    1.25
 -12  -2   0   13.72    2.79
 -11  -2   0    5.54    1.09
 -10  -2   0   23.92    1.96
  -9  -2   0   47.30    2.08
  -8  -2   0    4.21    0.73
  -7  -2   0   67.16    1.66
  -6  -2   0   45.40    1.56
  -5  -2   0   59.21    2.05
  -4  -2   0  221.09    3.66
  -3  -2   0  172.44    2.90
  -2  -2   0   22.68    0.81
  -1  -2   0    3.86    0.28
   0  -2   0    4.63    0.24
   1  -2   0    3.41    0.28
   2  -2   0   23.15    0.58
   3  -2   0  167.80    2.07
   4  -2   0  219.62    2.67
   5  -2   0   61.87    1.31
   6  -2   0   45.93    1.20
   7  -2   0   67.61    1.59
   8  -2   0    4.38    0.54
   9  -2   0   46.54    1.48
  10  -2   0   24.57    1.31
  11  -2   0    7.20    0.96
  12  -2   0    8.54    1.42
  13  -2   0    1.84    0.82
  14  -2   0    5.84    1.39
  15  -2   0   55.20    4.18
  16  -2   0    0.43    0.81
  17  -2   0    0.10    0.93
 -17  -1   0   -0.60    1.21
 -16  -1   0   11.52    2.83
 -15  -1   0   -0.45    0.73
 -14  -1   0    1.90    1.29
 -13  -1   0   31.90    3.98
 -12  -1   0   10.45    2.26
 -11  -1   0   23.53    2.04
 -10  -1   0    0.14    0.32
  -9  -1   0   14.34    1.42
  -8  -1   0    0.12    0.26
  -7  -1   0    5.56    0.76
  -6  -1   0  164.33    3.50
  -5  -1   0   27.63    0.87
  -4  -1   0  143.17    2.64
  -3  -1   0  188.12    2.93
  -2  -1   0   37.95    1.15
  -1  -1   0    6.18    0.30
   0  -1   0    0.00    0.09
   1  -1   0    5.96    0.21
   2  -1   0   38.56    0.69
   3  -1   0  185.01    2.14
   4  -1   0  146.83    1.97
   5  -1   0   26.55    0.82
   6  -1   0  167.55    2.49
   7  -1   0    7.71    0.64
   8  -1   0    0.11    0.18
   9  -1   0   13.71    0.99
  10  -1   0   -0.12    0.22
  11  -1   0   24.69    1.79
  12  -1   0   15.63    1.89
  13  -1   0   27.98    2.70
  14  -1   0    1.70    0.86
  15  -1   0    0.62    0.64
  16  -1   0    8.88    1.74
  17  -1   0   -0.68    0.82
 -17   0   0    0.71    1.37
 -16   0   0    3.02    1.57
 -15   0   0    0.36    1.05
 -14   0   0   35.24    4.27
 -13   0   0    0.20    0.73
 -12   0   0   48.94    3.83
 -11   0   0    0.19    0.40
 -10   0   0  147.25    4.08
  -9   0   0    0.25    0.30
  -8   0   0  115.06    3.22
  -7   0   0    0.00    0.20
  -6   0   0    1.33    0.38
  -5   0   0    0.02    0.20
  -4   0   0    2.68    0.44
  -3   0   0    0.02    0.16
  -2   0   0    8.16    0.55
  -1   0   0    0.03    0.10
   1   0   0    0.04    0.07
   2   0   0    8.15    0.26
   3   0   0   -0.04    0.09
   4   0   0    3.34    0.32
   5   0   0   -0.01    0.13
   6   0   0    1.10    0.24
   7   0   0    0.00    0.16
   8   0   0  119.21    2.27
   9   0   0    0.12    0.20
  10   0   0  147.18    2.84
  11   0   0    0.35    0.36
  12   0   0   47.97    2.15
  13   0   0    0.65    0.61
  14   0   0   45.14    3.71
  15   0   0    0.34    0.68
  16   0   0    3.01    1.14
  17   0   0    0.45    0.97
 -17   1   0    1.45    1.28
 -16   1   0   10.77    2.66
 -15   1   0    0.13    0.83
 -14   1   0    0.50    0.85
 -13   1   0   31.85    3.88
 -12   1   0   18.38    1.86
 -11   1   0   28.23    2.29
 -10   1   0    0.05    0.35
  -9   1   0   12.96    1.37
  -8   1   0    0.05    0.25
  -7   1   0    8.36    0.98
  -6   1   0  167.17    3.57
  -5   1   0   24.97    1.16
  -4   1   0  140.89    2.79
  -3   1   0  185.26    3.05
  -2   1   0   37.95    0.97
  -1   1   0    6.19    0.24
   0   1   0    0.10    0.07
   1   1   0    6.06    0.22
   2   1   0   36.34    0.97
   3   1   0  186.96    2.17
   4   1   0  141.92    1.69
   5   1   0   26.82    0.75
   6   1   0  164.94    2.14
   7   1   0    7.15    0.60
   8   1   0    0.51    0.21
   9   1   0   11.33    0.84
  10   1   0    0.04    0.28
  11   1   0   24.46    1.79
  12   1   0   16.62    1.57
  13   1   0   40.66    3.28
  14   1   0    0.22    0.64
  15   1   0    0.06    0.62
  16   1   0    7.16    1.57
  17   1   0   -0.96    0.75
 -17   2   0    1.67    1.39
 -16   2   0    1.73    1.23
 -15   2   0   45.58    4.99
 -14   2   0    6.23    1.86
 -13   2   0    2.29    1.15
 -12   2   0   11.98    1.58
 -11   2   0   11.31    1.52
 -10   2   0   23.68    1.93
  -9   2   0   44.94    2.08
  -8   2   0    5.72    0.82
  -7   2   0   68.56    2.30
  -6   2   0   46.64    1.75
  -5   2   0   58.83    1.84
  -4   2   0  223.42    3.78
  -3   2   0  169.40    2.91
  -2   2   0   24.34    0.64
  -1   2   0    4.26    0.29
   0   2   0    5.49    0.37
   1   2   0    2.88    0.27
   2   2   0   24.31    0.76
   3   2   0  167.24    2.35
   4   2   0  221.86    2.71
   5   2   0   61.52    1.32
   6   2   0   46.20    1.03
   7   2   0   67.34    1.35
   8   2   0    4.16    0.45
   9   2   0   49.25    1.48
  10   2   0   23.47    1.72
  11   2   0    9.79    1.16
  12   2   0    7.37    1.04
  13   2   0    1.19    0.68
  14   2   0    7.70    1.58
  15   2   0   52.59    3.99
  16   2   0    0.40    0.83
  17   2   0    0.98    1.35
 -16   3   0   12.06    2.70
 -15   3   0   14.63    2.95
 -14   3   0    1.59    1.10
 -13   3   0   11.19    1.65
 -12   3   0    1.08    0.60
 -11   3   0   10.58    1.41
 -10   3   0   -0.16    0.35
  -9   3   0  165.56    4.28
  -8   3   0   43.05    1.95
  -7   3   0   17.98    1.45
  -6   3   0  180.89    3.87
  -5   3   0   13.63    1.08
  -4   3   0   40.11    1.10
  -3   3   0   95.14    1.64
  -2   3   0    3.07    0.31
  -1   3   0  211.54    2.59
   0   3   0    0.04    0.13
   1   3   0  208.32    3.40
   2   3   0    2.31    0.26
   3   3   0   93.53    1.50
   4   3   0   42.19    1.03
   5   3   0   13.61    0.72
   6   3   0  189.82    2.81
   7   3   0   17.36    0.93
   8   3   0   46.45    1.19
   9   3   0  167.58    2.58
  10   3   0    0.07    0.25
  11   3   0   10.56    1.21
  12   3   0    1.50    0.58
  13   3   0   12.12    1.45
  14   3   0    1.96    0.93
  15   3   0   12.83    2.02
  16   3   0    4.13    1.90
  17   3   0    6.72    2.32
 -15   4   0   15.50    2.80
 -14   4   0    4.97    1.68
 -13   4   0    0.81    0.62
 -12   4   0  150.43    4.70
 -11   4   0    5.81    1.05
 -10   4   0    9.72    1.31
  -9   4   0    5.36    0.95
  -8   4   0   -0.01    0.29
  -7   4   0    4.08    0.55
  -6   4   0   72.66    1.80
  -5   4   0   10.86    0.80
  -4   4   0   93.84    1.82
  -3   4   0    5.18    0.47
  -2   4   0  237.22    3.05
  -1   4   0    7.71    0.46
   0   4   0  132.23    2.12
   1   4   0    8.15    0.61
   2   4   0  231.76    3.31
   3   4   0    4.36    0.40
   4   4   0   92.56    1.68
   5   4   0   10.26    0.70
   6   4   0   73.34    1.67
   7   4   0    3.48    0.47
   8   4   0    0.52    0.26
   9   4   0    4.89    0.62
  10   4   0   10.55    1.20
  11   4   0    5.04    0.88
  12   4   0  152.44    4.10
  13   4   0   -0.08    0.44
  14   4   0    6.55    2.20
  15   4   0   14.25    3.17
  16   4   0    1.66    1.49
  17   4   0   -1.85    1.91
 -13   5   0    0.93    0.62
 -12   5   0    5.34    1.10
 -11   5   0    8.03    1.21
 -10   5   0   30.38    1.64
  -9   5   0   43.90    1.66
  -8   5   0    0.15    0.23
  -7   5   0   12.32    0.97
  -6   5   0  154.47    2.85
  -5   5   0   24.37    1.03
  -4   5   0   19.82    0.85
  -3   5   0    0.15    0.16
  -2   5   0  123.78    2.08
  -1   5   0   70.88    1.48
   0   5   0   -0.08    0.13
   1   5   0   70.26    1.61
   2   5   0  117.90    2.29
   3   5   0    0.27    0.16
   4   5   0   19.69    0.86
   5   5   0   23.11    0.90
   6   5   0  155.00    2.60
   7   5   0   13.48    0.95
   8   5   0    0.32    0.24
   9   5   0   44.67    1.53
  10   5   0   28.69    1.97
  11   5   0    8.52    1.08
  12   5   0    3.61    0.80
  13   5   0    0.26    0.63
  14   5   0   11.14    1.93
  15   5   0    3.99    1.94
  16   5   0    3.70    1.95
 -13   6   0    6.02    1.85
 -12   6   0    1.07    1.07
 -11   6   0    1.42    0.63
 -10   6   0   22.05    1.96
  -9   6   0   32.49    1.52
  -8   6   0   74.08    2.12
  -7   6   0   62.27    1.84
  -6   6   0    7.75    0.75
  -5   6   0   67.62    1.73
  -4   6   0    2.86    0.43
  -3   6   0  278.55    3.85
  -2   6   0   84.09    1.77
  -1   6   0    2.33    0.37
   0   6   0  126.19    2.40
   1   6   0    3.18    0.44
   2   6   0   84.16    2.00
   3   6   0  275.79    4.25
   4   6   0    3.00    0.40
   5   6   0   64.15    1.58
   6   6   0    6.72    0.66
   7   6   0   60.20    1.67
   8   6   0   74.13    1.96
   9   6   0   33.93    1.52
  10   6   0   20.77    1.68
  11   6   0    2.81    0.75
  12   6   0    3.11    0.99
  13   6   0    6.39    1.40
  14   6   0   -0.20    0.58
  15   6   0   25.03    4.33
  16   6   0   20.25    4.06
 -14   7   0   -0.77    1.06
 -13   7   0   28.49    4.13
 -12   7   0   -0.61    0.61
 -11   7   0   15.99    2.79
 -10   7   0    0.26    0.60
  -9   7   0   65.62    2.14
  -8   7   0   20.04    1.39
  -7   7   0   51.64    1.68
  -6   7   0   13.00    1.01
  -5   7   0   21.85    1.04
  -4   7   0    9.45    0.78
  -3   7   0  144.50    2.63
  -2   7   0   15.39    0.85
  -1   7   0   30.61    1.17
   0   7   0    0.03    0.18
   1   7   0   32.96    1.25
   2   7   0   15.85    1.11
   3   7   0  143.42    2.98
   4   7   0    9.59    0.74
   5   7   0   21.18    1.00
   6   7   0   13.24    0.95
   7   7   0   47.87    1.53
   8   7   0   18.94    1.25
   9   7   0   64.87    2.37
  10   7   0    0.43    0.52
  11   7   0   11.19    1.70
  12   7   0   -0.32    0.54
  13   7   0   34.56    3.33
  14   7   0    0.10    0.69
  15   7   0    0.35    1.16
  16   7   0    3.07    1.90
 -14   8   0    4.75    1.95
 -13   8   0    2.12    1.36
 -12   8   0    8.25    2.22
 -11   8   0   15.06    2.88
 -10   8   0   51.83    5.26
  -9   8   0    6.52    1.38
  -8   8   0   40.79    2.36
  -7   8   0   22.56    1.95
  -6   8   0   20.02    1.14
  -5   8   0   20.63    1.11
  -4   8   0    9.35    0.84
  -3   8   0   46.90    1.47
  -2   8   0   -0.12    0.17
  -1   8   0   56.34    1.72
   0   8   0  193.43    3.51
   1   8   0   54.89    1.75
   2   8   0    0.06    0.19
   3   8   0   48.99    1.74
   4   8   0   10.57    0.79
   5   8   0   19.93    1.08
   6   8   0   18.20    1.14
   7   8   0   25.42    1.30
   8   8   0   41.80    1.91
   9   8   0    8.50    1.47
  10   8   0   46.86    3.14
  11   8   0   16.50    2.18
  12   8   0   13.55    2.02
  13   8   0    2.44    1.01
  14   8   0    2.54    1.12
  15   8   0    3.92    1.97
 -14   9   0   14.95    3.24
 -13   9   0    0.15    1.09
 -12   9   0    1.52    1.39
 -11   9   0   15.93    3.08
 -10   9   0   17.95    3.08
  -9   9   0    0.40    0.77
  -8   9   0    4.18    0.97
  -7   9   0   46.99    2.42
  -6   9   0  113.29    3.78
  -5   9   0   19.73    1.84
  -4   9   0    4.92    0.93
  -3   9   0   52.48    1.39
  -2   9   0   30.25    1.40
  -1   9   0    2.17    0.49
   0   9   0    0.37    0.24
   1   9   0    2.74    0.51
   2   9   0   28.03    1.41
   3   9   0   50.34    1.87
   4   9   0    3.68    0.51
   5   9   0   20.75    1.16
   6   9   0  110.01    3.04
   7   9   0   50.96    2.09
   8   9   0    3.17    0.92
   9   9   0    0.24    0.54
  10   9   0   23.86    2.63
  11   9   0   15.95    2.22
  12   9   0    4.14    1.23
  13   9   0    0.34    0.68
  14   9   0   15.50    2.43
  15   9   0    0.54    1.00
 -14  10   0   10.69    2.99
 -13  10   0   22.22    3.87
 -12  10   0   49.69    5.60
 -11  10   0    1.12    1.20
 -10  10   0    0.47    1.04
  -9  10   0    6.59    1.97
  -8  10   0    5.43    1.15
  -7  10   0    9.19    1.39
  -6  10   0   15.09    1.75
  -5  10   0    4.78    1.02
  -4  10   0   65.70    2.89
  -3  10   0   64.64    2.09
  -2  10   0   24.93    1.42
  -1  10   0   32.29    1.64
   0  10   0    0.55    0.34
   1  10   0   33.05    1.58
   2  10   0   24.14    1.47
   3  10   0   62.94    2.20
   4  10   0   69.55    1.89
   5  10   0    7.15    0.94
   6  10   0   18.19    1.55
   7  10   0    9.41    1.15
   8  10   0    3.60    1.02
   9  10   0    8.13    1.57
  10  10   0    0.87    0.78
  11  10   0    1.79    0.92
  12  10   0   48.56    4.06
  13  10   0   19.81    2.65
  14  10   0   17.04    2.61
  15  10   0   18.28    3.87
 -14  11   0    6.01    2.53
 -13  11   0    1.55    1.77
 -12  11   0   -0.07    1.25
 -11  11   0   -0.27    0.87
 -10  11   0   14.81    3.00
  -9  11   0   51.70    5.48
  -8  11   0    0.24    0.88
  -7  11   0    5.40    1.14
  -6  11   0    0.63    0.58
  -5  11   0    2.32    0.77
  -4  11   0   10.31    1.25
  -3  11   0   23.32    1.63
  -2  11   0   23.27    1.63
  -1  11   0   85.52    2.56
   0  11   0   -0.27    0.24
   1  11   0   86.12    2.58
   2  11   0   19.24    1.48
   3  11   0   22.84    1.71
   4  11   0    9.31    1.11
   5  11   0    1.48    0.50
   6  11   0    0.41    0.39
   7  11   0    3.15    0.74
   8  11   0    0.47    0.60
   9  11   0   56.48    3.65
  10  11   0   19.16    2.41
  11  11   0    0.28    0.70
  12  11   0    0.63    0.87
  13  11   0    2.93    1.33
  14  11   0    7.86    1.95
 -13  12   0    1.02    1.68
 -12  12   0   22.83    4.04
 -11  12   0   15.19    3.25
 -10  12   0    0.79    0.97
  -9  12   0    0.99    1.21
  -8  12   0    4.68    1.79
  -7  12   0   26.67    2.58
  -6  12   0   14.98    1.89
  -5  12   0    1.98    0.82
  -4  12   0   10.97    1.64
  -3  12   0   22.88    2.30
  -2  12   0   59.00    2.96
  -1  12   0   44.74    2.59
   0  12   0   25.63    2.12
   1  12   0   42.72    2.12
   2  12   0   54.56    2.22
   3  12   0   18.57    1.60
   4  12   0    8.83    1.11
   5  12   0    1.05    0.49
   6  12   0   13.15    1.40
   7  12   0   28.64    2.85
   8  12   0    5.96    1.41
   9  12   0    0.16    0.59
  10  12   0    0.44    0.74
  11  12   0   24.99    2.96
  12  12   0   25.16    3.12
  13  12   0    0.75    1.03
 -12  13   0    8.19    2.52
 -11  13   0   -0.29    1.32
 -10  13   0    1.70    1.33
  -9  13   0    0.81    1.05
  -8  13   0    0.63    0.99
  -7  13   0    6.15    2.15
  -6  13   0   40.34    3.28
  -5  13   0   87.11    3.93
  -4  13   0   20.01    2.12
  -3  13   0    1.46    0.64
  -2  13   0    3.35    0.97
  -1  13   0    2.98    0.93
   0  13   0   -0.10    0.47
   1  13   0    1.72    0.66
   2  13   0    3.66    1.05
   3  13   0    2.25    0.62
   4  13   0   20.59    1.74
   5  13   0   88.66    3.14
   6  13   0   42.52    2.71
   7  13   0   11.46    1.97
   8  13   0    0.58    0.75
   9  13   0    1.38    0.81
  10  13   0    0.48    0.84
  11  13   0    0.43    0.85
  12  13   0    8.18    1.73
  13  13   0    4.42    2.64
 -11  14   0    1.18    1.36
 -10  14   0    6.75    2.25
  -9  14   0    5.41    2.02
  -8  14   0   42.96    5.37
  -7  14   0   -0.72    0.79
  -6  14   0    1.34    0.75
  -5  14   0    1.00    0.79
  -4  14   0    7.96    1.52
  -3  14   0    0.85    0.63
  -2  14   0    4.51    1.15
  -1  14   0   11.77    1.82
   0  14   0   87.53    4.01
   1  14   0    9.83    1.69
   2  14   0    5.22    1.26
   3  14   0    0.91    0.63
   4  14   0   11.40    1.73
   5  14   0    1.45    0.76
   6  14   0    0.04    0.89
   7  14   0    0.72    0.69
   8  14   0   49.48    4.01
   9  14   0    6.13    1.63
  10  14   0    9.05    1.92
  11  14   0    6.17    1.73
  12  14   0    7.29    2.47
 -10  15   0   13.03    3.36
  -9  15   0    5.25    2.16
  -8  15   0   12.75    3.00
  -7  15   0   -0.89    0.92
  -6  15   0   -0.58    0.78
  -5  15   0    1.82    0.85
  -4  15   0    6.38    1.48
  -3  15   0   15.01    2.09
  -2  15   0   14.71    2.03
  -1  15   0   -0.11    0.49
   0  15   0    0.03    0.57
   1  15   0   -0.27    0.46
   2  15   0   16.22    2.18
   3  15   0   15.18    2.14
   4  15   0    5.15    1.30
   5  15   0    1.49    0.74
   6  15   0   -0.46    0.81
   7  15   0   -0.72    0.92
   8  15   0   10.66    2.92
   9  15   0    5.39    2.25
  10  15   0   11.46    3.00
  -8  16   0    1.73    1.71
  -7  16   0    5.37    2.15
  -6  16   0    0.04    0.84
  -5  16   0    3.14    1.72
  -4  16   0   30.44    3.10
  -3  16   0    4.49    1.33
  -2  16   0    1.71    0.94
  -1  16   0    7.58    1.61
   0  16   0   27.54    2.94
   1  16   0    8.31    1.73
   2  16   0    1.78    0.94
   3  16   0    3.08    1.13
   4  16   0   33.57    3.13
   5  16   0    2.80    1.64
   6  16   0   -0.49    0.88
   7  16   0    7.12    2.53
   8  16   0    4.33    2.05
  -6  17   0   23.37    4.47
  -5  17   0    9.22    2.69
  -4  17   0    3.77    1.15
  -3  17   0    0.99    0.91
  -2  17   0    3.29    1.23
  -1  17   0    6.34    1.52
   0  17   0   -0.13    0.77
   1  17   0    9.48    1.85
   2  17   0    3.38    1.26
   3  17   0    0.79    0.82
   4  17   0    5.19    1.64
   5  17   0    9.77    2.75
  -4  18   0   28.51    4.56
  -3  18   0    0.28    0.87
  -2  18   0    0.63    0.92
  -1  18   0    7.24    1.80
   0  18   0    0.29    0.89
   1  18   0    8.51    1.83
   2  18   0   -0.62    0.79
   3  18   0    0.18    0.84
   4  18   0   16.13    3.78
  -1  19   0    1.40    1.78
   1  19   0    2.96    2.07
  -2 -18   1    1.21    1.57
  -1 -18   1    1.05    1.49
   0 -18   1    4.00    1.96
   1 -18   1    1.83    1.62
   2 -18   1    0.93    1.40
   3 -18   1    9.65    2.82
  -2 -17   1    3.06    1.76
  -1 -17   1   31.57    4.56
   0 -17   1    0.71    1.13
   1 -17   1   26.69    4.10
   2 -17   1    2.78    1.59
   3 -17   1    5.85    2.18
   4 -17   1    2.37    1.43
   5 -17   1    1.05    1.25
   6 -17   1   -0.35    1.32
  -3 -16   1   13.71    2.87
  -2 -16   1   20.14    3.40
  -1 -16   1    8.20    2.33
   0 -16   1   39.99    4.91
   1 -16   1    7.51    2.29
   2 -16   1   20.04    3.79
   3 -16   1   17.11    3.52
   4 -16   1    1.55    1.33
   5 -16   1    3.11    1.81
   6 -16   1    2.29    1.56
   7 -16   1   17.56    3.87
   8 -16   1   -0.46    1.25
 -10 -15   1    0.19    1.32
  -9 -15   1   -0.08    1.10
  -8 -15   1    0.06    1.27
  -7 -15   1   -0.23    1.12
  -6 -15   1   34.75    4.41
  -5 -15   1   51.85    7.17
  -3 -15   1    9.47    2.24
  -2 -15   1    2.68    1.32
  -1 -15   1   -0.37    0.64
   0 -15   1   -0.10    0.75
   1 -15   1   -0.32    0.88
   2 -15   1    2.21    1.37
   3 -15   1    6.75    2.26
   4 -15   1   12.93    3.15
   5 -15   1   33.28    4.66
   6 -15   1   36.85    5.06
   7 -15   1   -0.64    0.93
   8 -15   1   -0.49    1.01
   9 -15   1   -0.13    1.24
  10 -15   1    0.54    1.58
 -11 -14   1    0.43    1.31
 -10 -14   1    0.98    1.27
  -9 -14   1    6.11    1.99
  -8 -14   1   31.58    4.47
  -7 -14   1    0.87    1.14
  -6 -14   1    0.91    0.99
  -5 -14   1    1.80    1.15
  -4 -14   1   27.44    2.49
  -3 -14   1    0.42    0.59
  -2 -14   1    3.33    1.06
  -1 -14   1   12.86    2.65
   0 -14   1   53.85    4.45
   1 -14   1   16.51    3.12
   2 -14   1    1.30    1.04
   3 -14   1    1.52    1.14
   4 -14   1   31.13    4.43
   5 -14   1    1.59    1.23
   6 -14   1   -0.10    0.91
   7 -14   1   -1.17    0.84
   8 -14   1   28.62    2.93
   9 -14   1    5.64    1.47
  10 -14   1    4.39    1.33
  11 -14   1    0.65    1.02
 -12 -13   1    0.33    1.30
 -11 -13   1   26.54    4.43
 -10 -13   1   22.89    3.92
  -9 -13   1    3.34    1.64
  -8 -13   1   13.26    2.95
  -7 -13   1    5.97    2.00
  -6 -13   1   -0.51    0.82
  -5 -13   1    0.54    0.87
  -4 -13   1    3.92    0.97
  -3 -13   1   69.16    3.16
  -2 -13   1   23.60    2.25
  -1 -13   1    0.12    0.44
   0 -13   1    0.37    0.50
   1 -13   1    0.66    0.95
   2 -13   1   18.34    3.24
   3 -13   1   70.41    4.99
   4 -13   1    4.63    1.73
   5 -13   1    1.18    1.04
   6 -13   1    0.14    0.60
   7 -13   1    6.33    1.28
   8 -13   1   17.58    2.26
   9 -13   1    5.12    1.32
  10 -13   1   24.77    2.97
  11 -13   1   21.30    2.70
  12 -13   1    0.75    1.00
 -13 -12   1   -0.20    1.23
 -12 -12   1   -0.39    1.02
 -11 -12   1    6.03    2.09
 -10 -12   1   15.96    3.26
  -9 -12   1    9.36    2.46
  -8 -12   1    4.83    1.70
  -7 -12   1   14.69    2.78
  -6 -12   1    0.19    0.73
  -5 -12   1   18.75    2.93
  -4 -12   1   35.19    2.38
  -3 -12   1   23.19    2.10
  -2 -12   1    3.82    0.84
  -1 -12   1    0.88    0.52
   0 -12   1   25.68    2.18
   1 -12   1    1.34    0.62
   2 -12   1    3.12    0.78
   3 -12   1   21.83    3.39
   4 -12   1   34.35    2.32
   5 -12   1   13.35    1.72
   6 -12   1   -0.25    0.45
   7 -12   1   18.64    2.24
   8 -12   1    4.31    1.21
   9 -12   1    7.55    1.57
  10 -12   1   17.06    2.39
  11 -12   1    4.33    1.26
  12 -12   1    0.26    0.71
  13 -12   1    0.19    0.93
 -13 -11   1    0.87    1.22
 -12 -11   1    0.36    0.92
 -11 -11   1    0.09    0.82
 -10 -11   1    1.37    0.97
  -9 -11   1   22.02    3.55
  -8 -11   1    1.93    1.15
  -7 -11   1   84.64    5.38
  -6 -11   1   27.75    3.58
  -5 -11   1    9.56    1.38
  -4 -11   1   11.91    1.52
  -3 -11   1    0.62    0.47
  -2 -11   1   11.10    1.37
  -1 -11   1   52.06    2.46
   0 -11   1   -0.11    0.32
   1 -11   1   55.01    2.46
   2 -11   1   17.40    1.34
   3 -11   1    0.42    0.35
   4 -11   1   11.35    1.13
   5 -11   1   10.48    1.51
   6 -11   1   28.25    2.53
   7 -11   1   84.73    3.74
   8 -11   1   -0.02    0.45
   9 -11   1   24.78    2.65
  10 -11   1   -0.02    0.54
  11 -11   1    0.10    0.75
  12 -11   1    0.27    0.69
  13 -11   1    2.53    1.17
  14 -11   1   -0.36    1.46
 -14 -10   1    2.14    1.47
 -13 -10   1    8.61    2.53
 -12 -10   1    8.52    2.42
 -11 -10   1   41.66    5.14
 -10 -10   1    0.73    0.82
  -9 -10   1    3.13    1.36
  -8 -10   1    4.47    1.66
  -7 -10   1    0.42    0.91
  -6 -10   1   25.26    3.36
  -5 -10   1    3.42    0.81
  -4 -10   1   86.14    3.08
  -3 -10   1   13.60    1.54
  -2 -10   1    0.08    0.32
  -1 -10   1   61.56    2.52
   0 -10   1   23.52    1.87
   1 -10   1   58.97    1.88
   2 -10   1   -0.11    0.23
   3 -10   1   13.00    1.14
   4 -10   1   83.31    3.18
   5 -10   1    2.24    0.72
   6 -10   1   21.57    2.10
   7 -10   1    0.58    0.55
   8 -10   1    4.42    0.99
   9 -10   1    3.39    0.95
  10 -10   1    1.18    0.80
  11 -10   1   36.62    3.31
  12 -10   1    9.32    1.77
  13 -10   1   10.74    1.96
  14 -10   1    8.35    1.92
 -14  -9   1    6.11    2.16
 -13  -9   1   -0.05    1.03
 -12  -9   1    1.56    1.06
 -11  -9   1   -0.01    0.83
 -10  -9   1   20.22    3.30
  -9  -9   1   58.71    4.66
  -8  -9   1   29.93    3.89
  -7  -9   1    6.19    1.82
  -6  -9   1   20.25    2.87
  -5  -9   1   71.43    2.72
  -4  -9   1    0.21    0.36
  -3  -9   1    0.12    0.33
  -2  -9   1  140.46    3.84
  -1  -9   1   36.18    1.83
   0  -9   1   -0.08    0.18
   1  -9   1   38.31    1.44
   2  -9   1  138.45    2.94
   3  -9   1   -0.26    0.22
   4  -9   1    0.04    0.34
   5  -9   1   76.76    3.06
   6  -9   1   19.64    1.94
   7  -9   1    4.31    0.97
   8  -9   1   25.68    2.43
   9  -9   1   63.97    3.27
  10  -9   1   28.47    2.77
  11  -9   1    0.07    0.57
  12  -9   1    1.00    0.74
  13  -9   1    0.16    0.79
  14  -9   1    8.71    2.56
 -15  -8   1    5.33    2.12
 -14  -8   1    1.98    1.38
 -13  -8   1    2.41    1.64
 -12  -8   1    3.29    1.62
 -11  -8   1   12.54    2.73
 -10  -8   1    1.26    0.98
  -9  -8   1   14.29    2.68
  -8  -8   1   45.73    3.73
  -7  -8   1   20.88    3.01
  -6  -8   1   -0.56    0.46
  -5  -8   1   30.55    1.79
  -4  -8   1   29.33    1.66
  -3  -8   1   37.97    1.78
  -2  -8   1   75.27    2.54
  -1  -8   1   28.56    1.05
   0  -8   1   23.15    1.06
   1  -8   1   26.92    1.16
   2  -8   1   70.73    2.42
   3  -8   1   34.02    1.76
   4  -8   1   27.00    1.78
   5  -8   1   26.41    2.14
   6  -8   1    0.24    0.41
   7  -8   1   18.11    1.90
   8  -8   1   44.61    2.78
   9  -8   1   21.02    2.25
  10  -8   1    2.43    0.88
  11  -8   1   14.04    2.01
  12  -8   1    2.60    0.94
  13  -8   1    1.38    0.82
  14  -8   1    2.59    1.55
  15  -8   1    5.26    2.22
 -15  -7   1    6.00    2.16
 -14  -7   1    0.59    0.95
 -13  -7   1   59.22    6.11
 -12  -7   1    0.70    0.91
 -11  -7   1    4.92    1.69
 -10  -7   1    0.45    0.69
  -9  -7   1    2.08    1.15
  -8  -7   1   10.81    2.19
  -7  -7   1   13.08    2.27
  -6  -7   1   21.33    1.76
  -5  -7   1  246.38    4.91
  -4  -7   1    5.27    0.74
  -3  -7   1   18.49    1.45
  -2  -7   1   11.84    0.56
  -1  -7   1    6.01    0.54
   0  -7   1    0.10    0.18
   1  -7   1    7.07    0.67
   2  -7   1   12.71    1.18
   3  -7   1   21.02    0.82
   4  -7   1    4.94    0.54
   5  -7   1  237.23    3.85
   6  -7   1   18.06    1.13
   7  -7   1   17.54    1.80
   8  -7   1   16.36    1.88
   9  -7   1    1.27    0.60
  10  -7   1   -0.01    0.41
  11  -7   1    3.77    1.03
  12  -7   1   -0.30    0.53
  13  -7   1   67.38    3.94
  14  -7   1    0.01    0.99
  15  -7   1    7.50    2.52
 -16  -6   1    5.71    2.22
 -15  -6   1    0.96    1.18
 -14  -6   1    1.20    1.06
 -13  -6   1   42.89    5.26
 -12  -6   1    7.62    2.17
 -11  -6   1   76.74    5.31
 -10  -6   1   11.81    2.43
  -9  -6   1    1.29    0.98
  -8  -6   1   43.99    3.46
  -7  -6   1   12.03    2.12
  -6  -6   1    3.08    0.50
  -5  -6   1   14.76    1.06
  -4  -6   1    0.27    0.26
  -3  -6   1    4.29    0.67
  -2  -6   1    2.00    0.46
  -1  -6   1  247.19    3.31
   0  -6   1  110.27    2.06
   1  -6   1  251.88    4.41
   2  -6   1    3.11    0.57
   3  -6   1    4.59    0.42
   4  -6   1    0.49    0.23
   5  -6   1   13.62    0.86
   6  -6   1    3.60    0.55
   7  -6   1   16.18    1.24
   8  -6   1   39.66    1.68
   9  -6   1    1.86    0.53
  10  -6   1   19.05    1.59
  11  -6   1   78.48    3.66
  12  -6   1    8.16    1.46
  13  -6   1   49.78    3.27
  14  -6   1   -0.21    0.93
  15  -6   1   -0.59    0.94
  16  -6   1    8.25    2.74
 -16  -5   1    1.24    1.38
 -15  -5   1    0.07    1.03
 -14  -5   1   19.47    3.53
 -13  -5   1    1.00    1.02
 -12  -5   1    3.20    0.96
 -11  -5   1   11.51    2.47
 -10  -5   1   65.71    4.50
  -9  -5   1    7.24    1.92
  -8  -5   1    9.68    2.03
  -7  -5   1   85.23    4.61
  -6  -5   1   36.07    1.32
  -5  -5   1    2.49    0.46
  -4  -5   1    3.48    0.54
  -3  -5   1  102.43    2.50
  -2  -5   1  174.72    3.45
  -1  -5   1    8.65    0.45
   0  -5   1   -0.18    0.11
   1  -5   1   10.65    0.91
   2  -5   1  168.91    3.54
   3  -5   1  103.55    1.82
   4  -5   1    3.86    0.45
   5  -5   1    2.51    0.42
   6  -5   1   35.42    1.37
   7  -5   1   86.14    2.35
   8  -5   1   11.20    1.08
   9  -5   1    5.23    0.81
  10  -5   1   57.16    2.25
  11  -5   1   14.70    1.40
  12  -5   1    3.31    0.78
  13  -5   1    0.30    0.46
  14  -5   1   23.63    4.08
  15  -5   1    0.57    1.16
  16  -5   1   -0.50    1.16
 -16  -4   1   11.68    3.00
 -15  -4   1   -0.20    0.90
 -14  -4   1   60.37    6.09
 -13  -4   1    0.14    0.78
 -12  -4   1    3.45    0.95
 -11  -4   1    8.10    1.31
 -10  -4   1    5.27    1.65
  -9  -4   1    3.12    1.23
  -8  -4   1   36.56    3.78
  -7  -4   1   11.62    1.97
  -6  -4   1   31.56    1.03
  -5  -4   1    1.37    0.32
  -4  -4   1  265.18    4.30
  -3  -4   1   10.70    0.75
  -2  -4   1   33.23    1.23
  -1  -4   1   31.69    1.23
   0  -4   1   20.00    0.81
   1  -4   1   32.04    1.19
   2  -4   1   30.85    1.30
   3  -4   1   12.33    0.60
   4  -4   1  265.60    3.74
   5  -4   1    0.94    0.28
   6  -4   1   30.76    1.26
   7  -4   1   19.56    1.33
   8  -4   1   29.88    1.59
   9  -4   1    4.02    0.71
  10  -4   1    8.84    1.06
  11  -4   1    8.48    1.13
  12  -4   1    1.93    0.58
  13  -4   1   -0.27    0.39
  14  -4   1   57.55    3.72
  15  -4   1    0.28    0.69
  16  -4   1   11.08    3.06
 -17  -3   1   31.16    4.85
 -16  -3   1    3.03    1.68
 -15  -3   1    4.07    1.79
 -14  -3   1    4.47    1.64
 -13  -3   1   -0.27    0.52
 -12  -3   1    0.71    0.61
 -11  -3   1   13.71    1.68
 -10  -3   1   36.54    2.35
  -9  -3   1   43.32    3.36
  -8  -3   1   46.30    3.36
  -7  -3   1  205.77    6.96
  -6  -3   1    2.07    0.82
  -5  -3   1  105.16    4.24
  -4  -3   1   38.57    1.06
  -3  -3   1   13.67    0.71
  -2  -3   1  178.00    3.06
  -1  -3   1  288.01    4.40
   0  -3   1    0.31    0.16
   1  -3   1  285.71    4.37
   2  -3   1  177.24    2.34
   3  -3   1   13.65    0.67
   4  -3   1   37.75    1.18
   5  -3   1  100.73    2.22
   6  -3   1    4.17    0.58
   7  -3   1  200.60    2.83
   8  -3   1   50.48    1.84
   9  -3   1   46.05    1.86
  10  -3   1   38.32    1.87
  11  -3   1   13.30    1.38
  12  -3   1    1.05    0.49
  13  -3   1    0.16    0.51
  14  -3   1    3.80    1.16
  15  -3   1    3.83    1.20
  16  -3   1    1.43    0.98
  17  -3   1   23.31    4.78
 -17  -2   1   -0.58    1.05
 -16  -2   1    0.31    1.06
 -15  -2   1    2.88    1.46
 -14  -2   1    0.04    0.83
 -13  -2   1   13.03    1.76
 -12  -2   1   35.08    2.78
 -11  -2   1   87.72    3.48
 -10  -2   1    8.16    1.24
  -9  -2   1    2.57    0.69
  -8  -2   1    0.21    0.51
  -7  -2   1   45.89    3.01
  -6  -2   1    1.72    0.79
  -5  -2   1    2.18    0.72
  -4  -2   1   42.19    2.28
  -3  -2   1   22.90    0.71
  -2  -2   1   66.26    1.48
  -1  -2   1  267.52    3.55
   0  -2   1    2.12    0.32
   1  -2   1  266.40    3.04
   2  -2   1   67.00    1.49
   3  -2   1   23.73    0.83
   4  -2   1   40.77    1.45
   5  -2   1    3.34    0.45
   6  -2   1    2.35    0.30
   7  -2   1   48.61    1.22
   8  -2   1   -0.05    0.24
   9  -2   1    2.31    0.54
  10  -2   1    6.73    0.91
  11  -2   1   84.76    2.82
  12  -2   1   31.79    2.13
  13  -2   1   11.88    1.79
  14  -2   1    0.60    0.66
  15  -2   1    1.60    0.95
  16  -2   1    0.06    0.72
  17  -2   1    0.66    1.03
 -17  -1   1   -0.03    1.33
 -16  -1   1    1.96    1.41
 -15  -1   1    6.23    2.06
 -14  -1   1   23.17    3.73
 -13  -1   1   24.58    2.43
 -12  -1   1    4.66    1.03
 -11  -1   1   20.08    2.00
 -10  -1   1   69.72    2.95
  -9  -1   1    4.02    0.85
  -8  -1   1   45.15    2.11
  -7  -1   1   -0.08    0.28
  -6  -1   1    0.21    0.45
  -5  -1   1  279.80    7.14
  -4  -1   1   37.25    2.04
  -3  -1   1   93.29    3.08
  -2  -1   1   65.72    1.69
  -1  -1   1    2.93    0.35
   0  -1   1    0.28    0.18
   1  -1   1    3.60    0.33
   2  -1   1   68.70    1.60
   3  -1   1   91.08    2.11
   4  -1   1   36.54    1.17
   5  -1   1  273.67    3.47
   6  -1   1    0.41    0.17
   7  -1   1    0.03    0.17
   8  -1   1   44.04    1.29
   9  -1   1    2.66    0.55
  10  -1   1   70.76    2.43
  11  -1   1   17.87    1.51
  12  -1   1    5.50    0.90
  13  -1   1   26.66    2.66
  14  -1   1   21.47    2.51
  15  -1   1    7.10    1.56
  16  -1   1    2.88    1.15
  17  -1   1    0.39    0.96
 -17   0   1   -0.55    1.28
 -16   0   1   79.19    5.74
 -15   0   1    1.29    1.11
 -14   0   1   26.39    2.60
 -13   0   1    0.60    0.58
 -12   0   1    0.07    0.46
 -11   0   1    0.38    0.42
 -10   0   1    5.70    1.05
  -9   0   1    0.13    0.36
  -8   0   1  267.10    5.62
  -7   0   1    0.13    0.25
  -6   0   1   32.50    1.59
  -5   0   1    0.11    0.25
  -4   0   1  233.74    5.80
  -3   0   1   -0.19    0.20
  -2   0   1  237.79    5.14
   1   0   1    0.00    0.15
   2   0   1  242.98    2.90
   3   0   1    0.01    0.11
   4   0   1  233.75    2.76
   5   0   1    0.05    0.13
   6   0   1   35.88    1.03
   7   0   1    0.02    0.16
   8   0   1  264.56    3.68
   9   0   1   -0.21    0.19
  10   0   1    5.31    0.83
  11   0   1    0.35    0.35
  12   0   1   -0.01    0.34
  13   0   1    0.46    0.57
  14   0   1   27.06    2.85
  15   0   1   -0.40    0.62
  16   0   1   63.10    4.73
  17   0   1   -0.04    0.89
 -16   1   1    3.14    1.69
 -15   1   1    6.83    2.01
 -14   1   1   22.28    2.36
 -13   1   1   28.28    2.54
 -12   1   1    3.05    0.87
 -11   1   1   18.35    1.86
 -10   1   1   74.05    2.94
  -9   1   1    3.77    0.79
  -8   1   1   43.50    2.06
  -7   1   1    0.05    0.30
  -6   1   1    1.32    0.42
  -5   1   1  260.65    4.83
  -4   1   1   36.20    1.40
  -3   1   1   90.52    2.09
  -2   1   1   66.23    1.56
  -1   1   1    2.42    0.54
   0   1   1   -0.02    0.14
   1   1   1    2.53    0.37
   2   1   1   68.11    1.34
   3   1   1   91.74    1.71
   4   1   1   37.25    1.09
   5   1   1  270.38    3.87
   6   1   1    0.58    0.21
   7   1   1    0.45    0.22
   8   1   1   44.27    1.37
   9   1   1    3.68    0.53
  10   1   1   69.57    2.37
  11   1   1   16.92    1.49
  12   1   1    4.16    1.11
  13   1   1   30.63    2.96
  14   1   1   22.91    2.67
  15   1   1    4.70    1.31
  16   1   1    2.89    1.24
  17   1   1    0.41    1.04
 -15   2   1    2.67    1.47
 -14   2   1    0.82    0.73
 -13   2   1   12.65    1.75
 -12   2   1   37.94    2.88
 -11   2   1   86.61    3.40
 -10   2   1    9.04    1.30
  -9   2   1    1.67    0.51
  -8   2   1   -0.05    0.28
  -7   2   1   46.63    1.96
  -6   2   1    1.70    0.45
  -5   2   1    3.34    0.56
  -4   2   1   42.16    1.47
  -3   2   1   21.36    0.93
  -2   2   1   64.45    1.47
  -1   2   1  263.77    4.19
   0   2   1    1.92    0.34
   1   2   1  266.22    3.22
   2   2   1   66.73    1.07
   3   2   1   21.23    0.84
   4   2   1   39.68    1.24
   5   2   1    2.93    0.43
   6   2   1    2.42    0.44
   7   2   1   48.02    1.63
   8   2   1   -0.08    0.20
   9   2   1    2.32    0.44
  10   2   1    6.99    0.76
  11   2   1   85.72    2.77
  12   2   1   27.81    2.65
  13   2   1    8.75    1.59
  14   2   1    1.26    0.74
  15   2   1    1.69    1.03
  16   2   1    0.89    0.97
  17   2   1    0.02    0.96
 -15   3   1    4.91    1.80
 -14   3   1    4.71    1.60
 -13   3   1   -0.07    0.53
 -12   3   1    1.16    0.66
 -11   3   1   12.32    1.52
 -10   3   1   31.94    2.06
  -9   3   1   44.24    2.13
  -8   3   1   48.35    2.12
  -7   3   1  204.43    4.39
  -6   3   1    3.38    0.57
  -5   3   1   99.48    2.54
  -4   3   1   38.89    1.34
  -3   3   1   15.43    0.77
  -2   3   1  175.19    2.38
  -1   3   1  291.81    6.48
   0   3   1    0.09    0.18
   1   3   1  284.80    3.61
   2   3   1  171.23    2.49
   3   3   1   14.67    0.53
   4   3   1   38.00    0.80
   5   3   1  100.94    2.30
   6   3   1    3.85    0.58
   7   3   1  202.62    3.79
   8   3   1   48.40    1.81
   9   3   1   47.24    1.58
  10   3   1   38.03    1.52
  11   3   1   14.31    1.35
  12   3   1    0.49    0.50
  13   3   1   -0.14    0.48
  14   3   1    5.46    1.33
  15   3   1    7.32    1.67
  16   3   1    2.16    1.13
  17   3   1   27.96    3.31
 -15   4   1    0.59    1.17
 -14   4   1   63.52    4.92
 -13   4   1    0.05    0.73
 -12   4   1    2.64    1.12
 -11   4   1    8.13    1.26
 -10   4   1    9.05    1.29
  -9   4   1    4.24    0.85
  -8   4   1   28.21    1.67
  -7   4   1   19.09    1.29
  -6   4   1   31.92    1.42
  -5   4   1    0.33    0.25
  -4   4   1  267.47    3.66
  -3   4   1   12.54    0.52
  -2   4   1   32.30    1.97
  -1   4   1   30.54    1.32
   0   4   1   19.34    0.98
   1   4   1   32.13    1.03
   2   4   1   31.59    1.01
   3   4   1   13.44    0.64
   4   4   1  266.37    3.21
   5   4   1    0.62    0.18
   6   4   1   30.91    0.90
   7   4   1   18.65    1.37
   8   4   1   31.11    1.72
   9   4   1    3.42    0.63
  10   4   1    8.96    0.91
  11   4   1    8.44    0.92
  12   4   1    1.54    0.73
  13   4   1    0.05    0.51
  14   4   1   52.06    4.07
  15   4   1   -0.36    0.70
  16   4   1    9.27    1.87
 -15   5   1    0.34    1.12
 -14   5   1   21.79    3.54
 -13   5   1    0.43    0.72
 -12   5   1    4.64    1.56
 -11   5   1   12.49    2.44
 -10   5   1   52.58    3.87
  -9   5   1    6.27    0.97
  -8   5   1   10.31    0.95
  -7   5   1   92.37    2.26
  -6   5   1   36.78    1.28
  -5   5   1    3.26    0.44
  -4   5   1    3.64    0.37
  -3   5   1   99.50    2.86
  -2   5   1  161.37    3.70
  -1   5   1    8.22    0.90
   0   5   1    0.04    0.15
   1   5   1    8.75    0.72
   2   5   1  168.23    2.85
   3   5   1  100.19    2.07
   4   5   1    2.98    0.38
   5   5   1    1.90    0.32
   6   5   1   34.61    1.06
   7   5   1   92.55    2.58
   8   5   1    9.13    1.04
   9   5   1    7.74    1.01
  10   5   1   58.43    2.33
  11   5   1   16.45    1.60
  12   5   1    4.39    1.17
  13   5   1    0.21    0.65
  14   5   1   23.94    2.81
  15   5   1    0.53    0.78
  16   5   1    0.63    1.39
 -15   6   1   -0.36    1.13
 -14   6   1    0.82    1.17
 -13   6   1   48.72    5.15
 -12   6   1    6.38    1.27
 -11   6   1   78.51    3.50
 -10   6   1   16.50    1.92
  -9   6   1    1.01    0.56
  -8   6   1   42.70    2.29
  -7   6   1   15.43    1.66
  -6   6   1    3.84    0.81
  -5   6   1   13.45    0.69
  -4   6   1    0.35    0.31
  -3   6   1    3.85    0.71
  -2   6   1    2.19    0.54
  -1   6   1  243.63    4.87
   0   6   1  111.09    2.40
   1   6   1  244.61    3.87
   2   6   1    2.84    0.45
   3   6   1    4.22    0.54
   4   6   1    0.39    0.20
   5   6   1   13.90    0.81
   6   6   1    4.31    0.50
   7   6   1   13.48    1.22
   8   6   1   40.53    1.83
   9   6   1    1.68    0.52
  10   6   1   19.23    1.66
  11   6   1   82.59    2.96
  12   6   1    7.17    1.50
  13   6   1   45.90    3.67
  14   6   1   -0.11    0.65
  15   6   1    0.00    0.94
  16   6   1    2.01    1.78
 -16   7   1    3.88    2.26
 -15   7   1    7.08    2.37
 -14   7   1   -0.26    1.03
 -13   7   1   57.78    4.87
 -12   7   1    0.02    0.55
 -11   7   1    6.41    1.26
 -10   7   1    0.40    0.49
  -9   7   1    1.87    0.68
  -8   7   1   14.47    1.70
  -7   7   1   17.56    1.78
  -6   7   1   20.28    1.86
  -5   7   1  230.77    5.40
  -4   7   1    5.75    0.93
  -3   7   1   19.96    1.71
  -2   7   1   13.49    1.41
  -1   7   1    6.07    0.74
   0   7   1    0.03    0.19
   1   7   1    6.04    0.71
   2   7   1   11.79    0.96
   3   7   1   18.18    1.09
   4   7   1    5.77    0.62
   5   7   1  234.58    3.52
   6   7   1   19.26    1.46
   7   7   1   15.75    1.37
   8   7   1   15.15    1.32
   9   7   1    2.81    0.68
  10   7   1    0.53    0.44
  11   7   1    6.00    1.03
  12   7   1   -0.04    0.44
  13   7   1   62.28    4.67
  14   7   1   -0.52    0.79
  15   7   1    7.68    2.71
 -16   8   1   12.11    3.20
 -15   8   1    4.64    2.14
 -14   8   1    2.47    1.59
 -13   8   1    3.46    1.86
 -12   8   1    4.97    1.90
 -11   8   1   14.22    1.88
 -10   8   1    1.83    0.74
  -9   8   1   21.58    2.20
  -8   8   1   42.29    2.65
  -7   8   1   19.54    1.95
  -6   8   1   -0.16    0.34
  -5   8   1   21.57    1.93
  -4   8   1   27.13    2.11
  -3   8   1   31.90    1.84
  -2   8   1   70.34    2.73
  -1   8   1   26.07    1.43
   0   8   1   23.76    1.51
   1   8   1   29.38    1.33
   2   8   1   76.07    2.17
   3   8   1   34.08    1.43
   4   8   1   28.27    1.24
   5   8   1   26.29    1.18
   6   8   1    0.07    0.28
   7   8   1   19.04    1.54
   8   8   1   45.81    2.04
   9   8   1   22.30    1.87
  10   8   1    1.24    0.54
  11   8   1   12.63    1.48
  12   8   1    6.86    1.46
  13   8   1    2.57    1.42
  14   8   1    2.31    1.57
  15   8   1    6.95    2.58
 -15   9   1    4.73    2.31
 -14   9   1    8.86    2.62
 -13   9   1    1.33    1.24
 -12   9   1    1.27    1.24
 -11   9   1    1.57    0.83
 -10   9   1   25.92    2.59
  -9   9   1   63.42    3.17
  -8   9   1   29.76    2.65
  -7   9   1    1.52    0.63
  -6   9   1   19.70    2.03
  -5   9   1   71.45    3.05
  -4   9   1   -0.02    0.27
  -3   9   1    0.38    0.40
  -2   9   1  138.30    3.26
  -1   9   1   43.59    1.73
   0   9   1   -0.01    0.22
   1   9   1   41.18    1.67
   2   9   1  137.19    3.20
   3   9   1    0.25    0.30
   4   9   1   -0.09    0.24
   5   9   1   71.21    1.97
   6   9   1   18.39    1.53
   7   9   1    3.47    0.74
   8   9   1   25.27    1.94
   9   9   1   66.93    2.65
  10   9   1   24.29    2.00
  11   9   1    0.35    0.60
  12   9   1    0.31    0.70
  13   9   1    0.28    1.25
  14   9   1    9.66    2.83
 -14  10   1    8.32    2.55
 -13  10   1   13.16    3.07
 -12  10   1    6.57    2.22
 -11  10   1   37.40    4.84
 -10  10   1    1.17    0.69
  -9  10   1    2.47    0.79
  -8  10   1    4.49    1.08
  -7  10   1    0.38    0.51
  -6  10   1   21.48    2.12
  -5  10   1    3.30    0.87
  -4  10   1   79.06    3.31
  -3  10   1   11.99    1.20
  -2  10   1    0.16    0.26
  -1  10   1   61.20    2.19
   0  10   1   21.92    1.53
   1  10   1   61.57    2.17
   2  10   1    0.22    0.29
   3  10   1   13.32    1.25
   4  10   1   79.61    2.54
   5  10   1    3.10    0.68
   6  10   1   23.53    1.83
   7  10   1    0.74    0.44
   8  10   1    3.91    0.81
   9  10   1    3.42    0.97
  10  10   1    0.56    0.64
  11  10   1   43.71    3.75
  12  10   1   11.29    1.91
  13  10   1    8.46    1.90
  14  10   1    4.81    2.13
 -14  11   1    1.08    1.63
 -13  11   1    1.18    1.35
 -12  11   1    1.53    1.40
 -11  11   1   -0.41    1.02
 -10  11   1    0.25    0.69
  -9  11   1   27.44    2.81
  -8  11   1    1.32    0.70
  -7  11   1   88.09    3.85
  -6  11   1   34.44    2.90
  -5  11   1   12.33    1.73
  -4  11   1   11.53    1.67
  -3  11   1   -0.06    0.29
  -2  11   1   14.51    1.37
  -1  11   1   53.91    2.13
   0  11   1    0.02    0.26
   1  11   1   53.66    2.14
   2  11   1   15.24    1.33
   3  11   1    0.29    0.38
   4  11   1    8.99    1.08
   5  11   1   12.30    1.33
   6  11   1   33.57    2.25
   7  11   1   82.36    3.08
   8  11   1    0.24    0.53
   9  11   1   20.52    2.48
  10  11   1    0.20    0.71
  11  11   1   -0.05    0.64
  12  11   1   -1.02    0.69
  13  11   1    2.11    1.10
 -13  12   1    0.74    1.47
 -12  12   1   -0.04    1.22
 -11  12   1    8.24    2.56
 -10  12   1   20.24    3.66
  -9  12   1    7.66    1.50
  -8  12   1    1.23    0.84
  -7  12   1   17.52    2.16
  -6  12   1   -0.01    0.48
  -5  12   1   10.48    1.67
  -4  12   1   36.83    2.33
  -3  12   1   25.32    1.95
  -2  12   1    4.73    0.84
  -1  12   1    1.03    0.46
   0  12   1   28.06    2.02
   1  12   1    1.31    0.50
   2  12   1    4.88    0.85
   3  12   1   20.01    1.68
   4  12   1   33.05    1.99
   5  12   1   17.44    1.63
   6  12   1    0.41    0.60
   7  12   1   19.61    2.27
   8  12   1    3.65    0.98
   9  12   1   10.19    1.85
  10  12   1   17.65    2.44
  11  12   1    6.31    1.51
  12  12   1   -0.56    0.80
  13  12   1    0.16    0.86
 -12  13   1    2.10    1.70
 -11  13   1   23.57    4.14
 -10  13   1   20.59    3.78
  -9  13   1    5.37    1.45
  -8  13   1   19.79    2.48
  -7  13   1    5.02    1.22
  -6  13   1    0.34    0.51
  -5  13   1    0.24    0.47
  -4  13   1    3.44    0.80
  -3  13   1   67.12    2.67
  -2  13   1   25.32    2.00
  -1  13   1    0.07    0.35
   0  13   1    0.07    0.34
   1  13   1   -0.18    0.33
   2  13   1   28.15    2.07
   3  13   1   69.87    2.69
   4  13   1    5.29    1.20
   5  13   1    0.79    0.69
   6  13   1    0.17    0.52
   7  13   1    6.87    1.50
   8  13   1   17.64    2.42
   9  13   1    6.16    1.49
  10  13   1   22.29    2.77
  11  13   1   21.97    2.91
  12  13   1    1.56    1.14
 -11  14   1    1.23    1.72
 -10  14   1    3.29    1.77
  -9  14   1    3.49    1.81
  -8  14   1   36.20    3.31
  -7  14   1    0.17    0.62
  -6  14   1    0.97    0.76
  -5  14   1    0.85    0.72
  -4  14   1   26.91    2.77
  -3  14   1    0.59    0.63
  -2  14   1    1.76    0.59
  -1  14   1   13.97    1.53
   0  14   1   63.84    2.69
   1  14   1   13.22    1.43
   2  14   1    2.76    0.75
   3  14   1    1.15    0.55
   4  14   1   28.04    2.89
   5  14   1    1.10    0.83
   6  14   1    1.16    0.79
   7  14   1   -0.17    0.62
   8  14   1   32.29    3.34
   9  14   1    8.32    1.74
  10  14   1    1.74    1.08
  11  14   1    0.90    1.06
  -9  15   1   -0.80    1.17
  -8  15   1   -0.85    1.00
  -7  15   1   -0.35    0.67
  -6  15   1   33.53    3.27
  -5  15   1   41.61    3.65
  -4  15   1   16.78    2.32
  -3  15   1   10.03    1.82
  -2  15   1    1.16    0.75
  -1  15   1    0.52    0.61
   0  15   1   -0.33    0.53
   1  15   1   -0.09    0.44
   2  15   1    3.13    0.78
   3  15   1   10.97    1.80
   4  15   1   14.05    2.17
   5  15   1   31.06    3.07
   6  15   1   38.33    3.51
   7  15   1    0.65    0.91
   8  15   1   -0.26    0.73
   9  15   1   -0.70    0.83
  10  15   1    0.81    1.05
  -8  16   1    1.88    1.70
  -7  16   1   15.11    2.38
  -6  16   1    3.28    1.16
  -5  16   1    1.41    0.96
  -4  16   1    0.06    0.70
  -3  16   1   19.50    2.58
  -2  16   1   16.34    2.37
  -1  16   1    6.40    1.52
   0  16   1   38.07    3.51
   1  16   1    7.32    1.60
   2  16   1   21.13    2.68
   3  16   1   16.28    3.45
   4  16   1    0.59    1.12
   5  16   1    1.67    1.36
   6  16   1    1.55    1.12
   7  16   1    9.91    1.90
   8  16   1    0.25    1.03
   9  16   1    1.01    1.92
  -6  17   1    1.12    1.06
  -5  17   1   -0.11    0.90
  -4  17   1    5.97    1.50
  -3  17   1    4.98    1.49
  -2  17   1    4.88    1.36
  -1  17   1   23.48    2.75
   0  17   1    0.05    0.69
   1  17   1   33.94    4.52
   2  17   1    3.51    1.95
   3  17   1    3.31    1.78
   4  17   1    3.95    2.08
   5  17   1   -0.25    1.08
   6  17   1   -0.20    1.30
  -5  18   1    2.56    1.85
  -4  18   1    7.32    2.19
  -3  18   1    5.96    1.69
  -2  18   1    2.84    1.19
  -1  18   1    0.96    0.96
   0  18   1    6.05    1.61
   1  18   1    0.64    1.27
   2  18   1    2.76    1.82
   3  18   1    5.15    2.48
   0 -18   2   -0.83    1.15
   1 -18   2    6.01    2.54
   0 -17   2   -0.40    1.22
   1 -17   2    6.77    2.26
   2 -17   2    6.55    2.30
   3 -17   2    0.83    1.43
   4 -17   2    5.43    2.32
  -7 -16   2    6.89    2.43
  -6 -16   2    1.10    1.36
  -5 -16   2    2.33    1.65
  -4 -16   2   31.71    4.52
  -1 -16   2    5.65    2.11
   0 -16   2   19.59    3.55
   1 -16   2    5.93    2.04
   2 -16   2    0.75    1.20
   3 -16   2    1.62    1.51
   4 -16   2   26.01    4.30
   5 -16   2    4.90    2.02
   6 -16   2    0.65    1.22
  -9 -15   2    2.69    1.69
  -8 -15   2   15.58    3.43
  -7 -15   2   -0.55    1.01
  -6 -15   2    0.74    1.16
  -5 -15   2    2.19    1.43
  -4 -15   2    4.23    1.73
  -3 -15   2   17.69    3.24
  -2 -15   2   15.80    2.84
  -1 -15   2    0.30    0.65
   0 -15   2    0.12    0.89
   1 -15   2   -0.64    0.80
   2 -15   2   15.88    3.20
   3 -15   2   13.28    3.06
   4 -15   2    3.18    1.59
   5 -15   2    1.09    1.23
   6 -15   2    0.92    1.19
   7 -15   2    1.05    1.26
   8 -15   2    8.69    2.63
 -10 -14   2    3.04    1.93
  -9 -14   2    2.00    1.71
  -8 -14   2   27.58    4.43
  -7 -14   2    0.93    1.16
  -6 -14   2    1.10    1.28
  -5 -14   2    1.92    1.31
  -4 -14   2    8.58    2.25
  -3 -14   2   -0.14    0.76
  -2 -14   2    3.48    1.01
  -1 -14   2   12.96    1.83
   0 -14   2   79.83    3.66
   1 -14   2   12.99    1.80
   2 -14   2    4.28    1.07
   3 -14   2    1.87    1.19
   4 -14   2   10.29    2.69
   5 -14   2    1.20    1.15
   6 -14   2    2.13    1.69
   7 -14   2    0.22    1.03
   8 -14   2   37.16    5.01
   9 -14   2    3.23    1.72
 -11 -13   2   -0.30    1.21
 -10 -13   2    0.55    1.29
  -9 -13   2    0.27    1.12
  -8 -13   2   -0.07    1.02
  -7 -13   2    6.00    2.16
  -6 -13   2   28.19    4.08
  -5 -13   2   63.71    4.88
  -4 -13   2   17.13    3.00
  -3 -13   2    0.26    0.93
  -2 -13   2    3.24    0.97
  -1 -13   2    0.90    0.67
   0 -13   2    0.23    0.51
   1 -13   2    1.38    0.68
   2 -13   2    2.25    0.78
   3 -13   2    1.99    0.79
   4 -13   2   18.16    2.09
   5 -13   2   69.09    5.34
   6 -13   2   29.11    4.21
   7 -13   2    8.88    2.52
   8 -13   2    0.51    1.10
   9 -13   2    0.28    1.15
  10 -13   2    0.75    1.28
  11 -13   2   -0.51    0.89
 -12 -12   2   13.96    3.55
 -11 -12   2   12.69    3.02
 -10 -12   2   -0.32    0.96
  -9 -12   2    1.81    1.33
  -8 -12   2    6.20    2.06
  -7 -12   2   24.20    3.93
  -6 -12   2   12.03    2.59
  -5 -12   2    0.34    0.80
  -4 -12   2    5.07    1.59
  -3 -12   2   12.61    1.65
  -2 -12   2   42.20    2.70
  -1 -12   2   39.60    2.92
   0 -12   2   21.44    2.13
   1 -12   2   35.18    2.81
   2 -12   2   40.53    2.95
   3 -12   2   13.06    1.70
   4 -12   2    5.69    1.15
   5 -12   2    0.49    0.95
   6 -12   2   11.18    2.61
   7 -12   2   18.56    3.31
   8 -12   2    3.43    1.22
   9 -12   2   -0.16    0.56
  10 -12   2    0.00    0.66
  11 -12   2   16.09    2.44
  12 -12   2   18.55    2.63
 -12 -11   2    0.40    1.09
 -11 -11   2   -0.57    0.90
 -10 -11   2    8.85    2.37
  -9 -11   2   40.58    5.19
  -8 -11   2    0.00    0.76
  -7 -11   2    2.38    1.44
  -6 -11   2    0.05    0.72
  -5 -11   2    2.08    1.11
  -4 -11   2    5.53    1.65
  -3 -11   2   15.41    1.75
  -2 -11   2   17.52    1.85
  -1 -11   2   67.77    3.00
   0 -11   2    0.35    0.42
   1 -11   2   69.53    3.05
   2 -11   2   17.20    1.89
   3 -11   2   16.20    1.81
   4 -11   2    3.25    1.32
   5 -11   2    1.20    0.80
   6 -11   2    1.02    0.62
   7 -11   2    2.44    0.81
   8 -11   2    0.58    0.66
   9 -11   2   43.60    3.61
  10 -11   2   11.49    1.88
  11 -11   2    0.56    0.78
  12 -11   2   -0.14    0.84
  13 -11   2    1.88    1.13
 -13 -10   2   15.38    3.54
 -12 -10   2   36.00    5.20
 -11 -10   2    0.67    1.03
 -10 -10   2    0.31    0.83
  -9 -10   2    2.68    1.46
  -8 -10   2    1.60    1.04
  -7 -10   2    5.85    1.86
  -6 -10   2   11.69    2.35
  -5 -10   2    1.53    0.85
  -4 -10   2   53.33    4.22
  -3 -10   2   44.94    2.29
  -2 -10   2   16.77    1.78
  -1 -10   2   23.50    2.02
   0 -10   2    0.23    0.42
   1 -10   2   23.91    2.11
   2 -10   2   16.31    1.70
   3 -10   2   49.55    3.83
   4 -10   2   55.14    4.12
   5 -10   2    2.57    0.81
   6 -10   2   14.98    1.82
   7 -10   2    4.05    1.01
   8 -10   2    3.64    1.03
   9 -10   2    4.78    1.21
  10 -10   2   -0.53    0.57
  11 -10   2    0.98    0.80
  12 -10   2   43.00    3.96
  13 -10   2   15.85    2.39
  14 -10   2    8.93    2.84
 -14  -9   2    7.79    2.63
 -13  -9   2   -0.02    1.04
 -12  -9   2    0.09    1.01
 -11  -9   2    6.67    2.10
 -10  -9   2   14.30    3.04
  -9  -9   2    0.80    1.15
  -8  -9   2    1.98    1.17
  -7  -9   2   33.87    4.11
  -6  -9   2   82.48    5.01
  -5  -9   2   15.51    2.61
  -4  -9   2    1.26    0.85
  -3  -9   2   35.23    2.12
  -2  -9   2   19.42    1.77
  -1  -9   2    0.79    0.50
   0  -9   2    0.30    0.37
   1  -9   2    1.95    0.62
   2  -9   2   21.67    2.82
   3  -9   2   35.14    2.03
   4  -9   2    3.22    0.76
   5  -9   2   15.94    1.73
   6  -9   2   86.89    3.46
   7  -9   2   39.84    2.65
   8  -9   2    2.09    0.84
   9  -9   2    0.40    0.59
  10  -9   2   12.09    1.81
  11  -9   2   13.31    2.06
  12  -9   2    2.29    1.01
  13  -9   2   -0.35    0.78
  14  -9   2   15.05    2.47
 -14  -8   2    4.75    2.27
 -13  -8   2    1.50    1.29
 -12  -8   2    7.35    2.28
 -11  -8   2    9.89    2.61
 -10  -8   2   25.44    3.76
  -9  -8   2    5.17    1.80
  -8  -8   2   32.95    4.07
  -7  -8   2   22.07    3.25
  -6  -8   2   12.02    2.30
  -5  -8   2   17.77    2.69
  -4  -8   2    6.43    0.93
  -3  -8   2   31.56    1.89
  -2  -8   2    0.19    0.36
  -1  -8   2   40.63    2.03
   0  -8   2  139.00    3.90
   1  -8   2   37.10    1.97
   2  -8   2   -0.03    0.28
   3  -8   2   35.30    2.01
   4  -8   2    7.24    1.14
   5  -8   2   18.80    1.86
   6  -8   2   16.04    1.80
   7  -8   2   18.46    2.02
   8  -8   2   31.40    2.71
   9  -8   2    6.84    1.36
  10  -8   2   30.31    2.96
  11  -8   2    9.22    1.64
  12  -8   2   10.32    1.89
  13  -8   2    1.84    0.91
  14  -8   2    1.36    0.99
  15  -8   2    4.51    2.22
 -15  -7   2   -0.75    1.21
 -14  -7   2    0.48    1.08
 -13  -7   2   20.31    3.69
 -12  -7   2   -0.22    0.69
 -11  -7   2   10.43    2.70
 -10  -7   2    0.64    1.09
  -8  -7   2   14.82    2.74
  -7  -7   2   27.32    3.34
  -6  -7   2    6.30    1.61
  -5  -7   2   18.53    2.58
  -4  -7   2    7.01    0.95
  -3  -7   2  104.27    3.10
  -2  -7   2   10.77    1.19
  -1  -7   2   23.03    1.58
   0  -7   2    0.19    0.29
   1  -7   2   21.95    1.31
   2  -7   2   11.78    1.19
   3  -7   2  103.78    3.15
   4  -7   2    4.48    0.85
   5  -7   2   19.75    1.83
   6  -7   2    8.55    1.31
   7  -7   2   32.79    2.67
   8  -7   2   12.65    1.69
   9  -7   2   49.57    2.84
  10  -7   2    0.24    0.47
  11  -7   2   10.29    1.73
  12  -7   2    0.66    0.67
  13  -7   2   22.04    2.71
  14  -7   2   -0.10    0.76
  15  -7   2    0.16    1.17
 -15  -6   2   26.19    4.43
 -14  -6   2    0.32    0.99
 -13  -6   2    5.65    1.42
 -12  -6   2    0.96    0.88
 -11  -6   2    0.12    0.79
 -10  -6   2   13.45    2.65
  -9  -6   2   22.52    3.43
  -8  -6   2   59.85    4.23
  -7  -6   2   41.59    4.25
  -6  -6   2    3.45    1.19
  -5  -6   2   45.78    3.23
  -4  -6   2    2.27    0.50
  -3  -6   2  184.92    4.17
  -2  -6   2   54.50    2.09
  -1  -6   2    1.21    0.45
   0  -6   2   87.28    1.95
   1  -6   2    2.21    0.49
   2  -6   2   57.69    2.11
   3  -6   2  187.70    4.40
   4  -6   2    2.86    0.70
   5  -6   2   44.52    2.20
   6  -6   2    2.36    0.68
   7  -6   2   44.23    2.44
   8  -6   2   56.29    2.88
   9  -6   2   24.82    2.39
  10  -6   2   17.38    2.11
  11  -6   2    1.30    0.78
  12  -6   2    2.02    0.94
  13  -6   2    4.52    1.26
  14  -6   2    0.51    0.77
  15  -6   2   25.79    4.74
 -16  -5   2    1.08    1.93
 -15  -5   2    2.82    1.73
 -14  -5   2    7.92    1.67
 -13  -5   2    1.43    0.78
 -12  -5   2    1.36    1.00
 -11  -5   2    5.34    1.81
 -10  -5   2   23.96    3.46
  -9  -5   2   39.04    4.50
  -8  -5   2    0.29    0.63
  -7  -5   2    9.32    1.87
  -6  -5   2  120.00    5.37
  -5  -5   2   21.02    2.61
  -4  -5   2   14.51    1.00
  -3  -5   2    0.30    0.27
  -2  -5   2   72.75    2.34
  -1  -5   2   43.96    1.18
   0  -5   2   -0.20    0.18
   1  -5   2   44.09    1.64
   2  -5   2   79.65    2.45
   3  -5   2    0.13    0.25
   4  -5   2   14.70    1.43
   5  -5   2   13.88    1.45
   6  -5   2  111.83    3.68
   7  -5   2    7.64    1.16
   8  -5   2    0.39    0.45
   9  -5   2   33.33    2.81
  10  -5   2   22.86    2.32
  11  -5   2    5.13    1.12
  12  -5   2    2.00    0.92
  13  -5   2    0.11    0.62
  14  -5   2    7.03    1.61
  15  -5   2    3.56    1.95
 -16  -4   2    1.64    1.52
 -15  -4   2   22.17    4.18
 -14  -4   2    4.38    1.20
 -13  -4   2   -0.15    0.56
 -12  -4   2  117.47    4.60
 -11  -4   2    2.86    1.34
 -10  -4   2    7.50    2.02
  -9  -4   2    3.95    1.46
  -8  -4   2    0.08    0.59
  -7  -4   2    3.94    1.30
  -6  -4   2   51.78    3.35
  -5  -4   2    4.29    1.17
  -4  -4   2   61.96    1.83
  -3  -4   2    3.51    0.57
  -2  -4   2  134.14    2.19
  -1  -4   2    1.89    0.32
   0  -4   2   88.21    2.23
   1  -4   2    1.60    0.24
   2  -4   2  132.11    3.27
   3  -4   2    4.08    0.43
   4  -4   2   59.48    1.57
   5  -4   2    6.34    0.68
   6  -4   2   49.53    1.70
   7  -4   2    2.57    0.56
   8  -4   2    0.19    0.33
   9  -4   2    3.06    0.88
  10  -4   2    9.25    1.46
  11  -4   2    2.84    0.87
  12  -4   2  113.01    4.67
  13  -4   2   -0.23    0.59
  14  -4   2    3.47    1.18
  15  -4   2   17.14    3.82
 -16  -3   2    4.16    1.93
 -15  -3   2    9.81    1.84
 -14  -3   2    1.16    0.83
 -13  -3   2    9.37    1.69
 -12  -3   2    1.02    0.67
 -11  -3   2    8.67    1.47
 -10  -3   2    0.17    0.68
  -9  -3   2  135.16    6.29
  -8  -3   2   26.19    3.29
  -7  -3   2   17.07    2.58
  -6  -3   2  122.48    5.19
  -5  -3   2    9.73    1.72
  -4  -3   2   26.75    1.11
  -3  -3   2   53.79    1.70
  -2  -3   2    2.09    0.32
  -1  -3   2  128.12    2.63
   0  -3   2    0.01    0.17
   1  -3   2  123.86    2.12
   2  -3   2    1.74    0.30
   3  -3   2   49.32    1.39
   4  -3   2   25.64    1.14
   5  -3   2    7.80    0.80
   6  -3   2  124.19    2.85
   7  -3   2   14.48    1.22
   8  -3   2   33.39    1.76
   9  -3   2  125.70    3.37
  10  -3   2    0.22    0.36
  11  -3   2    9.71    1.23
  12  -3   2    1.00    0.68
  13  -3   2    6.96    1.33
  14  -3   2    3.28    1.08
  15  -3   2   10.56    2.80
  16  -3   2    6.86    2.42
 -16  -2   2    0.47    1.29
 -15  -2   2   46.45    3.83
 -14  -2   2    5.56    1.36
 -13  -2   2    1.72    0.85
 -12  -2   2    7.32    1.44
 -11  -2   2    5.50    1.14
 -10  -2   2   20.43    2.18
  -9  -2   2   29.14    3.39
  -8  -2   2    4.47    1.29
  -7  -2   2   50.74    3.32
  -6  -2   2   34.24    2.53
  -5  -2   2   37.91    2.55
  -4  -2   2  127.15    2.60
  -3  -2   2  111.17    2.52
  -2  -2   2   13.06    0.89
  -1  -2   2    1.62    0.36
   0  -2   2    2.72    0.47
   1  -2   2    1.59    0.30
   2  -2   2   13.97    0.78
   3  -2   2  112.73    1.71
   4  -2   2  127.55    2.60
   5  -2   2   41.94    1.50
   6  -2   2   31.56    1.40
   7  -2   2   49.01    1.83
   8  -2   2    2.16    0.51
   9  -2   2   34.21    1.89
  10  -2   2   17.55    1.56
  11  -2   2    7.92    1.09
  12  -2   2    6.99    1.09
  13  -2   2    1.04    0.57
  14  -2   2    4.59    1.23
  15  -2   2   45.52    5.73
  16  -2   2    1.03    1.30
 -16  -1   2   12.78    3.03
 -15  -1   2   -0.15    0.67
 -14  -1   2    1.98    0.91
 -13  -1   2   30.72    2.85
 -12  -1   2   14.94    1.94
 -11  -1   2   26.27    2.50
 -10  -1   2    0.03    0.47
  -9  -1   2    7.88    1.26
  -8  -1   2   -0.16    0.33
  -7  -1   2    4.54    1.31
  -6  -1   2  113.30    4.64
  -5  -1   2   19.10    0.81
  -4  -1   2   78.88    1.91
  -3  -1   2  114.30    2.54
  -2  -1   2   20.50    1.02
  -1  -1   2    3.44    0.76
   0  -1   2    0.16    0.21
   1  -1   2    2.59    0.38
   2  -1   2   20.13    0.92
   3  -1   2  116.53    1.99
   4  -1   2   78.05    2.02
   5  -1   2   17.78    1.22
   6  -1   2  114.49    2.76
   7  -1   2    6.27    0.81
   8  -1   2   -0.16    0.22
   9  -1   2    6.40    0.88
  10  -1   2    0.20    0.36
  11  -1   2   17.01    1.60
  12  -1   2   11.49    1.43
  13  -1   2   28.46    2.30
  14  -1   2    1.05    0.88
  15  -1   2    0.05    0.82
  16  -1   2   13.14    3.15
 -16   0   2    8.64    2.89
 -15   0   2    0.29    0.75
 -14   0   2   29.61    2.90
 -13   0   2    0.78    0.64
 -12   0   2   38.05    3.16
 -11   0   2    0.24    0.47
 -10   0   2  112.81    4.02
  -9   0   2   -0.11    0.34
  -8   0   2   83.57    3.16
  -7   0   2   -0.04    0.24
  -6   0   2    0.69    0.41
  -5   0   2    0.03    0.33
  -4   0   2    2.05    0.66
  -3   0   2    0.45    0.35
  -2   0   2    3.32    0.76
   1   0   2    0.02    0.17
   2   0   2    2.77    0.39
   3   0   2   -0.02    0.13
   4   0   2    2.26    0.31
   5   0   2    0.06    0.15
   6   0   2    2.13    0.50
   7   0   2   -0.21    0.25
   8   0   2   85.72    2.63
   9   0   2   -0.10    0.27
  10   0   2  111.94    3.29
  11   0   2    0.04    0.38
  12   0   2   37.44    2.49
  13   0   2    0.15    0.48
  14   0   2   30.90    3.11
  15   0   2    0.27    0.79
  16   0   2    2.88    1.22
 -16   1   2   14.83    3.36
 -15   1   2   -0.04    0.99
 -14   1   2   -0.43    0.83
 -13   1   2   30.80    2.86
 -12   1   2   14.70    1.96
 -11   1   2   19.99    2.15
 -10   1   2    0.05    0.41
  -9   1   2    7.69    1.21
  -8   1   2   -0.10    0.34
  -7   1   2    3.58    0.75
  -6   1   2  113.57    3.32
  -5   1   2   19.72    1.56
  -4   1   2   73.96    2.34
  -3   1   2  117.06    2.86
  -2   1   2   23.51    1.47
   1   1   2    3.10    0.50
   2   1   2   21.45    0.90
   3   1   2  116.72    2.28
   4   1   2   81.84    1.87
   5   1   2   20.70    1.03
   6   1   2  113.82    2.17
   7   1   2    4.32    0.71
   8   1   2    0.36    0.33
   9   1   2   11.58    1.25
  10   1   2    0.33    0.36
  11   1   2   16.77    1.61
  12   1   2   11.29    1.41
  13   1   2   29.98    2.31
  14   1   2    0.95    0.82
  15   1   2    0.35    0.73
  16   1   2    7.81    1.66
 -16   2   2    2.37    1.67
 -15   2   2   35.42    4.87
 -14   2   2    8.26    2.21
 -13   2   2    1.88    1.46
 -12   2   2    8.26    2.21
 -11   2   2    6.44    1.20
 -10   2   2   20.16    2.02
  -9   2   2   34.43    2.56
  -8   2   2    3.12    0.74
  -7   2   2   47.62    2.18
  -6   2   2   31.34    1.67
  -5   2   2   43.08    1.80
  -4   2   2  126.60    3.08
  -3   2   2  112.38    2.71
  -2   2   2   14.66    0.93
  -1   2   2    2.12    0.71
   0   2   2    1.69    0.40
   1   2   2    1.45    0.30
   2   2   2   12.32    0.65
   3   2   2  113.90    1.79
   4   2   2  128.81    2.60
   5   2   2   41.56    1.44
   6   2   2   31.18    1.30
   7   2   2   49.47    1.72
   8   2   2    2.71    0.61
   9   2   2   38.66    1.98
  10   2   2   16.59    1.57
  11   2   2    6.44    1.02
  12   2   2    6.44    1.06
  13   2   2    1.47    0.68
  14   2   2    5.97    1.51
  15   2   2   47.01    4.08
  16   2   2    0.37    0.88
 -16   3   2    5.56    2.20
 -15   3   2   14.50    3.16
 -14   3   2    0.67    1.19
 -13   3   2    7.41    2.09
 -12   3   2    0.76    1.04
 -11   3   2    9.01    2.15
 -10   3   2    0.13    0.58
  -9   3   2  124.52    3.93
  -8   3   2   33.59    1.98
  -7   3   2   13.00    1.32
  -6   3   2  133.14    3.44
  -5   3   2    5.44    0.73
  -4   3   2   25.97    1.26
  -3   3   2   52.09    1.67
  -2   3   2    1.71    0.34
  -1   3   2  126.31    3.13
   0   3   2    0.09    0.21
   1   3   2  124.95    2.40
   2   3   2    1.49    0.29
   3   3   2   52.33    1.19
   4   3   2   25.41    1.21
   5   3   2    7.09    0.79
   6   3   2  127.37    2.91
   7   3   2   13.13    1.15
   8   3   2   31.81    2.47
   9   3   2  131.07    3.52
  10   3   2    0.31    0.39
  11   3   2    7.60    1.08
  12   3   2    0.88    0.50
  13   3   2    6.82    1.46
  14   3   2    2.21    1.04
  15   3   2   11.11    1.95
  16   3   2    2.46    1.28
 -16   4   2    0.17    1.33
 -15   4   2   18.89    3.49
 -14   4   2    4.58    2.00
 -13   4   2    0.52    0.97
 -12   4   2  114.21    6.73
 -11   4   2    3.91    1.50
 -10   4   2    4.94    1.64
  -9   4   2    3.35    1.37
  -8   4   2    0.36    0.56
  -7   4   2    2.16    0.99
  -6   4   2   53.43    1.99
  -5   4   2    5.97    0.78
  -4   4   2   57.84    1.60
  -3   4   2    2.90    0.43
  -2   4   2  139.62    2.42
  -1   4   2    1.54    0.46
   0   4   2   86.36    2.10
   1   4   2    1.03    0.29
   2   4   2  137.95    2.58
   3   4   2    3.03    0.39
   4   4   2   59.88    1.87
   5   4   2    5.75    0.76
   6   4   2   48.97    1.82
   7   4   2    2.03    0.48
   8   4   2    0.64    0.38
   9   4   2    4.48    1.05
  10   4   2    7.54    1.07
  11   4   2    4.05    0.88
  12   4   2  118.11    3.74
  13   4   2   -0.05    0.60
  14   4   2    3.04    1.07
  15   4   2   11.57    1.89
  16   4   2    0.65    1.04
 -16   5   2    3.18    2.02
 -15   5   2    1.70    1.07
 -14   5   2    6.90    1.55
 -13   5   2    0.36    1.04
 -12   5   2    3.83    1.72
 -11   5   2    5.01    1.70
 -10   5   2   23.38    3.51
  -9   5   2   32.30    3.97
  -8   5   2    0.01    0.54
  -7   5   2    9.13    1.32
  -6   5   2  112.11    3.73
  -5   5   2   15.03    1.60
  -4   5   2   13.27    1.44
  -3   5   2   -0.20    0.21
  -2   5   2   76.14    1.59
  -1   5   2   43.49    1.89
   0   5   2    0.27    0.20
   1   5   2   43.61    1.49
   2   5   2   79.51    1.97
   3   5   2    0.04    0.18
   4   5   2   12.64    1.12
   5   5   2   14.37    1.16
   6   5   2  103.58    2.83
   7   5   2    8.90    1.03
   8   5   2    0.00    0.28
   9   5   2   37.92    2.97
  10   5   2   22.13    2.34
  11   5   2    6.04    1.01
  12   5   2    1.84    0.67
  13   5   2    0.06    0.62
  14   5   2    4.31    1.27
  15   5   2    2.70    1.12
  16   5   2    5.44    2.35
 -15   6   2   26.80    4.61
 -14   6   2   -0.02    0.79
 -13   6   2    7.39    1.57
 -12   6   2    1.35    0.77
 -11   6   2    1.08    0.73
 -10   6   2   13.55    1.84
  -9   6   2   25.43    2.47
  -8   6   2   54.46    2.85
  -7   6   2   45.37    2.49
  -6   6   2    5.12    0.97
  -5   6   2   42.52    2.23
  -4   6   2    2.51    0.64
  -3   6   2  191.57    4.73
  -2   6   2   56.58    2.31
  -1   6   2    1.01    0.40
   0   6   2   85.82    2.28
   1   6   2    1.01    0.34
   2   6   2   54.71    1.72
   3   6   2  192.57    3.44
   4   6   2    2.84    0.56
   5   6   2   48.94    1.89
   6   6   2    4.57    0.73
   7   6   2   44.39    1.93
   8   6   2   59.03    2.29
   9   6   2   27.42    1.98
  10   6   2   15.00    1.99
  11   6   2    0.03    0.54
  12   6   2    1.19    0.62
  13   6   2    5.34    1.38
  14   6   2    0.26    0.81
  15   6   2   21.72    2.84
  16   6   2   11.94    3.17
 -15   7   2   -0.27    1.28
 -14   7   2    0.20    0.82
 -13   7   2   20.03    2.46
 -12   7   2    0.95    0.78
 -11   7   2    9.43    1.66
 -10   7   2    0.06    0.48
  -9   7   2   43.90    2.90
  -8   7   2   12.99    1.77
  -7   7   2   30.90    2.52
  -6   7   2    7.77    1.26
  -5   7   2   13.12    1.59
  -4   7   2    5.61    1.02
  -3   7   2   98.41    3.42
  -2   7   2   10.23    1.30
  -1   7   2   21.24    1.80
   0   7   2    0.35    0.24
   1   7   2   22.24    1.46
   2   7   2   10.63    0.98
   3   7   2  104.84    2.53
   4   7   2    3.48    0.60
   5   7   2   19.96    1.59
   6   7   2   10.00    1.10
   7   7   2   33.78    2.17
   8   7   2   15.59    1.49
   9   7   2   51.27    2.41
  10   7   2    0.58    0.50
  11   7   2    8.77    1.61
  12   7   2   -0.04    0.59
  13   7   2   23.89    2.79
  14   7   2   -0.69    0.70
  15   7   2    0.25    0.95
 -14   8   2    4.68    2.05
 -13   8   2    0.48    0.77
 -12   8   2    9.90    1.80
 -11   8   2   10.61    1.82
 -10   8   2   36.84    3.23
  -9   8   2    6.31    1.29
  -8   8   2   30.11    2.72
  -7   8   2   18.12    2.09
  -6   8   2   13.77    1.71
  -5   8   2   16.37    1.84
  -4   8   2    6.35    1.11
  -3   8   2   30.71    2.34
  -2   8   2    0.37    0.36
  -1   8   2   41.20    1.75
   0   8   2  142.30    3.32
   1   8   2   41.64    1.70
   2   8   2   -0.03    0.22
   3   8   2   36.27    1.61
   4   8   2    6.57    0.93
   5   8   2   15.67    1.42
   6   8   2   17.97    1.58
   7   8   2   22.01    1.82
   8   8   2   32.80    2.22
   9   8   2    3.42    0.75
  10   8   2   31.73    2.62
  11   8   2   14.60    2.14
  12   8   2    9.23    1.70
  13   8   2    1.59    1.02
  14   8   2    1.80    1.06
 -14   9   2   11.76    3.01
 -13   9   2   -0.14    0.77
 -12   9   2    2.22    0.97
 -11   9   2    9.75    1.74
 -10   9   2   14.43    1.93
  -9   9   2    0.73    0.56
  -8   9   2    0.44    0.52
  -7   9   2   36.71    3.00
  -6   9   2   85.50    3.63
  -5   9   2   14.65    1.76
  -4   9   2    2.94    0.83
  -3   9   2   36.57    2.42
  -2   9   2   22.37    1.66
  -1   9   2    1.48    0.47
   0   9   2    0.21    0.28
   1   9   2    0.93    0.40
   2   9   2   20.82    1.52
   3   9   2   32.14    2.57
   4   9   2    2.28    0.67
   5   9   2   12.87    1.30
   6   9   2   80.23    2.85
   7   9   2   37.69    2.44
   8   9   2    2.18    0.65
   9   9   2   -0.02    0.42
  10   9   2   15.47    1.67
  11   9   2   10.03    1.74
  12   9   2    1.28    0.92
  13   9   2   -0.19    0.72
  14   9   2    9.63    2.71
 -13  10   2   15.93    3.55
 -12  10   2   39.99    3.66
 -11  10   2    0.99    0.83
 -10  10   2    0.27    0.66
  -9  10   2    5.75    1.27
  -8  10   2    2.15    0.84
  -7  10   2    7.83    1.44
  -6  10   2   15.17    1.96
  -5  10   2    2.73    0.87
  -4  10   2   51.07    2.79
  -3  10   2   44.64    2.05
  -2  10   2   16.21    1.50
  -1  10   2   23.60    1.79
   0  10   2    0.41    0.33
   1  10   2   23.45    1.75
   2  10   2   15.37    1.40
   3  10   2   46.59    2.65
   4  10   2   51.66    2.81
   5  10   2    3.00    0.69
   6  10   2   14.03    1.49
   7  10   2    3.46    0.79
   8  10   2    1.52    0.62
   9  10   2    3.63    0.88
  10  10   2    0.41    0.54
  11  10   2    1.64    0.89
  12  10   2   41.53    5.45
  13  10   2   14.65    3.38
 -12  11   2    1.00    0.98
 -11  11   2    1.40    0.91
 -10  11   2   14.77    2.15
  -9  11   2   39.50    3.43
  -8  11   2    0.57    0.62
  -7  11   2    3.43    1.02
  -6  11   2    0.11    0.47
  -5  11   2    0.81    0.59
  -4  11   2    6.28    1.01
  -3  11   2   16.79    1.58
  -2  11   2   16.25    1.53
  -1  11   2   64.75    2.51
   0  11   2    0.01    0.31
   1  11   2   60.70    2.40
   2  11   2   14.64    1.40
   3  11   2   14.75    1.89
   4  11   2    6.85    1.32
   5  11   2    1.84    0.61
   6  11   2    1.02    0.50
   7  11   2    2.68    0.76
   8  11   2    0.06    0.43
   9  11   2   43.82    2.94
  10  11   2   14.22    1.72
  11  11   2   -0.96    1.05
  12  11   2    0.35    1.20
 -12  12   2   20.79    5.87
 -11  12   2   18.16    2.48
 -10  12   2    0.70    0.82
  -9  12   2    0.04    0.62
  -8  12   2    5.09    1.27
  -7  12   2   21.77    2.53
  -6  12   2    7.48    1.49
  -5  12   2    1.58    0.60
  -4  12   2    5.81    0.99
  -3  12   2   12.38    1.43
  -2  12   2   43.79    2.44
  -1  12   2   34.87    2.39
   0  12   2   21.52    1.86
   1  12   2   36.59    2.37
   2  12   2   40.73    3.20
   3  12   2   13.28    1.88
   4  12   2    7.33    1.43
   5  12   2    2.15    0.69
   6  12   2   12.67    1.55
   7  12   2   19.79    1.92
   8  12   2    5.36    1.04
   9  12   2   -0.02    0.72
  10  12   2    0.65    0.81
  11  12   2   19.81    4.03
  12  12   2   19.92    4.57
 -11  13   2    0.02    1.10
 -10  13   2    0.01    0.85
  -9  13   2    0.82    0.85
  -8  13   2    0.19    0.60
  -7  13   2    7.21    1.57
  -6  13   2   32.41    2.53
  -5  13   2   66.15    2.91
  -4  13   2   19.60    1.92
  -3  13   2    2.05    0.70
  -2  13   2    1.97    0.67
  -1  13   2    1.29    0.58
   0  13   2   -0.15    0.42
   1  13   2    1.61    0.61
   2  13   2    3.13    1.01
   3  13   2    1.92    0.90
   4  13   2   20.55    2.41
   5  13   2   77.19    3.12
   6  13   2   31.01    2.46
   7  13   2    8.78    1.39
   8  13   2    1.72    0.95
   9  13   2    1.55    1.03
  10  13   2    0.38    0.88
  11  13   2    0.90    1.00
 -10  14   2    5.35    2.03
  -9  14   2    3.96    1.33
  -8  14   2   40.66    3.83
  -7  14   2   -0.16    0.56
  -6  14   2    0.72    0.62
  -5  14   2    2.42    0.81
  -4  14   2    7.13    1.25
  -3  14   2    1.09    0.57
  -2  14   2    3.68    0.88
  -1  14   2   11.73    1.49
   0  14   2   76.03    3.11
   1  14   2   17.64    3.22
   2  14   2    2.69    0.96
   3  14   2    0.22    0.59
   4  14   2   10.30    1.47
   5  14   2    1.34    0.66
   6  14   2    1.45    0.93
   7  14   2    0.40    0.76
   8  14   2   38.51    3.64
   9  14   2    4.69    1.49
  10  14   2    6.57    1.80
  -9  15   2    2.00    1.78
  -8  15   2   10.98    1.97
  -7  15   2   -0.49    0.68
  -6  15   2    0.25    0.62
  -5  15   2    1.99    0.81
  -4  15   2    3.90    1.00
  -3  15   2    9.46    1.37
  -2  15   2   14.39    1.60
  -1  15   2   -0.06    0.50
   0  15   2    0.14    0.51
   1  15   2   -0.51    0.59
   2  15   2   14.09    2.11
   3  15   2   14.07    2.07
   4  15   2    6.13    1.49
   5  15   2    0.58    0.89
   6  15   2    0.60    0.89
   7  15   2    0.10    0.84
   8  15   2   10.95    2.18
   9  15   2    2.53    1.71
  -7  16   2    3.28    1.40
  -6  16   2   -0.01    0.83
  -5  16   2    2.16    1.07
  -4  16   2   27.22    3.14
  -3  16   2    4.92    1.44
  -2  16   2    1.21    0.71
  -1  16   2    7.48    1.30
   0  16   2   24.99    2.74
   1  16   2   10.58    1.95
   2  16   2    2.19    1.08
   3  16   2    5.51    1.56
   4  16   2   32.03    3.44
   5  16   2    4.22    1.43
   6  16   2    0.38    1.00
   7  16   2    5.08    1.67
  -5  17   2    7.10    2.74
  -4  17   2    3.35    1.29
  -3  17   2    0.87    1.01
  -2  17   2    2.17    1.05
  -1  17   2    8.22    2.68
   0  17   2   -0.42    0.98
   1  17   2    9.79    3.03
   2  17   2    2.95    1.20
   3  17   2    0.72    1.00
   4  17   2    7.16    1.96
   5  17   2    8.26    2.66
  -4 -16   3    0.18    1.43
  -3 -16   3   10.76    2.84
  -2 -16   3   10.95    2.95
  -1 -16   3    3.23    1.78
   0 -16   3   29.12    4.36
   1 -16   3    3.74    1.79
   2 -16   3   16.76    3.40
   3 -16   3   13.26    3.22
  -6 -15   3   27.31    4.49
  -5 -15   3   19.19    3.61
  -4 -15   3    7.69    2.21
  -3 -15   3    3.31    1.79
  -2 -15   3    2.27    1.37
  -1 -15   3   -0.01    0.94
   0 -15   3   -0.38    0.97
   1 -15   3   -0.71    0.65
   2 -15   3    2.94    1.09
   3 -15   3    6.56    1.68
   4 -15   3   19.94    3.90
   5 -15   3   28.92    4.59
  -7 -14   3    1.21    1.35
  -6 -14   3    0.31    1.23
  -5 -14   3   -0.04    0.95
  -4 -14   3   18.50    3.53
  -3 -14   3    0.28    1.02
  -2 -14   3    4.55    1.87
  -1 -14   3    3.90    1.61
   0 -14   3   35.27    3.17
   1 -14   3    5.24    1.25
   2 -14   3    2.44    0.95
   3 -14   3    0.48    0.78
   4 -14   3   17.22    2.28
   5 -14   3    1.42    0.90
   6 -14   3    0.40    1.20
   7 -14   3   -0.70    1.25
  -9 -13   3    3.77    2.09
  -8 -13   3   12.42    3.20
  -7 -13   3    1.45    1.42
  -6 -13   3    0.09    0.93
  -5 -13   3   -0.61    0.72
  -4 -13   3    3.62    1.67
  -3 -13   3   37.34    4.65
  -2 -13   3   13.88    2.86
  -1 -13   3   -0.14    0.79
   0 -13   3   -0.26    0.59
   1 -13   3   -0.41    0.54
   2 -13   3   14.72    2.05
   3 -13   3   44.98    3.59
   4 -13   3    2.36    0.92
   5 -13   3    0.19    0.65
   6 -13   3    0.33    0.69
   7 -13   3    4.51    1.83
   8 -13   3   13.60    3.19
 -10 -12   3    9.58    2.79
  -9 -12   3    5.45    2.31
  -8 -12   3    2.63    1.48
  -7 -12   3    9.26    2.51
  -6 -12   3   -0.12    0.84
  -5 -12   3    5.43    1.98
  -4 -12   3   15.63    2.93
  -3 -12   3    8.81    2.20
  -2 -12   3    1.50    1.05
  -1 -12   3    0.85    0.61
   0 -12   3   16.88    2.08
   1 -12   3    0.50    0.61
   2 -12   3    1.92    0.81
   3 -12   3   14.40    1.94
   4 -12   3   22.00    2.39
   5 -12   3    5.84    1.96
   6 -12   3    0.86    1.04
   7 -12   3    9.84    2.62
   8 -12   3    1.67    1.32
   9 -12   3    6.18    2.29
  10 -12   3    5.81    2.54
 -11 -11   3   -0.68    1.06
 -10 -11   3   -0.52    1.15
  -9 -11   3   10.00    2.61
  -8 -11   3   -0.61    0.78
  -7 -11   3   51.07    5.74
  -6 -11   3   18.13    3.47
  -5 -11   3    9.60    2.38
  -4 -11   3    6.77    2.02
  -3 -11   3    1.60    1.05
  -2 -11   3    6.87    1.98
  -1 -11   3   32.00    2.75
   0 -11   3   -0.24    0.42
   1 -11   3   36.95    2.96
   2 -11   3    9.08    1.45
   3 -11   3    0.65    0.60
   4 -11   3    4.76    1.70
   5 -11   3    2.62    1.35
   6 -11   3   13.19    2.79
   7 -11   3   54.01    5.77
   8 -11   3    0.13    1.08
   9 -11   3   18.63    3.62
  10 -11   3    0.68    1.19
  11 -11   3   -0.56    1.29
 -11 -10   3   23.55    4.20
 -10 -10   3    0.37    1.01
  -9 -10   3    3.70    1.78
  -8 -10   3    0.90    0.97
  -7 -10   3    0.26    0.88
  -6 -10   3    9.42    2.29
  -5 -10   3    0.23    0.76
  -4 -10   3   54.08    4.28
  -3 -10   3    7.42    1.97
  -2 -10   3   -0.23    0.63
  -1 -10   3   37.00    2.77
   0 -10   3   12.80    1.67
   1 -10   3   38.69    2.94
   2 -10   3   -0.10    0.43
   3 -10   3    6.65    1.92
   4 -10   3   46.97    4.87
   5 -10   3    0.89    0.90
   6 -10   3   11.84    2.67
   7 -10   3   -0.57    0.80
   8 -10   3    2.96    1.50
   9 -10   3    5.16    2.04
  10 -10   3    0.57    0.74
  11 -10   3   24.11    2.88
  12 -10   3    5.09    1.70
 -12  -9   3   -0.23    1.19
 -11  -9   3    0.46    1.05
 -10  -9   3   14.84    3.18
  -9  -9   3   40.75    5.09
  -8  -9   3   12.10    2.77
  -7  -9   3    1.52    1.18
  -6  -9   3    8.43    2.17
  -5  -9   3   43.26    4.65
  -4  -9   3   -0.50    0.52
  -3  -9   3   -0.76    0.55
  -2  -9   3   84.51    3.33
  -1  -9   3   24.77    2.25
   0  -9   3    0.19    0.46
   1  -9   3   22.10    2.12
   2  -9   3   79.89    4.89
   3  -9   3   -0.49    0.56
   4  -9   3    0.20    0.73
   5  -9   3   36.82    4.34
   6  -9   3   11.92    2.52
   7  -9   3    0.79    0.65
   8  -9   3   15.65    2.10
   9  -9   3   36.45    3.27
  10  -9   3   14.67    2.14
  11  -9   3    0.25    0.73
  12  -9   3   -0.02    0.76
  13  -9   3    1.35    1.44
 -13  -8   3    0.87    1.34
 -12  -8   3    3.24    1.77
 -11  -8   3    4.74    1.94
 -10  -8   3    0.09    0.92
  -9  -8   3   17.90    3.36
  -8  -8   3   25.55    3.77
  -7  -8   3   13.27    2.72
  -6  -8   3   -0.67    0.58
  -5  -8   3   15.66    2.68
  -4  -8   3   16.04    2.78
  -3  -8   3   22.09    3.09
  -2  -8   3   33.47    2.13
  -1  -8   3   14.69    1.64
   0  -8   3   16.51    1.78
   1  -8   3   15.09    1.67
   2  -8   3   42.95    3.33
   3  -8   3   22.36    3.11
   4  -8   3   14.06    2.50
   5  -8   3   15.84    2.22
   6  -8   3   -0.14    0.46
   7  -8   3    9.86    1.56
   8  -8   3   26.71    2.68
   9  -8   3   12.91    1.97
  10  -8   3    0.63    0.69
  11  -8   3   10.32    1.94
  12  -8   3    3.86    1.40
  13  -8   3    1.57    1.06
 -14  -7   3    0.00    1.31
 -13  -7   3   39.60    5.58
 -12  -7   3   -0.23    1.04
 -11  -7   3    2.66    1.62
 -10  -7   3    0.24    0.95
  -9  -7   3    0.56    0.97
  -8  -7   3    9.64    2.26
  -7  -7   3   11.42    2.51
  -6  -7   3   10.96    2.26
  -5  -7   3  142.79    6.70
  -4  -7   3    2.28    1.06
  -3  -7   3    8.29    1.79
  -2  -7   3    7.38    1.16
  -1  -7   3    1.98    0.68
   0  -7   3    0.03    0.34
   1  -7   3    1.67    0.93
   2  -7   3    4.98    1.39
   3  -7   3   14.49    2.47
   4  -7   3    3.19    0.82
   5  -7   3  141.77    4.50
   6  -7   3    8.35    1.38
   7  -7   3    9.18    1.49
   8  -7   3    7.79    1.46
   9  -7   3    0.44    0.54
  10  -7   3    0.32    0.68
  11  -7   3    2.38    0.97
  12  -7   3   -0.32    0.72
  13  -7   3   40.05    3.79
  14  -7   3    0.16    1.36
 -14  -6   3   -0.41    0.87
 -13  -6   3   29.37    3.21
 -12  -6   3    4.40    1.92
 -11  -6   3   47.36    5.36
 -10  -6   3    8.19    2.27
  -9  -6   3   -0.53    0.58
  -8  -6   3   23.33    3.39
  -7  -6   3   11.35    2.37
  -6  -6   3    0.24    0.62
  -5  -6   3   10.40    2.18
  -4  -6   3    0.47    0.65
  -3  -6   3    2.26    0.99
  -2  -6   3    0.93    0.52
  -1  -6   3  131.09    3.84
   0  -6   3   53.87    2.44
   1  -6   3  124.71    5.43
   2  -6   3    2.07    0.65
   3  -6   3    1.06    0.48
   4  -6   3    0.35    0.40
   5  -6   3    6.23    1.14
   6  -6   3    1.19    0.59
   7  -6   3    5.37    1.11
   8  -6   3   24.17    2.46
   9  -6   3    0.87    0.58
  10  -6   3   11.08    1.86
  11  -6   3   50.40    4.08
  12  -6   3    3.91    1.24
  13  -6   3   27.92    3.08
  14  -6   3    0.48    0.85
 -14  -5   3   15.96    2.48
 -13  -5   3    0.12    0.75
 -12  -5   3    1.77    0.89
 -11  -5   3    4.97    1.78
 -10  -5   3   39.01    4.88
  -9  -5   3    1.72    1.01
  -8  -5   3    5.98    1.86
  -7  -5   3   47.70    3.80
  -6  -5   3   23.85    3.26
  -5  -5   3    1.03    0.81
  -4  -5   3    1.47    0.88
  -3  -5   3   48.43    2.13
  -2  -5   3   88.28    2.98
  -1  -5   3    3.80    0.72
   0  -5   3    0.12    0.42
   1  -5   3    4.11    0.80
   2  -5   3   88.25    3.00
   3  -5   3   49.28    2.29
   4  -5   3    1.41    0.60
   5  -5   3    1.57    0.61
   6  -5   3   19.06    2.00
   7  -5   3   46.22    2.67
   8  -5   3    5.76    1.24
   9  -5   3    2.98    0.96
  10  -5   3   31.35    3.03
  11  -5   3    7.63    1.58
  12  -5   3    0.92    0.79
  13  -5   3    0.71    0.83
  14  -5   3   11.24    2.05
 -15  -4   3    1.44    1.10
 -14  -4   3   36.84    3.72
 -13  -4   3    0.41    0.68
 -12  -4   3    0.05    0.60
 -11  -4   3    1.62    1.28
 -10  -4   3    4.15    1.60
  -9  -4   3    1.06    0.89
  -8  -4   3   16.56    2.76
  -7  -4   3    6.97    1.72
  -6  -4   3   17.47    2.59
  -5  -4   3    0.13    0.52
  -4  -4   3  137.34    5.88
  -3  -4   3    4.16    0.76
  -2  -4   3   12.00    1.28
  -1  -4   3   14.90    1.47
   0  -4   3    7.48    0.97
   1  -4   3   12.21    1.26
   2  -4   3   13.48    1.41
   3  -4   3    5.67    0.99
   4  -4   3  138.82    4.17
   5  -4   3    0.08    0.35
   6  -4   3   17.06    1.90
   7  -4   3    8.48    1.36
   8  -4   3   18.86    2.16
   9  -4   3    3.03    0.95
  10  -4   3    4.73    1.23
  11  -4   3    4.90    1.34
  12  -4   3    2.16    0.97
  13  -4   3   -0.74    0.60
  14  -4   3   29.13    3.25
  15  -4   3    1.27    1.57
 -15  -3   3    1.55    1.30
 -14  -3   3    1.76    0.96
 -13  -3   3    0.48    0.71
 -12  -3   3    0.18    0.61
 -11  -3   3    5.64    1.30
 -10  -3   3   16.54    2.98
  -9  -3   3   25.91    3.47
  -8  -3   3   28.52    3.49
  -7  -3   3  111.55    5.56
  -6  -3   3    0.36    0.57
  -5  -3   3   46.92    3.28
  -4  -3   3   17.11    2.43
  -3  -3   3    6.30    0.88
  -2  -3   3   75.38    1.98
  -1  -3   3  128.57    2.74
   0  -3   3    0.16    0.22
   1  -3   3  125.94    2.59
   2  -3   3   75.38    2.74
   3  -3   3    4.72    0.90
   4  -3   3   18.93    1.82
   5  -3   3   52.20    2.57
   6  -3   3    1.16    0.57
   7  -3   3  111.74    4.10
   8  -3   3   27.77    2.58
   9  -3   3   24.13    2.48
  10  -3   3   23.69    2.62
  11  -3   3    7.57    1.53
  12  -3   3    1.90    0.93
  13  -3   3   -0.17    0.71
  14  -3   3    4.03    1.38
  15  -3   3    2.18    1.58
 -15  -2   3    0.29    1.43
 -14  -2   3    0.40    0.80
 -13  -2   3    7.20    1.61
 -12  -2   3   22.18    2.62
 -11  -2   3   56.22    3.60
 -10  -2   3    4.68    1.20
  -9  -2   3    0.39    0.51
  -8  -2   3    0.35    0.66
  -7  -2   3   23.00    2.98
  -6  -2   3    0.11    0.45
  -5  -2   3    2.18    0.98
  -4  -2   3   18.32    2.36
  -3  -2   3   12.25    1.20
  -2  -2   3   24.50    1.17
  -1  -2   3  121.90    3.17
   0  -2   3    0.16    0.23
   1  -2   3  118.95    2.61
   2  -2   3   26.98    1.34
   3  -2   3   11.43    1.01
   4  -2   3   17.06    1.26
   5  -2   3    2.17    0.53
   6  -2   3    1.40    0.46
   7  -2   3   25.74    2.31
   8  -2   3    0.48    0.54
   9  -2   3    0.31    0.49
  10  -2   3    3.48    0.99
  11  -2   3   54.30    3.56
  12  -2   3   19.79    2.43
  13  -2   3    7.09    1.65
  14  -2   3    0.45    0.83
  15  -2   3    0.67    1.49
 -15  -1   3    3.51    2.01
 -14  -1   3   17.18    3.61
 -13  -1   3   17.93    2.39
 -12  -1   3    2.91    1.04
 -11  -1   3   12.10    1.84
 -10  -1   3   41.26    3.22
  -9  -1   3    2.02    0.78
  -8  -1   3   23.50    2.21
  -7  -1   3    0.04    0.48
  -6  -1   3   -0.17    0.50
  -5  -1   3  129.98    5.33
  -4  -1   3   14.60    1.24
  -3  -1   3   37.34    1.68
  -2  -1   3   31.96    1.60
  -1  -1   3    1.04    0.44
   0  -1   3   -0.09    0.20
   1  -1   3    1.07    0.36
   2  -1   3   33.45    1.15
   3  -1   3   34.59    1.47
   4  -1   3   13.26    1.12
   5  -1   3  134.45    3.26
   6  -1   3   -0.03    0.29
   7  -1   3   -0.10    0.26
   8  -1   3   24.71    1.80
   9  -1   3    1.62    0.54
  10  -1   3   38.78    3.25
  11  -1   3   11.77    1.85
  12  -1   3    2.34    0.90
  13  -1   3   15.86    2.25
  14  -1   3   14.28    2.20
  15  -1   3    3.08    1.21
 -15   0   3    1.12    1.58
 -14   0   3    8.23    2.51
 -13   0   3   -0.46    0.89
 -12   0   3   -0.25    0.84
 -11   0   3    0.59    0.62
 -10   0   3    2.62    0.91
  -9   0   3   -0.31    0.41
  -8   0   3  151.30    4.77
  -7   0   3    0.13    0.42
  -6   0   3   17.00    1.76
  -5   0   3    0.32    0.48
  -4   0   3  107.51    4.51
  -3   0   3    0.28    0.42
  -2   0   3   98.97    4.09
   0   0   3    9.72    1.13
   1   0   3    0.34    0.24
   2   0   3   99.82    2.11
   3   0   3    0.07    0.20
   4   0   3  107.59    2.83
   5   0   3    0.48    0.32
   6   0   3   18.29    1.50
   7   0   3    0.25    0.31
   8   0   3  154.36    3.96
   9   0   3   -0.02    0.34
  10   0   3    1.01    0.53
  11   0   3   -0.11    0.43
  12   0   3   -0.21    0.55
  13   0   3    1.20    0.82
  14   0   3   17.73    2.40
  15   0   3    0.08    1.19
 -15   1   3    4.27    2.06
 -14   1   3   16.00    3.72
 -13   1   3   13.95    3.07
 -12   1   3    2.47    1.28
 -11   1   3   12.67    2.86
 -10   1   3   41.68    4.94
  -9   1   3    1.31    0.65
  -8   1   3   23.33    2.18
  -7   1   3   -0.14    0.41
  -6   1   3    0.18    0.31
  -5   1   3  141.92    3.99
  -4   1   3   15.84    1.54
  -3   1   3   36.76    1.81
  -2   1   3   34.41    2.24
   0   1   3    0.08    0.29
   1   1   3    0.67    0.31
   2   1   3   32.46    1.36
   3   1   3   38.13    1.46
   4   1   3   15.53    1.54
   5   1   3  138.59    3.40
   6   1   3    0.32    0.33
   7   1   3   -0.01    0.31
   8   1   3   22.95    1.81
   9   1   3    1.32    0.54
  10   1   3   39.17    2.58
  11   1   3    9.32    1.32
  12   1   3    3.45    0.92
  13   1   3   16.42    1.84
  14   1   3   16.72    2.40
  15   1   3    6.59    2.57
 -15   2   3    2.57    1.68
 -14   2   3   -0.42    1.25
 -13   2   3    7.65    2.38
 -12   2   3   18.02    3.47
 -11   2   3   56.64    6.02
 -10   2   3    5.62    1.77
  -9   2   3    1.60    1.01
  -8   2   3   -0.14    0.54
  -7   2   3   28.18    2.26
  -6   2   3    0.59    0.46
  -5   2   3    2.23    0.64
  -4   2   3   20.37    1.69
  -3   2   3   10.33    1.14
  -2   2   3   24.51    1.50
  -1   2   3  118.42    3.43
   0   2   3    0.51    0.28
   1   2   3  117.61    2.63
   2   2   3   28.15    1.15
   3   2   3   12.81    1.09
   4   2   3   20.85    1.28
   5   2   3    1.86    0.59
   6   2   3    1.02    0.48
   7   2   3   22.42    1.72
   8   2   3    0.19    0.38
   9   2   3    0.65    0.44
  10   2   3    5.33    0.97
  11   2   3   57.74    2.86
  12   2   3   19.02    1.97
  13   2   3    7.42    1.24
  14   2   3    0.29    0.64
  15   2   3    1.10    1.09
 -15   3   3    3.21    1.98
 -14   3   3    3.27    1.75
 -13   3   3   -0.05    1.20
 -12   3   3    0.47    0.98
 -11   3   3    3.23    1.42
 -10   3   3   16.06    2.98
  -9   3   3   31.81    4.13
  -8   3   3   27.19    3.59
  -7   3   3  103.10    5.81
  -6   3   3    0.67    0.72
  -5   3   3   58.63    3.91
  -4   3   3   17.82    1.52
  -3   3   3    3.69    0.60
  -2   3   3   73.85    2.08
  -1   3   3  122.27    3.56
   0   3   3    0.03    0.21
   1   3   3  125.62    2.82
   2   3   3   77.07    1.84
   3   3   3    5.65    0.76
   4   3   3   15.68    1.28
   5   3   3   50.27    2.49
   6   3   3    1.16    0.53
   7   3   3  113.51    4.10
   8   3   3   27.51    2.06
   9   3   3   26.44    2.07
  10   3   3   19.97    1.86
  11   3   3    6.46    1.13
  12   3   3   -0.33    0.49
  13   3   3    0.07    0.55
  14   3   3    3.48    0.98
  15   3   3    3.09    1.70
 -14   4   3   41.91    5.80
 -13   4   3   -0.25    1.07
 -12   4   3    0.66    0.98
 -11   4   3    5.52    1.88
 -10   4   3    2.81    1.43
  -9   4   3    2.90    1.38
  -8   4   3   14.25    2.71
  -7   4   3   10.23    2.23
  -6   4   3   13.03    2.43
  -5   4   3    0.13    0.37
  -4   4   3  132.51    4.21
  -3   4   3    5.16    0.95
  -2   4   3   13.82    1.07
  -1   4   3   11.80    1.33
   0   4   3    6.98    0.81
   1   4   3   13.92    1.12
   2   4   3   11.60    1.00
   3   4   3    6.13    0.84
   4   4   3  137.93    3.31
   5   4   3    0.13    0.31
   6   4   3   14.17    1.71
   7   4   3   10.50    1.56
   8   4   3   17.89    2.01
   9   4   3    1.57    0.61
  10   4   3    3.13    0.74
  11   4   3    4.28    0.99
  12   4   3    1.69    0.71
  13   4   3    0.57    0.62
  14   4   3   33.15    3.42
  15   4   3    0.07    1.38
 -14   5   3    8.94    1.78
 -13   5   3   -0.62    0.69
 -12   5   3    1.84    0.92
 -11   5   3    9.26    1.74
 -10   5   3   37.45    3.26
  -9   5   3    2.42    0.87
  -8   5   3    6.19    1.37
  -7   5   3   48.85    2.80
  -6   5   3   22.08    2.25
  -5   5   3    2.35    0.74
  -4   5   3    1.61    0.63
  -3   5   3   48.42    2.40
  -2   5   3   89.31    3.23
  -1   5   3    4.81    0.72
   0   5   3    0.05    0.22
   1   5   3    3.97    0.63
   2   5   3   83.30    3.16
   3   5   3   48.43    1.97
   4   5   3    1.76    0.48
   5   5   3    1.00    0.43
   6   5   3   21.18    2.21
   7   5   3   48.33    2.81
   8   5   3    6.76    1.36
   9   5   3    2.57    0.87
  10   5   3   37.56    2.62
  11   5   3    7.48    1.21
  12   5   3    4.68    1.07
  13   5   3    0.93    0.76
  14   5   3   14.20    2.33
 -14   6   3   -0.16    0.89
 -13   6   3   26.60    3.04
 -12   6   3    3.91    1.27
 -11   6   3   55.12    4.20
 -10   6   3   11.63    1.91
  -9   6   3    0.57    0.64
  -8   6   3   22.50    2.46
  -7   6   3    8.38    1.51
  -6   6   3    1.06    0.65
  -5   6   3    7.20    1.21
  -4   6   3    0.33    0.40
  -3   6   3    0.87    0.46
  -2   6   3    2.12    0.65
  -1   6   3  125.66    3.22
   0   6   3   53.82    1.98
   1   6   3  125.71    3.10
   2   6   3    1.28    0.56
   3   6   3    1.93    0.56
   4   6   3    0.02    0.32
   5   6   3    7.44    1.01
   6   6   3    1.68    0.54
   7   6   3    5.86    1.24
   8   6   3   16.93    2.13
   9   6   3    0.60    0.65
  10   6   3   12.62    1.85
  11   6   3   46.12    2.99
  12   6   3    3.00    0.86
  13   6   3   26.82    2.42
  14   6   3   -0.16    0.97
 -14   7   3   -0.27    1.20
 -13   7   3   39.23    3.82
 -12   7   3    0.08    0.68
 -11   7   3    6.51    1.48
 -10   7   3    1.33    0.80
  -9   7   3    0.54    0.56
  -8   7   3    9.54    1.54
  -7   7   3   10.01    1.67
  -6   7   3    8.06    1.41
  -5   7   3  143.17    4.81
  -4   7   3    1.39    0.54
  -3   7   3   10.47    1.46
  -2   7   3    6.03    1.09
  -1   7   3    2.42    0.60
   0   7   3   -0.03    0.28
   1   7   3    3.68    0.65
   2   7   3    5.92    1.16
   3   7   3    8.98    1.32
   4   7   3    3.12    0.72
   5   7   3  136.62    3.76
   6   7   3    7.30    1.07
   7   7   3    9.62    1.51
   8   7   3    6.85    1.20
   9   7   3    0.29    0.57
  10   7   3    0.14    0.58
  11   7   3    5.18    1.40
  12   7   3    0.16    0.62
  13   7   3   48.39    3.36
  14   7   3   -0.20    1.31
 -13   8   3   -0.34    0.91
 -12   8   3    1.78    1.10
 -11   8   3    9.29    1.81
 -10   8   3    2.22    1.01
  -9   8   3   11.28    1.83
  -8   8   3   22.26    2.49
  -7   8   3   13.07    1.88
  -6   8   3    0.25    0.46
  -5   8   3   14.36    1.87
  -4   8   3   15.88    1.87
  -3   8   3   15.31    1.83
  -2   8   3   35.60    2.04
  -1   8   3   15.55    1.44
   0   8   3   14.74    1.40
   1   8   3   11.93    1.56
   2   8   3   40.97    2.61
   3   8   3   17.51    1.98
   4   8   3   14.33    1.52
   5   8   3   16.90    1.61
   6   8   3   -0.02    0.35
   7   8   3   11.85    1.39
   8   8   3   27.16    2.81
   9   8   3   12.80    2.03
  10   8   3    1.57    0.89
  11   8   3    9.14    1.73
  12   8   3    4.56    1.06
  13   8   3    1.89    1.11
 -13   9   3    0.62    1.50
 -12   9   3   -0.58    0.79
 -11   9   3    0.07    0.75
 -10   9   3   14.91    2.20
  -9   9   3   41.31    3.65
  -8   9   3   15.95    2.16
  -7   9   3    2.30    0.91
  -6   9   3    9.67    1.63
  -5   9   3   42.21    3.27
  -4   9   3    0.34    0.48
  -3   9   3    0.05    0.33
  -2   9   3   86.80    2.94
  -1   9   3   19.86    1.67
   0   9   3    0.28    0.34
   1   9   3   21.85    2.33
   2   9   3   82.69    3.68
   3   9   3    0.40    0.51
   4   9   3    0.42    0.38
   5   9   3   41.62    2.43
   6   9   3   13.37    1.56
   7   9   3    2.93    0.79
   8   9   3   17.31    2.28
   9   9   3   37.19    3.39
  10   9   3   16.71    2.34
  11   9   3    0.37    0.87
  12   9   3    1.39    0.88
  13   9   3    0.97    1.33
 -12  10   3    8.75    2.60
 -11  10   3   28.71    3.33
 -10  10   3   -0.10    0.67
  -9  10   3    2.31    0.90
  -8  10   3    1.51    0.85
  -7  10   3    0.82    0.61
  -6  10   3   11.93    1.83
  -5  10   3    0.73    0.56
  -4  10   3   44.32    3.36
  -3  10   3    5.32    0.94
  -2  10   3    0.06    0.37
  -1  10   3   33.75    2.26
   0  10   3   15.53    1.98
   1  10   3   38.28    3.15
   2  10   3   -0.23    0.44
   3  10   3    5.40    1.25
   4  10   3   52.61    2.50
   5  10   3    1.51    0.61
   6  10   3   12.23    1.49
   7  10   3    0.34    0.53
   8  10   3    1.83    0.78
   9  10   3    2.92    1.04
  10  10   3    0.97    0.85
  11  10   3   21.08    2.80
  12  10   3    4.68    2.21
 -11  11   3    0.24    0.94
 -10  11   3    1.04    0.86
  -9  11   3   13.50    2.13
  -8  11   3    0.77    0.74
  -7  11   3   53.44    4.13
  -6  11   3   18.89    2.31
  -5  11   3    5.16    1.28
  -4  11   3    4.54    0.96
  -3  11   3    0.21    0.39
  -2  11   3   10.26    1.33
  -1  11   3   33.88    2.42
   0  11   3    0.04    0.42
   1  11   3   33.67    3.04
   2  11   3    6.73    1.32
   3  11   3    0.11    0.55
   4  11   3    7.25    1.19
   5  11   3    6.68    1.19
   6  11   3   19.29    1.97
   7  11   3   50.63    3.23
   8  11   3    0.16    0.52
   9  11   3   14.72    2.26
  10  11   3   -0.01    0.79
  11  11   3   -0.04    0.96
 -10  12   3    8.37    1.85
  -9  12   3    6.90    1.65
  -8  12   3    1.10    0.80
  -7  12   3   10.61    1.87
  -6  12   3   -0.27    0.60
  -5  12   3   10.92    1.47
  -4  12   3   19.16    1.86
  -3  12   3   14.49    1.64
  -2  12   3    1.67    0.62
  -1  12   3    0.53    0.55
   0  12   3   14.72    2.13
   1  12   3    0.45    0.65
   2  12   3    0.74    0.68
   3  12   3   13.36    2.01
   4  12   3   21.91    2.11
   5  12   3    7.43    1.26
   6  12   3    0.63    0.59
   7  12   3   11.64    1.61
   8  12   3    1.23    0.78
   9  12   3    3.28    1.23
  10  12   3   14.87    2.56
  -9  13   3    4.67    1.57
  -8  13   3   12.12    2.10
  -7  13   3    1.42    0.77
  -6  13   3    0.11    0.58
  -5  13   3    0.02    0.55
  -4  13   3    1.65    0.66
  -3  13   3   43.05    2.94
  -2  13   3   16.51    1.76
  -1  13   3   -0.12    0.61
   0  13   3   -0.05    0.57
   1  13   3   -0.24    0.59
   2  13   3   15.91    2.30
   3  13   3   40.75    3.54
   4  13   3    1.96    0.74
   5  13   3    0.65    0.59
   6  13   3    0.20    0.65
   7  13   3    4.85    1.13
   8  13   3   12.22    1.76
   9  13   3    3.48    1.52
  -8  14   3   14.81    3.25
  -7  14   3    1.04    0.78
  -6  14   3   -0.25    0.64
  -5  14   3    1.01    0.73
  -4  14   3   17.95    1.97
  -3  14   3    1.74    0.77
  -2  14   3    2.54    1.08
  -1  14   3    7.46    1.57
   0  14   3   35.59    3.50
   1  14   3    9.31    1.87
   2  14   3    1.64    0.89
   3  14   3    0.29    0.78
   4  14   3   16.41    1.91
   5  14   3    0.84    0.70
   6  14   3    0.78    0.74
   7  14   3    0.28    0.72
   8  14   3   24.59    3.01
  -6  15   3   25.94    3.05
  -5  15   3   26.12    2.49
  -4  15   3   10.09    1.54
  -3  15   3    6.59    1.30
  -2  15   3    1.75    0.98
  -1  15   3   -0.37    0.68
   0  15   3    0.21    0.83
   1  15   3    0.15    0.83
   2  15   3    0.70    0.90
   3  15   3    3.18    1.24
   4  15   3    8.73    1.49
   5  15   3   27.45    2.56
   6  15   3   26.62    3.21
  -4  16   3    0.23    0.96
  -3  16   3   13.76    3.26
  -2  16   3   17.68    3.59
  -1  16   3    2.54    1.22
   0  16   3   19.13    2.77
   1  16   3    4.63    1.52
   2  16   3    9.90    2.15
   3  16   3   15.11    2.43
   4  16   3    0.02    1.30
  -2 -14   4    0.36    1.38
  -1 -14   4    6.77    2.29
   0 -14   4   38.54    5.18
   1 -14   4    2.75    1.66
   2 -14   4    0.27    1.21
   3 -14   4    0.11    0.88
  -5 -13   4   39.11    8.02
  -4 -13   4    6.12    2.11
  -3 -13   4    0.83    1.28
  -2 -13   4    2.21    1.51
  -1 -13   4   -0.77    1.16
   0 -13   4   -0.12    0.92
   1 -13   4    0.34    1.11
   2 -13   4    0.88    0.97
   3 -13   4   -0.16    0.72
   4 -13   4   12.48    2.09
   5 -13   4   40.39    3.85
   6 -13   4   21.93    4.20
  -6 -12   4    7.79    2.57
  -5 -12   4   -0.02    1.09
  -4 -12   4    2.84    1.60
  -3 -12   4    6.88    2.30
  -2 -12   4   23.35    3.93
  -1 -12   4   13.94    3.02
   0 -12   4    7.50    2.22
   1 -12   4   13.90    3.03
   2 -12   4   18.88    2.51
   3 -12   4    7.32    1.59
   4 -12   4    3.22    1.13
   5 -12   4    1.50    0.98
   6 -12   4    5.87    2.17
   7 -12   4   14.41    4.80
  -8 -11   4    0.17    1.45
  -7 -11   4    2.63    1.50
  -6 -11   4    0.37    1.08
  -5 -11   4    0.64    1.03
  -4 -11   4    3.62    1.72
  -3 -11   4    8.35    2.31
  -2 -11   4    9.49    2.36
  -1 -11   4   27.32    4.01
   0 -11   4    0.58    0.85
   1 -11   4   32.95    3.13
   2 -11   4    8.14    1.52
   3 -11   4    6.68    1.51
   4 -11   4    2.73    1.07
   5 -11   4   -0.30    1.03
   6 -11   4   -0.10    1.24
   7 -11   4    2.80    1.65
   8 -11   4    0.58    1.25
  -9 -10   4    4.77    2.04
  -8 -10   4    4.62    2.05
  -7 -10   4    0.98    1.02
  -6 -10   4    3.65    1.68
  -5 -10   4    1.13    1.19
  -4 -10   4   22.20    3.70
  -3 -10   4   14.11    2.85
  -2 -10   4   10.94    2.62
  -1 -10   4    7.04    2.09
   0 -10   4    0.09    0.79
   1 -10   4   13.19    1.94
   2 -10   4    7.31    1.46
   3 -10   4   15.85    2.13
   4 -10   4   25.84    3.90
   5 -10   4    1.98    1.34
   6 -10   4    4.51    1.79
   7 -10   4    3.34    1.73
   8 -10   4    2.72    1.70
   9 -10   4    4.15    2.11
 -10  -9   4    6.58    2.38
  -9  -9   4   -0.31    1.05
  -8  -9   4    0.32    0.99
  -7  -9   4   18.13    3.52
  -6  -9   4   39.90    5.00
  -5  -9   4    6.35    2.10
  -4  -9   4    0.95    0.97
  -3  -9   4   21.09    3.60
  -2  -9   4   11.11    2.47
  -1  -9   4    0.31    0.79
   0  -9   4    0.08    0.51
   1  -9   4    1.18    0.73
   2  -9   4    9.55    1.59
   3  -9   4   13.63    2.69
   4  -9   4    1.26    1.01
   5  -9   4    3.27    1.48
   6  -9   4   62.17    6.29
   7  -9   4   13.52    2.90
   8  -9   4    0.94    1.23
   9  -9   4   -0.06    1.01
  10  -9   4    9.64    4.10
 -11  -8   4    1.71    2.60
 -10  -8   4   14.30    3.38
  -9  -8   4    3.47    1.68
  -8  -8   4   17.80    3.48
  -7  -8   4    9.09    2.41
  -6  -8   4    6.36    1.90
  -5  -8   4    6.54    1.93
  -4  -8   4    2.06    1.13
  -3  -8   4   18.51    3.17
  -2  -8   4    0.77    0.95
  -1  -8   4   20.71    3.45
   0  -8   4   62.70    3.14
   1  -8   4   20.75    2.24
   2  -8   4    0.34    0.64
   3  -8   4   16.78    3.04
   4  -8   4    0.44    0.91
   5  -8   4    8.01    2.22
   6  -8   4    5.49    1.78
   7  -8   4    7.66    2.14
   8  -8   4    8.87    2.65
   9  -8   4    3.15    1.64
  10  -8   4   14.19    3.32
 -11  -7   4    6.90    2.58
 -10  -7   4   -0.94    1.01
  -9  -7   4   22.30    3.89
  -8  -7   4    6.65    2.07
  -7  -7   4   13.68    2.93
  -6  -7   4    6.13    1.99
  -5  -7   4   11.23    2.56
  -4  -7   4    1.40    1.19
  -3  -7   4   48.73    5.01
  -2  -7   4    2.76    1.19
  -1  -7   4   12.31    2.55
   0  -7   4   -0.07    0.42
   1  -7   4   10.61    1.56
   2  -7   4    3.30    1.27
   3  -7   4   51.91    4.15
   4  -7   4    1.65    1.09
   5  -7   4    8.94    2.27
   6  -7   4    4.31    1.65
   7  -7   4   17.79    3.38
   8  -7   4    6.23    2.05
   9  -7   4   27.46    3.01
  10  -7   4    0.14    0.79
  11  -7   4    5.81    1.56
  12  -7   4   -0.40    1.28
 -12  -6   4    0.87    1.18
 -11  -6   4    0.77    1.41
 -10  -6   4    6.12    2.10
  -9  -6   4    9.04    2.40
  -8  -6   4   23.00    3.68
  -7  -6   4   18.25    3.29
  -6  -6   4    1.10    0.98
  -5  -6   4   16.29    2.91
  -4  -6   4    0.43    0.74
  -3  -6   4   92.52    5.48
  -2  -6   4   17.23    2.82
  -1  -6   4    0.27    0.46
   0  -6   4   32.33    2.56
   1  -6   4    0.72    0.69
   2  -6   4   24.18    3.24
   3  -6   4   95.23    5.54
   4  -6   4    0.22    0.67
   5  -6   4   20.86    3.41
   6  -6   4    2.42    1.29
   7  -6   4   23.62    2.57
   8  -6   4   29.32    3.00
   9  -6   4   11.55    2.00
  10  -6   4    7.47    1.64
  11  -6   4    0.57    0.86
  12  -6   4    0.39    1.41
 -12  -5   4    2.11    1.14
 -11  -5   4    2.61    1.68
 -10  -5   4   12.22    2.77
  -9  -5   4   14.72    3.01
  -8  -5   4   -0.07    0.75
  -7  -5   4    2.20    1.35
  -6  -5   4   54.37    4.35
  -5  -5   4    6.38    1.90
  -4  -5   4    2.84    1.21
  -3  -5   4    0.07    0.56
  -2  -5   4   42.48    4.50
  -1  -5   4   13.33    1.59
   0  -5   4    0.34    0.43
   1  -5   4   15.58    2.57
   2  -5   4   34.06    3.83
   3  -5   4    0.35    0.65
   4  -5   4    7.23    1.97
   5  -5   4    8.79    1.48
   6  -5   4   60.91    3.27
   7  -5   4    2.00    0.90
   8  -5   4   -0.04    0.56
   9  -5   4   14.54    2.07
  10  -5   4   11.76    2.03
  11  -5   4    3.87    1.33
  12  -5   4    0.69    0.98
 -13  -4   4    2.09    1.66
 -12  -4   4   55.87    6.52
 -11  -4   4    0.51    0.80
 -10  -4   4    2.06    1.45
  -9  -4   4    1.76    1.43
  -8  -4   4   -0.06    0.68
  -7  -4   4    1.61    1.26
  -6  -4   4   19.41    3.06
  -5  -4   4    1.36    0.96
  -4  -4   4   23.74    3.20
  -3  -4   4    1.06    0.88
  -2  -4   4   59.47    4.15
  -1  -4   4    0.63    0.47
   0  -4   4   33.04    3.58
   1  -4   4    0.89    0.69
   2  -4   4   53.08    3.96
   3  -4   4    0.29    0.48
   4  -4   4   24.54    2.37
   5  -4   4    2.41    0.82
   6  -4   4   16.06    2.02
   7  -4   4    1.50    0.76
   8  -4   4    0.42    0.57
   9  -4   4    1.49    0.88
  10  -4   4    4.70    1.32
  11  -4   4    3.47    1.32
  12  -4   4   66.90    5.06
 -12  -3   4    0.10    0.82
 -11  -3   4    3.80    1.20
 -10  -3   4   -0.51    0.55
  -9  -3   4   62.97    4.93
  -8  -3   4   19.50    3.37
  -7  -3   4    5.03    1.60
  -6  -3   4   60.59    4.33
  -5  -3   4    2.42    1.15
  -4  -3   4    9.27    1.98
  -3  -3   4   21.81    2.99
  -2  -3   4    1.24    0.63
  -1  -3   4   56.05    2.62
   0  -3   4    0.26    0.64
   1  -3   4   46.35    2.95
   2  -3   4    0.99    0.58
   3  -3   4   22.74    2.19
   4  -3   4    7.95    1.32
   5  -3   4    2.64    0.83
   6  -3   4   60.77    3.26
   7  -3   4    7.14    1.46
   8  -3   4   14.14    1.95
   9  -3   4   71.83    5.61
  10  -3   4   -0.37    0.62
  11  -3   4    4.73    1.38
  12  -3   4    0.87    0.92
  13  -3   4    4.46    2.21
 -13  -2   4   -0.46    1.15
 -12  -2   4    3.18    1.75
 -11  -2   4    4.52    2.05
 -10  -2   4    9.55    1.63
  -9  -2   4   18.04    2.18
  -8  -2   4    0.78    0.63
  -7  -2   4   27.16    3.56
  -6  -2   4   14.64    2.58
  -5  -2   4   23.22    3.13
  -4  -2   4   55.59    3.82
  -3  -2   4   40.89    3.25
  -2  -2   4    4.99    0.96
  -1  -2   4    0.01    0.38
   0  -2   4    0.14    0.41
   1  -2   4    0.27    0.40
   2  -2   4    2.36    0.73
   3  -2   4   46.00    2.55
   4  -2   4   52.11    2.80
   5  -2   4   16.40    1.99
   6  -2   4   12.96    1.80
   7  -2   4   21.81    2.40
   8  -2   4    0.35    0.55
   9  -2   4   16.07    2.22
  10  -2   4    9.76    1.83
  11  -2   4    3.83    1.32
  12  -2   4    3.28    1.32
  13  -2   4    0.73    0.99
 -13  -1   4   14.36    3.35
 -12  -1   4    6.55    2.30
 -11  -1   4    9.82    2.53
 -10  -1   4   -0.17    0.85
  -9  -1   4    3.98    1.06
  -8  -1   4   -0.18    0.47
  -7  -1   4    1.95    0.80
  -6  -1   4   47.64    3.63
  -5  -1   4   12.58    2.34
  -4  -1   4   30.62    3.40
  -3  -1   4   45.69    3.33
  -2  -1   4   10.23    1.05
  -1  -1   4    0.97    0.37
   0  -1   4    0.14    0.30
   1  -1   4    1.37    0.61
   2  -1   4   10.20    1.46
   3  -1   4   47.12    2.58
   4  -1   4   34.11    2.82
   5  -1   4    7.43    1.39
   6  -1   4   58.16    3.12
   7  -1   4    1.02    0.68
   8  -1   4    0.10    0.51
   9  -1   4    5.86    1.42
  10  -1   4    0.23    0.71
  11  -1   4    8.62    1.74
  12  -1   4    7.21    1.72
  13  -1   4    9.66    2.01
 -13   0   4    0.46    1.23
 -12   0   4   19.80    3.89
 -11   0   4   -0.23    0.90
 -10   0   4   52.78    6.11
  -9   0   4   -0.16    0.75
  -8   0   4   44.65    5.16
  -7   0   4    0.15    0.44
  -6   0   4    0.20    0.45
  -5   0   4    0.26    0.45
  -4   0   4    0.82    0.53
  -3   0   4    0.81    0.64
  -2   0   4    1.05    0.54
  -1   0   4   -0.01    0.24
   0   0   4  438.61    5.87
   1   0   4    0.20    0.31
   2   0   4    1.56    0.52
   3   0   4    0.12    0.34
   4   0   4    1.86    0.56
   5   0   4   -0.09    0.43
   6   0   4    0.14    0.48
   7   0   4   -0.17    0.44
   8   0   4   51.70    3.94
   9   0   4   -0.16    0.53
  10   0   4   55.75    4.33
  11   0   4    0.24    0.74
  12   0   4   17.57    2.57
  13   0   4   -0.61    0.86
 -13   1   4    9.66    3.00
 -12   1   4    3.17    1.78
 -11   1   4   12.85    3.25
 -10   1   4    0.25    0.63
  -9   1   4    3.52    1.58
  -8   1   4    0.44    0.76
  -7   1   4    0.51    0.88
  -6   1   4   50.21    5.19
  -5   1   4   10.03    1.48
  -4   1   4   31.20    2.45
  -3   1   4   43.43    2.31
  -2   1   4   10.33    1.36
  -1   1   4    0.68    0.28
   0   1   4   -0.08    0.25
   1   1   4    0.89    0.32
   2   1   4    8.20    1.05
   3   1   4   46.24    2.06
   4   1   4   30.09    2.12
   5   1   4    7.82    1.10
   6   1   4   50.74    2.51
   7   1   4    1.37    0.58
   8   1   4   -0.24    0.51
   9   1   4    5.33    1.34
  10   1   4   -0.45    0.59
  11   1   4    9.74    1.62
  12   1   4    6.88    1.66
  13   1   4   15.88    2.60
 -12   2   4    3.39    1.90
 -11   2   4    6.43    2.16
 -10   2   4    5.64    1.95
  -9   2   4   12.77    2.82
  -8   2   4    0.96    0.89
  -7   2   4   31.82    4.42
  -6   2   4   13.67    2.63
  -5   2   4   13.14    2.61
  -4   2   4   59.59    4.24
  -3   2   4   47.18    2.58
  -2   2   4    4.62    0.74
  -1   2   4   -0.09    0.26
   0   2   4    0.23    0.29
   1   2   4    0.40    0.35
   2   2   4    7.07    1.18
   3   2   4   46.03    2.58
   4   2   4   54.05    2.32
   5   2   4   18.68    1.71
   6   2   4   12.54    1.44
   7   2   4   22.14    1.91
   8   2   4    0.60    0.51
   9   2   4   20.40    1.98
  10   2   4    7.60    1.54
  11   2   4    4.30    1.27
  12   2   4    1.99    1.08
  13   2   4   -0.32    1.18
 -12   3   4   -0.93    0.90
 -11   3   4    1.87    1.39
 -10   3   4    0.03    0.92
  -9   3   4   62.42    5.25
  -8   3   4   16.07    3.04
  -7   3   4    8.13    2.18
  -6   3   4   66.02    4.91
  -5   3   4    1.61    0.78
  -4   3   4    8.26    1.38
  -3   3   4   18.74    2.03
  -2   3   4    1.82    0.68
  -1   3   4   52.76    2.13
   0   3   4    0.26    0.33
   1   3   4   50.98    2.12
   2   3   4    0.50    0.43
   3   3   4   21.85    2.25
   4   3   4    7.05    1.25
   5   3   4    1.75    0.74
   6   3   4   54.58    3.07
   7   3   4    4.47    0.87
   8   3   4   13.09    1.59
   9   3   4   63.25    3.12
  10   3   4    0.20    0.56
  11   3   4    5.63    1.19
  12   3   4    0.63    0.76
  13   3   4    1.96    1.63
 -12   4   4   59.70    4.78
 -11   4   4    1.50    0.89
 -10   4   4    3.03    1.14
  -9   4   4    1.08    0.75
  -8   4   4   -0.15    0.49
  -7   4   4    1.51    0.82
  -6   4   4   21.03    2.43
  -5   4   4    2.83    0.92
  -4   4   4   25.64    2.47
  -3   4   4    1.36    0.62
  -2   4   4   56.21    2.78
  -1   4   4    0.21    0.33
   0   4   4   35.52    2.44
   1   4   4    0.52    0.40
   2   4   4   57.64    2.33
   3   4   4    0.32    0.51
   4   4   4   26.73    3.44
   5   4   4    2.03    0.81
   6   4   4   25.16    2.64
   7   4   4    0.08    0.64
   8   4   4   -0.23    0.47
   9   4   4    1.28    0.65
  10   4   4    3.06    0.90
  11   4   4    2.44    0.86
  12   4   4   67.77    3.50
  13   4   4    1.38    1.20
 -12   5   4    1.38    1.13
 -11   5   4    4.93    1.31
 -10   5   4   11.00    2.00
  -9   5   4   17.36    2.43
  -8   5   4   -0.64    0.46
  -7   5   4    2.36    0.92
  -6   5   4   53.87    3.20
  -5   5   4    8.57    1.56
  -4   5   4    5.61    1.22
  -3   5   4   -0.05    0.40
  -2   5   4   34.25    2.21
  -1   5   4   18.92    1.62
   0   5   4    0.11    0.40
   1   5   4   15.93    1.88
   2   5   4   33.01    2.28
   3   5   4    0.13    0.39
   4   5   4    6.51    1.38
   5   5   4    8.32    1.57
   6   5   4   56.77    4.49
   7   5   4    3.49    1.13
   8   5   4   -0.36    0.50
   9   5   4   16.79    1.83
  10   5   4   11.70    1.62
  11   5   4    4.69    1.16
  12   5   4    2.15    0.96
 -11   6   4   -0.02    0.87
 -10   6   4    8.93    1.84
  -9   6   4   13.73    2.12
  -8   6   4   30.43    3.16
  -7   6   4   19.87    2.43
  -6   6   4    1.09    0.69
  -5   6   4   19.60    2.25
  -4   6   4    1.35    0.66
  -3   6   4   83.61    3.67
  -2   6   4   27.50    2.08
  -1   6   4    0.16    0.41
   0   6   4   40.17    3.11
   1   6   4    0.04    0.47
   2   6   4   25.55    2.05
   3   6   4   90.90    3.17
   4   6   4    1.19    0.70
   5   6   4   20.52    2.42
   6   6   4    1.00    0.64
   7   6   4   21.96    2.54
   8   6   4   23.88    2.75
   9   6   4   11.67    2.06
  10   6   4    8.72    1.47
  11   6   4    0.96    0.80
  12   6   4    1.10    1.02
 -11   7   4    5.55    1.62
 -10   7   4    0.07    0.75
  -9   7   4   22.63    2.70
  -8   7   4    5.26    1.38
  -7   7   4   16.00    2.25
  -6   7   4    3.74    1.04
  -5   7   4    7.08    1.44
  -4   7   4    1.52    0.74
  -3   7   4   44.41    2.54
  -2   7   4    3.72    0.81
  -1   7   4    9.46    1.53
   0   7   4    0.01    0.51
   1   7   4   11.79    1.72
   2   7   4    4.59    0.96
   3   7   4   41.61    2.44
   4   7   4    2.17    0.85
   5   7   4    9.40    1.64
   6   7   4    2.08    0.84
   7   7   4   15.19    2.26
   8   7   4    7.97    1.66
   9   7   4   18.84    2.49
  10   7   4    0.59    0.81
  11   7   4    4.52    1.19
 -10   8   4   18.69    2.67
  -9   8   4    5.14    1.40
  -8   8   4   15.42    2.28
  -7   8   4   12.46    1.97
  -6   8   4    5.52    1.32
  -5   8   4    7.64    1.39
  -4   8   4    2.71    0.94
  -3   8   4   17.86    1.74
  -2   8   4    0.20    0.44
  -1   8   4   17.96    2.23
   0   8   4   64.82    3.41
   1   8   4   19.02    2.25
   2   8   4   -0.07    0.52
   3   8   4   17.52    1.82
   4   8   4    2.67    0.80
   5   8   4    9.39    1.64
   6   8   4    5.58    1.27
   7   8   4   10.73    1.96
   8   8   4   12.78    2.10
   9   8   4    2.45    1.07
  10   8   4   13.05    2.23
  11   8   4    6.69    1.84
 -10   9   4   10.09    2.19
  -9   9   4   -0.24    0.71
  -8   9   4    0.38    0.79
  -7   9   4   17.75    2.39
  -6   9   4   48.85    3.94
  -5   9   4    4.50    1.26
  -4   9   4    1.07    0.55
  -3   9   4   17.53    1.84
  -2   9   4   12.11    1.88
  -1   9   4    0.61    0.62
   0   9   4    0.14    0.47
   1   9   4   -0.01    0.61
   2   9   4    9.15    1.62
   3   9   4   18.69    1.96
   4   9   4    1.97    0.73
   5   9   4    5.44    1.29
   6   9   4   46.58    3.97
   7   9   4   16.05    2.31
   8   9   4    1.08    0.85
   9   9   4    0.93    0.89
  10   9   4    9.13    1.97
  -9  10   4    3.62    1.37
  -8  10   4    3.07    1.16
  -7  10   4    1.62    0.94
  -6  10   4    6.04    1.50
  -5  10   4    2.34    0.76
  -4  10   4   30.19    2.45
  -3  10   4   25.40    2.27
  -2  10   4    6.28    1.36
  -1  10   4   11.43    1.85
   0  10   4    0.06    0.53
   1  10   4   10.93    1.84
   2  10   4    4.91    1.30
   3  10   4   21.88    2.19
   4  10   4   26.69    2.34
   5  10   4    3.22    1.19
   6  10   4    6.61    1.63
   7  10   4    3.46    1.25
   8  10   4    0.79    0.93
   9  10   4    3.63    1.38
  -8  11   4   -0.03    0.87
  -7  11   4    0.61    0.83
  -6  11   4    0.11    0.59
  -5  11   4    0.52    0.61
  -4  11   4    2.06    0.77
  -3  11   4    6.73    1.51
  -2  11   4    8.89    1.72
  -1  11   4   35.31    3.35
   0  11   4   -0.32    0.55
   1  11   4   33.12    3.30
   2  11   4    6.52    1.55
   3  11   4    8.71    1.46
   4  11   4    1.95    0.78
   5  11   4    0.91    0.70
   6  11   4    0.06    0.81
   7  11   4    2.00    1.09
   8  11   4    0.26    0.93
  -7  12   4   17.82    3.79
  -6  12   4    4.86    1.19
  -5  12   4    0.69    0.71
  -4  12   4    2.29    1.05
  -3  12   4    5.38    1.43
  -2  12   4   22.04    2.66
  -1  12   4   19.39    2.64
   0  12   4   12.02    2.08
   1  12   4   16.74    2.46
   2  12   4   17.16    2.42
   3  12   4    6.14    1.18
   4  12   4    2.49    0.91
   5  12   4    0.99    0.74
   6  12   4    5.36    1.52
   7  12   4    7.54    2.86
  -6  13   4   22.05    4.13
  -5  13   4   34.61    4.14
  -4  13   4    6.22    1.61
  -3  13   4    0.08    0.81
  -2  13   4    0.51    0.94
  -1  13   4    0.77    0.87
   0  13   4    0.13    0.77
   1  13   4    0.95    0.89
   2  13   4    1.19    0.98
   3  13   4    0.69    0.73
   4  13   4    9.96    1.62
   5  13   4   36.97    3.74
  -1  14   4    2.10    1.94
   0  14   4   43.99    6.00
   1  14   4    7.56    2.53
   2  14   4    0.46    1.31
   3  14   4   -0.96    1.11
   4  14   4    4.75    3.18
  -3 -10   5    0.85    1.68
  -2 -10   5   -0.17    1.02
  -1 -10   5   12.94    3.03
   0 -10   5    4.91    1.85
   1 -10   5   11.21    2.82
   2 -10   5    0.13    1.03
   3 -10   5    5.61    1.55
   4 -10   5   27.84    4.41
  -5  -9   5   11.94    3.00
  -4  -9   5    1.17    1.28
  -3  -9   5    0.22    1.07
  -2  -9   5   37.37    5.13
  -1  -9   5    7.32    2.28
   0  -9   5    0.64    1.15
   1  -9   5    2.33    1.37
   2  -9   5   30.45    4.40
   3  -9   5    0.73    0.79
   4  -9   5    0.31    0.79
   5  -9   5   20.15    3.74
  -6  -8   5   -1.23    1.03
  -5  -8   5    4.89    1.99
  -4  -8   5    4.97    1.90
  -3  -8   5    6.26    2.10
  -2  -8   5   11.84    2.79
  -1  -8   5    8.87    2.52
   0  -8   5    4.22    1.81
   1  -8   5    7.50    2.26
   2  -8   5   16.43    2.30
   3  -8   5    7.58    1.64
   4  -8   5    8.81    2.52
   5  -8   5    6.24    2.33
   6  -8   5    0.52    1.20
  -8  -7   5    2.65    2.68
  -7  -7   5    3.35    1.62
  -6  -7   5    6.38    2.22
  -5  -7   5   60.77    6.27
  -4  -7   5    0.13    0.87
  -3  -7   5    3.34    1.48
  -2  -7   5    1.24    1.15
  -1  -7   5    1.56    1.27
   0  -7   5   -0.79    0.72
   1  -7   5    0.70    0.96
   2  -7   5    3.10    1.07
   3  -7   5    7.12    2.17
   4  -7   5    2.21    1.41
   5  -7   5   59.60    6.12
   6  -7   5    4.42    1.87
   7  -7   5    3.89    1.75
  -9  -6   5    1.44    1.92
  -8  -6   5    7.27    2.32
  -7  -6   5    3.40    1.87
  -6  -6   5    0.13    1.00
  -5  -6   5    2.41    1.42
  -4  -6   5   -0.27    0.83
  -3  -6   5    0.21    0.89
  -2  -6   5    0.66    0.89
  -1  -6   5   46.48    5.25
   0  -6   5   27.15    3.99
   1  -6   5   50.75    5.41
   2  -6   5    0.08    0.59
   3  -6   5    0.27    0.78
   4  -6   5    0.15    1.02
   5  -6   5    2.32    1.50
   6  -6   5    3.01    1.65
   7  -6   5    2.56    1.53
   8  -6   5   11.10    2.94
  -9  -5   5    1.56    1.48
  -8  -5   5    1.54    1.27
  -7  -5   5   16.50    3.28
  -6  -5   5   10.20    2.49
  -5  -5   5    1.26    1.28
  -4  -5   5   -0.26    0.77
  -3  -5   5   17.12    3.08
  -2  -5   5   35.32    4.47
  -1  -5   5    1.61    1.23
   0  -5   5   -0.39    0.72
   1  -5   5    2.82    0.97
   2  -5   5   33.15    4.32
   3  -5   5   14.29    2.89
   4  -5   5    0.17    0.97
   5  -5   5    0.58    1.08
   6  -5   5    9.09    2.64
   7  -5   5   20.36    3.80
   8  -5   5    4.03    1.89
  -9  -4   5    1.45    1.08
  -8  -4   5    3.90    1.72
  -7  -4   5    2.72    1.53
  -6  -4   5    3.44    1.59
  -5  -4   5   -0.19    0.84
  -4  -4   5   53.14    5.45
  -3  -4   5    3.50    1.39
  -2  -4   5    1.80    1.12
  -1  -4   5    6.03    1.84
   0  -4   5    2.56    1.24
   1  -4   5    3.80    1.13
   2  -4   5    4.12    1.60
   3  -4   5    1.88    1.25
   4  -4   5   52.56    5.56
   5  -4   5    0.49    1.02
   6  -4   5    5.28    2.02
   7  -4   5    3.79    1.98
   8  -4   5    8.83    2.79
   9  -4   5    0.15    0.97
  10  -4   5    0.85    1.34
  -9  -3   5   10.61    3.00
  -8  -3   5    9.42    1.81
  -7  -3   5   45.40    5.97
  -6  -3   5   -0.02    0.88
  -5  -3   5   23.47    3.65
  -4  -3   5    5.70    1.80
  -3  -3   5    3.34    1.43
  -2  -3   5   27.22    3.72
  -1  -3   5   35.82    4.27
   0  -3   5    0.33    0.74
   1  -3   5   43.53    4.53
   2  -3   5   26.93    3.78
   3  -3   5    1.38    1.13
   4  -3   5    6.44    2.00
   5  -3   5   19.72    3.46
   6  -3   5   -0.30    0.84
   7  -3   5   51.21    4.18
   8  -3   5    9.35    1.83
   9  -3   5    9.29    1.90
  10  -3   5    8.99    2.91
  -9  -2   5    0.20    1.18
  -8  -2   5   -0.17    1.06
  -7  -2   5   15.29    3.24
  -6  -2   5    0.36    0.69
  -5  -2   5    0.40    0.91
  -4  -2   5    6.86    1.94
  -3  -2   5    1.82    1.08
  -2  -2   5    6.58    1.83
  -1  -2   5   48.43    4.99
   0  -2   5    0.13    0.58
   1  -2   5   46.32    4.87
   2  -2   5    9.70    2.34
   3  -2   5    5.11    1.81
   4  -2   5    8.05    2.30
   5  -2   5   -0.21    0.60
   6  -2   5    0.49    0.74
   7  -2   5   12.18    1.99
   8  -2   5    0.16    0.72
   9  -2   5    0.66    0.84
  10  -2   5   -0.02    1.29
  -9  -1   5    1.08    1.32
  -8  -1   5    8.56    2.75
  -7  -1   5    0.11    0.98
  -6  -1   5   -0.75    0.75
  -5  -1   5   45.59    5.21
  -4  -1   5    6.59    1.29
  -3  -1   5   13.50    1.88
  -2  -1   5    7.55    1.87
  -1  -1   5   -0.10    0.69
   0  -1   5    0.09    0.54
   1  -1   5    1.15    1.01
   2  -1   5   11.30    2.48
   3  -1   5   15.20    2.03
   4  -1   5    3.40    1.09
   5  -1   5   52.39    3.99
   6  -1   5    0.15    0.59
   7  -1   5   -0.11    0.74
   8  -1   5    7.99    1.69
   9  -1   5   -0.23    0.76
  10  -1   5   19.22    4.08
  -9   0   5    0.58    1.15
  -8   0   5   67.46    5.74
  -7   0   5   -0.04    1.06
  -6   0   5    7.72    2.32
  -5   0   5   -0.15    0.71
  -4   0   5   43.51    4.97
  -3   0   5   -0.20    0.55
  -2   0   5   40.69    3.16
  -1   0   5    0.27    0.68
   0   0   5    4.31    1.02
   1   0   5    0.20    0.51
   2   0   5   37.61    3.14
   3   0   5   -0.17    0.50
   4   0   5   44.63    3.67
   5   0   5   -0.25    0.60
   6   0   5    6.45    1.50
   7   0   5   -0.43    0.60
   8   0   5   62.84    4.19
   9   0   5   -0.92    0.64
  10   0   5    1.17    1.52
  -9   1   5    0.37    1.22
  -8   1   5    8.69    2.39
  -7   1   5    0.66    1.21
  -6   1   5   -0.01    0.92
  -5   1   5   56.10    4.76
  -4   1   5    4.55    1.11
  -3   1   5   12.44    1.51
  -2   1   5   11.92    1.57
  -1   1   5    0.01    0.60
   0   1   5    0.10    0.42
   1   1   5    1.09    0.70
   2   1   5    9.88    1.62
   3   1   5   12.70    1.80
   4   1   5    4.29    1.20
   5   1   5   55.70    3.67
   6   1   5   -0.30    0.59
   7   1   5   -0.86    0.59
   8   1   5    8.16    1.72
   9   1   5    0.79    0.93
  10   1   5   15.48    3.80
  -9   2   5    0.83    1.10
  -8   2   5   -0.37    1.06
  -7   2   5    9.86    1.98
  -6   2   5    0.28    0.65
  -5   2   5    1.32    0.81
  -4   2   5    6.16    1.37
  -3   2   5    3.81    0.87
  -2   2   5    7.74    1.15
  -1   2   5   45.33    2.55
   0   2   5    0.32    0.44
   1   2   5   49.45    2.79
   2   2   5    8.26    1.38
   3   2   5    3.58    1.13
   4   2   5    8.48    1.61
   5   2   5    1.34    0.80
   6   2   5   -0.07    0.60
   7   2   5   11.03    1.98
   8   2   5    1.10    0.87
   9   2   5    0.34    0.82
  -9   3   5    9.96    2.03
  -8   3   5   15.70    2.54
  -7   3   5   46.04    4.01
  -6   3   5    0.46    0.68
  -5   3   5   17.49    2.31
  -4   3   5    6.40    1.39
  -3   3   5    1.37    0.58
  -2   3   5   30.05    2.84
  -1   3   5   51.35    2.79
   0   3   5    0.40    0.62
   1   3   5   49.28    3.72
   2   3   5   30.05    2.42
   3   3   5    0.46    0.53
   4   3   5    4.95    1.16
   5   3   5   19.29    2.43
   6   3   5    0.37    0.78
   7   3   5   42.90    3.91
   8   3   5   11.34    2.04
   9   3   5   15.13    2.45
  -9   4   5    2.03    1.17
  -8   4   5    7.06    1.62
  -7   4   5    3.44    1.25
  -6   4   5    6.10    1.46
  -5   4   5    0.11    0.68
  -4   4   5   60.44    3.49
  -3   4   5    1.27    0.83
  -2   4   5    4.70    1.20
  -1   4   5    5.36    1.09
   0   4   5    1.15    0.72
   1   4   5    6.80    1.47
   2   4   5    4.84    1.33
   3   4   5    1.60    0.80
   4   4   5   58.20    3.03
   5   4   5    0.07    0.53
   6   4   5    6.92    1.30
   7   4   5    1.71    1.03
   8   4   5    6.67    1.64
   9   4   5    0.97    1.07
  -9   5   5    1.35    1.59
  -8   5   5    4.32    1.40
  -7   5   5   17.12    2.42
  -6   5   5    9.97    1.90
  -5   5   5    0.34    0.78
  -4   5   5   -0.19    0.56
  -3   5   5   14.98    2.07
  -2   5   5   38.71    3.34
  -1   5   5    1.54    0.87
   0   5   5   -0.49    0.47
   1   5   5    0.73    0.72
   2   5   5   47.56    3.91
   3   5   5   18.69    2.44
   4   5   5    0.31    0.70
   5   5   5   -0.08    0.60
   6   5   5    8.43    1.44
   7   5   5   21.53    2.22
   8   5   5    3.29    1.09
  -8   6   5   12.60    2.30
  -7   6   5    2.15    1.08
  -6   6   5   -0.11    0.75
  -5   6   5    2.90    1.11
  -4   6   5    0.53    0.79
  -3   6   5    1.02    0.78
  -2   6   5   -0.01    0.63
  -1   6   5   47.99    3.76
   0   6   5   21.05    2.07
   1   6   5   50.07    4.06
   2   6   5    0.63    0.74
   3   6   5   -0.16    0.58
   4   6   5    0.11    0.77
   5   6   5    6.70    1.65
   6   6   5    0.86    0.91
   7   6   5    3.89    1.09
   8   6   5   10.25    1.72
   9   6   5    1.06    1.78
  -8   7   5    5.35    2.50
  -7   7   5    4.19    1.46
  -6   7   5    4.84    1.43
  -5   7   5   56.00    3.53
  -4   7   5    0.00    0.75
  -3   7   5    6.93    1.57
  -2   7   5    2.04    0.96
  -1   7   5    0.62    0.75
   0   7   5   -0.17    0.56
   1   7   5    0.89    0.78
   2   7   5    0.39    0.75
   3   7   5    4.99    1.44
   4   7   5   -0.01    0.74
   5   7   5   63.07    4.75
   6   7   5    3.30    1.26
   7   7   5    3.51    1.35
   8   7   5    3.99    2.21
  -7   8   5    8.20    2.49
  -6   8   5    0.69    0.75
  -5   8   5    5.66    1.52
  -4   8   5    7.19    1.57
  -3   8   5   10.49    2.01
  -2   8   5   18.04    2.51
  -1   8   5    5.67    1.38
   0   8   5    3.50    1.24
   1   8   5    7.57    1.54
   2   8   5   15.21    2.32
   3   8   5    9.90    1.90
   4   8   5    7.25    1.71
   5   8   5    7.56    1.70
   6   8   5   -0.27    0.83
   7   8   5   10.26    2.89
  -6   9   5    7.22    2.92
  -5   9   5   14.90    2.36
  -4   9   5    0.89    0.94
  -3   9   5    0.10    0.80
  -2   9   5   35.54    3.53
  -1   9   5    9.67    1.85
   0   9   5   -0.04    0.75
   1   9   5    8.35    1.46
   2   9   5   37.21    3.82
   3   9   5    0.52    0.86
   4   9   5   -0.44    0.78
   5   9   5   12.09    2.33
  -4  10   5   26.68    6.78
  -3  10   5    3.93    1.43
  -2  10   5    0.51    0.85
  -1  10   5   16.06    2.26
   0  10   5    6.51    1.64
   1  10   5   14.95    1.95
   2  10   5    0.34    0.91
   3  10   5    2.11    1.32
  -1  11   5   21.73    4.24
   0  11   5    1.00    1.45
   1  11   5   13.61    3.51
  -3  -4   6    0.55    1.35
  -2  -4   6   10.28    2.73
  -1  -4   6    1.02    1.29
   0  -4   6   13.54    3.08
   1  -4   6   -0.70    1.10
   2  -4   6   14.62    3.52
  -4  -3   6    3.75    2.09
  -2  -3   6   -0.33    1.00
  -1  -3   6   14.98    3.09
   0  -3   6   -0.30    1.02
   1  -3   6   14.48    3.13
   2  -3   6    0.44    1.21
   3  -3   6    5.45    2.20
   4  -3   6    2.74    2.05
   0  -2   6    1.09    1.19
   1  -2   6    0.40    1.21
   2  -2   6    1.09    1.44
   3  -2   6   25.38    4.27
   4  -2   6   26.81    4.41
   2  -1   6    2.01    1.61
   3  -1   6   22.26    4.07
   4  -1   6    8.52    2.62
   2   0   6   -0.39    1.26
   3   0   6    0.75    1.42
   4   0   6    0.47    1.37
   2   1   6    2.79    1.73
   3   1   6   14.97    3.20
   4   1   6    9.72    2.73
   2   2   6    1.91    1.61
   3   2   6   24.65    4.23
   4   2   6   19.73    3.99
   1   3   6   21.20    4.73
   2   3   6    0.07    0.85
   3   3   6    6.34    1.65
   4   3   6    3.56    2.04
   0   4   6   13.60    4.01
   1   4   6   -0.01    0.91
   2   4   6   20.55    2.85
   3   4   6    0.46    1.40
  -1   5   6    8.68    2.76
   0   5   6   -0.33    1.27
   1   5   6    6.21    1.73
   0   0   0    0.00    0.00
;
_shelx_hkl_checksum              49032
loop_
_space_group_symop_operation_xyz
'x, y, z'
'-x, -y, z'
'-x+1/2, y+1/2, -z'
'x+1/2, -y+1/2, -z'
'-x, -y, -z'
'x, y, -z'
'x-1/2, -y-1/2, z'
'-x-1/2, y-1/2, z'
loop_
_atom_site_label
_atom_site_type_symbol
_atom_site_fract_x
_atom_site_fract_y
_atom_site_fract_z
_atom_site_U_iso_or_equiv
_atom_site_adp_type
_atom_site_occupancy
_atom_site_site_symmetry_order
_atom_site_calc_flag
_atom_site_refinement_flags_posn
_atom_site_refinement_flags_adp
_atom_site_refinement_flags_occupancy
Ba Ba 0.0000 0.5000 0.5000 0.01785(15) Uani 1 4 d S T P
Ce Ce 0.11884(4) 0.14306(3) 0.5000 0.01228(11) Uani 1 2 d S T P
In In 0.28925(5) 0.37649(4) 0.0000 0.01501(13) Uani 1 2 d S T P
S1 S 0.36016(17) 0.28423(16) 0.5000 0.0157(3) Uani 1 2 d S T P
S2 S 0.08445(16) 0.30450(14) 0.0000 0.0133(3) Uani 1 2 d S T P
S3 S 0.28563(15) 0.06262(14) 0.0000 0.0131(3) Uani 1 2 d S T P
S4 S 0.0000 0.0000 0.0000 0.0155(5) Uani 1 4 d S T P
loop_
_atom_site_aniso_label
_atom_site_aniso_U_11
_atom_site_aniso_U_22
_atom_site_aniso_U_33
_atom_site_aniso_U_23
_atom_site_aniso_U_13
_atom_site_aniso_U_12
Ba 0.0173(3) 0.0238(3) 0.0124(3) 0.000 0.000 0.0050(2)
Ce 0.0142(2) 0.01306(19) 0.00953(18) 0.000 0.000 0.00078(14)
In 0.0173(3) 0.0150(2) 0.0127(2) 0.000 0.000 0.00140(19)
S1 0.0184(9) 0.0180(9) 0.0107(8) 0.000 0.000 0.0015(7)
S2 0.0141(8) 0.0115(8) 0.0143(8) 0.000 0.000 -0.0003(6)
S3 0.0120(8) 0.0117(8) 0.0157(8) 0.000 0.000 0.0004(6)
S4 0.0160(12) 0.0143(12) 0.0162(12) 0.000 0.000 -0.0022(9)
loop_
_atom_type_symbol
_atom_type_description
_atom_type_scat_dispersion_real
_atom_type_scat_dispersion_imag
_atom_type_scat_source
S S 0.1246 0.1234 'International Tables Vol C Tables 4.2.6.8 and 6.1.1.4'
In In -0.7276 1.3100 'International Tables Vol C Tables 4.2.6.8 and 6.1.1.4'
Ba Ba -0.3244 2.2819 'International Tables Vol C Tables 4.2.6.8 and 6.1.1.4'
Ce Ce -0.2486 2.6331 'International Tables Vol C Tables 4.2.6.8 and 6.1.1.4'
loop_
_geom_angle_atom_site_label_1
_geom_angle_atom_site_label_2
_geom_angle_atom_site_label_3
_geom_angle
_geom_angle_site_symmetry_1
_geom_angle_site_symmetry_3
S3 Ba S3 180.0 7_565 3_556
S3 Ba S3 75.64(4) 7_565 7_566
S3 Ba S3 104.36(4) 3_556 7_566
S3 Ba S3 104.36(4) 7_565 3
S3 Ba S3 75.64(4) 3_556 3
S3 Ba S3 180.0 7_566 3
S3 Ba S2 71.12(4) 7_565 .
S3 Ba S2 108.88(4) 3_556 .
S3 Ba S2 115.35(4) 7_566 .
S3 Ba S2 64.65(4) 3 .
S3 Ba S2 108.88(4) 7_565 5_566
S3 Ba S2 71.12(4) 3_556 5_566
S3 Ba S2 64.65(4) 7_566 5_566
S3 Ba S2 115.35(4) 3 5_566
S2 Ba S2 180.0 . 5_566
S3 Ba S2 64.65(4) 7_565 5_565
S3 Ba S2 115.35(4) 3_556 5_565
S3 Ba S2 108.88(4) 7_566 5_565
S3 Ba S2 71.12(4) 3 5_565
S2 Ba S2 104.39(4) . 5_565
S2 Ba S2 75.61(4) 5_566 5_565
S3 Ba S2 115.35(4) 7_565 1_556
S3 Ba S2 64.65(4) 3_556 1_556
S3 Ba S2 71.12(4) 7_566 1_556
S3 Ba S2 108.88(4) 3 1_556
S2 Ba S2 75.61(4) . 1_556
S2 Ba S2 104.39(4) 5_566 1_556
S2 Ba S2 180.0 5_565 1_556
S3 Ba Ba 127.822(19) 7_565 1_556
S3 Ba Ba 52.178(19) 3_556 1_556
S3 Ba Ba 52.179(19) 7_566 1_556
S3 Ba Ba 127.822(19) 3 1_556
S2 Ba Ba 127.807(19) . 1_556
S2 Ba Ba 52.193(19) 5_566 1_556
S2 Ba Ba 127.807(19) 5_565 1_556
S2 Ba Ba 52.193(19) 1_556 1_556
S3 Ba Ba 52.178(19) 7_565 1_554
S3 Ba Ba 127.822(19) 3_556 1_554
S3 Ba Ba 127.821(19) 7_566 1_554
S3 Ba Ba 52.179(19) 3 1_554
S2 Ba Ba 52.193(19) . 1_554
S2 Ba Ba 127.807(19) 5_566 1_554
S2 Ba Ba 52.193(19) 5_565 1_554
S2 Ba Ba 127.807(19) 1_556 1_554
Ba Ba Ba 180.0 1_556 1_554
S2 Ce S2 89.67(5) 1_556 .
S2 Ce S3 143.45(5) 1_556 .
S2 Ce S3 80.98(4) . .
S2 Ce S3 80.98(4) 1_556 1_556
S2 Ce S3 143.45(5) . 1_556
S3 Ce S3 85.82(5) . 1_556
S2 Ce S4 144.66(4) 1_556 .
S2 Ce S4 82.60(3) . .
S3 Ce S4 69.25(3) . .
S3 Ce S4 123.91(4) 1_556 .
S2 Ce S4 82.60(3) 1_556 1_556
S2 Ce S4 144.66(4) . 1_556
S3 Ce S4 123.91(4) . 1_556
S3 Ce S4 69.25(3) 1_556 1_556
S4 Ce S4 84.108(12) . 1_556
S2 Ce S1 70.57(4) 1_556 7_565
S2 Ce S1 70.57(4) . 7_565
S3 Ce S1 136.07(3) . 7_565
S3 Ce S1 136.07(3) 1_556 7_565
S4 Ce S1 74.35(3) . 7_565
S4 Ce S1 74.35(3) 1_556 7_565
S2 Ce S1 75.55(5) 1_556 .
S2 Ce S1 75.55(5) . .
S3 Ce S1 67.90(4) . .
S3 Ce S1 67.90(4) 1_556 .
S4 Ce S1 134.203(14) . .
S4 Ce S1 134.203(14) 1_556 .
S1 Ce S1 131.426(17) 7_565 .
S2 Ce Ce 45.16(3) 1_556 1_556
S2 Ce Ce 134.84(3) . 1_556
S3 Ce Ce 132.91(2) . 1_556
S3 Ce Ce 47.09(2) 1_556 1_556
S4 Ce Ce 132.054(6) . 1_556
S4 Ce Ce 47.946(6) 1_556 1_556
S1 Ce Ce 90.0 7_565 1_556
S1 Ce Ce 90.0 . 1_556
S2 Ce Ce 134.84(3) 1_556 1_554
S2 Ce Ce 45.16(3) . 1_554
S3 Ce Ce 47.09(2) . 1_554
S3 Ce Ce 132.91(2) 1_556 1_554
S4 Ce Ce 47.946(6) . 1_554
S4 Ce Ce 132.054(6) 1_556 1_554
S1 Ce Ce 90.0 7_565 1_554
S1 Ce Ce 90.0 . 1_554
Ce Ce Ce 180.00(3) 1_556 1_554
S3 In S1 123.44(4) 3 1_554
S3 In S1 123.44(4) 3 .
S1 In S1 110.39(8) 1_554 .
S3 In S2 89.82(6) 3 .
S1 In S2 98.67(5) 1_554 .
S1 In S2 98.67(5) . .
S3 In S4 78.74(4) 3 3
S1 In S4 87.80(5) 1_554 3
S1 In S4 87.80(5) . 3
S2 In S4 168.56(5) . 3
In S1 In 110.39(8) 1_556 .
In S1 Ce 100.80(5) 1_556 7_665
In S1 Ce 100.80(5) . 7_665
In S1 Ce 87.77(5) 1_556 .
In S1 Ce 87.77(5) . .
Ce S1 Ce 164.75(7) 7_665 .
In S2 Ce 96.51(5) . 1_554
In S2 Ce 96.51(5) . .
Ce S2 Ce 89.67(5) 1_554 .
In S2 Ba 91.24(5) . .
Ce S2 Ba 169.30(6) 1_554 .
Ce S2 Ba 96.788(12) . .
In S2 Ba 91.24(5) . 1_554
Ce S2 Ba 96.788(12) 1_554 1_554
Ce S2 Ba 169.30(6) . 1_554
Ba S2 Ba 75.61(4) . 1_554
In S3 Ce 94.74(5) 3_545 1_554
In S3 Ce 94.74(5) 3_545 .
Ce S3 Ce 85.82(5) 1_554 .
In S3 Ba 92.70(5) 3_545 3_546
Ce S3 Ba 170.91(6) 1_554 3_546
Ce S3 Ba 98.770(10) . 3_546
In S3 Ba 92.70(5) 3_545 3_545
Ce S3 Ba 98.770(10) 1_554 3_545
Ce S3 Ba 170.91(6) . 3_545
Ba S3 Ba 75.64(4) 3_546 3_545
In S4 In 180.00(2) 7_565 3_545
In S4 Ce 94.454(12) 7_565 .
In S4 Ce 85.546(12) 3_545 .
In S4 Ce 85.546(12) 7_565 5
In S4 Ce 94.454(12) 3_545 5
Ce S4 Ce 180.000(13) . 5
In S4 Ce 85.546(12) 7_565 5_556
In S4 Ce 94.454(12) 3_545 5_556
Ce S4 Ce 95.892(12) . 5_556
Ce S4 Ce 84.108(12) 5 5_556
In S4 Ce 94.454(12) 7_565 1_554
In S4 Ce 85.546(12) 3_545 1_554
Ce S4 Ce 84.108(12) . 1_554
Ce S4 Ce 95.892(12) 5 1_554
Ce S4 Ce 180.000(19) 5_556 1_554
loop_
_geom_bond_atom_site_label_1
_geom_bond_atom_site_label_2
_geom_bond_distance
_geom_bond_site_symmetry_2
Ba S3 3.2952(14) 7_565
Ba S3 3.2952(14) 3_556
Ba S3 3.2952(14) 7_566
Ba S3 3.2952(14) 3
Ba S2 3.2963(14) .
Ba S2 3.2963(14) 5_566
Ba S2 3.2963(14) 5_565
Ba S2 3.2963(14) 1_556
Ba Ba 4.0413(3) 1_556
Ba Ba 4.0413(3) 1_554
Ce S2 2.8659(13) 1_556
Ce S2 2.8659(13) .
Ce S3 2.9679(13) .
Ce S3 2.9679(13) 1_556
Ce S4 3.0167(3) .
Ce S4 3.0167(3) 1_556
Ce S1 3.131(2) 7_565
Ce S1 3.296(2) .
Ce Ce 4.0413(3) 1_556
Ce Ce 4.0413(3) 1_554
In S3 2.4562(19) 3
In S1 2.4609(12) 1_554
In S1 2.4609(12) .
In S2 2.5355(19) .
In S4 2.8801(6) 3
S1 In 2.4609(12) 1_556
S1 Ce 3.131(2) 7_665
S2 Ce 2.8659(13) 1_554
S2 Ba 3.2963(14) 1_554
S3 In 2.4562(19) 3_545
S3 Ce 2.9679(13) 1_554
S3 Ba 3.2953(14) 3_546
S3 Ba 3.2952(14) 3_545
S4 In 2.8802(6) 7_565
S4 In 2.8802(6) 3_545
S4 Ce 3.0167(3) 5
S4 Ce 3.0167(3) 5_556
S4 Ce 3.0167(3) 1_554
