#------------------------------------------------------------------------------
#$Date: 2016-08-07 12:09:56 +0300 (Sun, 07 Aug 2016) $
#$Revision: 185456 $
#$URL: file:///home/coder/svn-repositories/cod/cif/7/03/98/7039853.cif $
#------------------------------------------------------------------------------
#
# This file is available in the Crystallography Open Database (COD),
# http://www.crystallography.net/
#
# All data on this site have been placed in the public domain by the
# contributors.
#
data_7039853
loop_
_publ_author_name
'Yin, Wenlong'
'Iyer, Abishek K.'
'Lin, Xinsong'
'Li, Chao'
'Yao, Jiyong'
'Mar, Arthur'
_publ_section_title
;
 Quaternary chalcogenides BaRE2In2Ch7 (RE = La-Nd; Ch = S, Se) containing
 InCh5 trigonal bipyramids.
;
_journal_issue                   31
_journal_name_full
'Dalton transactions (Cambridge, England : 2003)'
_journal_page_first              12329
_journal_page_last               12337
_journal_paper_doi               10.1039/c6dt02385a
_journal_volume                  45
_journal_year                    2016
_chemical_formula_structural     'Ba La2 In2 S7'
_chemical_formula_sum            'Ba In2 La2 S7'
_chemical_formula_weight         869.22
_chemical_name_common            'barium lanthanum indium sulfide (1/2/2/7)'
_chemical_name_systematic        'barium lanthanum indium sulfide (1/2/2/7)'
_space_group_crystal_system      orthorhombic
_space_group_IT_number           55
_space_group_name_Hall           '-P 2 2ab'
_space_group_name_H-M_alt        'P b a m'
_symmetry_space_group_name_Hall  '-P 2 2ab'
_symmetry_space_group_name_H-M   'P b a m'
_audit_creation_method           SHELXL-2014/7
_cell_angle_alpha                90
_cell_angle_beta                 90
_cell_angle_gamma                90
_cell_formula_units_Z            2
_cell_length_a                   11.6300(8)
_cell_length_b                   12.4202(9)
_cell_length_c                   4.0689(3)
_cell_measurement_reflns_used    3299
_cell_measurement_temperature    296(2)
_cell_measurement_theta_max      31.60
_cell_measurement_theta_min      3.28
_cell_volume                     587.74(7)
_computing_cell_refinement       'Bruker SAINT 8.34A (Bruker, 2013)'
_computing_data_collection       'Bruker APEX 2 (Bruker, 2008)'
_computing_data_reduction        'Bruker SAINT 8.34A'
_computing_molecular_graphics    'ATOMS 5.1 (Dowty, 1999)'
_computing_publication_material  'SHELXL-2014/7 (Sheldrick, 2014)'
_computing_structure_refinement  'SHELXL-2014/7 (Sheldrick, 2014)'
_computing_structure_solution    'SHELXS-97 (Sheldrick, 2008)'
_diffrn_ambient_temperature      296(2)
_diffrn_measured_fraction_theta_full 1.000
_diffrn_measured_fraction_theta_max 0.994
_diffrn_measurement_device_type  'Bruker PLATFORM/SMART APEX II CCD'
_diffrn_measurement_method       '\w and \f scans'
_diffrn_radiation_type           MoK\a
_diffrn_radiation_wavelength     0.71073
_diffrn_reflns_av_R_equivalents  0.0515
_diffrn_reflns_av_unetI/netI     0.0287
_diffrn_reflns_Laue_measured_fraction_full 1.000
_diffrn_reflns_Laue_measured_fraction_max 0.994
_diffrn_reflns_limit_h_max       17
_diffrn_reflns_limit_h_min       -17
_diffrn_reflns_limit_k_max       19
_diffrn_reflns_limit_k_min       -18
_diffrn_reflns_limit_l_max       6
_diffrn_reflns_limit_l_min       -6
_diffrn_reflns_number            8324
_diffrn_reflns_point_group_measured_fraction_full 1.000
_diffrn_reflns_point_group_measured_fraction_max 0.994
_diffrn_reflns_theta_full        25.242
_diffrn_reflns_theta_max         33.309
_diffrn_reflns_theta_min         2.399
_diffrn_source                   'fine-focus sealed tube'
_exptl_absorpt_coefficient_mu    15.461
_exptl_absorpt_correction_T_max  0.752
_exptl_absorpt_correction_T_min  0.453
_exptl_absorpt_correction_type   numerical
_exptl_absorpt_process_details   'SHELXL-2014/7 (Sheldrick, 2014)'
_exptl_crystal_colour            black
_exptl_crystal_density_diffrn    4.912
_exptl_crystal_description       needle
_exptl_crystal_F_000             760
_exptl_crystal_size_max          0.081
_exptl_crystal_size_mid          0.029
_exptl_crystal_size_min          0.026
_refine_diff_density_max         1.906
_refine_diff_density_min         -1.896
_refine_diff_density_rms         0.316
_refine_ls_extinction_coef       0.00098(19)
_refine_ls_extinction_expression Fc^*^=kFc[1+0.001xFc^2^\l^3^/sin(2\q)]^-1/4^
_refine_ls_extinction_method     'SHELXL-2014/7 (Sheldrick 2014)'
_refine_ls_goodness_of_fit_ref   1.104
_refine_ls_hydrogen_treatment    undef
_refine_ls_matrix_type           full
_refine_ls_number_parameters     40
_refine_ls_number_reflns         1261
_refine_ls_number_restraints     0
_refine_ls_restrained_S_all      1.104
_refine_ls_R_factor_all          0.0341
_refine_ls_R_factor_gt           0.0272
_refine_ls_shift/su_max          0.000
_refine_ls_shift/su_mean         0.000
_refine_ls_structure_factor_coef Fsqd
_refine_ls_weighting_details
'w=1/[\s^2^(Fo^2^)+(0.0213P)^2^+2.8717P] where P=(Fo^2^+2Fc^2^)/3'
_refine_ls_weighting_scheme      calc
_refine_ls_wR_factor_gt          0.0563
_refine_ls_wR_factor_ref         0.0584
_reflns_Friedel_coverage         0.000
_reflns_number_gt                1090
_reflns_number_total             1261
_reflns_threshold_expression     'I > 2\s(I)'
_cod_data_source_file            c6dt02385a3.cif
_cod_data_source_block           pbam
_cod_depositor_comments
'Adding full bibliography for 7039846--7039853.cif.'
_cod_database_code               7039853
_shelx_shelxl_version_number     2014/7
_shelx_space_group_comment
;
The symmetry employed for this shelxl refinement is uniquely defined
by the following loop, which should always be used as a source of
symmetry information in preference to the above space-group names.
They are only intended as comments.
;
_shelx_estimated_absorpt_t_min   0.367
_shelx_estimated_absorpt_t_max   0.689
_shelx_res_file
;

    pbam.res created by SHELXL-2014/7

TITL BaLa2In2S7 Pbam lsf final refinement
CELL 0.71073  11.63000  12.42020   4.06890  90.0000  90.0000  90.0000
ZERR    2.00   0.00080   0.00090   0.00030   0.0000   0.0000   0.0000
LATT  1
SYMM -X, -Y, Z
SYMM 0.5-X, 0.5+Y, -Z
SYMM 0.5+X, 0.5-Y, -Z
SFAC S IN BA LA
UNIT 14 4 2 4
TEMP 23
SIZE 0.026 0.029 0.081

L.S. 4
ACTA

WGHT    0.021300    2.871700
EXTI    0.000980
FVAR       0.06674
BA    3    0.000000    0.500000    0.500000    10.25000    0.01678    0.02291 =
         0.01177    0.00000    0.00000    0.00501
LA    4    0.118883    0.143603    0.500000    10.50000    0.01296    0.01176 =
         0.00861    0.00000    0.00000    0.00016
IN    2    0.287874    0.377586    0.000000    10.50000    0.01618    0.01338 =
         0.01133    0.00000    0.00000    0.00149
S1    1    0.357950    0.286063    0.500000    10.50000    0.01594    0.01568 =
         0.00981    0.00000    0.00000    0.00178
S2    1    0.082931    0.305783    0.000000    10.50000    0.01314    0.01110 =
         0.01270    0.00000    0.00000   -0.00034
S3    1    0.286998    0.062625    0.000000    10.50000    0.01104    0.01076 =
         0.01520    0.00000    0.00000   -0.00063
S4    1    0.000000    0.000000    0.000000    10.25000    0.01450    0.01239 =
         0.01333    0.00000    0.00000   -0.00317
HKLF 4

REM  BaLa2In2S7 Pbam lsf final refinement
REM R1 =  0.0272 for    1090 Fo > 4sig(Fo)  and  0.0341 for all    1261 data
REM     40 parameters refined using      0 restraints

END

WGHT      0.0213      2.8727

REM Highest difference peak  1.906,  deepest hole -1.896,  1-sigma level  0.316
Q1    1   0.2139  0.4095  0.0000  10.50000  0.05    1.91
Q2    1   0.0958  0.2341  0.0000  10.50000  0.05    1.59
Q3    1   0.3837  0.3429  0.5000  10.50000  0.05    1.55
Q4    1   0.0741  0.4090  0.0000  10.50000  0.05    1.53
Q5    1   0.2603 -0.0028 -0.5000  10.50000  0.05    1.49
Q6    1   0.2358  0.2117  0.5000  10.50000  0.05    1.49
Q7    1  -0.0450  0.3625  0.0000  10.50000  0.05    1.48
Q8    1   0.0411  0.0579  0.0000  10.50000  0.05    1.42
Q9    1   0.2308  0.1244  0.0000  10.50000  0.05    1.40
Q10   1  -0.0356  0.1330  0.0000  10.50000  0.05    1.38
Q11   1   0.1378  0.3749  0.0000  10.50000  0.05    1.30
Q12   1   0.0418  0.6457  0.5000  10.50000  0.05    1.29
Q13   1   0.1425  0.3546 -0.5000  10.50000  0.05    1.29
Q14   1   0.4154  0.0078  0.0000  10.50000  0.05    1.27
Q15   1   0.3300  0.2343  0.0000  10.50000  0.05    1.26
Q16   1   0.0009  0.2053  0.5000  10.50000  0.05    1.23
Q17   1   0.3843  0.1484  0.0000  10.50000  0.05    1.21
Q18   1   0.3163  0.4539  0.0000  10.50000  0.05    1.14
Q19   1  -0.0848  0.2460  0.0000  10.50000  0.05    1.10
Q20   1   0.1730  0.2612  0.0000  10.50000  0.05    1.09
;
_shelx_res_checksum              85511
_shelx_hkl_file
;
   0  -4  -6   16.42    3.21
   1  -4  -6    0.25    0.93
   2  -4  -6   22.09    3.52
   3  -4  -6    1.69    1.36
  -2  -3  -6    0.80    0.90
  -1  -3  -6   21.17    2.50
   0  -3  -6    0.51    0.65
   1  -3  -6   16.64    2.17
   2  -3  -6    0.31    0.69
   3  -3  -6    8.78    1.58
   4  -3  -6    2.85    1.07
  -3  -2  -6   27.11    5.91
  -2  -2  -6    1.92    1.24
  -1  -2  -6   -0.14    0.65
   0  -2  -6    0.06    0.63
   1  -2  -6    0.51    0.73
   2  -2  -6    0.41    0.76
   3  -2  -6   18.99    2.20
   4  -2  -6   19.84    2.06
  -3  -1  -6   16.84    3.21
  -2  -1  -6    1.74    1.21
  -1  -1  -6   -0.58    0.81
   0  -1  -6   -0.22    0.58
   1  -1  -6    2.14    0.93
   2  -1  -6    3.53    1.05
   3  -1  -6   14.71    2.04
   4  -1  -6   12.37    1.55
   5  -1  -6    2.14    1.06
  -3   0  -6   -0.70    0.91
  -2   0  -6   -0.67    0.90
  -1   0  -6   -1.03    0.83
   0   0  -6  162.35    8.74
   1   0  -6    0.59    0.64
   2   0  -6    0.38    0.67
   3   0  -6    0.76    0.76
   4   0  -6    0.46    0.90
  -3   1  -6   23.90    4.11
  -2   1  -6    2.47    1.31
  -1   1  -6    1.48    1.17
   0   1  -6    0.43    0.91
   1   1  -6    1.48    1.10
   2   1  -6    2.49    0.93
   3   1  -6   17.67    2.32
   4   1  -6    9.99    2.41
  -3   2  -6   14.19    4.36
  -2   2  -6    4.97    1.79
  -1   2  -6    0.69    0.95
   0   2  -6    0.17    0.85
   1   2  -6   -0.20    0.93
   2   2  -6    2.70    1.39
   3   2  -6   18.97    2.24
  -2   3  -6    1.14    1.11
  -1   3  -6   18.76    3.29
   0   3  -6    0.37    0.98
   1   3  -6   18.69    3.31
   2   3  -6    0.05    1.15
   3   3  -6    9.15    2.24
  -1   4  -6    0.72    1.80
   0   4  -6   16.82    3.17
   1   4  -6   -0.53    0.94
   2   4  -6   17.81    3.27
   3   4  -6    1.54    1.39
  -2   5  -6   18.41    3.10
   2   5  -6    9.80    2.81
  -2 -11  -5    5.55    2.29
  -1 -11  -5   14.75    3.29
   0 -11  -5   -0.52    1.58
   1 -11  -5   13.23    4.39
   2 -11  -5    4.25    2.07
   3 -11  -5   -1.20    1.15
  -5 -10  -5    0.10    1.20
  -4 -10  -5   30.70    4.25
  -3 -10  -5    3.39    1.11
  -2 -10  -5    0.40    0.71
  -1 -10  -5   15.86    2.21
   0 -10  -5    9.21    1.68
   1 -10  -5   15.86    2.16
   2 -10  -5    0.05    0.65
   3 -10  -5    3.88    0.91
   4 -10  -5   21.77    3.62
  -6  -9  -5    6.53    1.98
  -5  -9  -5   17.83    2.19
  -4  -9  -5    0.14    0.65
  -3  -9  -5    0.12    0.63
  -2  -9  -5   34.38    3.10
  -1  -9  -5   10.16    1.74
   0  -9  -5    0.23    0.62
   1  -9  -5    9.53    1.65
   2  -9  -5   42.71    3.51
   3  -9  -5    0.27    0.74
   4  -9  -5   -0.07    0.50
   5  -9  -5   14.85    1.77
  -7  -8  -5    4.16    1.18
  -6  -8  -5   -0.19    0.65
  -5  -8  -5    8.05    1.54
  -4  -8  -5    4.83    1.23
  -3  -8  -5    8.85    1.47
  -2  -8  -5   23.04    2.53
  -1  -8  -5    8.26    1.49
   0  -8  -5    4.42    1.11
   1  -8  -5    6.37    1.34
   2  -8  -5   22.17    2.42
   3  -8  -5    9.10    1.56
   4  -8  -5    5.69    1.07
   5  -8  -5    8.11    1.29
   6  -8  -5    0.60    0.73
   7  -8  -5    4.09    1.71
  -8  -7  -5    4.28    1.29
  -7  -7  -5    4.86    1.24
  -6  -7  -5    4.69    1.16
  -5  -7  -5   61.20    3.47
  -4  -7  -5    1.67    0.87
  -3  -7  -5    3.94    1.00
  -2  -7  -5    3.62    1.05
  -1  -7  -5    0.03    0.43
   0  -7  -5   -0.25    0.47
   1  -7  -5    1.60    0.69
   2  -7  -5    2.37    0.91
   3  -7  -5    7.35    1.40
   4  -7  -5    0.50    0.50
   5  -7  -5   62.96    2.86
   6  -7  -5    6.58    1.41
   7  -7  -5    3.07    1.08
   8  -7  -5    3.72    1.71
  -9  -6  -5    1.81    1.26
  -8  -6  -5    8.72    2.19
  -7  -6  -5    5.28    1.81
  -6  -6  -5    1.23    1.14
  -5  -6  -5    3.83    1.03
  -4  -6  -5    0.36    0.57
  -3  -6  -5    1.00    0.63
  -2  -6  -5    0.09    0.47
  -1  -6  -5   55.75    3.14
   0  -6  -5   26.31    2.50
   1  -6  -5   47.47    3.12
   2  -6  -5    0.50    0.52
   3  -6  -5    0.51    0.60
   4  -6  -5    0.29    0.60
   5  -6  -5    3.17    0.77
   6  -6  -5    0.52    0.61
   7  -6  -5    4.20    1.16
   8  -6  -5   12.53    1.93
   9  -6  -5   -0.49    1.16
  -9  -5  -5    1.40    1.25
  -8  -5  -5    6.72    2.09
  -7  -5  -5   23.41    3.45
  -6  -5  -5   12.03    2.51
  -5  -5  -5    0.13    0.82
  -4  -5  -5   -0.07    0.64
  -3  -5  -5   19.89    2.17
  -2  -5  -5   41.85    3.23
  -1  -5  -5    1.06    0.61
   0  -5  -5    0.19    0.38
   1  -5  -5    1.37    0.67
   2  -5  -5   37.14    2.93
   3  -5  -5   19.41    2.12
   4  -5  -5    0.17    0.55
   5  -5  -5    0.73    0.52
   6  -5  -5    8.12    1.47
   7  -5  -5   26.31    2.71
   8  -5  -5    4.11    1.19
   9  -5  -5    1.78    0.93
 -10  -4  -5    1.83    1.45
  -9  -4  -5    1.22    1.23
  -8  -4  -5    7.97    2.06
  -7  -4  -5    5.66    1.85
  -6  -4  -5    8.32    2.01
  -5  -4  -5    0.26    0.67
  -4  -4  -5   53.28    4.35
  -3  -4  -5    3.23    1.33
  -2  -4  -5    4.35    1.52
  -1  -4  -5    2.37    0.78
   0  -4  -5    1.90    0.75
   1  -4  -5    3.08    0.89
   2  -4  -5    4.95    1.10
   3  -4  -5    2.78    0.88
   4  -4  -5   60.94    3.19
   5  -4  -5    0.34    0.40
   6  -4  -5    6.61    1.30
   7  -4  -5    4.11    1.08
   8  -4  -5    7.78    1.49
   9  -4  -5    0.26    0.59
 -10  -3  -5    9.23    2.33
  -9  -3  -5   12.98    2.60
  -8  -3  -5   11.90    2.41
  -7  -3  -5   45.49    4.83
  -6  -3  -5    0.12    0.88
  -5  -3  -5   16.85    2.80
  -4  -3  -5    5.15    1.60
  -3  -3  -5    1.47    0.99
  -2  -3  -5   30.69    3.79
  -1  -3  -5   52.63    4.12
   0  -3  -5    0.35    0.48
   1  -3  -5   54.46    2.95
   2  -3  -5   27.28    2.44
   3  -3  -5    0.37    0.51
   4  -3  -5    4.97    1.07
   5  -3  -5   22.70    1.90
   6  -3  -5    0.88    0.59
   7  -3  -5   55.81    3.45
   8  -3  -5   11.97    1.43
   9  -3  -5   10.94    1.80
  10  -3  -5   11.05    1.84
 -10  -2  -5    2.98    1.48
  -9  -2  -5    0.66    1.09
  -8  -2  -5    0.77    0.89
  -7  -2  -5   16.11    2.86
  -6  -2  -5    0.00    0.74
  -5  -2  -5    1.91    1.09
  -4  -2  -5    9.19    2.09
  -3  -2  -5    6.18    1.74
  -2  -2  -5   11.80    2.37
  -1  -2  -5   48.90    3.92
   0  -2  -5    0.09    0.54
   1  -2  -5   44.54    2.66
   2  -2  -5   10.55    1.47
   3  -2  -5    2.12    0.75
   4  -2  -5    7.87    1.33
   5  -2  -5    0.56    0.40
   6  -2  -5    0.59    0.59
   7  -2  -5   13.68    1.81
   8  -2  -5    0.05    0.59
   9  -2  -5   -0.91    0.60
  10  -2  -5    0.82    0.84
 -10  -1  -5   20.54    3.39
  -9  -1  -5    1.59    1.11
  -8  -1  -5   10.39    2.26
  -7  -1  -5    0.65    0.90
  -6  -1  -5   -0.19    0.81
  -5  -1  -5   60.49    4.50
  -4  -1  -5    4.26    1.34
  -3  -1  -5   13.44    2.41
  -2  -1  -5   14.38    2.58
  -1  -1  -5    0.21    0.52
   0  -1  -5    0.18    0.56
   1  -1  -5    0.03    0.60
   2  -1  -5   15.23    1.75
   3  -1  -5   12.55    1.65
   4  -1  -5    5.45    1.10
   5  -1  -5   55.03    2.40
   6  -1  -5   -0.19    0.45
   7  -1  -5    0.20    0.44
   8  -1  -5   11.93    1.66
   9  -1  -5    0.51    0.78
  10  -1  -5   23.50    2.17
 -10   0  -5    2.33    0.97
  -9   0  -5    0.30    0.69
  -8   0  -5   75.61    3.63
  -7   0  -5    0.21    0.59
  -6   0  -5    7.34    1.25
  -5   0  -5   -0.01    0.63
  -4   0  -5   40.61    4.33
  -3   0  -5    0.35    0.64
  -2   0  -5   36.80    4.02
  -1   0  -5   -0.08    0.51
   0   0  -5    4.19    1.32
   1   0  -5   -0.79    0.53
   2   0  -5   38.40    4.05
   3   0  -5    0.32    0.44
   4   0  -5   43.50    2.72
   5   0  -5   -0.07    0.35
   6   0  -5    7.10    1.03
   7   0  -5    0.48    0.57
   8   0  -5   72.98    3.67
   9   0  -5    0.10    0.65
  10   0  -5    1.08    0.79
 -10   1  -5   23.21    2.42
  -9   1  -5    1.48    0.84
  -8   1  -5   12.67    1.74
  -7   1  -5    0.15    0.56
  -6   1  -5   -0.13    0.58
  -5   1  -5   51.13    3.00
  -4   1  -5    6.33    1.11
  -3   1  -5   13.34    1.59
  -2   1  -5   13.37    1.66
  -1   1  -5   -0.34    0.47
   0   1  -5    0.05    0.49
   1   1  -5   -0.13    0.61
   2   1  -5   12.87    2.41
   3   1  -5   19.04    2.79
   4   1  -5    5.56    1.11
   5   1  -5   56.40    2.35
   6   1  -5   -0.36    0.92
   8   1  -5   11.46    2.67
   9   1  -5    1.21    0.79
  10   1  -5   21.75    2.49
 -10   2  -5    2.04    1.02
  -9   2  -5    0.63    0.76
  -8   2  -5    0.45    0.65
  -7   2  -5   10.86    1.53
  -6   2  -5    0.03    0.51
  -5   2  -5    0.06    0.48
  -4   2  -5    8.16    1.32
  -3   2  -5    4.01    0.91
  -2   2  -5    9.91    1.37
  -1   2  -5   46.05    2.64
   0   2  -5   -0.16    0.40
   1   2  -5   46.05    2.62
   2   2  -5   11.99    2.35
   3   2  -5    4.37    1.44
   4   2  -5    7.87    1.23
   5   2  -5    0.08    0.52
   9   2  -5   -0.45    0.99
  10   2  -5    1.00    1.15
 -10   3  -5    9.81    1.65
  -9   3  -5   13.24    1.87
  -8   3  -5   10.52    1.64
  -7   3  -5   51.15    2.96
  -6   3  -5    0.96    0.63
  -5   3  -5   21.49    2.17
  -4   3  -5    6.85    1.23
  -3   3  -5    0.29    0.49
  -2   3  -5   27.01    2.36
  -1   3  -5   48.99    2.63
   0   3  -5    0.10    0.44
   1   3  -5   53.59    2.70
   2   3  -5   31.83    2.57
   3   3  -5    0.79    0.58
   4   3  -5    7.02    1.79
   5   3  -5   26.62    3.73
  10   3  -5    9.40    2.46
 -10   4  -5    1.47    1.40
  -9   4  -5    1.93    0.95
  -8   4  -5    5.77    1.23
  -7   4  -5    4.71    1.13
  -6   4  -5    2.06    1.17
  -5   4  -5    0.08    0.68
  -4   4  -5   56.58    4.12
  -3   4  -5    2.44    1.08
  -2   4  -5    4.49    1.37
  -1   4  -5    3.15    1.22
   0   4  -5    1.86    0.98
   1   4  -5    5.69    1.49
   2   4  -5    2.86    1.10
   3   4  -5    2.08    1.06
   4   4  -5   59.15    2.92
   5   4  -5    0.08    0.65
  10   4  -5    3.05    1.74
  -9   5  -5    1.70    0.92
  -8   5  -5    1.86    1.22
  -7   5  -5   21.41    3.11
  -6   5  -5   13.64    2.64
  -5   5  -5    1.37    0.92
  -4   5  -5   -0.33    0.65
  -3   5  -5   24.25    3.12
  -2   5  -5   43.23    3.44
  -1   5  -5    1.54    0.91
   0   5  -5   -0.36    0.52
   1   5  -5    1.84    0.99
   2   5  -5   34.76    3.74
   3   5  -5   21.95    2.93
   4   5  -5   -0.03    0.60
   5   5  -5    0.51    0.80
   6   5  -5   13.09    2.41
   7   5  -5   23.82    3.24
  -8   6  -5   12.18    2.55
  -7   6  -5    3.39    1.53
  -6   6  -5    1.14    1.00
  -5   6  -5    3.36    1.45
  -4   6  -5   -0.53    0.66
  -3   6  -5    0.22    0.84
  -2   6  -5   -0.62    0.45
  -1   6  -5   51.57    3.90
   0   6  -5   23.83    3.08
   1   6  -5   53.35    3.99
   2   6  -5    0.03    0.62
   3   6  -5   -0.08    0.70
   4   6  -5    0.05    0.77
   5   6  -5    1.50    0.95
   6   6  -5    1.01    1.00
   7   6  -5    4.81    1.51
   8   6  -5   11.86    2.51
   9   6  -5    0.11    0.99
  -7   7  -5    5.24    1.73
  -6   7  -5    3.10    1.36
  -5   7  -5   65.41    4.75
  -4   7  -5    1.36    0.99
  -3   7  -5    6.02    1.70
  -2   7  -5    2.56    1.09
  -1   7  -5    0.96    0.83
   0   7  -5   -0.34    0.61
   1   7  -5    0.93    0.94
   2   7  -5    4.12    1.34
   3   7  -5    6.73    1.86
   4   7  -5    1.82    1.13
   5   7  -5   63.46    4.60
   6   7  -5    5.44    1.77
   7   7  -5    5.64    1.88
   8   7  -5    5.70    1.82
  -6   8  -5   -0.10    0.82
  -5   8  -5   10.71    2.41
  -4   8  -5    9.70    2.29
  -3   8  -5    7.12    1.83
  -2   8  -5   18.53    2.91
  -1   8  -5    3.84    1.38
   0   8  -5    2.13    1.09
   1   8  -5    8.03    2.05
   2   8  -5   18.56    2.87
   3   8  -5    9.31    2.20
   4   8  -5    5.22    1.60
   5   8  -5    5.29    1.67
   6   8  -5    1.07    1.08
   7   8  -5    6.23    1.95
  -5   9  -5   13.68    2.61
  -4   9  -5    0.23    0.76
  -3   9  -5    0.27    0.84
  -2   9  -5   37.39    4.29
  -1   9  -5    8.01    1.95
   0   9  -5    0.15    0.79
   1   9  -5   12.08    2.44
   2   9  -5   28.17    3.71
   3   9  -5    0.31    0.85
   4   9  -5    0.09    0.87
   5   9  -5   21.37    3.27
   6   9  -5    7.82    2.18
  -3  10  -5    1.60    1.21
  -2  10  -5   -0.09    0.79
  -1  10  -5   13.33    2.56
   0  10  -5    5.53    1.75
   1  10  -5   14.17    2.70
   2  10  -5   -0.46    0.73
   3  10  -5    5.19    1.80
   4  10  -5   22.39    3.46
   0  11  -5    0.21    1.04
  -2 -14  -4    3.37    1.51
  -1 -14  -4    6.15    1.43
   0 -14  -4   41.43    3.63
   1 -14  -4    6.93    1.25
   2 -14  -4    2.53    0.86
   3 -14  -4    0.16    0.82
   4 -14  -4    4.90    1.39
  -5 -13  -4   40.97    5.10
  -4 -13  -4    6.42    2.20
  -3 -13  -4   -0.20    0.73
  -2 -13  -4    1.42    0.85
  -1 -13  -4    0.72    0.82
   0 -13  -4    0.06    0.67
   1 -13  -4    1.06    0.81
   2 -13  -4    2.17    0.73
   3 -13  -4    0.66    0.65
   4 -13  -4    6.43    1.14
   5 -13  -4   36.54    2.78
   6 -13  -4   17.37    3.80
  -8 -12  -4    2.42    2.83
  -7 -12  -4   13.11    2.92
  -6 -12  -4    6.71    2.11
  -5 -12  -4    0.41    1.05
  -4 -12  -4    2.00    0.91
  -3 -12  -4    6.34    1.31
  -2 -12  -4   21.94    2.48
  -1 -12  -4   23.08    2.51
   0 -12  -4   11.14    1.82
   1 -12  -4   22.15    2.49
   2 -12  -4   25.93    2.80
   3 -12  -4    7.28    1.18
   4 -12  -4    3.15    0.87
   5 -12  -4    1.11    0.73
   6 -12  -4    7.09    1.57
   7 -12  -4   12.61    2.26
  -9 -11  -4   23.88    3.76
  -8 -11  -4   -0.23    1.10
  -7 -11  -4    0.18    1.03
  -6 -11  -4   -0.24    0.88
  -5 -11  -4    1.29    0.82
  -4 -11  -4    4.52    1.08
  -3 -11  -4    6.11    1.25
  -2 -11  -4   11.18    1.72
  -1 -11  -4   29.36    2.74
   0 -11  -4    0.41    0.55
   1 -11  -4   37.68    3.14
   2 -11  -4    8.91    1.53
   3 -11  -4    8.69    1.28
   4 -11  -4    4.01    0.91
   5 -11  -4    0.50    0.58
   6 -11  -4    0.70    0.70
   7 -11  -4    1.08    0.84
   8 -11  -4   -0.33    0.68
  -9 -10  -4    4.15    1.80
  -8 -10  -4    1.50    1.23
  -7 -10  -4    4.36    1.76
  -6 -10  -4    5.96    1.26
  -5 -10  -4    2.06    0.80
  -4 -10  -4   29.01    2.65
  -3 -10  -4   27.21    2.59
  -2 -10  -4    5.09    1.11
  -1 -10  -4   11.34    1.63
   0 -10  -4    0.58    0.57
   1 -10  -4   13.16    1.84
   2 -10  -4    8.41    1.46
   3 -10  -4   26.90    2.53
   4 -10  -4   33.31    2.38
   5 -10  -4    2.29    0.67
   6 -10  -4    4.76    1.10
   7 -10  -4    3.53    1.18
   8 -10  -4    2.84    1.06
   9 -10  -4    1.77    1.07
 -10  -9  -4   10.61    2.40
  -9  -9  -4   -0.60    0.88
  -8  -9  -4    0.25    1.02
  -7  -9  -4   25.05    2.43
  -6  -9  -4   51.55    3.19
  -5  -9  -4    9.10    1.51
  -4  -9  -4   -0.52    0.44
  -3  -9  -4   19.01    2.11
  -2  -9  -4   11.48    1.61
  -1  -9  -4    0.40    0.52
   0  -9  -4    0.30    0.43
   1  -9  -4    0.89    0.59
   2  -9  -4   12.01    1.67
   3  -9  -4   18.58    2.12
   4  -9  -4    0.47    0.40
   5  -9  -4    9.31    1.26
   6  -9  -4   40.92    2.65
   7  -9  -4   25.59    2.71
   8  -9  -4    2.23    0.96
   9  -9  -4    0.12    0.73
  10  -9  -4    6.03    1.46
 -10  -8  -4   19.78    3.16
  -9  -8  -4    1.95    1.33
  -8  -8  -4   18.57    2.95
  -7  -8  -4    9.98    1.46
  -6  -8  -4    3.90    1.01
  -5  -8  -4    8.21    1.27
  -4  -8  -4    4.38    1.04
  -3  -8  -4   16.73    1.90
  -2  -8  -4    0.28    0.43
  -1  -8  -4   18.78    1.98
   0  -8  -4   57.41    3.00
   1  -8  -4   21.51    2.12
   2  -8  -4    0.25    0.47
   3  -8  -4   14.63    1.77
   4  -8  -4    3.71    0.78
   5  -8  -4    8.74    1.18
   6  -8  -4    6.02    0.98
   7  -8  -4    7.95    1.48
   8  -8  -4   17.87    2.23
   9  -8  -4    4.13    1.18
  10  -8  -4   18.36    2.42
  11  -8  -4   13.52    2.96
 -10  -7  -4    0.18    1.00
  -9  -7  -4   36.46    4.12
  -8  -7  -4    8.58    2.06
  -7  -7  -4    9.20    2.06
  -6  -7  -4    4.63    1.00
  -5  -7  -4    6.16    1.14
  -4  -7  -4    1.09    0.58
  -3  -7  -4   40.85    2.62
  -2  -7  -4    5.60    1.01
  -1  -7  -4    9.50    1.31
   0  -7  -4    0.15    0.40
   1  -7  -4    9.47    1.42
   2  -7  -4    6.48    1.17
   3  -7  -4   44.37    2.52
   4  -7  -4    2.73    0.77
   5  -7  -4    9.27    1.15
   6  -7  -4    4.73    0.86
   7  -7  -4   16.68    2.05
   8  -7  -4    9.91    1.63
   9  -7  -4   29.68    2.86
  10  -7  -4    0.34    0.73
  11  -7  -4    6.87    1.16
 -10  -6  -4    9.48    2.20
  -9  -6  -4   13.24    2.43
  -8  -6  -4   37.55    4.09
  -7  -6  -4   22.20    3.12
  -6  -6  -4    1.68    0.91
  -5  -6  -4   23.83    3.18
  -4  -6  -4   -0.22    0.49
  -3  -6  -4   90.64    3.68
  -2  -6  -4   27.39    2.30
  -1  -6  -4    0.14    0.43
   0  -6  -4   43.09    2.41
   1  -6  -4    0.22    0.36
   2  -6  -4   25.51    2.18
   3  -6  -4   86.43    3.61
   4  -6  -4    0.94    0.50
   5  -6  -4   26.25    1.90
   6  -6  -4    1.78    0.52
   7  -6  -4   24.06    2.33
   8  -6  -4   32.66    2.84
   9  -6  -4   15.31    2.05
  10  -6  -4    8.12    1.55
  11  -6  -4    1.23    0.66
  12  -6  -4    0.27    0.90
 -10  -5  -4    8.94    2.16
  -9  -5  -4   24.87    3.19
  -8  -5  -4   -0.44    0.61
  -7  -5  -4    5.66    1.49
  -6  -5  -4   51.85    3.92
  -5  -5  -4   10.66    2.08
  -4  -5  -4    3.89    1.21
  -3  -5  -4    0.26    0.55
  -2  -5  -4   38.56    3.93
  -1  -5  -4   17.43    1.79
   0  -5  -4   -0.03    0.32
   1  -5  -4   19.89    1.91
   2  -5  -4   35.42    2.33
   3  -5  -4    0.32    0.37
   4  -5  -4    5.96    1.10
   5  -5  -4    9.04    1.06
   6  -5  -4   53.37    2.25
   7  -5  -4    4.86    1.04
   8  -5  -4   -0.22    0.37
   9  -5  -4   17.39    2.08
  10  -5  -4    9.82    1.33
  11  -5  -4    3.35    1.09
  12  -5  -4    2.24    0.96
 -13  -4  -4    0.13    0.98
 -12  -4  -4   67.85    4.80
 -11  -4  -4    2.31    1.22
 -10  -4  -4    4.24    1.01
  -9  -4  -4    2.53    0.86
  -8  -4  -4    0.53    0.75
  -7  -4  -4    2.60    1.09
  -6  -4  -4   22.37    2.96
  -5  -4  -4    2.32    1.12
  -4  -4  -4   29.47    3.32
  -3  -4  -4    1.82    0.86
  -2  -4  -4   52.38    3.77
  -1  -4  -4    0.24    0.49
   0  -4  -4   37.51    2.37
   1  -4  -4    0.21    0.33
   2  -4  -4   51.52    2.61
   3  -4  -4    0.85    0.46
   4  -4  -4   27.53    2.23
   5  -4  -4    2.12    0.54
   6  -4  -4   30.74    1.78
   7  -4  -4    1.33    0.63
   8  -4  -4   -0.24    0.42
   9  -4  -4    2.12    0.76
  10  -4  -4    4.40    0.89
  11  -4  -4    3.16    0.91
  13  -4  -4   -1.23    1.13
 -13  -3  -4    3.46    1.64
 -12  -3  -4    0.25    1.03
 -11  -3  -4    6.37    1.67
 -10  -3  -4    0.19    0.56
  -9  -3  -4   74.12    3.25
  -8  -3  -4   17.98    1.88
  -7  -3  -4    7.90    1.20
  -6  -3  -4   58.69    2.68
  -5  -3  -4    2.25    0.77
  -4  -3  -4   10.08    1.91
  -3  -3  -4   17.66    2.48
  -2  -3  -4    0.75    0.58
  -1  -3  -4   56.68    3.71
   0  -3  -4   -0.04    0.36
   1  -3  -4   53.05    2.53
   2  -3  -4    0.38    0.37
   3  -3  -4   19.57    1.81
   4  -3  -4   10.19    1.29
   5  -3  -4    2.33    0.55
   6  -3  -4   58.06    2.25
   7  -3  -4    5.11    1.02
   8  -3  -4   17.17    1.92
   9  -3  -4   76.60    2.92
  10  -3  -4    0.13    0.52
  11  -3  -4    6.50    1.39
  12  -3  -4    1.63    0.77
  13  -3  -4    4.85    1.54
 -13  -2  -4    1.34    1.21
 -12  -2  -4    2.90    1.39
 -11  -2  -4    4.46    1.60
 -10  -2  -4    8.48    1.29
  -9  -2  -4   16.56    1.76
  -8  -2  -4    0.78    0.55
  -7  -2  -4   19.77    1.84
  -6  -2  -4   14.21    1.56
  -5  -2  -4   20.76    1.81
  -4  -2  -4   58.60    2.52
  -3  -2  -4   47.53    2.19
  -2  -2  -4    3.63    0.86
  -1  -2  -4    0.23    0.45
   0  -2  -4    0.45    0.46
   1  -2  -4   -0.08    0.42
   2  -2  -4    5.61    0.98
   3  -2  -4   47.95    2.37
   4  -2  -4   59.38    2.67
   5  -2  -4   19.06    1.47
   6  -2  -4   15.07    1.29
   7  -2  -4   22.58    2.08
   8  -2  -4    0.64    0.42
   9  -2  -4   18.09    1.70
  10  -2  -4    8.40    1.33
  11  -2  -4    3.89    1.07
  12  -2  -4    2.25    0.90
  13  -2  -4    1.52    0.86
 -13  -1  -4   11.17    2.32
 -12  -1  -4    8.34    2.07
 -11  -1  -4   15.70    2.60
 -10  -1  -4    0.51    0.62
  -9  -1  -4    5.12    1.07
  -8  -1  -4   -0.18    0.37
  -7  -1  -4    2.45    0.68
  -6  -1  -4   54.72    2.56
  -5  -1  -4    8.26    1.15
  -4  -1  -4   37.41    2.11
  -3  -1  -4   44.42    2.14
  -2  -1  -4   11.09    1.19
  -1  -1  -4    0.95    0.43
   0  -1  -4    0.01    0.24
   1  -1  -4    1.37    0.77
   2  -1  -4    9.55    1.71
   3  -1  -4   52.93    2.43
   4  -1  -4   34.02    1.95
   5  -1  -4    9.13    0.98
   6  -1  -4   53.89    2.09
   7  -1  -4    1.71    0.56
   8  -1  -4   -0.05    0.31
   9  -1  -4    4.88    1.03
  10  -1  -4    0.34    0.51
  11  -1  -4   12.91    1.86
  12  -1  -4    6.80    1.42
  13  -1  -4   15.73    3.15
 -13   0  -4    0.36    0.98
 -12   0  -4   20.33    3.14
 -11   0  -4    1.17    0.95
 -10   0  -4   60.30    2.99
  -9   0  -4    0.04    0.42
  -8   0  -4   41.35    2.37
  -7   0  -4   -0.15    0.37
  -6   0  -4    0.78    0.42
  -5   0  -4   -0.07    0.32
  -4   0  -4    0.95    0.46
  -3   0  -4    0.10    0.32
  -2   0  -4    1.30    0.49
  -1   0  -4    0.25    0.30
   0   0  -4  434.49    9.66
   1   0  -4   -0.22    0.24
   2   0  -4    1.09    0.42
   3   0  -4   -0.25    0.27
   4   0  -4    1.16    0.46
   5   0  -4    0.03    0.27
   6   0  -4    0.25    0.28
   7   0  -4    0.17    0.30
   8   0  -4   48.66    2.65
   9   0  -4    0.20    0.45
  10   0  -4   53.08    2.99
  11   0  -4    0.08    0.51
  12   0  -4   22.07    2.03
  13   0  -4    0.01    0.60
 -13   1  -4   11.07    2.38
 -12   1  -4   14.07    2.69
 -11   1  -4   11.39    2.32
 -10   1  -4    0.57    0.58
  -9   1  -4    3.99    0.95
  -8   1  -4    0.01    0.42
  -7   1  -4    1.72    0.62
  -6   1  -4   49.21    2.46
  -5   1  -4    9.87    1.26
  -4   1  -4   34.03    2.10
  -3   1  -4   44.61    2.21
  -2   1  -4    6.89    0.93
  -1   1  -4    1.34    0.51
   0   1  -4    0.12    0.27
   1   1  -4    0.31    0.34
   2   1  -4    7.70    1.05
   3   1  -4   45.93    1.71
   4   1  -4   36.27    1.54
   5   1  -4    9.00    0.83
   6   1  -4   51.57    1.57
   7   1  -4    3.11    0.79
   8   1  -4   -0.23    0.27
   9   1  -4    6.27    0.98
  10   1  -4    0.09    0.38
  11   1  -4   11.73    1.81
  12   1  -4    8.73    1.60
  13   1  -4   13.50    1.98
 -13   2  -4    1.67    1.20
 -12   2  -4    3.92    1.53
 -11   2  -4    4.09    1.44
 -10   2  -4    9.72    1.45
  -9   2  -4   14.43    1.70
  -8   2  -4    1.00    0.54
  -7   2  -4   22.13    2.01
  -6   2  -4   15.50    2.32
  -5   2  -4   24.01    2.74
  -4   2  -4   53.92    3.44
  -3   2  -4   47.54    3.11
  -2   2  -4    4.80    1.12
  -1   2  -4    0.66    0.51
   0   2  -4    1.21    0.66
   1   2  -4    0.47    0.46
   2   2  -4    7.10    1.38
   3   2  -4   41.34    2.83
   4   2  -4   58.49    1.77
   5   2  -4   20.71    1.02
   6   2  -4   12.50    1.01
   7   2  -4   20.15    1.57
   8   2  -4    0.58    0.40
   9   2  -4   19.09    2.09
  10   2  -4   10.21    1.54
  11   2  -4    5.49    1.23
  12   2  -4    0.52    0.63
  13   2  -4    1.53    0.94
 -13   3  -4    6.98    2.37
 -12   3  -4    1.63    1.22
 -11   3  -4    6.99    1.93
 -10   3  -4    0.35    0.61
  -9   3  -4   67.12    3.23
  -8   3  -4   14.65    2.36
  -7   3  -4    7.87    1.71
  -6   3  -4   55.10    3.72
  -5   3  -4    1.77    0.85
  -4   3  -4    8.85    1.66
  -3   3  -4   22.68    2.70
  -2   3  -4    1.14    0.65
  -1   3  -4   55.99    3.31
   0   3  -4   -0.18    0.32
   1   3  -4   49.87    3.18
   2   3  -4    0.31    0.46
   3   3  -4   21.86    2.47
   4   3  -4   11.07    1.25
   5   3  -4    1.64    0.34
   6   3  -4   61.80    2.79
   7   3  -4    6.46    1.04
   8   3  -4   13.45    1.64
   9   3  -4   60.76    3.19
  10   3  -4    0.43    0.51
  11   3  -4    4.87    1.21
  12   3  -4    0.24    0.64
  13   3  -4    5.71    1.40
 -12   4  -4   59.43    4.76
 -11   4  -4    3.15    1.33
 -10   4  -4    3.48    1.24
  -9   4  -4    1.00    0.92
  -8   4  -4   -0.13    0.52
  -7   4  -4    3.09    1.14
  -6   4  -4   24.32    2.94
  -5   4  -4    2.87    1.03
  -4   4  -4   23.73    2.83
  -3   4  -4    0.76    0.57
  -2   4  -4   58.37    3.56
  -1   4  -4    0.41    0.47
   0   4  -4   43.55    2.94
   1   4  -4    0.18    0.44
   2   4  -4   53.33    3.40
   3   4  -4    1.23    0.66
   4   4  -4   27.24    2.11
   5   4  -4    4.69    0.90
   6   4  -4   27.97    3.32
   7   4  -4    3.88    0.95
   8   4  -4   -0.05    0.43
   9   4  -4    1.21    0.62
  10   4  -4    1.61    0.74
  11   4  -4    2.58    0.93
  12   4  -4   65.07    5.36
  13   4  -4    0.55    1.01
 -12   5  -4    3.23    1.44
 -11   5  -4    1.92    1.16
 -10   5  -4   12.32    2.44
  -9   5  -4   17.79    2.83
  -8   5  -4    0.20    0.65
  -7   5  -4    7.84    1.77
  -6   5  -4   53.67    3.80
  -5   5  -4    6.01    1.45
  -4   5  -4    4.67    1.26
  -3   5  -4    0.49    0.48
  -2   5  -4   37.43    1.95
  -1   5  -4   23.41    2.74
   0   5  -4   -0.32    0.31
   1   5  -4   16.48    2.25
   2   5  -4   36.26    2.78
   3   5  -4    0.39    0.53
   4   5  -4    4.35    0.85
   5   5  -4    6.81    1.06
   6   5  -4   58.17    4.04
   7   5  -4    6.53    1.80
   8   5  -4    0.56    0.77
   9   5  -4   24.83    3.63
  10   5  -4   11.59    1.66
  11   5  -4    2.92    1.01
  12   5  -4    1.88    0.93
  13   5  -4   -0.07    1.07
 -12   6  -4    2.48    2.37
 -11   6  -4    0.20    0.91
 -10   6  -4   10.05    2.19
  -9   6  -4    9.94    2.05
  -8   6  -4   35.99    3.93
  -7   6  -4   19.62    2.87
  -6   6  -4    2.85    1.12
  -5   6  -4   20.02    2.72
  -4   6  -4    2.82    0.74
  -3   6  -4   90.76    3.35
  -2   6  -4   29.31    2.18
  -1   6  -4    0.50    0.53
   0   6  -4   39.12    2.99
   1   6  -4    0.87    0.65
   2   6  -4   31.09    3.28
   3   6  -4   88.86    4.77
   4   6  -4    1.55    0.75
   5   6  -4   22.37    2.05
   6   6  -4    3.47    1.27
   7   6  -4   21.75    3.13
   8   6  -4   35.26    4.19
   9   6  -4   18.54    3.16
  10   6  -4    7.71    1.93
  11   6  -4    1.98    1.31
  12   6  -4    0.08    1.03
 -11   7  -4    9.38    2.29
 -10   7  -4    0.36    0.86
  -9   7  -4   28.77    3.62
  -8   7  -4    7.40    1.88
  -7   7  -4   16.96    2.64
  -6   7  -4    3.14    1.14
  -5   7  -4   10.25    1.36
  -4   7  -4    3.36    0.79
  -3   7  -4   41.73    2.26
  -2   7  -4    4.54    0.89
  -1   7  -4    9.26    1.84
   0   7  -4   -0.24    0.46
   1   7  -4    8.88    1.80
   2   7  -4    4.92    1.39
   3   7  -4   47.26    3.40
   4   7  -4    1.06    0.70
   5   7  -4   12.27    1.57
   6   7  -4    5.62    1.12
   7   7  -4   13.89    2.50
   8   7  -4    5.21    1.69
   9   7  -4   34.22    4.43
  10   7  -4    0.18    0.94
  11   7  -4    7.06    2.14
 -10   8  -4   12.79    2.62
  -9   8  -4    4.51    1.62
  -8   8  -4   16.84    2.77
  -7   8  -4   10.53    2.21
  -6   8  -4    7.24    1.12
  -5   8  -4    6.74    1.18
  -4   8  -4    2.39    0.66
  -3   8  -4   13.85    1.59
  -2   8  -4   -0.13    0.31
  -1   8  -4   19.73    2.74
   0   8  -4   58.70    3.96
   1   8  -4   16.45    2.37
   2   8  -4    0.03    0.46
   3   8  -4   12.49    2.12
   4   8  -4    1.72    0.97
   5   8  -4    8.12    1.24
   6   8  -4    5.72    1.09
   7   8  -4   13.65    2.68
   8   8  -4   21.49    3.48
   9   8  -4    2.68    1.25
  10   8  -4   18.91    3.37
  11   8  -4    9.58    2.61
 -10   9  -4    5.91    1.79
  -9   9  -4   -0.14    0.82
  -8   9  -4   -0.40    0.72
  -7   9  -4   18.96    2.07
  -6   9  -4   49.22    2.93
  -5   9  -4    7.52    1.25
  -4   9  -4    1.33    0.63
  -3   9  -4   18.94    1.90
  -2   9  -4    8.97    1.35
  -1   9  -4    0.21    0.41
   0   9  -4   -0.09    0.57
   1   9  -4    1.06    0.71
   2   9  -4   10.91    2.13
   3   9  -4   17.48    2.56
   4   9  -4    1.74    0.95
   5   9  -4    9.48    2.03
   6   9  -4   49.17    2.80
   7   9  -4   24.42    3.60
   8   9  -4    1.92    1.26
   9   9  -4    0.36    1.00
  10   9  -4   12.42    2.76
  -9  10  -4    1.65    1.08
  -8  10  -4    1.14    0.72
  -7  10  -4    3.04    0.98
  -6  10  -4    5.04    1.07
  -5  10  -4    1.57    0.72
  -4  10  -4   32.23    2.61
  -3  10  -4   24.27    2.26
  -2  10  -4    6.69    1.20
  -1  10  -4   11.18    1.55
   0  10  -4   -0.06    0.63
   1  10  -4    8.03    1.88
   2  10  -4    3.99    1.28
   3  10  -4   25.27    3.35
   4  10  -4   30.56    3.65
   5  10  -4    2.40    1.09
   6  10  -4    6.69    1.28
   7  10  -4    4.45    1.14
   8  10  -4    3.27    1.46
   9  10  -4    1.71    1.22
  10  10  -4    0.53    1.08
  -8  11  -4    0.46    0.66
  -7  11  -4    0.59    0.65
  -6  11  -4   -0.15    0.56
  -5  11  -4    0.64    0.61
  -4  11  -4    2.88    0.90
  -3  11  -4    8.90    1.44
  -2  11  -4   10.41    1.52
  -1  11  -4   38.33    2.92
   0  11  -4    0.17    0.71
   1  11  -4   30.58    3.77
   2  11  -4   13.41    2.48
   3  11  -4    9.24    2.07
   4  11  -4    3.43    1.28
   5  11  -4    2.34    1.19
   6  11  -4   -0.35    0.73
   7  11  -4    2.34    0.92
   8  11  -4    0.40    0.70
   9  11  -4   23.60    3.73
  -8  12  -4    1.79    1.41
  -7  12  -4   10.44    1.70
  -6  12  -4    5.99    1.24
  -5  12  -4    0.21    0.57
  -4  12  -4    2.44    0.82
  -3  12  -4    5.85    1.23
  -2  12  -4   25.16    2.39
  -1  12  -4   16.11    1.93
   0  12  -4   12.11    1.71
   1  12  -4   23.76    3.43
   2  12  -4   23.43    3.40
   3  12  -4   11.14    2.27
   4  12  -4    4.32    1.38
   5  12  -4    0.53    0.82
   6  12  -4    5.10    1.64
   7  12  -4   14.23    2.42
   8  12  -4    2.66    1.50
  -6  13  -4   20.95    3.62
  -5  13  -4   43.76    3.46
  -4  13  -4    9.07    1.51
  -3  13  -4    1.70    0.76
  -2  13  -4    0.79    0.68
  -1  13  -4    1.86    0.81
   0  13  -4    0.19    0.59
   1  13  -4   -0.43    0.58
   2  13  -4    1.18    1.06
   3  13  -4    0.12    0.78
   4  13  -4    5.99    1.79
   5  13  -4   42.92    5.40
  -3  14  -4    0.52    0.89
  -2  14  -4    2.91    1.06
  -1  14  -4    5.06    1.22
   0  14  -4   42.14    3.46
   1  14  -4    6.90    1.39
  -2 -16  -3   16.25    3.55
  -1 -16  -3    4.23    1.74
   0 -16  -3   35.90    3.41
   1 -16  -3    3.52    1.31
   2 -16  -3   18.77    2.63
   3 -16  -3   12.81    3.22
   4 -16  -3    0.85    1.20
  -6 -15  -3   27.23    4.36
  -5 -15  -3   22.12    3.77
  -4 -15  -3   12.84    2.85
  -3 -15  -3    6.74    2.16
  -2 -15  -3    0.92    1.30
  -1 -15  -3    0.41    0.70
   0 -15  -3   -0.42    0.66
   1 -15  -3    0.31    0.79
   2 -15  -3    3.31    1.14
   3 -15  -3   10.60    1.98
   4 -15  -3   14.19    2.30
   5 -15  -3   25.32    2.98
   6 -15  -3   28.94    2.67
   7 -15  -3    0.11    1.22
  -8 -14  -3   25.83    4.02
  -7 -14  -3    0.12    1.21
  -6 -14  -3    0.41    1.11
  -5 -14  -3    0.71    1.02
  -4 -14  -3   14.34    2.94
  -3 -14  -3    1.87    1.34
  -2 -14  -3    1.12    0.77
  -1 -14  -3    8.91    1.57
   0 -14  -3   53.23    3.56
   1 -14  -3    9.40    1.27
   2 -14  -3    1.03    0.61
   3 -14  -3    1.66    0.70
   4 -14  -3   13.24    1.59
   5 -14  -3    1.72    0.78
   6 -14  -3    0.16    0.65
   7 -14  -3    0.68    0.83
   8 -14  -3   26.87    4.20
  -9 -13  -3    6.35    2.18
  -8 -13  -3   10.22    2.45
  -7 -13  -3    2.95    1.75
  -6 -13  -3   -0.14    0.95
  -5 -13  -3    0.30    0.89
  -4 -13  -3    1.55    1.08
  -3 -13  -3   46.84    3.13
  -2 -13  -3   13.99    1.92
  -1 -13  -3   -0.05    0.56
   0 -13  -3   -0.65    0.49
   1 -13  -3    0.06    0.58
   2 -13  -3   13.08    1.44
   3 -13  -3   44.23    2.58
   4 -13  -3    1.21    0.60
   5 -13  -3    0.72    0.59
   6 -13  -3   -0.01    0.54
   7 -13  -3    8.83    1.75
   8 -13  -3   14.55    2.26
   9 -13  -3    8.43    1.84
  -9 -12  -3    5.51    2.02
  -8 -12  -3    0.60    1.20
  -7 -12  -3   14.55    2.90
  -6 -12  -3    0.36    0.94
  -5 -12  -3   13.31    2.69
  -4 -12  -3   20.62    2.16
  -3 -12  -3   15.35    1.90
  -2 -12  -3    2.28    0.83
  -1 -12  -3   -0.19    0.40
   0 -12  -3   14.58    1.84
   1 -12  -3    0.31    0.55
   2 -12  -3    1.85    0.61
   3 -12  -3   17.23    1.66
   4 -12  -3   19.98    1.83
   5 -12  -3   14.60    1.53
   6 -12  -3    0.03    0.49
   7 -12  -3   13.48    2.02
   8 -12  -3    0.68    0.76
   9 -12  -3    9.48    1.76
  10 -12  -3   14.00    2.20
  -9 -11  -3   18.21    3.13
  -8 -11  -3    1.61    1.20
  -7 -11  -3   51.00    4.33
  -6 -11  -3   23.72    3.38
  -5 -11  -3    3.31    0.85
  -4 -11  -3    5.58    1.10
  -3 -11  -3    0.23    0.48
  -2 -11  -3    8.71    1.37
  -1 -11  -3   33.29    2.68
   0 -11  -3    0.16    0.40
   1 -11  -3   29.77    2.58
   2 -11  -3   11.31    1.62
   3 -11  -3   -0.02    0.33
   4 -11  -3    8.37    1.13
   5 -11  -3    4.87    0.87
   6 -11  -3   22.29    1.94
   7 -11  -3   46.65    3.56
   8 -11  -3    0.85    0.67
   9 -11  -3   15.15    2.22
  10 -11  -3    0.88    0.84
  11 -11  -3    0.81    0.82
  -9 -10  -3    3.05    1.34
  -8 -10  -3    2.90    1.36
  -7 -10  -3    0.54    0.85
  -6 -10  -3   13.53    2.44
  -5 -10  -3    1.28    0.62
  -4 -10  -3   45.63    2.54
  -3 -10  -3    8.63    1.30
  -2 -10  -3    0.33    0.44
  -1 -10  -3   35.36    2.68
   0 -10  -3   15.63    1.76
   1 -10  -3   38.22    2.54
   2 -10  -3    0.09    0.39
   3 -10  -3    7.20    0.99
   4 -10  -3   44.80    2.14
   5 -10  -3    2.33    0.64
   6 -10  -3   15.08    1.53
   7 -10  -3    0.32    0.56
   8 -10  -3    1.99    0.83
   9 -10  -3    1.56    0.82
  10 -10  -3    1.26    0.88
  11 -10  -3   27.52    3.05
  12 -10  -3    8.80    1.42
  -9  -9  -3   52.97    4.10
  -8  -9  -3   13.07    2.40
  -7  -9  -3    0.26    0.68
  -6  -9  -3   15.31    1.68
  -5  -9  -3   44.19    2.59
  -4  -9  -3   -0.10    0.38
  -3  -9  -3    0.01    0.37
  -2  -9  -3   77.05    3.31
  -1  -9  -3   23.00    2.02
   0  -9  -3    0.09    0.35
   1  -9  -3   22.10    2.02
   2  -9  -3   79.96    3.40
   3  -9  -3    0.24    0.40
   4  -9  -3   -0.17    0.26
   5  -9  -3   42.84    2.03
   6  -9  -3   15.07    1.46
   7  -9  -3    2.69    0.89
   8  -9  -3   18.20    2.15
   9  -9  -3   43.94    3.51
  10  -9  -3   18.47    2.37
  11  -9  -3    1.01    0.63
  12  -9  -3    0.22    0.59
  13  -9  -3   -0.61    1.31
 -10  -8  -3    2.37    1.37
  -9  -8  -3   14.31    2.44
  -8  -8  -3   20.70    2.84
  -7  -8  -3   14.94    1.61
  -6  -8  -3   -0.02    0.38
  -5  -8  -3   18.29    1.81
  -4  -8  -3   15.65    1.62
  -3  -8  -3   25.65    2.08
  -2  -8  -3   42.72    2.27
  -1  -8  -3   14.11    1.54
   0  -8  -3   12.04    1.46
   1  -8  -3   12.08    1.42
   2  -8  -3   43.28    2.33
   3  -8  -3   24.67    2.10
   4  -8  -3   13.62    1.28
   5  -8  -3   19.28    1.57
   6  -8  -3   -0.02    0.29
   7  -8  -3   11.90    1.60
   8  -8  -3   23.03    2.40
   9  -8  -3   14.16    1.92
  10  -8  -3    1.04    0.75
  11  -8  -3    8.58    1.32
  12  -8  -3    3.68    0.91
  13  -8  -3    0.61    0.64
 -14  -7  -3    0.57    1.11
 -13  -7  -3   51.98    5.04
 -12  -7  -3   -0.11    0.81
 -11  -7  -3    3.32    1.22
 -10  -7  -3    1.06    0.63
  -9  -7  -3   -0.26    0.63
  -8  -7  -3   10.84    2.00
  -7  -7  -3   11.44    2.01
  -6  -7  -3   14.53    2.32
  -5  -7  -3  138.73    4.46
  -4  -7  -3    3.02    0.71
  -3  -7  -3   11.04    1.28
  -2  -7  -3    5.74    0.97
  -1  -7  -3    3.01    0.73
   0  -7  -3    0.16    0.32
   1  -7  -3    2.55    0.68
   2  -7  -3    4.86    0.88
   3  -7  -3   10.57    1.31
   4  -7  -3    2.35    0.53
   5  -7  -3  139.15    3.75
   6  -7  -3   11.23    1.17
   7  -7  -3    9.07    1.35
   8  -7  -3    9.72    1.49
   9  -7  -3    0.16    0.47
  10  -7  -3    1.48    0.80
  11  -7  -3    4.23    0.93
  12  -7  -3   -0.17    0.49
  13  -7  -3   59.27    3.36
 -14  -6  -3   -0.36    0.92
 -13  -6  -3   41.82    4.40
 -12  -6  -3    7.83    1.83
 -11  -6  -3   48.60    3.70
 -10  -6  -3   10.74    1.40
  -9  -6  -3    1.07    0.57
  -8  -6  -3   28.16    2.10
  -7  -6  -3   10.53    1.26
  -6  -6  -3    2.59    0.64
  -5  -6  -3    6.78    1.55
  -4  -6  -3    0.45    0.48
  -3  -6  -3    2.13    0.60
  -2  -6  -3    0.76    0.41
  -1  -6  -3  127.31    4.07
   0  -6  -3   60.45    2.59
   1  -6  -3  132.91    4.15
   2  -6  -3    0.36    0.32
   3  -6  -3    2.00    0.61
   4  -6  -3    0.27    0.30
   5  -6  -3    6.34    0.82
   6  -6  -3    1.69    0.46
   7  -6  -3   11.04    1.51
   8  -6  -3   27.12    2.40
   9  -6  -3    1.38    0.63
  10  -6  -3   15.18    1.95
  11  -6  -3   50.22    2.77
  12  -6  -3    5.04    1.01
  13  -6  -3   30.29    2.94
  14  -6  -3   -0.05    0.68
 -14  -5  -3   14.38    2.72
 -13  -5  -3    0.02    0.81
 -12  -5  -3    1.72    1.08
 -11  -5  -3   11.98    2.24
 -10  -5  -3   40.48    2.26
  -9  -5  -3    4.36    0.86
  -8  -5  -3    5.90    0.93
  -7  -5  -3   56.07    2.41
  -6  -5  -3   24.57    1.60
  -5  -5  -3    2.05    0.51
  -4  -5  -3    1.33    0.41
  -3  -5  -3   56.18    3.48
  -2  -5  -3   81.70    4.34
  -1  -5  -3    3.22    0.67
   0  -5  -3   -0.01    0.23
   1  -5  -3    2.99    0.67
   2  -5  -3   80.96    3.03
   3  -5  -3   52.48    2.35
   4  -5  -3    0.99    0.42
   5  -5  -3    1.07    0.37
   6  -5  -3   21.76    1.49
   7  -5  -3   57.27    2.76
   8  -5  -3    5.61    1.04
   9  -5  -3    4.99    1.09
  10  -5  -3   39.80    2.47
  11  -5  -3   13.31    1.51
  12  -5  -3    1.86    0.76
  13  -5  -3   -0.28    0.51
  14  -5  -3   12.79    1.96
 -15  -4  -3    0.60    1.17
 -14  -4  -3   52.55    5.16
 -13  -4  -3   -0.19    0.72
 -12  -4  -3    0.79    0.92
 -11  -4  -3    6.35    1.58
 -10  -4  -3    3.20    0.81
  -9  -4  -3    2.96    0.74
  -8  -4  -3   17.57    1.62
  -7  -4  -3    9.55    1.15
  -6  -4  -3   12.98    1.30
  -5  -4  -3    0.55    0.32
  -4  -4  -3  142.39    4.01
  -3  -4  -3    7.88    0.90
  -2  -4  -3   12.10    1.07
  -1  -4  -3   13.20    1.10
   0  -4  -3    7.58    0.98
   1  -4  -3   11.99    1.24
   2  -4  -3   13.17    1.30
   3  -4  -3    6.62    0.91
   4  -4  -3  147.55    4.28
   5  -4  -3    0.63    0.30
   6  -4  -3   15.91    1.22
   7  -4  -3    9.23    1.22
   8  -4  -3   14.53    1.66
   9  -4  -3    1.72    0.66
  10  -4  -3    3.53    0.76
  11  -4  -3    5.41    0.95
  12  -4  -3    1.43    0.72
  13  -4  -3    0.25    0.54
  14  -4  -3   42.00    3.59
  15  -4  -3   -0.08    1.80
 -15  -3  -3    5.66    1.95
 -14  -3  -3    1.34    1.10
 -13  -3  -3    0.61    0.93
 -12  -3  -3    1.27    0.92
 -11  -3  -3    9.61    1.88
 -10  -3  -3   24.60    2.01
  -9  -3  -3   28.91    2.18
  -8  -3  -3   26.33    1.96
  -7  -3  -3  115.58    3.73
  -6  -3  -3    2.07    0.53
  -5  -3  -3   52.63    2.16
  -4  -3  -3   18.62    1.48
  -3  -3  -3    5.45    0.73
  -2  -3  -3   71.47    2.40
  -1  -3  -3  126.91    3.41
   0  -3  -3    0.14    0.22
   1  -3  -3  128.47    3.29
   2  -3  -3   72.39    2.67
   3  -3  -3    5.76    0.83
   4  -3  -3   20.76    1.43
   5  -3  -3   49.63    1.80
   6  -3  -3    2.42    0.48
   7  -3  -3  118.85    4.04
   8  -3  -3   28.84    2.30
   9  -3  -3   25.83    1.84
  10  -3  -3   21.55    1.75
  11  -3  -3    7.04    1.25
  12  -3  -3    0.67    0.58
  13  -3  -3   -0.19    0.57
  14  -3  -3    2.47    1.00
  15  -3  -3    4.42    1.47
 -15  -2  -3    1.77    1.25
 -14  -2  -3   -0.11    0.72
 -13  -2  -3    8.67    1.98
 -12  -2  -3   20.08    2.95
 -11  -2  -3   54.53    3.87
 -10  -2  -3    3.96    0.81
  -9  -2  -3    1.03    0.48
  -8  -2  -3    0.08    0.34
  -7  -2  -3   30.50    1.74
  -6  -2  -3    0.34    0.32
  -5  -2  -3    0.87    0.37
  -4  -2  -3   20.88    1.37
  -3  -2  -3    8.41    0.91
  -2  -2  -3   30.19    1.42
  -1  -2  -3  121.97    3.36
   0  -2  -3    0.23    0.23
   1  -2  -3  120.84    3.26
   2  -2  -3   27.47    1.10
   3  -2  -3   10.71    0.78
   4  -2  -3   18.75    0.99
   5  -2  -3    1.01    0.31
   6  -2  -3    0.70    0.33
   7  -2  -3   31.74    1.85
   8  -2  -3   -0.06    0.25
   9  -2  -3    0.12    0.29
  10  -2  -3    3.88    0.73
  11  -2  -3   52.07    2.91
  12  -2  -3   21.80    2.37
  13  -2  -3    8.94    1.55
  14  -2  -3    0.88    0.69
  15  -2  -3    1.55    0.84
 -15  -1  -3    2.56    1.41
 -14  -1  -3   17.02    2.89
 -13  -1  -3   18.76    2.88
 -12  -1  -3    3.38    1.27
 -11  -1  -3    5.75    1.48
 -10  -1  -3   49.54    2.43
  -9  -1  -3    3.37    0.76
  -8  -1  -3   28.30    2.07
  -7  -1  -3    0.30    0.31
  -6  -1  -3   -0.19    0.23
  -5  -1  -3  134.95    3.95
  -4  -1  -3   16.06    1.32
  -3  -1  -3   41.04    1.76
  -2  -1  -3   32.39    1.53
  -1  -1  -3    1.25    0.37
   0  -1  -3    0.05    0.18
   1  -1  -3    0.76    0.30
   2  -1  -3   32.72    1.44
   3  -1  -3   39.27    1.35
   4  -1  -3   14.58    1.26
   5  -1  -3  137.82    3.24
   6  -1  -3    0.08    0.21
   7  -1  -3    0.05    0.22
   8  -1  -3   27.39    1.59
   9  -1  -3    3.41    0.65
  10  -1  -3   41.08    2.54
  11  -1  -3    7.28    1.29
  12  -1  -3    2.59    0.82
  13  -1  -3   19.98    2.35
  14  -1  -3   11.02    1.75
  15  -1  -3    2.65    0.81
 -15   0  -3   -0.23    0.78
 -14   0  -3   19.02    3.11
 -13   0  -3    0.46    0.70
 -12   0  -3    0.10    0.66
 -11   0  -3   -0.03    0.54
 -10   0  -3    2.95    0.75
  -9   0  -3   -0.04    0.33
  -8   0  -3  152.59    4.64
  -7   0  -3   -0.06    0.30
  -6   0  -3   17.52    1.50
  -5   0  -3   -0.14    0.19
  -4   0  -3  107.60    3.35
  -3   0  -3   -0.14    0.20
  -2   0  -3  106.59    2.72
  -1   0  -3    0.11    0.25
   0   0  -3    8.44    0.90
   1   0  -3    0.13    0.22
   2   0  -3  101.87    2.97
   3   0  -3    0.14    0.20
   4   0  -3  108.61    3.31
   5   0  -3   -0.12    0.16
   6   0  -3   23.35    1.24
   7   0  -3    0.16    0.21
   8   0  -3  158.23    3.90
   9   0  -3    0.07    0.35
  10   0  -3    1.56    0.62
  11   0  -3    0.10    0.47
  12   0  -3    0.28    0.47
  13   0  -3   -0.24    0.47
  14   0  -3   17.19    1.73
  15   0  -3    0.00    0.50
 -15   1  -3    1.18    1.13
 -14   1  -3   10.43    2.29
 -13   1  -3   22.85    3.18
 -12   1  -3    3.72    1.33
 -11   1  -3   13.19    2.38
 -10   1  -3   49.49    2.47
  -9   1  -3    3.41    0.78
  -8   1  -3   27.36    2.03
  -7   1  -3    0.19    0.34
  -6   1  -3    0.53    0.49
  -5   1  -3  133.49    5.48
  -4   1  -3   15.33    1.01
  -3   1  -3   39.33    1.54
  -2   1  -3   33.85    1.36
  -1   1  -3    0.30    0.24
   0   1  -3    0.14    0.19
   1   1  -3    1.15    0.48
   2   1  -3   31.45    2.00
   3   1  -3   37.40    2.22
   5   1  -3  139.43    3.15
   6   1  -3    0.01    0.18
   7   1  -3    0.19    0.22
   8   1  -3   28.78    2.17
   9   1  -3    2.76    0.73
  10   1  -3   59.20    2.88
  11   1  -3    8.47    1.36
  12   1  -3    2.92    0.73
  13   1  -3   21.32    1.92
  14   1  -3   13.50    1.60
  15   1  -3    3.47    1.08
 -15   2  -3    0.58    1.12
 -14   2  -3    0.50    1.00
 -13   2  -3    5.56    1.70
 -12   2  -3   14.74    2.55
 -11   2  -3   52.70    3.87
 -10   2  -3    4.06    0.90
  -9   2  -3    0.14    0.52
  -8   2  -3    0.34    0.42
  -7   2  -3   25.51    2.70
  -6   2  -3    0.89    0.36
  -5   2  -3    1.03    0.34
  -4   2  -3   21.27    1.28
  -3   2  -3    7.98    0.84
  -2   2  -3   26.61    1.27
  -1   2  -3  119.86    4.81
   0   2  -3    0.33    0.22
   1   2  -3  126.05    3.36
   2   2  -3   27.11    1.35
   3   2  -3   10.23    1.03
   4   2  -3   19.12    1.34
   5   2  -3    0.73    0.24
   6   2  -3    0.82    0.25
   7   2  -3   33.20    1.54
   8   2  -3    0.03    0.25
   9   2  -3    0.16    0.32
  10   2  -3    5.46    0.89
  11   2  -3   46.50    2.24
  12   2  -3   20.24    1.81
  13   2  -3    8.08    1.45
  14   2  -3    0.47    0.59
  15   2  -3    1.57    0.87
 -14   3  -3    1.83    1.15
 -13   3  -3   -0.43    0.67
 -12   3  -3    0.18    0.70
 -11   3  -3    5.17    1.47
 -10   3  -3   27.09    3.23
  -9   3  -3   20.66    2.74
  -8   3  -3   29.82    2.20
  -7   3  -3  118.52    3.66
  -6   3  -3    1.51    0.47
  -5   3  -3   51.97    2.08
  -4   3  -3   18.17    1.23
  -3   3  -3    5.94    0.76
  -2   3  -3   69.56    3.48
  -1   3  -3  116.86    4.93
   0   3  -3    0.06    0.19
   1   3  -3  129.04    3.49
   2   3  -3   76.63    2.00
   3   3  -3    6.18    0.79
   4   3  -3   19.16    1.12
   5   3  -3   50.72    1.50
   6   3  -3    2.32    0.40
   7   3  -3  117.48    3.17
   8   3  -3   28.79    1.66
   9   3  -3   25.39    1.80
  10   3  -3   22.75    1.82
  11   3  -3    8.85    1.43
  12   3  -3    0.62    0.57
  13   3  -3    0.16    0.53
  14   3  -3    2.83    0.94
  15   3  -3    3.71    1.25
 -13   4  -3    0.56    0.88
 -12   4  -3    3.78    1.43
 -11   4  -3    3.91    1.31
 -10   4  -3    4.46    1.31
  -9   4  -3    2.35    0.59
  -8   4  -3   16.25    1.61
  -7   4  -3   10.20    1.18
  -6   4  -3   14.46    1.37
  -5   4  -3    0.37    0.30
  -4   4  -3  140.61    4.00
  -3   4  -3    6.09    0.80
  -2   4  -3   15.41    1.94
  -1   4  -3   11.41    1.62
   0   4  -3    7.55    0.80
   1   4  -3   11.04    0.80
   2   4  -3   15.35    1.00
   3   4  -3    7.59    0.90
   4   4  -3  141.58    3.25
   5   4  -3    0.30    0.25
   6   4  -3   14.45    1.14
   7   4  -3    9.94    1.23
   8   4  -3   16.68    1.76
   9   4  -3    2.15    0.67
  10   4  -3    4.76    0.99
  11   4  -3    6.08    1.18
  12   4  -3    1.79    0.74
  13   4  -3    0.63    0.67
  14   4  -3   46.49    3.73
 -14   5  -3    9.66    2.16
 -13   5  -3   -0.17    0.88
 -12   5  -3    0.46    0.81
 -11   5  -3    8.23    1.93
 -10   5  -3   39.89    2.53
  -9   5  -3    4.66    0.89
  -8   5  -3    6.97    1.07
  -7   5  -3   53.14    2.41
  -6   5  -3   24.38    1.63
  -5   5  -3    1.51    0.47
  -4   5  -3    1.35    0.46
  -3   5  -3   50.90    2.14
  -2   5  -3   82.08    4.07
  -1   5  -3    4.45    1.06
   0   5  -3    0.09    0.20
   1   5  -3    4.87    0.73
   2   5  -3   84.20    2.83
   3   5  -3   57.66    2.18
   4   5  -3    1.37    0.47
   5   5  -3    1.31    0.48
   6   5  -3   23.49    1.91
   7   5  -3   55.28    2.60
   8   5  -3    6.83    1.10
   9   5  -3    2.21    0.71
  10   5  -3   43.71    2.55
  11   5  -3   12.06    1.61
  12   5  -3    1.21    0.68
  13   5  -3   -0.48    0.49
  14   5  -3   13.09    1.97
 -14   6  -3    0.52    1.08
 -13   6  -3   32.64    4.13
 -12   6  -3    5.29    1.54
 -11   6  -3   50.32    2.75
 -10   6  -3   13.23    1.60
  -9   6  -3    0.13    0.37
  -8   6  -3   28.26    2.25
  -7   6  -3   11.11    1.31
  -6   6  -3    2.31    0.55
  -5   6  -3    6.22    0.91
  -4   6  -3    0.60    0.36
  -3   6  -3    2.07    0.55
  -2   6  -3    0.34    0.31
  -1   6  -3  134.08    5.57
   0   6  -3   62.65    2.29
   1   6  -3  127.68    3.74
   2   6  -3    0.70    0.37
   3   6  -3    2.13    0.53
   4   6  -3    0.29    0.44
   5   6  -3    6.90    0.98
   6   6  -3    2.56    0.66
   7   6  -3    8.64    1.18
   8   6  -3   27.45    2.28
   9   6  -3    1.27    0.57
  10   6  -3   10.62    1.52
  11   6  -3   48.72    2.87
  12   6  -3    5.42    1.15
  13   6  -3   30.88    2.91
  14   6  -3    0.37    0.66
 -13   7  -3   48.51    5.00
 -12   7  -3   -0.38    0.50
 -11   7  -3    2.61    0.82
 -10   7  -3    0.41    0.53
  -9   7  -3    0.81    0.47
  -8   7  -3   10.79    1.38
  -7   7  -3    7.34    1.13
  -6   7  -3   10.18    1.26
  -5   7  -3  145.05    4.41
  -4   7  -3    2.37    0.57
  -3   7  -3   15.54    1.45
  -2   7  -3    6.16    0.90
  -1   7  -3    3.61    1.06
   0   7  -3   -0.07    0.22
   1   7  -3    2.61    0.56
   2   7  -3    5.09    0.84
   3   7  -3    9.65    1.20
   4   7  -3    1.32    0.73
   5   7  -3  146.96    6.65
   6   7  -3   15.67    2.42
   7   7  -3    8.73    1.25
   8   7  -3   10.75    1.42
   9   7  -3    0.32    0.44
  10   7  -3    0.75    0.61
  11   7  -3    3.56    0.99
  12   7  -3    0.66    0.60
  13   7  -3   55.34    3.69
  14   7  -3   -0.61    0.97
 -13   8  -3    0.17    0.90
 -12   8  -3    3.23    0.98
 -11   8  -3    6.18    1.26
 -10   8  -3    1.24    0.59
  -9   8  -3   16.49    1.83
  -8   8  -3   23.89    2.12
  -7   8  -3   13.51    1.55
  -6   8  -3   -0.11    0.32
  -5   8  -3   18.72    1.77
  -4   8  -3   16.30    1.57
  -3   8  -3   21.97    1.81
  -2   8  -3   39.47    2.04
  -1   8  -3   14.27    2.08
   0   8  -3   12.45    1.27
   1   8  -3   17.13    1.54
   2   8  -3   40.84    2.06
   3   8  -3   24.37    1.94
   4   8  -3   17.40    2.48
   5   8  -3   19.83    2.68
   6   8  -3    0.14    0.53
   7   8  -3   14.13    2.49
   8   8  -3   19.36    2.99
   9   8  -3   14.14    1.82
  10   8  -3    1.74    0.70
  11   8  -3    9.82    1.59
  12   8  -3    4.28    1.07
  13   8  -3    1.52    0.87
 -13   9  -3   -0.43    0.89
 -12   9  -3   -0.07    0.63
 -11   9  -3    0.84    0.62
 -10   9  -3   17.74    1.97
  -9   9  -3   48.76    2.71
  -8   9  -3   14.75    1.75
  -7   9  -3    2.54    0.69
  -6   9  -3   13.97    1.57
  -5   9  -3   42.77    2.28
  -4   9  -3   -0.14    0.31
  -3   9  -3    0.09    0.29
  -2   9  -3   80.55    3.18
  -1   9  -3   17.55    2.33
   0   9  -3   -0.07    0.33
   1   9  -3   21.67    1.78
   2   9  -3   82.61    3.17
   3   9  -3   -0.04    0.30
   4   9  -3    0.22    0.45
   5   9  -3   39.86    3.30
   6   9  -3   18.13    2.81
   7   9  -3    4.32    1.53
   8   9  -3   15.72    2.85
   9   9  -3   46.25    4.13
  10   9  -3   16.19    2.99
  11   9  -3    0.23    1.06
  12   9  -3   -0.69    0.88
 -12  10  -3    9.67    1.72
 -11  10  -3   22.03    2.35
 -10  10  -3    1.83    0.78
  -9  10  -3    1.52    0.71
  -8  10  -3    2.34    0.76
  -7  10  -3    0.55    0.44
  -6  10  -3   15.13    1.71
  -5  10  -3    1.30    0.55
  -4  10  -3   51.56    2.56
  -3  10  -3    6.93    1.09
  -2  10  -3    0.19    0.33
  -1  10  -3   35.52    3.60
   0  10  -3   16.28    2.34
   1  10  -3   40.26    2.14
   2  10  -3    0.25    0.36
   3  10  -3    7.47    1.16
   4  10  -3   46.86    2.47
   5  10  -3    1.65    0.93
   6  10  -3   18.01    2.84
   7  10  -3    0.55    0.60
   8  10  -3    1.45    0.93
   9  10  -3    1.29    1.12
  10  10  -3    1.91    1.19
  11  10  -3   23.86    3.85
  12  10  -3    8.78    2.55
 -11  11  -3    0.53    0.64
 -10  11  -3    0.31    0.67
  -9  11  -3   17.00    2.03
  -8  11  -3    0.94    0.62
  -7  11  -3   62.15    3.03
  -6  11  -3   26.12    2.34
  -5  11  -3    4.91    1.03
  -4  11  -3    7.84    1.26
  -3  11  -3    0.01    0.34
  -2  11  -3    8.44    1.29
  -1  11  -3   31.29    2.38
   0  11  -3   -0.17    0.51
   1  11  -3   33.13    2.20
   2  11  -3    9.50    1.32
   3  11  -3    0.19    0.37
   4  11  -3    8.34    1.32
   5  11  -3    5.26    1.58
   6  11  -3   26.27    3.57
   7  11  -3   46.47    4.12
   8  11  -3    0.75    0.98
   9  11  -3   12.91    2.69
  10  11  -3    0.55    1.08
  11  11  -3   -0.12    0.85
 -10  12  -3   13.82    1.87
  -9  12  -3    5.73    1.23
  -8  12  -3    0.23    0.58
  -7  12  -3   14.11    1.79
  -6  12  -3    0.21    0.48
  -5  12  -3    8.14    1.31
  -4  12  -3   27.30    2.38
  -3  12  -3   15.74    1.77
  -2  12  -3    0.90    0.54
  -1  12  -3    0.38    0.41
   0  12  -3   15.35    2.45
   1  12  -3    0.23    0.40
   2  12  -3    1.78    0.68
   3  12  -3   13.15    1.62
   4  12  -3   23.52    2.19
   5  12  -3   11.07    1.57
   6  12  -3   -0.53    0.53
   7  12  -3   16.71    3.04
   8  12  -3    1.46    1.20
   9  12  -3    7.24    2.21
  10  12  -3    8.30    2.42
  -9  13  -3    7.41    1.38
  -8  13  -3   10.86    1.69
  -7  13  -3    5.63    1.22
  -6  13  -3   -0.09    0.52
  -5  13  -3    0.72    0.57
  -4  13  -3    1.54    0.65
  -3  13  -3   44.74    2.65
  -2  13  -3   12.19    1.58
  -1  13  -3    0.09    0.47
   0  13  -3    0.12    0.40
   1  13  -3   -0.07    0.57
   2  13  -3   13.66    1.72
   3  13  -3   41.62    2.80
   4  13  -3    1.76    0.65
   5  13  -3    0.13    0.43
   6  13  -3   -0.33    0.49
   7  13  -3    6.55    1.94
   8  13  -3    8.21    2.30
   9  13  -3    9.92    2.42
  -8  14  -3   25.78    2.68
  -7  14  -3   -0.28    0.54
  -6  14  -3    0.24    0.58
  -5  14  -3    1.73    0.78
  -4  14  -3   14.69    1.82
  -3  14  -3    1.75    0.74
  -2  14  -3    1.49    0.69
  -1  14  -3    6.99    1.30
   0  14  -3   49.61    2.85
   1  14  -3    8.33    1.89
   2  14  -3    2.32    0.82
   3  14  -3    0.63    0.59
   4  14  -3   16.36    1.95
   5  14  -3    1.28    0.74
   6  14  -3    0.14    0.56
   7  14  -3    0.16    0.96
   8  14  -3   19.26    3.50
  -7  15  -3    0.25    1.04
  -6  15  -3   23.73    2.53
  -5  15  -3   20.43    2.29
  -4  15  -3    8.74    1.52
  -3  15  -3    8.09    1.42
  -2  15  -3    1.50    0.76
  -1  15  -3    0.03    0.50
   0  15  -3    0.17    0.54
   1  15  -3    0.89    0.63
   2  15  -3    2.22    1.23
   3  15  -3    9.29    1.59
   4  15  -3   11.73    1.76
   5  15  -3   23.94    2.54
   6  15  -3   20.49    2.33
   7  15  -3   -0.01    1.49
  -4  16  -3    1.47    1.15
  -3  16  -3   12.57    2.02
  -2  16  -3   15.27    2.04
  -1  16  -3    3.44    1.11
   0  16  -3   30.07    2.82
   1  16  -3    3.20    1.06
   2  16  -3   11.80    1.78
   3  16  -3   10.97    2.39
   4  16  -3   -0.55    0.91
  -5 -17  -2   16.93    3.78
  -4 -17  -2    4.72    2.14
  -3 -17  -2    1.54    1.53
  -2 -17  -2    1.78    1.52
  -1 -17  -2    6.52    2.23
   0 -17  -2   -0.06    1.16
   1 -17  -2    8.57    1.91
   2 -17  -2    2.38    1.08
   3 -17  -2    0.32    0.98
   4 -17  -2    1.61    0.96
   5 -17  -2    9.31    1.82
   6 -17  -2   19.17    3.80
  -8 -16  -2    0.81    1.71
  -7 -16  -2    5.29    2.24
  -6 -16  -2    0.07    1.14
  -5 -16  -2    4.24    1.81
  -4 -16  -2   36.43    5.03
  -3 -16  -2    5.10    2.00
  -2 -16  -2    1.74    1.43
  -1 -16  -2   13.96    3.18
   0 -16  -2   25.64    2.87
   1 -16  -2   12.16    2.07
   2 -16  -2    0.54    0.81
   3 -16  -2    2.77    1.11
   4 -16  -2   28.84    3.05
   5 -16  -2    2.27    1.16
   6 -16  -2    0.04    0.76
   7 -16  -2    2.96    1.53
  -8 -15  -2   20.96    3.73
  -7 -15  -2   -1.19    1.11
  -6 -15  -2    0.87    1.22
  -5 -15  -2    2.09    1.43
  -4 -15  -2    7.47    2.32
  -3 -15  -2    8.85    2.55
  -2 -15  -2   16.76    3.26
  -1 -15  -2    0.15    0.71
   0 -15  -2   -0.01    0.63
   1 -15  -2    0.59    0.74
   2 -15  -2   16.46    2.25
   3 -15  -2    9.16    1.73
   4 -15  -2    6.99    1.60
   5 -15  -2    3.20    1.09
   6 -15  -2    0.31    0.74
   7 -15  -2    0.99    0.81
   8 -15  -2   13.73    3.27
  -8 -14  -2   36.11    4.74
  -7 -14  -2   -0.53    1.03
  -6 -14  -2    2.99    1.49
  -5 -14  -2    0.63    0.90
  -4 -14  -2    8.79    2.30
  -3 -14  -2    1.02    1.09
  -2 -14  -2    6.24    1.64
  -1 -14  -2   14.85    1.93
   0 -14  -2   74.77    3.78
   1 -14  -2   12.56    1.85
   2 -14  -2    6.33    1.37
   3 -14  -2    0.27    0.67
   4 -14  -2    8.74    1.59
   5 -14  -2    1.80    0.69
   6 -14  -2    2.30    0.81
   7 -14  -2   -0.26    0.56
   8 -14  -2   52.81    4.10
   9 -14  -2    1.78    0.99
  10 -14  -2    5.80    1.58
  -9 -13  -2    0.35    1.26
  -8 -13  -2    2.73    1.50
  -7 -13  -2    8.68    2.28
  -6 -13  -2   25.70    3.66
  -5 -13  -2   83.52    5.62
  -4 -13  -2   16.35    2.90
  -3 -13  -2    1.04    1.02
  -2 -13  -2    1.58    0.71
  -1 -13  -2    1.92    0.75
   0 -13  -2   -0.06    0.50
   1 -13  -2    2.85    0.70
   2 -13  -2    3.06    0.74
   3 -13  -2    0.75    0.50
   4 -13  -2   16.33    1.63
   5 -13  -2   82.33    3.20
   6 -13  -2   28.64    2.25
   7 -13  -2   11.02    1.43
   8 -13  -2    0.48    0.69
   9 -13  -2    0.90    0.75
  10 -13  -2    0.55    0.80
  11 -13  -2    0.25    0.94
  -9 -12  -2   -0.40    1.03
  -8 -12  -2    3.67    1.44
  -7 -12  -2   23.14    3.41
  -6 -12  -2   13.01    2.60
  -5 -12  -2    2.63    1.16
  -4 -12  -2    5.54    1.64
  -3 -12  -2   12.88    1.54
  -2 -12  -2   45.21    2.57
  -1 -12  -2   41.02    2.64
   0 -12  -2   16.67    1.85
   1 -12  -2   42.70    2.19
   2 -12  -2   46.03    2.24
   3 -12  -2   15.42    1.41
   4 -12  -2    7.91    1.10
   5 -12  -2    1.57    0.52
   6 -12  -2   11.82    1.39
   7 -12  -2   22.28    1.98
   8 -12  -2    3.13    1.06
   9 -12  -2   -0.18    0.64
  10 -12  -2   -0.07    0.66
  11 -12  -2   21.01    2.04
  12 -12  -2   20.69    2.07
  -9 -11  -2   46.26    4.75
  -8 -11  -2    3.00    1.24
  -7 -11  -2    3.90    1.56
  -6 -11  -2   -0.02    0.67
  -5 -11  -2    2.08    1.05
  -4 -11  -2    8.52    1.18
  -3 -11  -2   11.34    1.44
  -2 -11  -2   18.96    1.87
  -1 -11  -2   65.02    2.99
   0 -11  -2    0.13    0.36
   1 -11  -2   63.20    3.02
   2 -11  -2   18.72    1.50
   3 -11  -2   11.47    1.23
   4 -11  -2    8.73    1.11
   5 -11  -2    2.13    0.59
   6 -11  -2    0.73    0.47
   7 -11  -2    2.86    0.71
   8 -11  -2   -0.17    0.52
   9 -11  -2   45.97    3.27
  10 -11  -2   16.91    2.24
  11 -11  -2    1.46    0.67
  12 -11  -2   -0.31    0.59
  13 -11  -2    1.53    0.81
 -14 -10  -2   15.78    2.89
 -13 -10  -2   16.19    2.74
 -12 -10  -2   51.63    5.07
  -9 -10  -2    5.34    1.73
  -8 -10  -2    3.62    1.37
  -7 -10  -2    6.66    1.67
  -6 -10  -2   16.10    2.60
  -5 -10  -2    3.39    0.78
  -4 -10  -2   58.24    2.65
  -3 -10  -2   51.75    2.46
  -2 -10  -2   15.11    1.56
  -1 -10  -2   23.91    1.98
   0 -10  -2   -0.01    0.30
   1 -10  -2   25.60    2.15
   2 -10  -2   13.81    1.57
   3 -10  -2   46.62    1.98
   4 -10  -2   61.28    2.34
   5 -10  -2    3.53    0.70
   6 -10  -2   10.59    1.18
   7 -10  -2    4.11    0.79
   8 -10  -2    2.38    0.78
   9 -10  -2    3.78    1.06
  10 -10  -2    0.41    0.59
  11 -10  -2    2.36    0.72
  12 -10  -2   41.64    2.83
  13 -10  -2   16.30    1.83
  14 -10  -2   14.75    2.12
 -14  -9  -2   11.28    2.38
 -13  -9  -2    0.47    0.92
 -12  -9  -2    3.98    1.38
 -11  -9  -2   16.25    2.53
 -10  -9  -2   17.34    2.45
  -9  -9  -2    0.54    0.44
  -8  -9  -2    2.70    0.68
  -7  -9  -2   43.25    2.14
  -6  -9  -2   85.57    3.72
  -5  -9  -2   18.44    1.58
  -4  -9  -2    1.73    0.56
  -3  -9  -2   39.42    2.02
  -2  -9  -2   26.55    1.79
  -1  -9  -2    1.39    0.53
   0  -9  -2    0.30    0.33
   1  -9  -2    1.24    0.49
   2  -9  -2   21.91    1.88
   3  -9  -2   39.44    1.72
   4  -9  -2    1.67    0.47
   5  -9  -2   17.78    1.47
   6  -9  -2   87.86    2.90
   7  -9  -2   45.04    2.06
   8  -9  -2    1.40    0.65
   9  -9  -2    0.09    0.50
  10  -9  -2   18.35    2.25
  11  -9  -2   11.86    1.42
  12  -9  -2    3.34    0.84
  13  -9  -2    0.16    0.57
  14  -9  -2   14.05    1.73
 -15  -8  -2    0.28    1.02
 -14  -8  -2    5.33    1.76
 -13  -8  -2    3.06    1.27
 -12  -8  -2    9.86    2.03
 -11  -8  -2   11.63    2.11
 -10  -8  -2   39.25    3.01
  -9  -8  -2    5.42    0.98
  -8  -8  -2   38.60    2.03
  -7  -8  -2   18.89    1.63
  -6  -8  -2   12.88    1.04
  -5  -8  -2   17.87    1.17
  -4  -8  -2   11.30    1.23
  -3  -8  -2   31.55    1.73
  -2  -8  -2   -0.16    0.23
  -1  -8  -2   43.62    2.07
   0  -8  -2  131.95    4.07
   1  -8  -2   46.49    2.17
   2  -8  -2   -0.05    0.27
   3  -8  -2   31.50    1.55
   4  -8  -2    8.92    0.93
   5  -8  -2   14.53    1.26
   6  -8  -2   12.97    1.25
   7  -8  -2   19.38    1.51
   8  -8  -2   43.37    2.59
   9  -8  -2    4.25    0.99
  10  -8  -2   37.80    3.19
  11  -8  -2   15.08    1.55
  12  -8  -2    8.13    1.12
  13  -8  -2    3.36    0.91
  14  -8  -2    4.81    1.05
  15  -8  -2    3.46    1.68
 -15  -7  -2    0.27    0.96
 -14  -7  -2   -0.20    0.88
 -13  -7  -2   29.94    3.63
 -12  -7  -2    0.75    0.75
 -11  -7  -2   16.19    2.50
 -10  -7  -2    0.68    0.62
  -9  -7  -2   53.75    2.43
  -8  -7  -2   18.51    1.62
  -7  -7  -2   36.26    1.46
  -6  -7  -2   10.42    0.90
  -5  -7  -2   22.31    1.09
  -4  -7  -2    6.03    0.65
  -3  -7  -2   93.69    2.30
  -2  -7  -2   11.98    1.21
  -1  -7  -2   19.94    1.55
   0  -7  -2    0.11    0.25
   1  -7  -2   20.00    1.62
   2  -7  -2   11.71    1.22
   3  -7  -2   92.09    3.22
   4  -7  -2    4.95    0.68
   5  -7  -2   20.69    1.46
   6  -7  -2   12.89    1.18
   7  -7  -2   34.23    1.82
   8  -7  -2   18.70    1.93
   9  -7  -2   55.89    3.01
  10  -7  -2    0.62    0.45
  11  -7  -2   13.89    1.47
  12  -7  -2    0.37    0.47
  13  -7  -2   28.52    2.25
  14  -7  -2   -0.27    0.56
  15  -7  -2    1.66    0.90
 -15  -6  -2   26.69    3.55
 -14  -6  -2   -0.19    0.87
 -13  -6  -2    6.31    1.69
 -12  -6  -2    2.09    0.97
 -11  -6  -2    0.94    0.68
 -10  -6  -2   17.82    2.43
  -9  -6  -2   26.83    1.98
  -8  -6  -2   62.78    2.50
  -7  -6  -2   36.16    1.80
  -6  -6  -2    3.51    0.65
  -5  -6  -2   47.28    1.94
  -4  -6  -2    3.64    0.58
  -3  -6  -2  191.11    3.76
  -2  -6  -2   58.95    1.61
  -1  -6  -2    2.07    0.28
   0  -6  -2   82.76    2.83
   1  -6  -2    1.67    0.49
   2  -6  -2   61.07    3.26
   3  -6  -2  184.65    4.94
   4  -6  -2    2.76    0.47
   5  -6  -2   51.70    1.84
   6  -6  -2    5.74    0.75
   7  -6  -2   38.96    1.68
   8  -6  -2   61.01    2.91
   9  -6  -2   24.04    2.30
  10  -6  -2   17.75    1.53
  11  -6  -2    1.97    0.61
  12  -6  -2    3.12    0.80
  13  -6  -2    5.96    1.04
  14  -6  -2    0.16    0.65
  15  -6  -2   21.36    2.49
 -16  -5  -2    7.97    2.88
 -15  -5  -2    2.69    1.34
 -14  -5  -2    5.64    1.68
 -13  -5  -2    1.37    0.92
 -12  -5  -2    7.05    1.62
 -11  -5  -2    5.69    1.44
 -10  -5  -2   16.45    2.34
  -9  -5  -2   39.95    1.95
  -8  -5  -2    0.27    0.29
  -7  -5  -2   10.99    1.12
  -6  -5  -2  106.56    3.21
  -5  -5  -2   16.44    1.29
  -4  -5  -2   11.84    1.05
  -3  -5  -2    0.30    0.23
  -2  -5  -2   78.11    1.90
  -1  -5  -2   41.97    1.20
   0  -5  -2    0.01    0.11
   1  -5  -2   41.96    2.50
   2  -5  -2   76.00    2.60
   3  -5  -2    0.17    0.25
   4  -5  -2   14.91    1.06
   5  -5  -2   18.35    1.24
   6  -5  -2  109.06    2.83
   7  -5  -2   12.95    1.07
   8  -5  -2    0.24    0.36
   9  -5  -2   37.27    2.50
  10  -5  -2   19.19    1.57
  11  -5  -2    4.77    0.79
  12  -5  -2    4.07    0.82
  13  -5  -2    1.54    0.69
  14  -5  -2    7.72    1.51
  15  -5  -2    1.32    0.74
  16  -5  -2    2.92    1.60
 -16  -4  -2    1.26    1.12
 -15  -4  -2   13.73    2.63
 -14  -4  -2    1.91    1.09
 -13  -4  -2    0.23    0.70
 -12  -4  -2  110.65    5.96
 -11  -4  -2    4.44    1.27
 -10  -4  -2    5.40    1.38
  -9  -4  -2    4.27    0.79
  -8  -4  -2    0.08    0.27
  -7  -4  -2    4.11    0.68
  -6  -4  -2   56.14    2.12
  -5  -4  -2    5.65    0.73
  -4  -4  -2   54.68    1.95
  -3  -4  -2    2.02    0.41
  -2  -4  -2  149.30    3.49
  -1  -4  -2    1.19    0.29
   0  -4  -2   88.39    1.93
   1  -4  -2    1.31    0.20
   2  -4  -2  143.81    3.79
   3  -4  -2    2.78    0.29
   4  -4  -2   52.15    1.69
   5  -4  -2    5.35    0.61
   6  -4  -2   56.11    1.81
   7  -4  -2    5.49    0.68
   8  -4  -2    0.29    0.37
   9  -4  -2    3.00    0.61
  10  -4  -2    7.10    0.99
  11  -4  -2    6.60    0.90
  12  -4  -2  124.18    3.85
  13  -4  -2    0.59    0.52
  14  -4  -2    2.91    1.02
  15  -4  -2   14.29    2.04
  16  -4  -2    0.61    0.74
 -16  -3  -2    4.36    1.66
 -15  -3  -2    5.18    1.65
 -14  -3  -2    1.75    1.07
 -13  -3  -2    6.29    1.60
 -12  -3  -2    1.64    0.89
 -11  -3  -2   14.23    2.25
 -10  -3  -2    0.06    0.45
  -9  -3  -2  136.28    3.91
  -8  -3  -2   38.58    1.80
  -7  -3  -2   14.59    1.28
  -6  -3  -2  128.93    2.73
  -5  -3  -2    8.72    0.50
  -4  -3  -2   26.68    1.26
  -3  -3  -2   52.63    1.80
  -2  -3  -2    1.16    0.29
  -1  -3  -2  126.97    3.02
   0  -3  -2   -0.02    0.12
   1  -3  -2  121.93    2.43
   2  -3  -2    0.92    0.19
   3  -3  -2   50.79    1.90
   4  -3  -2   25.15    1.25
   5  -3  -2    8.23    0.73
   6  -3  -2  128.49    2.96
   7  -3  -2   14.01    0.90
   8  -3  -2   40.06    1.71
   9  -3  -2  124.74    3.51
  10  -3  -2   -0.03    0.28
  11  -3  -2    9.60    1.10
  12  -3  -2    1.49    0.72
  13  -3  -2    7.17    1.32
  14  -3  -2    1.29    0.76
  15  -3  -2    9.58    1.70
  16  -3  -2    6.69    1.49
 -16  -2  -2    1.50    1.21
 -15  -2  -2   56.18    4.44
 -14  -2  -2    5.89    1.67
 -13  -2  -2    1.67    0.99
 -12  -2  -2    4.77    1.35
 -11  -2  -2    8.41    1.72
 -10  -2  -2   22.86    2.77
  -9  -2  -2   29.90    1.74
  -8  -2  -2    3.67    0.50
  -7  -2  -2   44.50    1.42
  -6  -2  -2   31.89    1.11
  -5  -2  -2   47.90    1.30
  -4  -2  -2  130.58    2.48
  -3  -2  -2  116.56    3.00
  -2  -2  -2   13.41    0.83
  -1  -2  -2    2.80    0.40
   0  -2  -2    2.52    0.37
   1  -2  -2    2.56    0.36
   2  -2  -2   14.55    0.65
   3  -2  -2  114.15    3.06
   4  -2  -2  130.93    2.81
   5  -2  -2   46.00    1.46
   6  -2  -2   32.91    1.21
   7  -2  -2   44.40    1.48
   8  -2  -2    2.74    0.53
   9  -2  -2   30.23    1.70
  10  -2  -2   20.48    1.58
  11  -2  -2   10.99    1.56
  12  -2  -2    5.72    1.13
  13  -2  -2    1.92    0.80
  14  -2  -2    6.35    1.29
  15  -2  -2   48.48    3.77
  16  -2  -2    1.30    0.85
 -16  -1  -2    7.93    2.17
 -15  -1  -2   -0.50    0.75
 -14  -1  -2    2.50    1.13
 -13  -1  -2   21.20    2.92
 -12  -1  -2   11.50    2.10
 -11  -1  -2   23.93    2.87
 -10  -1  -2    0.25    0.32
  -9  -1  -2   11.14    0.92
  -8  -1  -2    0.28    0.19
  -7  -1  -2    5.64    0.60
  -6  -1  -2  112.50    2.48
  -5  -1  -2   17.67    0.83
  -4  -1  -2   85.48    1.83
  -3  -1  -2  113.90    2.60
  -2  -1  -2   20.83    0.66
  -1  -1  -2    1.59    0.34
   0  -1  -2    0.08    0.15
   1  -1  -2    2.38    0.36
   2  -1  -2   18.66    1.39
   3  -1  -2  112.47    2.97
   4  -1  -2   79.48    1.97
   5  -1  -2   17.86    0.86
   6  -1  -2  111.91    2.52
   7  -1  -2    5.90    0.61
   8  -1  -2   -0.21    0.18
   9  -1  -2   12.76    1.13
  10  -1  -2   -0.07    0.26
  11  -1  -2   25.21    2.23
  12  -1  -2   13.78    1.74
  13  -1  -2   23.69    2.41
  14  -1  -2    2.96    0.90
  15  -1  -2   -0.14    0.52
  16  -1  -2    7.87    1.27
 -16   0  -2    2.12    1.21
 -15   0  -2   -0.26    0.71
 -14   0  -2   43.10    4.46
 -13   0  -2   -0.26    0.59
 -12   0  -2   44.16    3.43
 -11   0  -2    0.06    0.34
 -10   0  -2  100.69    3.45
  -9   0  -2    0.28    0.24
  -8   0  -2   89.25    2.33
  -7   0  -2    0.14    0.19
  -6   0  -2    0.77    0.24
  -5   0  -2    0.05    0.17
  -4   0  -2    1.02    0.28
  -3   0  -2    0.04    0.12
  -2   0  -2    5.07    0.47
  -1   0  -2   -0.21    0.16
   0   0  -2  905.10   23.97
   1   0  -2   -0.06    0.17
   3   0  -2    0.13    0.20
   4   0  -2    0.32    0.16
   5   0  -2   -0.09    0.14
   6   0  -2    0.53    0.19
   7   0  -2   -0.05    0.17
   8   0  -2   87.17    2.49
   9   0  -2    0.16    0.27
  10   0  -2  105.46    3.90
  11   0  -2   -0.03    0.37
  12   0  -2   40.31    2.71
  13   0  -2   -0.03    0.42
  14   0  -2   35.69    2.49
  15   0  -2    0.08    0.43
  16   0  -2    3.44    0.98
  17   0  -2    0.59    1.35
 -16   1  -2    6.16    1.81
 -15   1  -2    0.36    0.88
 -14   1  -2    2.44    1.17
 -13   1  -2   25.07    3.25
 -12   1  -2   18.01    1.79
 -11   1  -2   26.84    1.86
 -10   1  -2    0.09    0.30
  -9   1  -2   11.16    0.95
  -8   1  -2   -0.02    0.23
  -7   1  -2    5.48    0.76
  -6   1  -2  113.18    3.14
  -5   1  -2   18.34    1.08
  -4   1  -2   81.06    2.30
  -3   1  -2  113.15    2.82
  -2   1  -2   19.72    0.88
  -1   1  -2    2.15    0.30
   0   1  -2    0.56    0.32
   1   1  -2    2.32    0.52
   4   1  -2   77.86    2.35
   5   1  -2   17.44    0.84
   6   1  -2  111.58    2.16
   7   1  -2    4.44    0.57
   8   1  -2   -0.01    0.19
   9   1  -2   10.43    1.28
  10   1  -2   -0.04    0.30
  11   1  -2   26.77    2.33
  12   1  -2   14.01    1.39
  13   1  -2   24.81    1.99
  14   1  -2    2.98    0.77
  15   1  -2   -0.06    0.46
  16   1  -2    7.08    1.21
 -16   2  -2    0.14    0.99
 -15   2  -2   51.85    5.16
 -14   2  -2    6.07    1.72
 -13   2  -2    1.80    0.71
 -12   2  -2    5.72    1.05
 -11   2  -2    7.68    1.13
 -10   2  -2   21.11    1.73
  -9   2  -2   33.33    1.78
  -8   2  -2    3.63    0.65
  -7   2  -2   45.92    1.92
  -6   2  -2   32.21    1.48
  -5   2  -2   48.45    1.79
  -4   2  -2  130.27    3.31
  -3   2  -2  112.58    2.92
  -2   2  -2   13.90    0.52
  -1   2  -2    2.62    0.34
   0   2  -2    2.82    0.40
   1   2  -2    2.14    0.38
   2   2  -2   13.69    1.19
   3   2  -2  111.18    4.23
   4   2  -2  132.27    3.39
   5   2  -2   47.20    1.43
   6   2  -2   32.20    1.19
   7   2  -2   46.75    1.54
   8   2  -2    3.15    0.70
   9   2  -2   31.95    1.54
  10   2  -2   22.48    1.64
  11   2  -2   10.15    1.16
  12   2  -2    6.61    0.95
  13   2  -2    1.34    0.53
  14   2  -2    5.42    0.95
  15   2  -2   48.92    2.65
  16   2  -2    0.37    0.55
 -16   3  -2    4.16    1.64
 -15   3  -2   14.27    2.70
 -14   3  -2    3.54    0.96
 -13   3  -2    9.78    1.40
 -12   3  -2    0.99    0.54
 -11   3  -2    9.07    1.23
 -10   3  -2    0.01    0.29
  -9   3  -2  129.48    4.05
  -8   3  -2   33.32    1.78
  -7   3  -2   17.72    1.42
  -6   3  -2  131.38    3.61
  -5   3  -2    8.52    0.90
  -4   3  -2   26.19    0.75
  -3   3  -2   54.04    1.26
  -2   3  -2    0.87    0.21
  -1   3  -2  121.00    2.95
   0   3  -2    0.03    0.15
   1   3  -2  126.63    2.49
   2   3  -2    1.50    0.34
   3   3  -2   53.48    1.48
   4   3  -2   25.29    1.03
   5   3  -2    8.66    0.60
   6   3  -2  127.39    2.50
   7   3  -2   13.69    1.10
   8   3  -2   39.48    1.65
   9   3  -2  127.64    3.51
  10   3  -2   -0.10    0.23
  11   3  -2   10.69    1.18
  12   3  -2    0.47    0.36
  13   3  -2   10.03    1.25
  14   3  -2    1.25    0.57
  15   3  -2   12.15    1.86
  16   3  -2    3.93    1.13
 -16   4  -2    1.62    1.21
 -15   4  -2   18.25    2.11
 -14   4  -2    4.39    0.99
 -13   4  -2   -0.44    0.36
 -12   4  -2  113.42    4.23
 -11   4  -2    5.97    1.03
 -10   4  -2    5.55    1.01
  -9   4  -2    2.61    0.66
  -8   4  -2    0.06    0.27
  -7   4  -2    3.48    0.67
  -6   4  -2   55.23    2.17
  -5   4  -2    5.32    0.73
  -4   4  -2   55.61    1.43
  -3   4  -2    1.97    0.29
  -2   4  -2  144.63    3.37
  -1   4  -2    1.16    0.18
   0   4  -2   91.51    1.90
   1   4  -2    1.19    0.24
   2   4  -2  145.42    3.52
   3   4  -2    2.53    0.36
   4   4  -2   55.84    1.61
   5   4  -2    6.31    0.63
   6   4  -2   57.69    1.84
   7   4  -2    5.05    0.64
   8   4  -2    0.15    0.25
   9   4  -2    2.31    0.50
  10   4  -2    7.20    0.91
  11   4  -2    5.40    0.82
  12   4  -2  118.10    4.59
  13   4  -2    0.13    0.44
  14   4  -2    3.07    0.98
  15   4  -2   16.83    2.17
  16   4  -2    0.54    0.70
 -16   5  -2    2.13    1.80
 -15   5  -2    2.72    0.95
 -14   5  -2    9.67    1.56
 -13   5  -2    0.95    0.61
 -12   5  -2    4.17    0.94
 -11   5  -2    3.32    0.80
 -10   5  -2   20.65    1.88
  -9   5  -2   36.81    2.04
  -8   5  -2   -0.01    0.24
  -7   5  -2   10.73    1.17
  -6   5  -2  102.33    3.28
  -5   5  -2   18.37    1.25
  -4   5  -2   12.12    0.72
  -3   5  -2   -0.01    0.13
  -2   5  -2   78.85    2.28
  -1   5  -2   42.34    1.56
   0   5  -2   -0.01    0.11
   1   5  -2   45.90    1.26
   2   5  -2   77.43    2.32
   3   5  -2    0.34    0.18
   4   5  -2   12.38    0.77
   5   5  -2   18.74    1.02
   6   5  -2  105.94    2.68
   7   5  -2   11.17    0.97
   8   5  -2   -0.03    0.28
   9   5  -2   37.60    2.17
  10   5  -2   17.79    1.82
  11   5  -2    3.59    0.87
  12   5  -2    4.44    1.00
  13   5  -2    0.00    0.50
  14   5  -2    7.28    1.43
  15   5  -2    2.84    0.99
  16   5  -2    3.11    2.30
 -16   6  -2   12.98    2.74
 -15   6  -2   23.30    2.46
 -14   6  -2    0.20    0.55
 -13   6  -2    5.97    1.21
 -12   6  -2    2.43    0.80
 -11   6  -2    1.58    0.61
 -10   6  -2   17.65    1.79
  -9   6  -2   26.68    2.07
  -8   6  -2   61.42    2.61
  -7   6  -2   40.94    1.99
  -6   6  -2    5.39    0.86
  -5   6  -2   50.50    2.11
  -4   6  -2    2.86    0.43
  -3   6  -2  191.11    3.76
  -2   6  -2   63.92    1.74
  -1   6  -2    1.74    0.41
   0   6  -2   85.72    2.64
   1   6  -2    2.19    0.32
   2   6  -2   60.79    2.00
   3   6  -2  195.60    4.70
   4   6  -2    2.10    0.47
   5   6  -2   50.37    2.15
   6   6  -2    4.88    0.81
   7   6  -2   37.96    2.02
   8   6  -2   60.79    2.73
   9   6  -2   26.44    2.19
  10   6  -2   19.56    1.97
  11   6  -2    1.75    0.60
  12   6  -2    1.41    0.69
  13   6  -2    4.07    1.07
  14   6  -2    0.18    0.61
  15   6  -2   20.05    2.40
 -15   7  -2   -0.34    0.64
 -14   7  -2   -0.13    0.51
 -13   7  -2   25.43    2.43
 -12   7  -2    0.63    0.49
 -11   7  -2   12.81    1.64
 -10   7  -2    0.81    0.52
  -9   7  -2   51.90    2.53
  -8   7  -2   20.18    1.81
  -7   7  -2   36.20    1.92
  -6   7  -2   11.18    1.22
  -5   7  -2   21.02    1.67
  -4   7  -2    5.25    0.62
  -3   7  -2   94.88    2.38
  -2   7  -2   12.88    0.92
  -1   7  -2   21.76    1.34
   0   7  -2    0.08    0.21
   1   7  -2   22.16    1.38
   2   7  -2   13.43    0.91
   3   7  -2   94.77    2.88
   4   7  -2    5.14    0.75
   5   7  -2   16.20    1.47
   6   7  -2   12.21    1.34
   7   7  -2   36.31    2.02
   8   7  -2   19.26    1.85
   9   7  -2   50.48    2.67
  10   7  -2    0.81    0.53
  11   7  -2   11.92    1.65
  12   7  -2    0.43    0.54
  13   7  -2   27.87    2.66
  14   7  -2    0.37    0.58
  15   7  -2    0.57    0.67
 -15   8  -2    1.30    0.84
 -14   8  -2    2.69    0.93
 -13   8  -2    2.81    0.89
 -12   8  -2   11.05    1.59
 -11   8  -2   12.79    1.70
 -10   8  -2   32.40    2.51
  -9   8  -2    6.94    1.12
  -8   8  -2   32.40    2.11
  -7   8  -2   15.99    1.58
  -6   8  -2   10.55    1.23
  -5   8  -2   14.51    1.39
  -4   8  -2    9.41    0.85
  -3   8  -2   31.57    1.31
  -2   8  -2    0.09    0.21
  -1   8  -2   45.64    1.93
   0   8  -2  138.16    3.83
   1   8  -2   45.32    1.96
   2   8  -2    0.20    0.32
   3   8  -2   34.11    1.55
   4   8  -2   12.04    1.17
   5   8  -2   17.34    1.51
   6   8  -2   10.71    1.26
   7   8  -2   17.00    1.70
   8   8  -2   35.29    2.14
   9   8  -2    5.48    1.04
  10   8  -2   33.60    2.71
  11   8  -2   14.22    1.80
  12   8  -2    4.27    1.03
  13   8  -2    2.60    0.85
  14   8  -2    3.13    0.98
  15   8  -2    3.36    1.73
 -14   9  -2   16.16    2.08
 -13   9  -2    0.69    0.62
 -12   9  -2    2.96    0.88
 -11   9  -2   13.84    1.63
 -10   9  -2   18.03    1.89
  -9   9  -2    0.15    0.39
  -8   9  -2    2.71    0.76
  -7   9  -2   40.11    2.20
  -6   9  -2   86.35    3.26
  -5   9  -2   17.88    1.61
  -4   9  -2    1.00    0.34
  -3   9  -2   39.33    1.55
  -2   9  -2   22.38    1.25
  -1   9  -2    1.26    0.42
   0   9  -2   -0.05    0.25
   1   9  -2    1.46    0.46
   2   9  -2   23.91    2.15
   3   9  -2   39.59    2.88
   4   9  -2    2.23    0.94
   5   9  -2   20.69    1.47
   6   9  -2   85.56    3.24
   7   9  -2   42.34    2.29
   8   9  -2    0.91    0.49
   9   9  -2    0.95    0.51
  10   9  -2   18.04    1.95
  11   9  -2   14.35    1.83
  12   9  -2    2.74    0.95
  13   9  -2    0.09    0.61
  14   9  -2   17.28    2.16
 -14  10  -2   16.68    2.48
 -13  10  -2   16.64    2.15
 -12  10  -2   47.00    3.04
 -11  10  -2    1.36    0.72
 -10  10  -2    0.41    0.50
  -9  10  -2    3.59    0.72
  -8  10  -2    3.47    0.86
  -7  10  -2    5.28    0.97
  -6  10  -2   12.21    1.46
  -5  10  -2    4.27    0.80
  -4  10  -2   59.81    2.06
  -3  10  -2   46.27    1.79
  -2  10  -2   14.22    1.17
  -1  10  -2   26.58    1.74
   0  10  -2    0.30    0.30
   1  10  -2   23.36    1.85
   2  10  -2   13.75    1.40
   3  10  -2   37.80    3.07
   4  10  -2   55.40    3.78
   5  10  -2    5.28    1.48
   6  10  -2   14.82    2.46
   7  10  -2    4.75    0.96
   8  10  -2    4.90    1.00
   9  10  -2    6.00    1.19
  10  10  -2    0.45    0.50
  11  10  -2    1.66    0.75
  12  10  -2   42.47    3.37
  13  10  -2   13.98    1.99
  14  10  -2   16.31    3.03
 -13  11  -2    0.01    0.68
 -12  11  -2   -0.70    0.52
 -11  11  -2    0.59    0.59
 -10  11  -2   19.61    2.09
  -9  11  -2   40.41    2.58
  -8  11  -2    0.65    0.49
  -7  11  -2    3.26    0.81
  -6  11  -2    0.87    0.49
  -5  11  -2    1.50    0.59
  -4  11  -2    7.88    0.91
  -3  11  -2   12.28    1.13
  -2  11  -2   20.46    1.45
  -1  11  -2   62.82    2.19
   0  11  -2    0.09    0.31
   1  11  -2   63.00    2.70
   2  11  -2   19.76    1.73
   3  11  -2   12.30    2.07
   4  11  -2   10.77    2.05
   5  11  -2    0.15    0.61
   6  11  -2    0.17    0.61
   7  11  -2    4.24    1.43
   8  11  -2    1.15    0.88
   9  11  -2   41.68    3.71
  10  11  -2   17.09    2.00
  11  11  -2    0.74    0.62
  12  11  -2    0.19    0.65
  13  11  -2    1.50    1.26
 -12  12  -2   29.45    2.86
 -11  12  -2   19.83    2.21
 -10  12  -2    0.02    0.49
  -9  12  -2    0.34    0.45
  -8  12  -2    4.00    0.93
  -7  12  -2   23.66    2.18
  -6  12  -2   12.31    1.54
  -5  12  -2    2.51    0.74
  -4  12  -2    5.79    0.99
  -3  12  -2   11.94    1.16
  -2  12  -2   47.43    1.96
  -1  12  -2   44.23    1.88
   0  12  -2   18.98    1.80
   1  12  -2   41.88    2.23
   2  12  -2   44.65    2.36
   3  12  -2   15.09    1.55
   4  12  -2    3.60    1.32
   5  12  -2    0.02    0.52
   7  12  -2   23.61    3.43
   8  12  -2    3.27    1.34
   9  12  -2    0.59    0.85
  10  12  -2    0.51    1.00
  11  12  -2   17.17    3.29
  12  12  -2   14.75    3.07
 -11  13  -2    0.02    0.65
 -10  13  -2    1.17    0.75
  -9  13  -2    1.99    0.73
  -8  13  -2    1.12    0.63
  -7  13  -2    7.76    1.27
  -6  13  -2   27.85    2.39
  -5  13  -2   76.15    3.38
  -4  13  -2   13.82    1.59
  -3  13  -2    1.22    0.44
  -2  13  -2    0.92    0.38
  -1  13  -2    1.67    0.50
   0  13  -2   -0.01    0.29
   1  13  -2    2.50    0.71
   2  13  -2    1.21    0.57
   3  13  -2    0.80    0.49
   4  13  -2   14.95    2.55
   5  13  -2   72.09    5.08
   6  13  -2   33.02    4.17
   7  13  -2    8.36    2.06
   8  13  -2    0.63    0.79
   9  13  -2    0.91    1.00
  10  13  -2    0.24    0.97
  11  13  -2    0.36    1.06
 -10  14  -2    5.32    1.82
  -9  14  -2    1.76    1.14
  -8  14  -2   48.23    3.01
  -7  14  -2   -0.35    0.43
  -6  14  -2    2.14    0.73
  -5  14  -2    1.33    0.58
  -4  14  -2    8.52    1.33
  -3  14  -2    0.05    0.34
  -2  14  -2    3.78    0.77
  -1  14  -2   16.21    1.49
   0  14  -2   70.24    2.64
   1  14  -2   11.70    1.51
   2  14  -2    3.67    0.91
   3  14  -2    0.10    0.42
   4  14  -2   10.05    1.51
   5  14  -2    2.71    1.27
   6  14  -2    2.35    1.24
   7  14  -2    0.31    0.79
   8  14  -2   47.47    5.31
   9  14  -2    2.79    1.60
  10  14  -2    3.34    1.65
  -8  15  -2   13.65    2.88
  -7  15  -2    0.22    0.81
  -6  15  -2    0.00    0.51
  -5  15  -2    1.99    0.77
  -4  15  -2    4.75    1.06
  -3  15  -2    8.34    1.31
  -2  15  -2   17.83    1.62
  -1  15  -2    0.00    0.38
   0  15  -2    0.03    0.37
   1  15  -2   -0.03    0.37
   2  15  -2   15.47    1.87
   3  15  -2    8.78    1.40
   4  15  -2    5.42    1.17
   5  15  -2    2.31    0.81
   6  15  -2   -0.70    0.63
   7  15  -2    0.79    1.05
   8  15  -2   20.48    3.62
  -7  16  -2    5.52    2.14
  -6  16  -2    0.06    0.83
  -5  16  -2    2.48    1.37
  -4  16  -2   32.50    4.31
  -3  16  -2    1.64    0.76
  -2  16  -2    1.03    0.56
  -1  16  -2    9.57    1.24
   0  16  -2   21.69    1.86
   1  16  -2    7.90    1.16
   2  16  -2    1.41    0.59
   3  16  -2    3.08    0.92
   4  16  -2   34.32    2.88
   5  16  -2    1.89    0.81
   6  16  -2   -0.32    0.55
   7  16  -2    5.91    2.16
  -4  17  -2    2.44    1.25
  -3  17  -2    0.94    1.13
  -2  17  -2    5.27    1.84
  -1  17  -2   11.16    1.84
   0  17  -2    0.04    0.51
   1  17  -2   10.23    1.35
   2  17  -2    2.78    0.82
   3  17  -2    0.30    0.54
   4  17  -2    2.88    0.97
   5  17  -2   12.43    1.84
   6  17  -2   12.86    2.85
   0  18  -2    0.85    1.09
   1  18  -2    7.78    2.45
   2  18  -2    0.39    1.24
  -4 -18  -1    4.36    1.88
  -3 -18  -1    5.98    2.13
  -2 -18  -1    5.42    2.05
  -1 -18  -1    1.84    1.42
   0 -18  -1    6.54    2.22
   1 -18  -1   -0.04    1.10
   2 -18  -1    3.66    1.67
   3 -18  -1    5.86    1.42
   4 -18  -1    4.45    1.38
   5 -18  -1    3.17    1.96
  -7 -17  -1    3.32    1.79
  -6 -17  -1    1.24    1.24
  -5 -17  -1    1.10    1.28
  -4 -17  -1    3.18    1.60
  -3 -17  -1    3.84    1.65
  -2 -17  -1    4.99    1.90
  -1 -17  -1   35.98    4.90
   0 -17  -1   -0.44    0.77
   1 -17  -1   39.45    5.03
   2 -17  -1    4.22    1.26
   3 -17  -1    4.47    1.25
   4 -17  -1    6.63    1.41
   5 -17  -1    0.23    0.73
   6 -17  -1    0.51    0.80
   7 -17  -1    2.59    1.18
  -8 -16  -1   -0.23    1.15
  -7 -16  -1   14.93    3.08
  -6 -16  -1    7.70    2.26
  -5 -16  -1    1.71    1.35
  -4 -16  -1    0.54    0.95
  -3 -16  -1   14.89    3.12
  -2 -16  -1   17.66    3.21
  -1 -16  -1    5.12    1.95
   0 -16  -1   48.82    5.63
   1 -16  -1    3.84    1.21
   2 -16  -1   20.63    2.47
   3 -16  -1   20.93    2.45
   4 -16  -1    0.59    0.72
   5 -16  -1    2.28    0.95
   6 -16  -1    1.50    0.87
   7 -16  -1   11.70    1.88
   8 -16  -1   -0.36    1.29
  -8 -15  -1    1.54    1.13
  -7 -15  -1    0.01    1.07
  -6 -15  -1   47.47    5.24
  -5 -15  -1   39.43    4.77
  -4 -15  -1   17.42    3.13
  -3 -15  -1    9.21    2.24
  -2 -15  -1    2.63    1.39
  -1 -15  -1    0.20    0.78
   0 -15  -1    0.11    0.60
   1 -15  -1   -0.03    0.52
   2 -15  -1    3.60    1.02
   3 -15  -1   12.69    1.92
   4 -15  -1   15.78    2.12
   5 -15  -1   28.97    2.92
   6 -15  -1   40.57    3.44
   7 -15  -1    0.08    0.58
   8 -15  -1   -0.23    0.95
   9 -15  -1    0.87    1.30
  10 -15  -1   -0.17    1.58
  -8 -14  -1   37.41    4.52
  -7 -14  -1    0.22    0.93
  -6 -14  -1    0.11    0.80
  -5 -14  -1    2.36    1.35
  -4 -14  -1   22.21    3.56
  -3 -14  -1    3.43    1.42
  -2 -14  -1    1.27    1.07
  -1 -14  -1    9.08    1.53
   0 -14  -1   72.50    3.64
   1 -14  -1   10.26    1.64
   2 -14  -1    2.94    0.99
   3 -14  -1    0.80    0.65
   4 -14  -1   27.44    2.67
   5 -14  -1    1.17    0.65
   6 -14  -1    0.46    0.59
   7 -14  -1    0.36    0.57
   8 -14  -1   33.92    3.73
   9 -14  -1   11.04    2.84
  10 -14  -1    3.51    1.78
  11 -14  -1   -0.32    1.11
  -8 -13  -1   18.35    3.03
  -7 -13  -1   12.15    2.51
  -6 -13  -1   -0.01    0.77
  -5 -13  -1    0.64    0.83
  -4 -13  -1    2.92    1.14
  -3 -13  -1   77.57    5.31
  -2 -13  -1   28.85    2.59
  -1 -13  -1    0.29    0.57
   0 -13  -1    0.14    0.46
   1 -13  -1   -0.36    0.49
   2 -13  -1   18.41    2.15
   3 -13  -1   75.98    3.67
   4 -13  -1    2.40    0.84
   5 -13  -1    0.67    0.63
   6 -13  -1    0.64    0.48
   7 -13  -1   10.97    1.36
   8 -13  -1   17.91    1.72
   9 -13  -1   12.97    1.83
  10 -13  -1   29.98    3.06
  11 -13  -1   30.71    3.01
  12 -13  -1    1.25    1.03
 -13 -12  -1   -0.18    0.88
 -12 -12  -1   -0.62    0.84
 -11 -12  -1   10.52    2.13
 -10 -12  -1   19.46    2.69
  -9 -12  -1   11.99    2.07
  -8 -12  -1    2.46    1.40
  -7 -12  -1   25.71    3.45
  -6 -12  -1   -0.12    0.80
  -5 -12  -1   27.46    3.63
  -4 -12  -1   43.53    4.75
  -3 -12  -1   20.55    3.10
  -2 -12  -1    4.58    0.98
  -1 -12  -1    0.56    0.49
   0 -12  -1   27.08    2.44
   1 -12  -1    0.92    0.61
   2 -12  -1    3.75    0.71
   3 -12  -1   25.62    1.82
   4 -12  -1   40.51    2.15
   5 -12  -1   20.70    1.72
   6 -12  -1    0.05    0.36
   7 -12  -1   20.05    1.71
   8 -12  -1    1.68    0.56
   9 -12  -1    8.88    1.58
  10 -12  -1   16.27    2.09
  11 -12  -1    7.14    1.53
  12 -12  -1   -0.29    0.63
  13 -12  -1    0.71    0.80
 -14 -11  -1    0.23    0.97
 -13 -11  -1    3.54    1.43
 -12 -11  -1    0.83    0.82
 -11 -11  -1    0.92    0.75
 -10 -11  -1    1.29    0.87
  -9 -11  -1   27.52    2.99
  -8 -11  -1    1.59    0.60
  -7 -11  -1   89.58    3.33
  -6 -11  -1   35.72    2.09
  -5 -11  -1    9.05    1.15
  -4 -11  -1   12.04    2.29
  -3 -11  -1    0.15    0.39
  -2 -11  -1   15.37    1.58
  -1 -11  -1   52.11    2.61
   0 -11  -1    0.26    0.29
   1 -11  -1   52.13    2.00
   2 -11  -1   16.16    1.33
   3 -11  -1    0.04    0.30
   4 -11  -1   10.86    1.16
   5 -11  -1    7.93    1.02
   6 -11  -1   37.01    2.10
   7 -11  -1   82.66    2.96
   8 -11  -1    0.93    0.49
   9 -11  -1   27.35    2.61
  10 -11  -1    0.54    0.48
  11 -11  -1   -0.05    0.59
  12 -11  -1    0.25    0.67
  13 -11  -1    2.34    0.98
  14 -11  -1    0.22    0.75
 -14 -10  -1    7.68    1.96
 -13 -10  -1   12.79    2.40
 -12 -10  -1   10.08    2.06
 -11 -10  -1   43.42    3.39
 -10 -10  -1    2.01    0.92
  -9 -10  -1    3.15    1.00
  -8 -10  -1    3.80    0.81
  -7 -10  -1    1.14    0.50
  -6 -10  -1   25.92    1.71
  -5 -10  -1    3.64    0.73
  -4 -10  -1   77.47    2.22
  -3 -10  -1   16.84    1.00
  -2 -10  -1    0.14    0.33
  -1 -10  -1   63.78    2.79
   0 -10  -1   25.48    2.08
   1 -10  -1   63.21    2.11
   2 -10  -1    0.33    0.28
   3 -10  -1   16.53    1.35
   4 -10  -1   75.74    2.59
   5 -10  -1    4.57    0.75
   6 -10  -1   28.41    1.94
   7 -10  -1    1.09    0.47
   8 -10  -1    4.78    0.85
   9 -10  -1    2.98    0.97
  10 -10  -1    2.58    0.68
  11 -10  -1   39.92    2.36
  12 -10  -1   13.01    1.53
  13 -10  -1   13.56    1.93
  14 -10  -1    9.73    1.82
  15 -10  -1   -0.34    1.18
 -15  -9  -1    8.01    2.02
 -14  -9  -1   10.18    2.28
 -13  -9  -1    0.63    0.85
 -12  -9  -1    0.02    0.58
 -11  -9  -1    0.52    0.71
 -10  -9  -1   29.21    3.19
  -9  -9  -1   81.23    3.37
  -8  -9  -1   26.03    1.98
  -7  -9  -1    4.98    0.87
  -6  -9  -1   19.76    1.58
  -5  -9  -1   70.55    2.61
  -4  -9  -1   -0.04    0.20
  -3  -9  -1   -0.08    0.18
  -2  -9  -1  132.68    2.98
  -1  -9  -1   47.78    1.46
   0  -9  -1    0.24    0.30
   1  -9  -1   47.03    2.30
   2  -9  -1  135.35    3.35
   3  -9  -1   -0.09    0.23
   4  -9  -1   -0.12    0.24
   5  -9  -1   77.29    2.55
   6  -9  -1   22.34    1.62
   7  -9  -1    6.71    0.89
   8  -9  -1   24.44    1.72
   9  -9  -1   83.74    3.75
  10  -9  -1   27.07    1.97
  11  -9  -1    0.71    0.47
  12  -9  -1    0.49    0.51
  13  -9  -1    0.71    0.56
  14  -9  -1    8.38    1.61
  15  -9  -1    7.59    1.60
 -15  -8  -1    9.30    2.25
 -14  -8  -1    2.23    1.12
 -13  -8  -1    2.27    1.11
 -12  -8  -1    6.94    1.71
 -11  -8  -1   11.62    2.07
 -10  -8  -1    3.74    1.15
  -9  -8  -1   21.23    1.76
  -8  -8  -1   33.91    1.50
  -7  -8  -1   23.47    1.25
  -6  -8  -1    0.10    0.26
  -5  -8  -1   29.74    1.18
  -4  -8  -1   27.09    1.10
  -3  -8  -1   37.33    1.29
  -2  -8  -1   79.04    2.00
  -1  -8  -1   26.34    1.03
   0  -8  -1   18.82    0.84
   1  -8  -1   25.03    1.67
   2  -8  -1   76.21    2.25
   3  -8  -1   35.70    1.51
   4  -8  -1   27.91    1.38
   5  -8  -1   27.31    1.45
   6  -8  -1   -0.03    0.25
   7  -8  -1   21.11    1.55
   8  -8  -1   33.52    1.77
   9  -8  -1   19.78    2.07
  10  -8  -1    1.62    0.52
  11  -8  -1   12.26    1.33
  12  -8  -1    4.64    0.89
  13  -8  -1    1.69    0.60
  14  -8  -1    3.41    0.85
  15  -8  -1    8.64    1.30
 -16  -7  -1    2.58    1.32
 -15  -7  -1   11.18    2.33
 -14  -7  -1    0.21    0.75
 -13  -7  -1   67.80    4.61
 -12  -7  -1    0.20    0.61
 -11  -7  -1    4.98    1.39
 -10  -7  -1    2.05    0.87
  -9  -7  -1    2.10    0.46
  -8  -7  -1   19.72    1.23
  -7  -7  -1   17.26    1.12
  -6  -7  -1   23.83    0.88
  -5  -7  -1  247.79    4.54
  -4  -7  -1    6.81    0.63
  -3  -7  -1   20.47    0.91
  -2  -7  -1   12.74    0.72
  -1  -7  -1    7.61    0.58
   0  -7  -1   -0.09    0.10
   1  -7  -1    6.90    0.88
   2  -7  -1   12.28    0.94
   3  -7  -1   20.85    1.19
   4  -7  -1    5.42    0.68
   5  -7  -1  236.24    5.00
   6  -7  -1   22.67    1.52
   7  -7  -1   16.63    1.29
   8  -7  -1   18.09    1.39
   9  -7  -1    1.41    0.49
  10  -7  -1    1.36    0.49
  11  -7  -1    5.22    0.89
  12  -7  -1    0.13    0.39
  13  -7  -1   74.30    2.98
  14  -7  -1    0.50    0.54
  15  -7  -1    4.81    1.24
  16  -7  -1    5.31    1.84
 -16  -6  -1    6.20    1.76
 -15  -6  -1   -0.31    0.81
 -14  -6  -1    0.83    0.81
 -13  -6  -1   49.79    3.86
 -12  -6  -1    9.28    1.98
 -11  -6  -1   71.53    3.36
 -10  -6  -1   22.21    1.78
  -9  -6  -1    1.50    0.38
  -8  -6  -1   42.92    1.52
  -7  -6  -1   17.07    0.99
  -6  -6  -1    4.37    0.42
  -5  -6  -1   11.78    0.63
  -4  -6  -1    0.05    0.14
  -3  -6  -1    6.13    0.54
  -2  -6  -1    1.39    0.27
  -1  -6  -1  244.67    4.25
   0  -6  -1  120.08    2.37
   1  -6  -1  236.47    5.64
   2  -6  -1    0.90    0.35
   3  -6  -1    6.92    0.67
   4  -6  -1    0.52    0.23
   5  -6  -1   12.68    1.02
   6  -6  -1    4.80    0.67
   7  -6  -1   16.22    1.25
   8  -6  -1   39.38    2.28
   9  -6  -1    1.13    0.44
  10  -6  -1   19.94    1.61
  11  -6  -1   75.03    2.73
  12  -6  -1   11.38    1.33
  13  -6  -1   50.69    2.46
  14  -6  -1   -0.07    0.44
  15  -6  -1   -0.07    0.62
  16  -6  -1    4.63    1.33
 -16  -5  -1    2.07    1.40
 -15  -5  -1    0.92    0.93
 -14  -5  -1   15.80    2.56
 -13  -5  -1   -0.65    0.35
 -12  -5  -1    1.87    0.63
 -11  -5  -1   15.96    1.56
 -10  -5  -1   62.68    2.53
  -9  -5  -1    6.67    0.71
  -8  -5  -1   12.69    0.94
  -7  -5  -1   98.09    2.32
  -6  -5  -1   35.69    1.21
  -5  -5  -1    2.17    0.33
  -4  -5  -1    3.76    0.40
  -3  -5  -1  107.54    2.25
  -2  -5  -1  158.28    2.92
  -1  -5  -1    7.20    0.44
   0  -5  -1    0.02    0.08
   1  -5  -1    8.89    0.84
   2  -5  -1  155.31    3.92
   3  -5  -1  103.55    2.47
   4  -5  -1    3.04    0.46
   5  -5  -1    1.59    0.36
   6  -5  -1   37.59    1.46
   7  -5  -1   91.80    2.56
   8  -5  -1   12.23    1.13
   9  -5  -1    5.57    0.80
  10  -5  -1   60.47    2.34
  11  -5  -1   17.29    1.51
  12  -5  -1    2.07    0.63
  13  -5  -1   -0.31    0.31
  14  -5  -1   15.45    1.94
  15  -5  -1    0.55    0.69
  16  -5  -1    0.73    0.75
  17  -5  -1   15.74    2.94
 -16  -4  -1   14.37    2.73
 -15  -4  -1    0.97    0.97
 -14  -4  -1   58.26    4.35
 -13  -4  -1    0.17    0.37
 -12  -4  -1    3.89    0.81
 -11  -4  -1    9.33    1.17
 -10  -4  -1    7.84    0.98
  -9  -4  -1    5.55    0.65
  -8  -4  -1   27.07    1.10
  -7  -4  -1   19.08    0.91
  -6  -4  -1   24.89    0.96
  -5  -4  -1    1.19    0.23
  -4  -4  -1  273.67    4.50
  -3  -4  -1   14.22    0.56
  -2  -4  -1   36.05    0.99
  -1  -4  -1   29.14    0.82
   0  -4  -1   24.70    0.82
   1  -4  -1   24.46    1.61
   2  -4  -1   32.32    1.93
   3  -4  -1   14.88    0.77
   4  -4  -1  258.20    4.79
   5  -4  -1    0.90    0.27
   6  -4  -1   27.48    1.15
   7  -4  -1   16.87    0.98
   8  -4  -1   25.51    1.46
   9  -4  -1    6.43    0.83
  10  -4  -1    8.15    0.96
  11  -4  -1    9.53    1.13
  12  -4  -1    1.09    0.47
  13  -4  -1    0.14    0.40
  14  -4  -1   56.57    3.19
  15  -4  -1   -0.21    0.51
  16  -4  -1   13.45    1.90
  17  -4  -1   -0.48    0.91
 -17  -3  -1   27.33    4.20
 -16  -3  -1    1.92    1.10
 -15  -3  -1    5.81    1.82
 -14  -3  -1    5.54    1.04
 -13  -3  -1    0.24    0.38
 -12  -3  -1    1.30    0.49
 -11  -3  -1   12.91    1.33
 -10  -3  -1   35.56    1.84
  -9  -3  -1   39.25    1.49
  -8  -3  -1   50.72    1.53
  -7  -3  -1  201.11    3.81
  -6  -3  -1    5.70    0.52
  -5  -3  -1   97.04    2.03
  -4  -3  -1   42.20    1.10
  -3  -3  -1   14.58    0.53
  -2  -3  -1  167.71    3.59
  -1  -3  -1  275.61    5.44
   0  -3  -1    0.00    0.08
   1  -3  -1  276.50    5.71
   2  -3  -1  156.14    5.37
   3  -3  -1   14.06    0.73
   4  -3  -1   40.05    1.23
   5  -3  -1   95.72    2.21
   6  -3  -1    6.53    0.62
   7  -3  -1  199.92    3.47
   8  -3  -1   44.98    1.79
   9  -3  -1   38.40    1.68
  10  -3  -1   38.22    1.75
  11  -3  -1   12.24    1.21
  12  -3  -1    1.62    0.53
  13  -3  -1   -0.06    0.47
  14  -3  -1    3.86    1.04
  15  -3  -1    5.55    1.20
  16  -3  -1    2.41    1.00
  17  -3  -1   32.78    3.13
 -17  -2  -1   -0.03    0.95
 -16  -2  -1    0.62    1.01
 -15  -2  -1    3.17    0.86
 -14  -2  -1    1.12    0.62
 -13  -2  -1   13.85    1.61
 -12  -2  -1   33.20    2.13
 -11  -2  -1   85.10    3.15
 -10  -2  -1    8.74    1.09
  -9  -2  -1    1.35    0.43
  -8  -2  -1   -0.06    0.14
  -7  -2  -1   53.27    1.50
  -6  -2  -1    1.97    0.31
  -5  -2  -1    1.55    0.27
  -4  -2  -1   41.92    1.08
  -3  -2  -1   18.92    0.61
  -2  -2  -1   70.54    1.32
  -1  -2  -1  259.04    5.04
   0  -2  -1    2.89    0.27
   1  -2  -1  256.16    4.09
   2  -2  -1   69.19    1.85
   3  -2  -1   18.48    0.83
   4  -2  -1   40.13    1.33
   5  -2  -1    1.16    0.25
   6  -2  -1    1.22    0.23
   7  -2  -1   54.49    1.32
   8  -2  -1    0.16    0.23
   9  -2  -1    1.12    0.40
  10  -2  -1    7.95    0.88
  11  -2  -1   86.64    2.78
  12  -2  -1   29.30    2.42
  13  -2  -1   14.42    1.74
  14  -2  -1    0.15    0.45
  15  -2  -1    2.02    0.82
  16  -2  -1    0.75    0.68
  17  -2  -1    0.64    0.59
 -17  -1  -1    0.34    1.08
 -16  -1  -1    2.40    0.88
 -15  -1  -1    3.27    0.92
 -14  -1  -1   20.65    2.04
 -13  -1  -1   35.17    2.28
 -12  -1  -1    4.74    0.91
 -11  -1  -1   14.68    1.47
 -10  -1  -1   75.14    2.82
  -9  -1  -1    5.50    0.65
  -8  -1  -1   50.73    1.47
  -7  -1  -1    0.25    0.16
  -6  -1  -1    0.37    0.16
  -5  -1  -1  259.33    4.39
  -4  -1  -1   38.89    1.03
  -3  -1  -1   94.73    1.77
  -2  -1  -1   65.81    1.26
  -1  -1  -1    2.99    0.33
   0  -1  -1    0.05    0.11
   1  -1  -1    3.35    0.51
   2  -1  -1   64.95    1.67
   3  -1  -1   91.49    1.82
   4  -1  -1   39.51    1.19
   5  -1  -1  252.72    3.85
   6  -1  -1    0.15    0.12
   7  -1  -1    0.66    0.26
   8  -1  -1   46.62    1.72
   9  -1  -1    6.46    0.77
  10  -1  -1   73.48    2.41
  11  -1  -1   15.10    1.68
  12  -1  -1    4.01    0.95
  13  -1  -1   27.73    2.45
  14  -1  -1   20.91    2.22
  15  -1  -1    6.06    1.03
  16  -1  -1    5.46    1.08
  17  -1  -1    0.87    0.64
 -17   0  -1    0.05    0.68
 -16   0  -1   66.48    4.77
 -15   0  -1    0.26    0.54
 -14   0  -1   29.44    2.46
 -13   0  -1    0.01    0.36
 -12   0  -1    0.33    0.36
 -11   0  -1    0.35    0.28
 -10   0  -1    5.88    0.71
  -9   0  -1    0.03    0.14
  -8   0  -1  258.43    4.02
  -7   0  -1   -0.03    0.11
  -6   0  -1   43.18    1.06
  -5   0  -1    0.06    0.11
  -4   0  -1  235.52    3.83
  -3   0  -1   -0.03    0.12
  -2   0  -1  237.52    4.55
  -1   0  -1    0.00    0.15
   0   0  -1    9.75    0.61
   2   0  -1  237.71    6.58
   3   0  -1    0.00    0.10
   4   0  -1  227.38    3.36
   5   0  -1    0.08    0.10
   6   0  -1   43.84    0.98
   7   0  -1    0.22    0.21
   8   0  -1  242.83    4.97
   9   0  -1    0.16    0.24
  10   0  -1    5.53    0.71
  11   0  -1    0.08    0.35
  12   0  -1    0.02    0.38
  13   0  -1    0.25    0.39
  14   0  -1   23.68    1.88
  15   0  -1    0.20    0.39
  16   0  -1   65.31    3.62
  17   0  -1    0.28    0.54
 -17   1  -1    1.22    0.75
 -16   1  -1    2.90    0.99
 -15   1  -1    4.77    1.08
 -14   1  -1   22.15    2.18
 -13   1  -1   31.50    2.47
 -12   1  -1    4.17    0.84
 -11   1  -1   14.32    1.30
 -10   1  -1   74.41    2.27
  -9   1  -1    5.73    0.51
  -8   1  -1   48.89    1.56
  -7   1  -1    0.40    0.19
  -6   1  -1    0.62    0.18
  -5   1  -1  264.15    4.41
  -4   1  -1   39.00    0.99
  -3   1  -1   92.21    1.69
  -2   1  -1   65.57    1.64
  -1   1  -1    3.33    0.24
   0   1  -1    0.26    0.13
   3   1  -1   91.79    1.81
   4   1  -1   40.23    1.08
   5   1  -1  254.39    4.51
   6   1  -1    0.39    0.12
   7   1  -1    0.07    0.21
   8   1  -1   52.06    1.68
   9   1  -1    5.21    0.65
  10   1  -1   74.81    3.11
  11   1  -1   17.51    1.82
  12   1  -1    3.75    0.72
  13   1  -1   34.96    2.08
  14   1  -1   17.18    1.64
  15   1  -1    3.94    0.83
  16   1  -1    3.06    0.84
  17   1  -1    0.82    0.67
 -17   2  -1    0.50    0.70
 -16   2  -1    0.56    0.63
 -15   2  -1    1.31    0.65
 -14   2  -1    0.10    0.48
 -13   2  -1   12.84    1.56
 -12   2  -1   28.91    2.28
 -11   2  -1   85.05    3.24
 -10   2  -1    6.41    0.75
  -9   2  -1    1.49    0.38
  -8   2  -1    0.18    0.18
  -7   2  -1   58.52    1.63
  -6   2  -1    1.49    0.29
  -5   2  -1    1.40    0.26
  -4   2  -1   44.23    1.10
  -3   2  -1   19.15    0.71
  -2   2  -1   71.80    1.39
  -1   2  -1  268.86    6.90
   0   2  -1    2.64    0.31
   1   2  -1  264.65    5.08
   2   2  -1   71.05    1.47
   3   2  -1   19.21    0.72
   4   2  -1   41.31    0.97
   5   2  -1    1.04    0.20
   6   2  -1    1.59    0.30
   7   2  -1   54.41    1.42
   8   2  -1    0.01    0.15
   9   2  -1    1.15    0.37
  10   2  -1    5.26    0.74
  11   2  -1   81.41    2.75
  12   2  -1   34.68    2.02
  13   2  -1   13.84    1.40
  14   2  -1    0.17    0.36
  15   2  -1    2.49    0.71
  16   2  -1    0.72    0.59
  17   2  -1   -0.53    0.52
 -17   3  -1   29.69    3.99
 -16   3  -1    2.05    0.76
 -15   3  -1    5.26    1.10
 -14   3  -1    2.23    0.76
 -13   3  -1   -0.24    0.34
 -12   3  -1    2.45    0.71
 -11   3  -1   13.99    1.48
 -10   3  -1   41.81    1.62
  -9   3  -1   38.37    1.48
  -8   3  -1   49.90    1.63
  -7   3  -1  208.04    3.98
  -6   3  -1    5.88    0.56
  -5   3  -1   95.34    2.09
  -4   3  -1   42.71    1.15
  -3   3  -1   14.26    0.58
  -2   3  -1  167.93    2.93
  -1   3  -1  283.64    5.49
   0   3  -1    0.17    0.09
   1   3  -1  279.06    5.50
   2   3  -1  169.01    2.91
   3   3  -1   14.44    0.64
   4   3  -1   40.97    0.94
   5   3  -1   92.89    2.25
   6   3  -1    6.52    0.47
   7   3  -1  191.82    3.40
   8   3  -1   49.09    1.79
   9   3  -1   37.22    1.60
  10   3  -1   38.61    1.73
  11   3  -1   13.65    1.25
  12   3  -1    2.44    0.61
  13   3  -1   -0.23    0.33
  14   3  -1    2.86    0.67
  15   3  -1    5.89    1.00
  16   3  -1    1.92    0.74
  17   3  -1   29.06    2.64
 -17   4  -1    0.17    0.70
 -16   4  -1   15.32    2.00
 -15   4  -1    0.98    0.66
 -14   4  -1   58.34    3.00
 -13   4  -1    0.16    0.41
 -12   4  -1    1.62    0.61
 -11   4  -1    9.41    1.23
 -10   4  -1    7.61    0.83
  -9   4  -1    4.85    0.66
  -8   4  -1   25.35    1.30
  -7   4  -1   17.37    0.97
  -6   4  -1   27.04    1.05
  -5   4  -1    1.03    0.25
  -4   4  -1  267.51    4.61
  -3   4  -1   13.78    0.65
  -2   4  -1   35.54    1.03
  -1   4  -1   26.94    1.04
   0   4  -1   25.24    0.70
   1   4  -1   28.43    1.01
   2   4  -1   35.95    0.90
   3   4  -1   14.57    0.62
   4   4  -1  253.91    4.64
   5   4  -1    1.31    0.29
   6   4  -1   26.57    1.13
   7   4  -1   17.03    1.16
   8   4  -1   24.41    1.35
   9   4  -1    3.96    0.61
  10   4  -1    5.73    0.78
  11   4  -1   10.11    1.09
  12   4  -1    3.93    0.76
  13   4  -1    0.12    0.34
  14   4  -1   55.39    2.52
  15   4  -1   -0.03    0.43
  16   4  -1   15.29    2.06
  17   4  -1    0.84    1.10
 -17   5  -1   29.14    6.11
 -16   5  -1    1.08    0.84
 -15   5  -1    0.26    0.53
 -14   5  -1   17.71    1.97
 -13   5  -1    0.11    0.39
 -12   5  -1    0.60    0.42
 -11   5  -1   17.88    1.73
 -10   5  -1   65.28    2.20
  -9   5  -1    6.52    0.76
  -8   5  -1   12.14    0.98
  -7   5  -1   92.96    2.39
  -6   5  -1   36.74    1.30
  -5   5  -1    1.62    0.29
  -4   5  -1    2.52    0.37
  -3   5  -1  106.65    2.31
  -2   5  -1  152.05    2.96
  -1   5  -1    7.24    0.35
   0   5  -1    0.18    0.11
   1   5  -1    7.85    0.65
   2   5  -1  153.89    3.63
   3   5  -1  107.49    2.14
   4   5  -1    3.40    0.39
   5   5  -1    1.62    0.32
   6   5  -1   37.88    1.35
   7   5  -1   90.30    2.94
   8   5  -1   10.68    0.98
   9   5  -1    6.06    0.75
  10   5  -1   62.41    2.25
  11   5  -1   17.46    1.45
  12   5  -1    3.22    0.70
  13   5  -1   -0.13    0.40
  14   5  -1   17.51    2.12
  15   5  -1    1.24    0.70
  16   5  -1    2.42    0.93
  17   5  -1   11.33    3.00
 -16   6  -1    5.10    1.22
 -15   6  -1    0.37    0.59
 -14   6  -1    0.12    0.52
 -13   6  -1   52.71    2.82
 -12   6  -1   10.29    1.42
 -11   6  -1   71.30    3.10
 -10   6  -1   18.84    1.76
  -9   6  -1    1.48    0.40
  -8   6  -1   44.65    1.64
  -7   6  -1   16.73    1.14
  -6   6  -1    3.87    0.51
  -5   6  -1   12.74    0.89
  -4   6  -1    0.58    0.23
  -3   6  -1    6.18    0.37
  -2   6  -1    1.87    0.22
  -1   6  -1  247.70    4.11
   0   6  -1  120.54    2.35
   1   6  -1  243.29    5.18
   2   6  -1    1.62    0.37
   3   6  -1    5.32    0.68
   4   6  -1    0.43    0.17
   5   6  -1   12.00    0.72
   6   6  -1    4.18    0.51
   7   6  -1   16.40    1.00
   8   6  -1   44.49    1.66
   9   6  -1    2.12    0.48
  10   6  -1   19.67    1.87
  11   6  -1   68.61    3.22
  12   6  -1    9.78    1.47
  13   6  -1   46.83    3.07
  14   6  -1   -0.07    0.47
  15   6  -1   -0.10    0.56
  16   6  -1    6.77    1.44
 -16   7  -1    1.87    0.96
 -15   7  -1    7.17    1.37
 -14   7  -1    0.35    0.52
 -13   7  -1   76.23    3.48
 -12   7  -1    0.05    0.39
 -11   7  -1    5.31    0.99
 -10   7  -1    0.61    0.42
  -9   7  -1    1.39    0.36
  -8   7  -1   18.01    1.27
  -7   7  -1   16.90    1.16
  -6   7  -1   22.44    1.14
  -5   7  -1  243.49    4.68
  -4   7  -1    6.52    0.48
  -3   7  -1   21.02    0.70
  -2   7  -1   12.76    0.56
  -1   7  -1    6.20    0.47
   0   7  -1   -0.10    0.10
   1   7  -1    8.23    0.72
   2   7  -1   12.62    0.87
   3   7  -1   23.55    1.22
   4   7  -1    6.58    0.85
   5   7  -1  236.17    5.91
   6   7  -1   20.23    1.64
   7   7  -1   16.23    1.54
   8   7  -1   18.05    1.64
   9   7  -1    0.79    0.41
  10   7  -1    0.71    0.47
  11   7  -1    3.54    0.88
  12   7  -1    0.09    0.39
  13   7  -1   77.18    3.72
  14   7  -1    0.04    0.50
  15   7  -1    8.27    1.49
  16   7  -1    2.15    1.26
 -16   8  -1    8.99    2.18
 -15   8  -1    6.44    1.35
 -14   8  -1    1.51    0.78
 -13   8  -1    1.02    0.60
 -12   8  -1    4.47    1.00
 -11   8  -1   10.89    1.39
 -10   8  -1    2.03    0.66
  -9   8  -1   22.24    1.52
  -8   8  -1   37.27    1.57
  -7   8  -1   21.36    1.28
  -6   8  -1    0.06    0.19
  -5   8  -1   28.96    1.25
  -4   8  -1   27.65    1.18
  -3   8  -1   35.35    1.34
  -2   8  -1   77.80    1.63
  -1   8  -1   26.07    0.92
   0   8  -1   19.60    0.82
   1   8  -1   27.28    1.24
   2   8  -1   79.93    2.49
   3   8  -1   36.26    1.62
   4   8  -1   28.36    1.50
   5   8  -1   32.66    1.70
   6   8  -1    0.06    0.24
   7   8  -1   19.91    1.75
   8   8  -1   36.09    2.07
   9   8  -1   20.71    1.96
  10   8  -1    2.27    0.74
  11   8  -1   12.80    1.65
  12   8  -1    5.93    1.22
  13   8  -1    0.77    0.61
  14   8  -1    2.19    0.88
  15   8  -1    7.49    1.47
 -15   9  -1    7.47    2.15
 -14   9  -1    8.32    1.48
 -13   9  -1    0.22    0.48
 -12   9  -1    0.25    0.48
 -11   9  -1    0.48    0.48
 -10   9  -1   25.74    2.22
  -9   9  -1   79.86    2.61
  -8   9  -1   23.33    1.52
  -7   9  -1    6.20    0.77
  -6   9  -1   18.58    1.27
  -5   9  -1   75.15    2.23
  -4   9  -1    0.12    0.21
  -3   9  -1    0.13    0.21
  -2   9  -1  131.70    3.09
  -1   9  -1   41.62    1.51
   0   9  -1    0.22    0.17
   1   9  -1   45.15    1.76
   2   9  -1  135.30    3.67
   3   9  -1   -0.14    0.21
   4   9  -1   -0.15    0.22
   5   9  -1   73.05    2.78
   6   9  -1   18.56    1.65
   7   9  -1    3.87    0.82
   8   9  -1   24.46    2.10
   9   9  -1   78.79    3.42
  10   9  -1   24.66    2.26
  11   9  -1    0.52    0.47
  12   9  -1    0.01    0.53
  13   9  -1    0.95    0.60
  14   9  -1    6.20    1.35
  15   9  -1    6.91    1.47
 -14  10  -1    6.91    2.16
 -13  10  -1   12.53    1.82
 -12  10  -1   13.07    1.73
 -11  10  -1   39.61    2.60
 -10  10  -1    0.43    0.45
  -9  10  -1    4.65    0.96
  -8  10  -1    4.49    0.70
  -7  10  -1    0.41    0.31
  -6  10  -1   25.35    1.46
  -5  10  -1    3.69    0.61
  -4  10  -1   74.55    2.28
  -3  10  -1   15.88    1.14
  -2  10  -1    0.44    0.25
  -1  10  -1   65.28    2.00
   0  10  -1   22.99    1.49
   1  10  -1   60.87    1.82
   2  10  -1    0.79    0.36
   3  10  -1   18.00    1.50
   4  10  -1   76.22    2.83
   5  10  -1    3.21    0.71
   6  10  -1   25.29    1.98
   7  10  -1    0.80    0.44
   8  10  -1    3.47    0.79
   9  10  -1    4.29    0.96
  10  10  -1    1.30    0.67
  11  10  -1   40.60    2.81
  12  10  -1   11.31    1.67
  13  10  -1   10.92    1.76
  14  10  -1    5.30    1.31
 -13  11  -1    2.36    1.25
 -12  11  -1    1.74    0.94
 -11  11  -1    0.08    0.51
 -10  11  -1    0.39    0.48
  -9  11  -1   24.24    2.14
  -8  11  -1    0.96    0.42
  -7  11  -1   83.28    2.68
  -6  11  -1   38.26    1.67
  -5  11  -1    7.74    0.86
  -4  11  -1   12.81    1.10
  -3  11  -1    0.10    0.23
  -2  11  -1   17.20    1.25
  -1  11  -1   51.62    1.87
   0  11  -1   -0.11    0.21
   1  11  -1   52.75    2.28
   2  11  -1   18.34    2.52
   3  11  -1    0.20    0.32
   4  11  -1   12.24    1.31
   5  11  -1    7.51    1.08
   6  11  -1   37.42    2.12
   7  11  -1   79.10    3.35
   8  11  -1    1.34    0.61
   9  11  -1   21.59    2.12
  10  11  -1    0.24    0.45
  11  11  -1    0.20    0.49
  12  11  -1    0.21    0.56
  13  11  -1    2.42    0.95
  14  11  -1   -0.19    0.71
 -13  12  -1   -0.67    0.77
 -12  12  -1    0.00    0.65
 -11  12  -1    8.97    2.34
 -10  12  -1   18.68    3.13
  -9  12  -1    8.40    1.96
  -8  12  -1    2.43    0.62
  -7  12  -1   26.31    1.80
  -6  12  -1   -0.11    0.24
  -5  12  -1   17.29    1.33
  -4  12  -1   34.74    1.62
  -3  12  -1   27.52    1.47
  -2  12  -1    3.43    0.63
  -1  12  -1    0.33    0.29
   0  12  -1   24.15    1.54
   1  12  -1    0.93    0.43
   2  12  -1    1.98    0.87
   3  12  -1   25.58    3.18
   4  12  -1   38.11    3.30
   5  12  -1   17.31    1.72
   6  12  -1   -0.20    0.32
   7  12  -1   19.38    1.90
   8  12  -1    1.00    0.55
   9  12  -1   11.08    1.59
  10  12  -1   17.91    2.07
  11  12  -1    5.81    1.24
  12  12  -1    0.38    0.63
  13  12  -1    0.11    0.65
 -12  13  -1    2.83    1.39
 -11  13  -1   21.67    3.49
 -10  13  -1   22.70    3.59
  -9  13  -1   10.84    2.42
  -8  13  -1   18.14    3.02
  -7  13  -1    8.78    1.40
  -6  13  -1    0.47    0.38
  -5  13  -1    0.45    0.36
  -4  13  -1    1.42    0.47
  -3  13  -1   73.82    2.51
  -2  13  -1   25.16    1.69
  -1  13  -1   -0.15    0.28
   0  13  -1    0.07    0.27
   1  13  -1    0.22    0.35
   2  13  -1   22.20    1.92
   3  13  -1   60.80    4.47
   4  13  -1    4.03    1.38
   5  13  -1   -0.05    0.50
   6  13  -1    0.46    0.65
   7  13  -1    9.25    1.38
   8  13  -1   16.15    1.90
   9  13  -1    8.37    1.46
  10  13  -1   21.50    2.29
  11  13  -1   25.28    2.61
  12  13  -1    1.88    0.89
 -11  14  -1    0.20    1.00
 -10  14  -1    5.74    2.05
  -9  14  -1    8.63    2.18
  -8  14  -1   37.88    4.51
  -7  14  -1    0.32    0.53
  -6  14  -1    0.07    0.43
  -5  14  -1    2.63    0.83
  -4  14  -1   25.22    2.35
  -3  14  -1    2.36    0.59
  -2  14  -1    2.04    0.55
  -1  14  -1   13.73    1.28
   0  14  -1   67.98    2.48
   1  14  -1   10.63    1.12
   2  14  -1    3.07    0.75
   3  14  -1    1.65    0.67
   4  14  -1   22.65    3.35
   5  14  -1    0.64    0.73
   6  14  -1   -0.10    0.69
   7  14  -1    0.39    0.76
   8  14  -1   35.01    4.56
   9  14  -1    6.23    1.98
  10  14  -1    5.86    2.07
  11  14  -1    0.88    0.78
 -10  15  -1    0.23    0.97
  -9  15  -1    0.59    1.01
  -8  15  -1   -0.04    0.73
  -7  15  -1    0.14    0.59
  -6  15  -1   41.58    3.32
  -5  15  -1   37.64    3.05
  -4  15  -1   20.70    2.28
  -3  15  -1   13.17    1.79
  -2  15  -1    3.91    1.02
  -1  15  -1    1.04    0.57
   0  15  -1   -0.15    0.35
   1  15  -1   -0.08    0.36
   2  15  -1    2.59    0.66
   3  15  -1   10.00    1.44
   4  15  -1   16.01    2.89
   5  15  -1   33.42    4.33
   6  15  -1   41.09    4.82
   7  15  -1    0.07    0.69
   8  15  -1   -0.03    0.81
   9  15  -1    0.15    1.11
  10  15  -1    0.01    0.98
  -8  16  -1    0.09    0.76
  -7  16  -1   11.60    2.51
  -6  16  -1    4.98    1.16
  -5  16  -1    3.06    1.02
  -4  16  -1    1.21    0.69
  -3  16  -1   17.57    2.13
  -2  16  -1   21.93    2.45
  -1  16  -1    2.29    0.84
   0  16  -1   46.57    3.18
   1  16  -1    4.74    1.12
   2  16  -1   20.73    2.29
   3  16  -1   27.28    2.64
   4  16  -1    0.45    0.60
   5  16  -1    2.06    1.22
   6  16  -1    4.07    1.66
   7  16  -1   16.11    3.19
   8  16  -1    0.01    0.94
  -7  17  -1    3.66    2.20
  -6  17  -1   -0.74    0.60
  -5  17  -1    0.29    0.63
  -4  17  -1    4.68    1.19
  -3  17  -1    6.34    1.37
  -2  17  -1    3.99    1.12
  -1  17  -1   36.99    3.21
   0  17  -1    0.55    0.62
   1  17  -1   34.35    3.01
   2  17  -1    2.83    0.99
   3  17  -1    3.89    1.14
   4  17  -1    4.80    1.14
   5  17  -1    0.03    0.96
   6  17  -1    1.07    1.12
  -5  18  -1    1.47    1.24
  -4  18  -1    4.71    1.32
  -3  18  -1    5.22    1.38
  -2  18  -1    4.00    1.22
  -1  18  -1    1.00    0.83
   0  18  -1    5.17    1.34
   1  18  -1    0.96    0.80
   2  18  -1    4.52    1.28
   3  18  -1    7.56    1.59
   4  18  -1    5.32    1.48
   5  18  -1   -0.02    1.04
  -6 -18   0    8.72    2.47
  -5 -18   0   -0.01    1.27
  -4 -18   0   39.84    5.16
  -3 -18   0   -0.51    0.97
  -2 -18   0   -0.29    1.00
  -1 -18   0    8.76    2.41
   0 -18   0    1.21    1.40
   1 -18   0    9.35    2.43
   2 -18   0   -0.19    0.98
   3 -18   0   -0.31    0.91
   4 -18   0   31.01    3.02
   5 -18   0    0.20    0.73
   6 -18   0    5.75    2.52
  -7 -17   0   22.05    3.67
  -6 -17   0   10.88    2.59
  -5 -17   0   20.18    3.50
  -4 -17   0    4.59    1.65
  -3 -17   0    0.97    1.24
  -2 -17   0    3.15    1.61
  -1 -17   0    7.70    2.17
   0 -17   0    0.84    0.88
   1 -17   0   11.84    2.69
   2 -17   0    5.82    1.87
   3 -17   0    1.50    0.83
   4 -17   0    1.86    0.97
   5 -17   0   17.45    2.34
   6 -17   0   12.32    1.89
   7 -17   0   28.74    2.92
   8 -17   0    0.79    1.17
  -7 -16   0   12.27    2.55
  -6 -16   0    0.07    0.86
  -5 -16   0    1.86    1.21
  -4 -16   0   41.14    4.99
  -3 -16   0    4.08    1.67
  -2 -16   0    0.57    0.92
  -1 -16   0   10.78    2.50
   0 -16   0   26.18    3.82
   1 -16   0   11.49    2.55
   2 -16   0    1.06    0.73
   3 -16   0    4.15    1.17
   4 -16   0   38.92    3.24
   5 -16   0    4.69    1.21
   6 -16   0    0.31    0.65
   7 -16   0    4.49    1.27
   8 -16   0    0.99    0.77
   9 -16   0    1.39    1.66
  -7 -15   0   -0.04    0.89
  -6 -15   0   -0.17    0.77
  -5 -15   0    2.11    1.20
  -4 -15   0    4.76    1.69
  -3 -15   0   17.70    3.24
  -2 -15   0   17.86    3.28
  -1 -15   0   -0.26    0.54
   0 -15   0   -0.20    0.54
   1 -15   0    0.30    0.51
   2 -15   0   17.27    2.13
   3 -15   0   14.36    1.95
   4 -15   0    6.38    1.35
   5 -15   0    2.94    0.96
   6 -15   0    0.76    0.66
   7 -15   0    0.57    0.60
   8 -15   0   23.42    2.52
   9 -15   0    3.91    1.72
  10 -15   0   16.99    3.39
 -12 -14   0    1.39    1.23
 -11 -14   0    4.05    1.54
 -10 -14   0    4.68    1.51
  -9 -14   0    3.34    1.28
  -8 -14   0   58.39    3.86
  -7 -14   0    0.23    0.54
  -6 -14   0    2.96    1.32
  -5 -14   0    2.99    1.34
  -4 -14   0   12.73    2.58
  -3 -14   0    0.49    0.68
  -2 -14   0    7.57    2.06
  -1 -14   0   14.85    2.82
   0 -14   0   82.94    3.75
   1 -14   0   14.68    1.85
   2 -14   0    9.15    1.51
   3 -14   0    0.68    0.60
   4 -14   0   16.10    1.98
   5 -14   0    1.99    0.84
   6 -14   0    2.15    0.86
   7 -14   0    0.03    0.50
   8 -14   0   45.91    3.06
   9 -14   0    5.86    1.99
  10 -14   0    6.73    2.20
  11 -14   0    2.51    1.48
 -13 -13   0    5.36    1.74
 -12 -13   0    6.19    1.90
 -11 -13   0    1.11    0.99
 -10 -13   0    0.61    0.85
  -9 -13   0    1.59    0.93
  -8 -13   0    1.90    0.73
  -7 -13   0   11.91    1.50
  -6 -13   0   41.43    2.41
  -5 -13   0   99.26    3.63
  -4 -13   0   20.94    1.84
  -3 -13   0    1.50    0.55
  -2 -13   0    2.50    1.12
  -1 -13   0    2.80    0.84
   0 -13   0    0.45    0.44
   1 -13   0    1.78    0.63
   2 -13   0    2.79    0.81
   3 -13   0    1.17    0.62
   4 -13   0   24.73    2.42
   5 -13   0   92.28    4.07
   6 -13   0   36.29    2.99
   7 -13   0   10.09    1.57
   8 -13   0    0.99    0.68
   9 -13   0   -0.05    0.84
  10 -13   0    0.38    0.90
  11 -13   0    0.32    1.02
  12 -13   0   15.68    3.20
 -13 -12   0    4.91    1.69
 -12 -12   0   21.89    3.20
 -11 -12   0   23.46    3.16
 -10 -12   0   -0.15    0.69
  -9 -12   0   -0.26    0.61
  -8 -12   0    8.01    1.24
  -7 -12   0   27.88    2.20
  -6 -12   0   14.07    1.54
  -5 -12   0    1.21    0.53
  -4 -12   0    9.83    1.19
  -3 -12   0   16.91    1.59
  -2 -12   0   58.24    2.07
  -1 -12   0   52.45    1.91
   0 -12   0   27.23    1.49
   1 -12   0   50.98    2.75
   2 -12   0   64.84    3.12
   3 -12   0   17.89    1.89
   4 -12   0    9.97    1.51
   5 -12   0    1.10    0.62
   6 -12   0   15.74    1.86
   7 -12   0   26.86    2.00
   8 -12   0    7.15    1.03
   9 -12   0    0.42    0.60
  10 -12   0    0.37    0.64
  11 -12   0   28.58    2.82
  12 -12   0   28.72    2.84
  13 -12   0    1.78    0.99
 -14 -11   0    5.59    1.69
 -13 -11   0    0.69    0.87
 -12 -11   0   -0.60    0.63
 -11 -11   0    1.23    0.86
 -10 -11   0   24.53    3.03
  -9 -11   0   54.78    3.65
  -8 -11   0    1.02    0.49
  -7 -11   0    3.86    0.85
  -6 -11   0    1.10    0.48
  -5 -11   0    3.31    0.76
  -4 -11   0   13.29    1.39
  -3 -11   0   18.58    1.59
  -2 -11   0   26.09    1.38
  -1 -11   0   77.98    2.39
   0 -11   0   -0.09    0.23
   1 -11   0   79.27    3.43
   2 -11   0   29.37    2.47
   3 -11   0   18.23    1.90
   4 -11   0   12.87    1.23
   5 -11   0    3.02    0.65
   6 -11   0    0.80    0.40
   7 -11   0    3.13    0.70
   8 -11   0    1.05    0.49
   9 -11   0   50.88    2.98
  10 -11   0   25.04    2.53
  11 -11   0    1.58    0.78
  12 -11   0    0.32    0.66
  13 -11   0    1.10    0.86
  14 -11   0    6.87    1.50
 -14 -10   0   19.35    3.06
 -13 -10   0   20.05    3.05
 -12 -10   0   53.25    2.78
 -11 -10   0    2.73    0.72
 -10 -10   0    0.68    0.49
  -9 -10   0    6.32    1.02
  -8 -10   0    5.37    0.93
  -7 -10   0    6.35    1.00
  -6 -10   0   17.27    1.60
  -5 -10   0    4.43    0.78
  -4 -10   0   73.01    2.78
  -3 -10   0   67.24    2.06
  -2 -10   0   18.89    1.12
  -1 -10   0   36.62    1.47
   0 -10   0    0.31    0.24
   1 -10   0   40.50    1.56
   2 -10   0   20.09    1.24
   3 -10   0   68.18    2.30
   4 -10   0   78.14    2.54
   5 -10   0    6.13    0.87
   6 -10   0   19.25    1.51
   7 -10   0    7.24    0.94
   8 -10   0    4.52    0.74
   9 -10   0    7.68    1.36
  10 -10   0    0.19    0.52
  11 -10   0    4.10    1.07
  12 -10   0   51.91    3.80
  13 -10   0   20.14    2.41
  14 -10   0   20.83    2.48
  15 -10   0   16.91    2.34
 -15  -9   0   -0.54    0.73
 -14  -9   0   16.07    2.78
 -13  -9   0    0.08    0.49
 -12  -9   0    2.45    0.72
 -11  -9   0   14.49    1.63
 -10  -9   0   21.51    1.88
  -9  -9   0    1.17    0.47
  -8  -9   0    3.08    0.54
  -7  -9   0   53.31    1.90
  -6  -9   0  105.00    3.47
  -5  -9   0   24.19    1.56
  -4  -9   0    1.58    0.48
  -3  -9   0   53.36    1.73
  -2  -9   0   30.93    1.27
  -1  -9   0    2.42    0.33
   0  -9   0   -0.07    0.14
   1  -9   0    1.83    0.41
   2  -9   0   33.14    1.47
   3  -9   0   55.83    1.97
   4  -9   0    3.44    0.62
   5  -9   0   22.72    1.55
   6  -9   0  110.65    3.14
   7  -9   0   54.10    2.13
   8  -9   0    3.15    0.52
   9  -9   0    0.54    0.40
  10  -9   0   21.75    2.18
  11  -9   0   17.83    2.08
  12  -9   0    1.75    0.81
  13  -9   0   -0.29    0.49
  14  -9   0   20.04    2.33
  15  -9   0    0.86    0.82
 -15  -8   0    0.73    0.93
 -14  -8   0    7.01    1.28
 -13  -8   0    2.17    0.73
 -12  -8   0   10.03    1.40
 -11  -8   0   20.87    1.93
 -10  -8   0   41.64    2.17
  -9  -8   0   10.07    1.21
  -8  -8   0   45.49    1.71
  -7  -8   0   22.78    1.27
  -6  -8   0   17.52    1.18
  -5  -8   0   20.26    1.57
  -4  -8   0   15.34    0.91
  -3  -8   0   43.72    1.47
  -2  -8   0    0.22    0.18
  -1  -8   0   60.60    1.80
   0  -8   0  180.03    3.10
   1  -8   0   64.65    1.89
   2  -8   0   -0.05    0.20
   3  -8   0   42.11    1.62
   4  -8   0   14.41    1.17
   5  -8   0   22.13    1.47
   6  -8   0   14.87    1.21
   7  -8   0   21.43    1.48
   8  -8   0   47.34    1.59
   9  -8   0    8.47    1.00
  10  -8   0   42.86    2.04
  11  -8   0   18.92    1.59
  12  -8   0   12.16    1.72
  13  -8   0    2.66    0.93
  14  -8   0    2.38    0.90
  15  -8   0    1.58    0.85
 -16  -7   0    1.44    1.28
 -15  -7   0    0.42    0.59
 -14  -7   0   -0.07    0.45
 -13  -7   0   34.14    2.69
 -12  -7   0    0.51    0.43
 -11  -7   0   15.71    1.61
 -10  -7   0    1.73    0.59
  -9  -7   0   68.16    2.73
  -8  -7   0   24.63    1.24
  -7  -7   0   48.25    1.67
  -6  -7   0   17.09    1.12
  -5  -7   0   24.11    1.07
  -4  -7   0    8.68    0.68
  -3  -7   0  131.87    2.92
  -2  -7   0   18.54    0.97
  -1  -7   0   29.69    1.14
   0  -7   0   -0.13    0.10
   1  -7   0   32.39    1.20
   2  -7   0   18.97    1.07
   3  -7   0  136.00    3.18
   4  -7   0    8.65    0.85
   5  -7   0   23.11    1.33
   6  -7   0   17.43    1.26
   7  -7   0   48.55    1.52
   8  -7   0   23.37    1.12
   9  -7   0   73.06    2.46
  10  -7   0    0.60    0.37
  11  -7   0   14.80    1.37
  12  -7   0    0.57    0.39
  13  -7   0   33.46    2.91
  14  -7   0    0.00    0.52
  15  -7   0   -0.11    0.63
  16  -7   0    1.34    1.17
 -16  -6   0   20.02    2.25
 -15  -6   0   29.08    2.61
 -14  -6   0    0.05    0.44
 -13  -6   0    7.18    1.18
 -12  -6   0    1.69    0.56
 -11  -6   0    3.57    0.78
 -10  -6   0   20.62    1.79
  -9  -6   0   33.23    1.77
  -8  -6   0   79.56    2.20
  -7  -6   0   51.15    1.66
  -6  -6   0    7.08    0.70
  -5  -6   0   68.01    1.89
  -4  -6   0    4.22    0.40
  -3  -6   0  249.14    4.63
  -2  -6   0   91.89    2.17
  -1  -6   0    4.68    0.48
   0  -6   0  129.18    2.24
   1  -6   0    4.14    0.38
   2  -6   0   96.53    2.35
   3  -6   0  258.04    4.97
   4  -6   0    3.69    0.49
   5  -6   0   69.81    2.09
   6  -6   0    7.82    0.82
   7  -6   0   52.88    1.52
   8  -6   0   80.69    2.02
   9  -6   0   33.16    1.76
  10  -6   0   20.26    1.52
  11  -6   0    3.95    0.71
  12  -6   0    3.88    0.74
  13  -6   0    8.20    1.08
  14  -6   0    0.18    0.43
  15  -6   0   31.96    4.31
  16  -6   0   19.74    3.54
 -17  -5   0    1.15    0.99
 -16  -5   0    3.19    1.00
 -15  -5   0    1.96    0.70
 -14  -5   0   10.81    1.47
 -13  -5   0    1.48    0.55
 -12  -5   0    4.74    0.88
 -11  -5   0    6.50    1.01
 -10  -5   0   26.35    1.72
  -9  -5   0   45.44    2.09
  -8  -5   0    0.47    0.24
  -7  -5   0   18.25    1.03
  -6  -5   0  142.84    3.07
  -5  -5   0   29.38    1.09
  -4  -5   0   19.66    0.63
  -3  -5   0    0.25    0.12
  -2  -5   0  110.34    2.36
  -1  -5   0   65.41    1.85
   0  -5   0   -0.08    0.08
   1  -5   0   65.92    1.68
   2  -5   0  118.26    2.58
   3  -5   0    0.56    0.23
   4  -5   0   19.17    0.99
   5  -5   0   29.23    1.19
   6  -5   0  147.34    2.77
   7  -5   0   17.19    0.89
   8  -5   0    0.05    0.17
   9  -5   0   49.05    1.90
  10  -5   0   21.99    1.56
  11  -5   0    5.85    0.85
  12  -5   0    4.41    0.78
  13  -5   0    1.02    0.47
  14  -5   0   10.84    1.29
  15  -5   0    2.56    0.97
  16  -5   0    4.01    1.68
 -17  -4   0   -0.06    0.62
 -16  -4   0    1.31    0.73
 -15  -4   0   21.87    2.27
 -14  -4   0    2.16    0.74
 -13  -4   0   -0.13    0.34
 -12  -4   0  149.03    4.79
 -11  -4   0    8.23    1.09
 -10  -4   0    8.93    1.13
  -9  -4   0    4.43    0.78
  -8  -4   0    0.07    0.19
  -7  -4   0    5.89    0.59
  -6  -4   0   82.17    2.01
  -5  -4   0    8.19    0.64
  -4  -4   0   81.76    1.46
  -3  -4   0    4.19    0.31
  -2  -4   0  222.89    3.73
  -1  -4   0    7.42    0.52
   0  -4   0  131.93    2.54
   1  -4   0    5.57    0.55
   2  -4   0  216.05    4.06
   3  -4   0    3.90    0.46
   4  -4   0   82.68    2.03
   5  -4   0    9.33    0.75
   6  -4   0   82.30    1.81
   7  -4   0    6.57    0.55
   8  -4   0    0.43    0.21
   9  -4   0    4.39    0.65
  10  -4   0    7.71    0.90
  11  -4   0    7.69    0.97
  12  -4   0  153.81    4.09
  13  -4   0    0.13    0.33
  14  -4   0    4.61    0.99
  15  -4   0   19.88    2.19
  16  -4   0    1.53    0.85
  17  -4   0   -0.25    0.74
 -17  -3   0   10.83    1.72
 -16  -3   0    6.68    1.28
 -15  -3   0   12.37    1.66
 -14  -3   0    2.98    0.79
 -13  -3   0   13.22    1.58
 -12  -3   0    0.91    0.47
 -11  -3   0   14.72    1.51
 -10  -3   0    0.35    0.34
  -9  -3   0  160.86    4.52
  -8  -3   0   52.20    1.56
  -7  -3   0   20.66    0.93
  -6  -3   0  179.81    3.43
  -5  -3   0   14.34    0.70
  -4  -3   0   41.88    1.15
  -3  -3   0   92.41    1.89
  -2  -3   0    1.54    0.17
  -1  -3   0  179.48    3.14
   0  -3   0    0.17    0.12
   1  -3   0  183.89    3.29
   2  -3   0    1.29    0.26
   3  -3   0   95.74    2.07
   4  -3   0   40.73    1.23
   5  -3   0   14.53    0.63
   6  -3   0  180.44    3.46
   7  -3   0   17.65    0.79
   8  -3   0   54.68    1.38
   9  -3   0  166.95    3.90
  10  -3   0   -0.10    0.23
  11  -3   0   15.76    1.33
  12  -3   0    1.82    0.51
  13  -3   0    8.53    1.05
  14  -3   0    2.24    0.81
  15  -3   0   14.13    1.90
  16  -3   0    4.18    1.11
  17  -3   0    8.68    1.61
 -17  -2   0    0.98    0.76
 -16  -2   0    1.16    0.67
 -15  -2   0   54.57    2.97
 -14  -2   0    8.93    1.37
 -13  -2   0    1.51    0.61
 -12  -2   0    7.27    1.08
 -11  -2   0   11.21    1.05
 -10  -2   0   27.51    1.40
  -9  -2   0   41.41    1.56
  -8  -2   0    4.57    0.59
  -7  -2   0   62.77    1.36
  -6  -2   0   46.41    1.11
  -5  -2   0   68.96    1.38
  -4  -2   0  213.38    3.59
  -3  -2   0  169.34    2.90
  -2  -2   0   22.78    0.65
  -1  -2   0    5.34    0.23
   0  -2   0    5.55    0.28
   1  -2   0    6.37    0.37
   2  -2   0   25.17    0.77
   3  -2   0  166.16    3.03
   4  -2   0  213.46    3.23
   5  -2   0   69.57    1.42
   6  -2   0   46.55    1.23
   7  -2   0   61.17    1.38
   8  -2   0    4.48    0.60
   9  -2   0   42.87    1.67
  10  -2   0   26.04    1.66
  11  -2   0   10.67    1.09
  12  -2   0    7.57    0.95
  13  -2   0    3.31    0.93
  14  -2   0    6.52    1.23
  15  -2   0   61.30    2.64
  16  -2   0    1.97    0.77
  17  -2   0    1.77    0.92
 -17  -1   0    0.76    0.67
 -16  -1   0   10.10    1.58
 -15  -1   0    0.23    0.52
 -14  -1   0    3.40    0.72
 -13  -1   0   29.42    1.94
 -12  -1   0   17.03    1.38
 -11  -1   0   31.55    1.51
 -10  -1   0    0.08    0.22
  -9  -1   0   14.37    1.07
  -8  -1   0    0.03    0.18
  -7  -1   0    9.15    0.74
  -6  -1   0  159.56    2.57
  -5  -1   0   27.88    0.69
  -4  -1   0  141.30    2.16
  -3  -1   0  170.04    2.48
  -2  -1   0   36.20    0.79
  -1  -1   0    4.95    0.20
   0  -1   0    0.22    0.13
   1  -1   0    4.94    0.26
   2  -1   0   36.27    0.72
   3  -1   0  174.10    2.95
   4  -1   0  142.14    2.23
   5  -1   0   26.12    0.75
   6  -1   0  162.35    2.63
   7  -1   0    7.53    0.37
   8  -1   0    0.16    0.21
   9  -1   0   15.28    1.15
  10  -1   0    0.13    0.25
  11  -1   0   29.87    1.52
  12  -1   0   16.02    1.75
  13  -1   0   32.64    2.58
  14  -1   0    3.92    0.77
  15  -1   0    0.29    0.46
  16  -1   0    8.61    1.52
  17  -1   0    0.16    0.63
 -17   0   0   -0.75    0.56
 -16   0   0    2.67    0.88
 -15   0   0    0.41    0.44
 -14   0   0   46.19    2.14
 -13   0   0    0.01    0.29
 -12   0   0   46.88    1.93
 -11   0   0    0.17    0.25
 -10   0   0  126.75    3.25
  -9   0   0    0.05    0.16
  -8   0   0  114.21    2.75
  -7   0   0    0.07    0.15
  -6   0   0    0.87    0.23
  -5   0   0    0.09    0.13
  -4   0   0    1.24    0.22
  -3   0   0   -0.07    0.09
  -2   0   0   10.41    0.63
  -1   0   0    0.20    0.09
   2   0   0   10.12    0.40
   3   0   0    0.08    0.14
   4   0   0    1.23    0.25
   5   0   0    0.16    0.15
   6   0   0    1.16    0.28
   7   0   0   -0.08    0.15
   8   0   0  113.79    2.75
   9   0   0   -0.08    0.17
  10   0   0  135.83    3.30
  11   0   0    0.20    0.35
  12   0   0   43.53    1.94
  13   0   0    0.24    0.34
  14   0   0   50.18    2.28
  15   0   0    0.11    0.42
  16   0   0    3.91    1.11
  17   0   0   -0.03    0.62
 -17   1   0    0.48    0.67
 -16   1   0   11.18    1.66
 -15   1   0    0.05    0.38
 -14   1   0    2.60    0.62
 -13   1   0   29.15    1.91
 -12   1   0   17.80    1.42
 -11   1   0   32.85    1.53
 -10   1   0   -0.17    0.19
  -9   1   0   14.67    1.08
  -8   1   0    0.09    0.18
  -7   1   0    8.01    0.69
  -6   1   0  157.21    3.18
  -5   1   0   25.06    0.91
  -4   1   0  135.56    2.60
  -3   1   0  172.39    2.93
  -2   1   0   35.31    0.98
  -1   1   0    4.84    0.17
   0   1   0    0.02    0.06
   1   1   0    4.63    0.20
   2   1   0   35.79    0.85
   3   1   0  172.68    2.53
   4   1   0  139.43    2.58
   5   1   0   25.87    0.89
   6   1   0  164.36    3.18
   7   1   0    8.61    0.71
   8   1   0    0.04    0.20
   9   1   0   16.12    0.89
  10   1   0    0.19    0.22
  11   1   0   29.59    1.70
  12   1   0   15.26    1.35
  13   1   0   28.31    1.96
  14   1   0    1.74    0.53
  15   1   0    0.03    0.35
  16   1   0    6.96    1.34
  17   1   0   -0.03    0.59
 -17   2   0    0.79    0.75
 -16   2   0    0.89    0.66
 -15   2   0   59.74    3.07
 -14   2   0   10.13    1.22
 -13   2   0    3.37    0.70
 -12   2   0    6.91    0.89
 -11   2   0   11.73    1.10
 -10   2   0   27.65    1.50
  -9   2   0   38.84    1.52
  -8   2   0    4.55    0.56
  -7   2   0   61.38    1.77
  -6   2   0   46.75    1.39
  -5   2   0   67.54    1.67
  -4   2   0  206.44    3.17
  -3   2   0  171.71    2.53
  -2   2   0   23.41    0.55
  -1   2   0    5.74    0.22
   0   2   0    4.77    0.21
   1   2   0    5.47    0.26
   2   2   0   23.07    0.66
   3   2   0  167.57    2.49
   4   2   0  212.36    3.11
   5   2   0   68.53    1.37
   6   2   0   46.34    1.14
   7   2   0   60.22    1.60
   8   2   0    4.54    0.46
   9   2   0   42.33    1.32
  10   2   0   25.51    1.49
  11   2   0    9.17    1.00
  12   2   0    6.82    0.92
  13   2   0    2.44    0.60
  14   2   0    4.82    0.83
  15   2   0   54.56    2.52
  16   2   0    1.16    0.61
  17   2   0    0.90    0.72
 -17   3   0    6.66    1.34
 -16   3   0    5.70    1.20
 -15   3   0   15.59    1.93
 -14   3   0    2.26    0.56
 -13   3   0   10.85    1.15
 -12   3   0    1.93    0.53
 -11   3   0   14.14    1.20
 -10   3   0    0.06    0.22
  -9   3   0  165.30    3.76
  -8   3   0   52.57    1.73
  -7   3   0   19.84    0.99
  -6   3   0  178.69    4.30
  -5   3   0   15.00    0.63
  -4   3   0   41.66    0.99
  -3   3   0   94.61    1.62
  -2   3   0    1.32    0.17
  -1   3   0  196.96    2.66
   0   3   0    0.03    0.08
   1   3   0  192.08    3.05
   2   3   0    2.56    0.25
   3   3   0   91.26    2.29
   4   3   0   42.02    0.89
   5   3   0   13.73    0.50
   6   3   0  184.87    2.95
   7   3   0   20.19    0.75
   8   3   0   51.87    1.39
   9   3   0  167.91    3.88
  10   3   0    0.00    0.23
  11   3   0   14.30    1.28
  12   3   0    0.90    0.42
  13   3   0   11.64    1.29
  14   3   0    2.35    0.66
  15   3   0   11.35    1.33
  16   3   0    6.18    1.08
  17   3   0    7.81    1.49
 -17   4   0    0.17    0.63
 -16   4   0    2.23    0.85
 -15   4   0   18.97    2.13
 -14   4   0    4.76    0.86
 -13   4   0   -0.25    0.31
 -12   4   0  150.69    3.94
 -11   4   0    6.90    0.87
 -10   4   0    8.43    0.88
  -9   4   0    4.21    0.59
  -8   4   0    0.18    0.20
  -7   4   0    5.79    0.61
  -6   4   0   82.16    1.78
  -5   4   0    8.07    0.55
  -4   4   0   80.10    1.58
  -3   4   0    3.60    0.32
  -2   4   0  232.17    3.27
  -1   4   0    5.80    0.34
   0   4   0  134.80    2.34
   1   4   0    5.46    0.33
   2   4   0  232.34    3.78
   3   4   0    3.41    0.35
   4   4   0   79.58    1.87
   5   4   0    7.37    0.63
   6   4   0   80.74    2.11
   7   4   0    5.70    0.62
   8   4   0   -0.07    0.17
   9   4   0    4.34    0.63
  10   4   0    8.53    0.95
  11   4   0    6.15    0.85
  12   4   0  151.96    4.05
  13   4   0    0.19    0.33
  14   4   0    3.83    0.78
  15   4   0   20.66    1.89
  16   4   0    1.09    0.63
  17   4   0   -0.38    0.64
 -17   5   0   -0.20    0.79
 -16   5   0    3.43    1.04
 -15   5   0    2.36    0.84
 -14   5   0   11.80    1.29
 -13   5   0    0.50    0.41
 -12   5   0    7.54    0.96
 -11   5   0    4.90    0.75
 -10   5   0   25.97    1.63
  -9   5   0   46.29    1.73
  -8   5   0    0.15    0.19
  -7   5   0   15.81    0.89
  -6   5   0  144.19    2.67
  -5   5   0   28.09    0.89
  -4   5   0   18.59    0.66
  -3   5   0    0.11    0.10
  -2   5   0  117.90    1.97
  -1   5   0   66.33    1.27
   0   5   0    0.51    0.12
   1   5   0   65.46    1.43
   2   5   0  118.34    2.24
   3   5   0    0.21    0.15
   4   5   0   19.08    0.79
   5   5   0   26.93    1.04
   6   5   0  145.50    3.17
   7   5   0   16.25    1.12
   8   5   0    0.15    0.22
   9   5   0   49.73    1.85
  10   5   0   23.13    1.56
  11   5   0    4.47    0.71
  12   5   0    5.50    0.71
  13   5   0    1.08    0.45
  14   5   0    9.36    1.21
  15   5   0    2.68    0.71
  16   5   0    2.83    0.96
 -16   6   0   18.50    2.12
 -15   6   0   29.43    2.59
 -14   6   0    0.08    0.41
 -13   6   0    8.97    1.11
 -12   6   0    3.58    0.66
 -11   6   0    2.98    0.61
 -10   6   0   21.50    1.50
  -9   6   0   35.06    1.50
  -8   6   0   78.91    1.97
  -7   6   0   48.16    1.42
  -6   6   0    6.54    0.55
  -5   6   0   71.47    1.60
  -4   6   0    4.67    0.41
  -3   6   0  266.40    3.95
  -2   6   0   94.99    1.77
  -1   6   0    4.50    0.36
   0   6   0  127.23    2.45
   1   6   0    5.07    0.41
   2   6   0   96.52    1.99
   3   6   0  272.25    4.57
   4   6   0    4.37    0.46
   5   6   0   70.78    1.86
   6   6   0    7.80    0.73
   7   6   0   51.38    1.72
   8   6   0   79.62    2.36
   9   6   0   32.33    1.50
  10   6   0   21.44    1.52
  11   6   0    2.68    0.57
  12   6   0    1.31    0.44
  13   6   0   10.02    1.22
  14   6   0    0.40    0.54
  15   6   0   29.51    2.80
  16   6   0   19.88    2.45
 -16   7   0    0.97    1.13
 -15   7   0   -0.68    0.62
 -14   7   0    0.08    0.48
 -13   7   0   34.78    2.19
 -12   7   0    0.86    0.42
 -11   7   0   15.79    1.34
 -10   7   0    0.58    0.32
  -9   7   0   69.70    2.27
  -8   7   0   25.47    1.10
  -7   7   0   47.57    1.42
  -6   7   0   16.20    0.85
  -5   7   0   24.19    0.87
  -4   7   0    7.54    0.55
  -3   7   0  133.31    2.40
  -2   7   0   17.91    0.68
  -1   7   0   29.18    0.86
   0   7   0    0.02    0.12
   1   7   0   30.05    0.94
   2   7   0   19.36    0.74
   3   7   0  138.42    2.75
   4   7   0    7.50    0.61
   5   7   0   24.42    1.05
   6   7   0   18.41    1.03
   7   7   0   48.15    1.69
   8   7   0   24.43    1.34
   9   7   0   67.16    2.27
  10   7   0    1.02    0.39
  11   7   0   15.57    1.74
  12   7   0   -0.13    0.42
  13   7   0   31.91    2.66
  14   7   0   -0.05    0.45
  15   7   0   -0.20    0.61
  16   7   0    1.00    0.76
 -15   8   0    3.13    1.55
 -14   8   0    3.08    1.27
 -13   8   0    1.48    0.69
 -12   8   0   11.42    1.18
 -11   8   0   15.22    1.35
 -10   8   0   41.50    1.80
  -9   8   0    6.91    0.71
  -8   8   0   48.13    1.52
  -7   8   0   24.03    1.00
  -6   8   0   16.86    0.88
  -5   8   0   22.17    0.90
  -4   8   0   15.90    0.80
  -3   8   0   41.39    1.16
  -2   8   0    0.05    0.12
  -1   8   0   60.66    1.41
   0   8   0  182.11    4.44
   1   8   0   60.69    1.56
   2   8   0    0.20    0.15
   3   8   0   44.38    1.29
   4   8   0   16.52    0.84
   5   8   0   20.46    1.02
   6   8   0   13.61    0.89
   7   8   0   19.85    1.73
   8   8   0   45.78    2.31
   9   8   0    8.98    1.28
  10   8   0   39.18    2.31
  11   8   0   17.77    1.96
  12   8   0   11.10    1.61
  13   8   0    3.59    0.98
  14   8   0    4.77    1.10
  15   8   0    3.72    1.12
  16   8   0   10.07    2.68
 -15   9   0    0.51    0.94
 -14   9   0   14.03    2.78
 -13   9   0   -0.13    0.43
 -12   9   0    2.73    0.72
 -11   9   0   18.04    2.00
 -10   9   0   21.64    1.59
  -9   9   0    0.60    0.34
  -8   9   0    2.51    0.44
  -7   9   0   57.89    1.65
  -6   9   0  108.57    2.37
  -5   9   0   22.76    0.98
  -4   9   0    1.82    0.32
  -3   9   0   54.98    1.42
  -2   9   0   31.03    1.01
  -1   9   0    2.02    0.31
   0   9   0   -0.03    0.12
   1   9   0    2.57    0.37
   2   9   0   28.53    1.52
   3   9   0   54.29    2.24
   4   9   0    2.02    0.52
   5   9   0   22.26    1.78
   6   9   0  101.43    3.59
   7   9   0   57.16    2.57
   8   9   0    3.63    0.82
   9   9   0    0.24    0.37
  10   9   0   21.46    2.05
  11   9   0   16.37    1.89
  12   9   0    3.12    0.92
  13   9   0   -0.07    0.53
  14   9   0   18.14    2.16
  15   9   0   -0.07    0.68
 -14  10   0   23.69    3.79
 -13  10   0   19.36    3.35
 -12  10   0   47.63    3.10
 -11  10   0    4.06    0.97
 -10  10   0    0.44    0.46
  -9  10   0    5.98    1.15
  -8  10   0    3.37    0.77
  -7  10   0    7.07    0.82
  -6  10   0   17.98    1.09
  -5  10   0    5.57    0.58
  -4  10   0   77.88    1.87
  -3  10   0   65.51    1.67
  -2  10   0   20.85    0.91
  -1  10   0   36.13    1.15
   0  10   0    0.32    0.19
   1  10   0   35.45    1.73
   2  10   0   20.09    1.42
   3  10   0   65.83    2.60
   4  10   0   73.35    2.89
   5  10   0    6.92    0.95
   6  10   0   17.68    1.68
   7  10   0    8.26    1.20
   8  10   0    5.02    0.99
   9  10   0    3.97    0.92
  10  10   0    0.86    0.50
  11  10   0    2.71    0.83
  12  10   0   47.08    3.08
  13  10   0   16.61    2.09
  14  10   0   22.98    2.52
  15  10   0   12.49    2.78
 -14  11   0    3.35    1.64
 -13  11   0    1.11    0.99
 -12  11   0    0.11    0.55
 -11  11   0    0.75    0.61
 -10  11   0   27.96    2.51
  -9  11   0   49.33    2.76
  -8  11   0    1.11    0.51
  -7  11   0    2.78    0.74
  -6  11   0    1.40    0.55
  -5  11   0    3.89    0.81
  -4  11   0   10.54    0.88
  -3  11   0   18.42    0.96
  -2  11   0   27.16    1.10
  -1  11   0   83.44    1.97
   0  11   0   -0.03    0.16
   1  11   0   83.52    2.42
   2  11   0   22.62    1.58
   3  11   0   16.89    1.55
   4  11   0   10.11    1.24
   5  11   0    2.57    0.70
   6  11   0    0.95    0.51
   7  11   0    4.64    0.95
   8  11   0    0.92    0.51
   9  11   0   48.44    2.72
  10  11   0   20.54    2.16
  11  11   0   -0.09    0.51
  12  11   0    0.25    0.52
  13  11   0    2.30    0.91
  14  11   0    5.82    1.41
 -13  12   0    6.54    2.02
 -12  12   0   25.62    2.67
 -11  12   0   27.35    2.70
 -10  12   0    0.09    0.46
  -9  12   0   -0.05    0.42
  -8  12   0    6.09    1.14
  -7  12   0   26.10    2.33
  -6  12   0   14.75    1.72
  -5  12   0    1.56    0.56
  -4  12   0    8.64    1.22
  -3  12   0   16.48    1.70
  -2  12   0   58.92    2.32
  -1  12   0   53.42    1.58
   0  12   0   24.96    1.11
   1  12   0   50.39    1.55
   2  12   0   60.12    2.59
   3  12   0   16.57    1.60
   4  12   0    6.73    1.02
   5  12   0    2.70    0.68
   6  12   0   13.69    1.62
   7  12   0   21.51    2.07
   8  12   0    8.56    1.36
   9  12   0   -0.17    0.37
  10  12   0    0.16    0.45
  11  12   0   28.01    2.71
  12  12   0   22.49    2.53
  13  12   0    2.07    0.98
 -12  13   0    6.34    1.93
 -11  13   0    0.17    0.65
 -10  13   0   -0.03    0.60
  -9  13   0    1.64    0.78
  -8  13   0    1.00    0.58
  -7  13   0    9.81    1.51
  -6  13   0   39.90    2.65
  -5  13   0   95.79    3.88
  -4  13   0   20.11    1.99
  -3  13   0    1.12    0.56
  -2  13   0    3.25    0.80
  -1  13   0    1.92    0.61
   0  13   0    0.08    0.34
   1  13   0    3.36    0.63
   2  13   0    3.38    0.63
   3  13   0    1.72    0.59
   4  13   0   21.11    1.99
   5  13   0   92.60    3.76
   6  13   0   37.07    2.47
   7  13   0    7.92    1.31
   8  13   0    0.95    0.59
   9  13   0    1.18    0.58
  10  13   0    0.14    0.54
  11  13   0   -0.53    0.51
  12  13   0    9.16    1.72
  13  13   0    4.93    2.19
 -11  14   0    4.05    1.21
 -10  14   0    4.82    1.18
  -9  14   0    2.75    0.98
  -8  14   0   54.04    3.09
  -7  14   0    0.21    0.49
  -6  14   0    1.98    0.71
  -5  14   0    2.15    0.71
  -4  14   0   11.76    1.59
  -3  14   0    0.98    0.55
  -2  14   0    6.49    1.15
  -1  14   0   17.43    1.90
   0  14   0   86.99    3.66
   1  14   0   18.17    1.93
   2  14   0    5.62    1.04
   3  14   0    0.20    0.33
   4  14   0   11.34    1.51
   5  14   0    2.15    0.74
   6  14   0    3.20    0.89
   7  14   0    0.58    0.46
   8  14   0   51.94    3.02
   9  14   0    1.79    0.81
  10  14   0    5.70    1.29
  11  14   0    2.54    1.04
  12  14   0    2.95    1.49
 -10  15   0   18.69    2.35
  -9  15   0    2.93    1.10
  -8  15   0   17.91    2.11
  -7  15   0   -0.23    0.50
  -6  15   0    0.16    0.50
  -5  15   0    2.04    0.79
  -4  15   0    7.81    1.35
  -3  15   0   13.08    1.74
  -2  15   0   21.25    2.24
  -1  15   0   -0.25    0.41
   0  15   0   -0.27    0.33
   1  15   0   -0.23    0.39
   2  15   0   17.76    2.04
   3  15   0   12.28    1.67
   4  15   0    6.08    1.77
   5  15   0    3.75    1.18
   6  15   0    0.11    0.50
   7  15   0   -0.17    0.46
   8  15   0   20.56    2.36
   9  15   0    2.48    0.89
  10  15   0   22.43    2.57
  11  15   0    5.89    1.91
  -9  16   0    1.73    0.95
  -8  16   0    1.47    0.82
  -7  16   0    4.45    1.17
  -6  16   0   -0.14    0.58
  -5  16   0    3.80    1.12
  -4  16   0   42.40    3.36
  -3  16   0    2.90    0.93
  -2  16   0    2.63    0.83
  -1  16   0   11.06    1.68
   0  16   0   31.90    2.78
   1  16   0   10.53    1.54
   2  16   0    3.60    0.94
   3  16   0    6.05    1.26
   4  16   0   38.21    3.06
   5  16   0    2.95    1.39
   6  16   0    0.23    0.85
   7  16   0    8.58    2.44
   8  16   0    0.36    1.07
   9  16   0    0.35    0.78
  -8  17   0    0.40    1.08
  -7  17   0   22.58    2.67
  -6  17   0   12.89    1.97
  -5  17   0   12.52    1.77
  -4  17   0    3.43    1.08
  -3  17   0    0.01    0.62
  -2  17   0    2.00    0.78
  -1  17   0   12.12    1.83
   0  17   0   -0.51    0.50
   1  17   0   13.31    1.79
   2  17   0    3.81    1.09
   3  17   0    0.51    0.93
   4  17   0    3.76    1.71
   5  17   0   12.80    2.86
   6  17   0   10.80    2.65
   7  17   0   19.81    3.57
  -6  18   0    7.77    2.64
  -5  18   0   -0.19    0.68
  -4  18   0   40.13    3.59
  -3  18   0    0.08    0.75
  -2  18   0    0.40    0.74
  -1  18   0   11.26    1.84
   0  18   0    0.30    0.69
   1  18   0    9.53    2.57
   2  18   0    0.85    1.05
   3  18   0   -0.96    0.77
   4  18   0   32.26    4.82
  -2  19   0   35.02    4.58
  -5 -18   1    0.83    1.31
  -4 -18   1    4.83    2.00
  -3 -18   1    5.91    2.04
  -2 -18   1    3.75    1.69
  -1 -18   1    1.56    1.40
   0 -18   1    9.71    2.70
   1 -18   1    0.99    1.08
   2 -18   1    5.02    1.92
   3 -18   1    4.08    1.84
   4 -18   1    5.75    2.38
   5 -18   1    1.75    1.66
  -6 -17   1   -1.96    0.87
  -5 -17   1    1.35    1.17
  -4 -17   1    7.09    2.24
  -3 -17   1    6.47    2.13
  -2 -17   1    6.29    1.99
  -1 -17   1   34.95    4.57
   0 -17   1   -0.41    0.93
   1 -17   1   27.78    4.21
   2 -17   1    5.49    2.06
   3 -17   1    4.22    1.62
   4 -17   1    3.88    1.15
   5 -17   1   -0.65    0.59
   6 -17   1   -0.49    0.65
   7 -17   1    2.10    1.10
  -9 -16   1    1.24    1.16
  -8 -16   1    1.45    1.14
  -7 -16   1    8.94    1.64
  -6 -16   1    3.87    1.05
  -5 -16   1    3.12    1.60
  -4 -16   1    2.04    1.51
  -3 -16   1   24.85    3.90
  -2 -16   1   27.12    4.00
  -1 -16   1    2.25    1.31
   0 -16   1   46.66    5.38
   1 -16   1    5.37    1.95
   2 -16   1   22.55    3.57
   3 -16   1   18.39    2.26
   4 -16   1    0.69    0.79
   5 -16   1    1.85    0.82
   6 -16   1    5.05    1.24
   7 -16   1    9.47    1.75
   8 -16   1   -0.09    0.67
 -10 -15   1   -0.43    0.76
  -9 -15   1    0.69    0.97
  -8 -15   1    0.49    0.79
  -7 -15   1    0.20    0.57
  -6 -15   1   42.83    2.78
  -5 -15   1   36.44    2.86
  -4 -15   1   21.31    2.16
  -3 -15   1   14.63    1.75
  -2 -15   1    5.42    0.96
  -1 -15   1    0.93    0.88
   0 -15   1    0.88    0.86
   1 -15   1    1.07    0.98
   2 -15   1    1.58    0.78
   3 -15   1   12.95    1.82
   4 -15   1   17.99    2.24
   5 -15   1   38.41    3.31
   6 -15   1   44.72    3.60
   7 -15   1    0.64    0.69
   8 -15   1   -0.20    0.60
   9 -15   1   -0.79    0.99
  10 -15   1   -0.10    1.30
 -11 -14   1   -0.05    0.87
 -10 -14   1    2.80    1.35
  -9 -14   1    9.43    2.13
  -8 -14   1   31.51    3.63
  -7 -14   1    0.04    0.52
  -6 -14   1    0.06    0.45
  -5 -14   1    0.87    0.59
  -4 -14   1   29.20    2.39
  -3 -14   1    0.84    0.51
  -2 -14   1    1.15    0.61
  -1 -14   1   12.10    1.55
   0 -14   1   66.35    5.07
   1 -14   1   10.07    1.48
   2 -14   1    2.79    0.89
   3 -14   1    1.30    0.71
   4 -14   1   22.60    2.43
   5 -14   1    1.34    0.68
   6 -14   1    0.20    0.52
   7 -14   1    0.19    0.55
   8 -14   1   34.00    3.07
   9 -14   1    7.17    1.47
  10 -14   1    2.09    1.57
  11 -14   1   -0.41    1.12
 -12 -13   1    1.18    0.99
 -11 -13   1   24.34    3.48
 -10 -13   1   29.36    3.69
  -9 -13   1    9.92    2.04
  -8 -13   1   18.83    2.68
  -7 -13   1    6.51    1.17
  -6 -13   1    0.51    0.49
  -5 -13   1    0.16    0.42
  -4 -13   1    3.44    0.84
  -3 -13   1   74.40    3.19
  -2 -13   1   19.68    1.87
  -1 -13   1   -0.27    0.33
   0 -13   1    0.12    0.43
   1 -13   1   -0.35    0.35
   2 -13   1   24.73    2.37
   3 -13   1   72.18    3.50
   4 -13   1    1.90    0.80
   5 -13   1    0.99    0.62
   6 -13   1    0.53    0.50
   7 -13   1    8.66    1.49
   8 -13   1   20.19    2.30
   9 -13   1    9.16    1.51
  10 -13   1   22.57    3.79
  11 -13   1   32.03    4.56
  12 -13   1    3.20    1.67
 -13 -12   1    1.07    1.05
 -12 -12   1    0.12    0.73
 -11 -12   1    6.11    1.63
 -10 -12   1   15.18    2.50
  -9 -12   1   10.09    2.00
  -8 -12   1    1.53    0.88
  -7 -12   1   21.22    1.99
  -6 -12   1   -0.30    0.34
  -5 -12   1   18.91    1.82
  -4 -12   1   36.73    2.29
  -3 -12   1   23.78    2.09
  -2 -12   1    3.09    0.78
  -1 -12   1    0.56    0.32
   0 -12   1   30.21    2.41
   1 -12   1    0.51    0.50
   2 -12   1    2.91    0.84
   3 -12   1   26.01    2.47
   4 -12   1   40.78    2.72
   5 -12   1   18.23    2.05
   6 -12   1   -0.07    0.39
   7 -12   1   17.07    1.97
   8 -12   1    1.54    0.74
   9 -12   1   10.91    1.60
  10 -12   1   15.74    3.04
  11 -12   1    5.62    1.87
  12 -12   1    0.08    1.06
  13 -12   1    1.13    1.23
 -14 -11   1    0.73    0.94
 -13 -11   1    2.98    1.01
 -12 -11   1    0.51    0.57
 -11 -11   1    0.20    0.48
 -10 -11   1   -0.03    0.64
  -9 -11   1   24.74    3.06
  -8 -11   1    1.70    0.81
  -7 -11   1   77.26    3.17
  -6 -11   1   33.52    2.14
  -5 -11   1    5.85    1.02
  -4 -11   1   13.06    1.45
  -3 -11   1    0.87    0.40
  -2 -11   1   17.91    1.67
  -1 -11   1   54.50    1.93
   0 -11   1   -0.15    0.23
   1 -11   1   49.90    2.60
   2 -11   1   13.77    1.71
   3 -11   1    0.09    0.37
   4 -11   1   12.05    1.64
   5 -11   1    7.08    1.22
   6 -11   1   36.96    2.83
   7 -11   1   84.13    3.66
   8 -11   1    3.18    0.73
   9 -11   1   24.20    1.88
  10 -11   1    1.09    0.69
  11 -11   1    0.39    0.66
  12 -11   1    1.42    0.83
  13 -11   1    3.03    1.06
  14 -11   1    0.47    0.85
 -15 -10   1    0.97    1.28
 -14 -10   1    8.67    1.44
 -13 -10   1   10.97    1.64
 -12 -10   1   10.37    1.53
 -11 -10   1   42.14    3.04
 -10 -10   1    0.80    0.48
  -9 -10   1    2.50    0.69
  -8 -10   1    3.16    0.80
  -7 -10   1    0.71    0.41
  -6 -10   1   24.26    1.90
  -5 -10   1    3.05    0.73
  -4 -10   1   75.70    2.95
  -3 -10   1   17.92    1.68
  -2 -10   1    0.39    0.27
  -1 -10   1   58.72    1.98
   0 -10   1   24.44    1.35
   1 -10   1   57.18    2.71
   2 -10   1    0.52    0.42
   3 -10   1   16.03    1.76
   4 -10   1   82.47    3.41
   5 -10   1    5.24    0.82
   6 -10   1   27.00    1.85
   7 -10   1    0.90    0.45
   8 -10   1    2.78    0.65
   9 -10   1    2.96    0.70
  10 -10   1    1.03    0.61
  11 -10   1   42.40    3.35
  12 -10   1   12.96    1.90
  13 -10   1   12.42    1.93
  14 -10   1    7.49    1.61
  15 -10   1   -0.36    1.19
 -15  -9   1    6.29    1.39
 -14  -9   1    7.60    1.41
 -13  -9   1    0.08    0.51
 -12  -9   1    0.42    0.51
 -11  -9   1    0.80    0.53
 -10  -9   1   23.41    2.06
  -9  -9   1   79.31    3.25
  -8  -9   1   25.01    2.02
  -7  -9   1    4.42    0.66
  -6  -9   1   17.39    1.56
  -5  -9   1   76.48    2.84
  -4  -9   1    0.01    0.28
  -3  -9   1   -0.08    0.19
  -2  -9   1  128.93    3.05
  -1  -9   1   43.78    1.59
   0  -9   1   -0.12    0.16
   1  -9   1   41.99    2.18
   2  -9   1  129.42    4.29
   3  -9   1    0.06    0.26
   4  -9   1    0.22    0.27
   5  -9   1   71.31    2.45
   6  -9   1   19.56    1.50
   7  -9   1    5.04    0.74
   8  -9   1   27.25    1.78
   9  -9   1   75.57    2.70
  10  -9   1   26.50    2.60
  11  -9   1    1.77    0.75
  12  -9   1    1.05    0.71
  13  -9   1    1.26    0.82
  14  -9   1    8.57    1.58
  15  -9   1    6.57    1.50
 -16  -8   1   11.39    2.87
 -15  -8   1    6.65    1.28
 -14  -8   1    2.70    0.89
 -13  -8   1    1.24    0.64
 -12  -8   1    4.11    0.94
 -11  -8   1   12.66    1.50
 -10  -8   1    3.08    0.77
  -9  -8   1   18.42    1.73
  -8  -8   1   34.90    1.93
  -7  -8   1   22.64    1.41
  -6  -8   1    0.16    0.22
  -5  -8   1   29.96    1.61
  -4  -8   1   26.60    1.61
  -3  -8   1   38.66    1.30
  -2  -8   1   77.03    2.06
  -1  -8   1   26.82    1.19
   0  -8   1   17.56    1.15
   1  -8   1   26.93    0.97
   2  -8   1   75.20    2.08
   3  -8   1   41.17    1.54
   4  -8   1   26.50    1.37
   5  -8   1   32.08    1.57
   6  -8   1    0.39    0.32
   7  -8   1   22.65    1.58
   8  -8   1   37.11    1.81
   9  -8   1   21.58    1.61
  10  -8   1    2.00    0.76
  11  -8   1   11.94    1.68
  12  -8   1    4.86    1.00
  13  -8   1    0.60    0.66
  14  -8   1    2.26    0.91
  15  -8   1    5.91    1.33
  16  -8   1   13.49    2.89
 -16  -7   1    3.43    1.41
 -15  -7   1    7.73    1.40
 -14  -7   1    0.20    0.47
 -13  -7   1   70.67    3.36
 -12  -7   1    0.06    0.39
 -11  -7   1    4.68    0.94
 -10  -7   1    1.42    0.52
  -9  -7   1    1.09    0.44
  -8  -7   1   15.62    1.49
  -7  -7   1   16.88    1.18
  -6  -7   1   21.36    1.20
  -5  -7   1  238.19    4.73
  -4  -7   1    7.11    0.45
  -3  -7   1   22.29    0.91
  -2  -7   1   12.70    0.76
  -1  -7   1    5.83    0.60
   0  -7   1   -0.02    0.14
   1  -7   1    6.83    0.48
   2  -7   1   12.80    0.78
   3  -7   1   20.77    1.14
   4  -7   1    6.37    0.52
   5  -7   1  245.96    4.11
   6  -7   1   20.18    1.05
   7  -7   1   14.79    1.24
   8  -7   1   18.82    1.43
   9  -7   1    1.59    0.48
  10  -7   1    0.72    0.57
  11  -7   1    5.98    1.16
  12  -7   1    0.30    0.53
  13  -7   1   73.08    3.71
  14  -7   1    0.31    0.55
  15  -7   1    6.97    1.43
  16  -7   1    2.54    1.13
 -16  -6   1    7.69    1.44
 -15  -6   1   -0.17    0.51
 -14  -6   1    0.20    0.45
 -13  -6   1   40.98    2.65
 -12  -6   1   12.49    1.58
 -11  -6   1   76.52    3.16
 -10  -6   1   18.81    1.74
  -9  -6   1    1.75    0.54
  -8  -6   1   38.34    1.95
  -7  -6   1   17.54    1.03
  -6  -6   1    4.00    0.52
  -5  -6   1   12.73    0.94
  -4  -6   1    0.02    0.10
  -3  -6   1    6.62    0.45
  -2  -6   1    1.87    0.32
  -1  -6   1  239.78    4.40
   0  -6   1  123.86    2.63
   1  -6   1  242.76    4.32
   2  -6   1    1.14    0.28
   3  -6   1    7.03    0.41
   4  -6   1    0.41    0.17
   5  -6   1   11.37    0.67
   6  -6   1    4.19    0.48
   7  -6   1   15.90    0.91
   8  -6   1   43.63    1.44
   9  -6   1    1.29    0.35
  10  -6   1   21.78    2.13
  11  -6   1   69.66    3.37
  12  -6   1    9.10    1.44
  13  -6   1   50.90    2.96
  14  -6   1    0.45    0.54
  15  -6   1   -0.06    0.60
  16  -6   1    5.15    1.96
 -16  -5   1    0.30    0.65
 -15  -5   1    0.43    0.58
 -14  -5   1   16.55    1.90
 -13  -5   1    0.48    0.43
 -12  -5   1    1.98    0.67
 -11  -5   1   17.26    1.68
 -10  -5   1   65.71    2.75
  -9  -5   1    5.53    0.88
  -8  -5   1   11.65    1.22
  -7  -5   1   97.56    2.35
  -6  -5   1   38.50    1.30
  -5  -5   1    1.44    0.29
  -4  -5   1    3.48    0.28
  -3  -5   1  107.59    1.92
  -2  -5   1  155.04    2.93
  -1  -5   1    8.79    0.63
   0  -5   1    0.11    0.08
   1  -5   1    7.51    0.51
   2  -5   1  154.62    3.06
   3  -5   1  108.34    1.94
   4  -5   1    3.24    0.36
   5  -5   1    1.94    0.29
   6  -5   1   35.55    1.15
   7  -5   1   97.59    2.18
   8  -5   1   12.53    0.87
   9  -5   1    6.06    0.63
  10  -5   1   64.50    2.32
  11  -5   1   17.08    1.43
  12  -5   1    3.98    0.95
  13  -5   1   -0.05    0.39
  14  -5   1   12.70    1.74
  15  -5   1    1.60    0.95
  16  -5   1   -0.37    0.98
 -17  -4   1    0.61    0.96
 -16  -4   1   13.85    1.86
 -15  -4   1    0.91    0.64
 -14  -4   1   55.91    2.98
 -13  -4   1    0.31    0.40
 -12  -4   1    5.17    0.93
 -11  -4   1    8.35    1.21
 -10  -4   1    7.04    1.02
  -9  -4   1    3.58    0.72
  -8  -4   1   22.63    1.49
  -7  -4   1   20.05    0.91
  -6  -4   1   25.52    0.98
  -5  -4   1    1.14    0.26
  -4  -4   1  266.26    3.85
  -3  -4   1   13.86    0.57
  -2  -4   1   34.16    0.86
  -1  -4   1   27.43    0.65
   0  -4   1   23.83    0.62
   1  -4   1   30.03    0.89
   2  -4   1   34.11    1.07
   3  -4   1   13.31    0.50
   4  -4   1  269.82    4.04
   5  -4   1    0.89    0.21
   6  -4   1   27.08    0.94
   7  -4   1   17.24    0.83
   8  -4   1   26.69    1.09
   9  -4   1    5.05    0.57
  10  -4   1    8.05    0.94
  11  -4   1    7.38    0.92
  12  -4   1    3.13    0.67
  13  -4   1    0.11    0.40
  14  -4   1   62.64    3.23
  15  -4   1   -0.04    0.69
  16  -4   1   13.25    2.76
 -17  -3   1   30.47    2.88
 -16  -3   1    2.08    0.83
 -15  -3   1    5.08    1.14
 -14  -3   1    2.89    0.82
 -13  -3   1    0.11    0.39
 -12  -3   1    0.40    0.30
 -11  -3   1   13.78    1.24
 -10  -3   1   38.28    1.69
  -9  -3   1   39.85    1.63
  -8  -3   1   50.10    1.78
  -7  -3   1  198.01    3.32
  -6  -3   1    6.21    0.47
  -5  -3   1   92.38    1.82
  -4  -3   1   42.13    1.05
  -3  -3   1   14.17    0.48
  -2  -3   1  166.28    2.90
  -1  -3   1  284.13    3.85
   0  -3   1    0.07    0.08
   1  -3   1  282.50    4.57
   2  -3   1  169.99    3.07
   3  -3   1   14.68    0.57
   4  -3   1   40.68    1.03
   5  -3   1   93.42    1.88
   6  -3   1    5.83    0.51
   7  -3   1  198.81    3.47
   8  -3   1   51.34    1.45
   9  -3   1   36.94    1.42
  10  -3   1   39.54    1.73
  11  -3   1   13.82    1.29
  12  -3   1    0.68    0.39
  13  -3   1    0.77    0.44
  14  -3   1    3.99    0.96
  15  -3   1    6.06    1.92
  16  -3   1    4.39    1.51
  17  -3   1   32.72    5.17
 -17  -2   1    0.27    0.65
 -16  -2   1    0.46    0.57
 -15  -2   1    2.37    0.83
 -14  -2   1    0.88    0.41
 -13  -2   1   11.65    1.25
 -12  -2   1   32.32    1.89
 -11  -2   1   80.56    2.67
 -10  -2   1    5.78    0.75
  -9  -2   1    1.57    0.42
  -8  -2   1    0.24    0.23
  -7  -2   1   55.05    1.74
  -6  -2   1    1.73    0.22
  -5  -2   1    1.17    0.19
  -4  -2   1   39.77    0.97
  -3  -2   1   19.61    0.51
  -2  -2   1   66.90    1.10
  -1  -2   1  259.93    2.91
   0  -2   1    2.90    0.19
   1  -2   1  259.19    4.22
   2  -2   1   70.20    1.38
   3  -2   1   18.29    0.57
   4  -2   1   40.99    1.01
   5  -2   1    1.46    0.25
   6  -2   1    1.48    0.26
   7  -2   1   54.72    1.41
   8  -2   1    0.01    0.16
   9  -2   1    1.88    0.45
  10  -2   1    7.42    0.87
  11  -2   1   85.46    2.72
  12  -2   1   30.98    1.79
  13  -2   1   12.73    1.26
  14  -2   1    0.06    0.53
  15  -2   1    1.23    0.73
  16  -2   1    0.75    0.69
  17  -2   1    0.75    1.11
 -17  -1   1   -0.14    0.67
 -16  -1   1    3.32    0.82
 -15  -1   1    4.05    0.80
 -14  -1   1   21.78    1.75
 -13  -1   1   30.47    2.03
 -12  -1   1    4.84    0.77
 -11  -1   1   15.66    1.33
 -10  -1   1   83.00    2.54
  -9  -1   1    4.89    0.65
  -8  -1   1   49.30    1.71
  -7  -1   1    0.36    0.20
  -6  -1   1    0.63    0.23
  -5  -1   1  257.02    3.82
  -4  -1   1   38.53    0.90
  -3  -1   1   89.25    1.27
  -2  -1   1   63.46    0.88
  -1  -1   1    3.67    0.20
   0  -1   1   -0.01    0.06
   1  -1   1    3.33    0.24
   2  -1   1   65.52    1.17
   3  -1   1   90.41    1.81
   4  -1   1   35.77    0.92
   5  -1   1  263.75    3.93
   6  -1   1    0.40    0.16
   7  -1   1    0.35    0.17
   8  -1   1   50.29    1.36
   9  -1   1    5.45    0.68
  10  -1   1   79.65    2.46
  11  -1   1   15.99    1.09
  12  -1   1    4.25    0.71
  13  -1   1   31.40    2.58
  14  -1   1   21.33    2.22
  15  -1   1    5.83    1.26
  16  -1   1    2.22    1.00
  17  -1   1   -0.46    0.65
 -17   0   1   -0.27    0.49
 -16   0   1   66.28    3.45
 -15   0   1    0.09    0.40
 -14   0   1   23.06    1.83
 -13   0   1   -0.05    0.26
 -12   0   1   -0.03    0.29
 -11   0   1    0.08    0.22
 -10   0   1    3.85    0.62
  -9   0   1    0.22    0.21
  -8   0   1  243.31    4.97
  -7   0   1    0.11    0.17
  -6   0   1   41.45    1.38
  -5   0   1    0.17    0.13
  -4   0   1  222.56    3.49
  -3   0   1   -0.12    0.06
  -2   0   1  229.88    2.49
  -1   0   1    0.06    0.06
   0   0   1    8.66    0.27
   1   0   1    0.08    0.08
   2   0   1  241.72    3.82
   3   0   1    0.05    0.08
   4   0   1  236.50    3.03
   5   0   1   -0.04    0.08
   6   0   1   44.93    1.00
   7   0   1   -0.02    0.11
   8   0   1  261.28    4.25
   9   0   1    0.09    0.17
  10   0   1    4.61    0.55
  11   0   1   -0.04    0.21
  12   0   1    0.73    0.49
  13   0   1   -0.12    0.34
  14   0   1   26.35    2.48
  15   0   1    0.30    0.53
  16   0   1   70.52    3.72
  17   0   1   -0.40    0.64
 -17   1   1    0.76    0.58
 -16   1   1    2.27    0.70
 -15   1   1    5.52    0.94
 -14   1   1   20.35    1.70
 -13   1   1   33.87    2.11
 -12   1   1    4.50    0.76
 -11   1   1   14.21    1.25
 -10   1   1   77.20    2.43
  -9   1   1    5.23    0.69
  -8   1   1   45.00    1.63
  -7   1   1   -0.03    0.16
  -6   1   1    0.58    0.19
  -5   1   1  254.30    4.00
  -4   1   1   37.22    0.97
  -3   1   1   88.51    1.60
  -2   1   1   63.79    0.97
  -1   1   1    3.73    0.20
   0   1   1    0.03    0.06
   1   1   1    3.53    0.22
   2   1   1   63.92    1.03
   3   1   1   90.55    1.39
   4   1   1   37.39    0.80
   5   1   1  260.89    4.42
   6   1   1    0.57    0.17
   7   1   1    0.49    0.18
   8   1   1   48.97    1.39
   9   1   1    6.11    0.58
  10   1   1   80.43    2.05
  11   1   1   16.32    1.32
  12   1   1    5.08    0.91
  13   1   1   27.85    2.46
  14   1   1   24.01    2.39
  15   1   1    3.79    1.06
  16   1   1    3.21    0.99
  17   1   1    0.60    0.86
 -17   2   1   -0.18    0.52
 -16   2   1    0.66    0.51
 -15   2   1    1.25    0.52
 -14   2   1   -0.20    0.33
 -13   2   1   11.27    1.23
 -12   2   1   32.44    1.85
 -11   2   1   81.69    2.67
 -10   2   1    6.60    0.80
  -9   2   1    1.81    0.44
  -8   2   1    0.16    0.21
  -7   2   1   52.51    1.48
  -6   2   1    1.28    0.24
  -5   2   1    1.12    0.23
  -4   2   1   38.57    1.14
  -3   2   1   18.12    0.53
  -2   2   1   70.04    1.12
  -1   2   1  259.81    2.93
   0   2   1    2.74    0.19
   1   2   1  257.88    3.64
   2   2   1   68.33    1.27
   3   2   1   19.01    0.59
   4   2   1   40.30    0.98
   5   2   1    1.35    0.22
   6   2   1    1.55    0.25
   7   2   1   53.83    1.40
   8   2   1    0.05    0.15
   9   2   1    1.82    0.34
  10   2   1    6.26    0.62
  11   2   1   85.65    2.69
  12   2   1   32.70    1.82
  13   2   1   13.48    1.72
  14   2   1    0.91    0.69
  15   2   1    2.95    1.00
  16   2   1    0.72    0.71
  17   2   1    0.21    0.73
 -17   3   1   30.36    3.19
 -16   3   1    2.76    0.79
 -15   3   1    6.73    1.07
 -14   3   1    3.65    0.77
 -13   3   1    0.38    0.40
 -12   3   1    1.18    0.40
 -11   3   1   14.38    1.25
 -10   3   1   36.70    1.62
  -9   3   1   39.97    1.61
  -8   3   1   50.42    1.50
  -7   3   1  199.09    3.54
  -6   3   1    5.64    0.50
  -5   3   1   92.38    1.88
  -4   3   1   40.13    1.02
  -3   3   1   14.72    0.47
  -2   3   1  165.88    2.25
  -1   3   1  277.38    3.96
   0   3   1    0.08    0.08
   1   3   1  276.57    3.47
   2   3   1  167.73    2.60
   3   3   1   14.15    0.53
   4   3   1   42.47    1.03
   5   3   1   95.63    1.84
   6   3   1    5.95    0.50
   7   3   1  205.20    3.44
   8   3   1   52.04    1.43
   9   3   1   39.51    1.28
  10   3   1   39.76    1.70
  11   3   1   13.80    1.27
  12   3   1    1.86    0.54
  13   3   1   -0.01    0.40
  14   3   1    2.88    0.79
  15   3   1    7.67    1.40
  16   3   1    1.71    0.90
  17   3   1   30.04    2.95
 -17   4   1   -0.39    1.10
 -16   4   1   13.68    1.98
 -15   4   1    0.66    0.48
 -14   4   1   60.62    2.52
 -13   4   1    0.54    0.43
 -12   4   1    2.03    0.56
 -11   4   1    8.98    1.02
 -10   4   1    7.42    0.88
  -9   4   1    5.53    0.60
  -8   4   1   27.53    1.12
  -7   4   1   18.67    0.95
  -6   4   1   26.33    0.94
  -5   4   1    0.98    0.23
  -4   4   1  261.29    4.01
  -3   4   1   14.00    0.48
  -2   4   1   33.93    0.92
  -1   4   1   27.76    0.77
   0   4   1   23.75    0.67
   1   4   1   28.00    0.65
   2   4   1   33.72    0.89
   3   4   1   13.92    0.56
   4   4   1  270.37    4.02
   5   4   1    1.10    0.23
   6   4   1   25.73    0.88
   7   4   1   18.76    0.83
   8   4   1   26.52    0.98
   9   4   1    5.89    0.77
  10   4   1    8.02    0.92
  11   4   1    7.94    0.97
  12   4   1    3.19    0.64
  13   4   1    0.15    0.43
  14   4   1   54.64    3.08
  15   4   1    0.20    0.64
  16   4   1   11.58    1.73
  17   4   1    0.65    0.79
 -17   5   1   23.06    3.92
 -16   5   1    1.73    0.85
 -15   5   1    0.26    0.54
 -14   5   1   13.17    1.79
 -13   5   1   -0.03    0.35
 -12   5   1    2.86    0.68
 -11   5   1   19.34    1.51
 -10   5   1   61.07    1.89
  -9   5   1    6.21    0.65
  -8   5   1   10.83    0.82
  -7   5   1   92.58    2.13
  -6   5   1   37.25    1.16
  -5   5   1    2.25    0.31
  -4   5   1    3.32    0.35
  -3   5   1  110.64    1.75
  -2   5   1  154.11    2.63
  -1   5   1    7.36    0.48
   0   5   1   -0.05    0.09
   1   5   1    7.68    0.42
   2   5   1  153.20    3.67
   3   5   1  106.48    2.01
   4   5   1    3.20    0.35
   5   5   1    2.14    0.30
   6   5   1   36.84    1.10
   7   5   1   96.22    2.05
   8   5   1   11.61    1.01
   9   5   1    6.87    0.83
  10   5   1   64.07    2.28
  11   5   1   16.80    1.39
  12   5   1    1.56    0.50
  13   5   1   -0.25    0.41
  14   5   1   17.72    2.07
  15   5   1    0.65    0.60
  16   5   1    1.19    0.79
  17   5   1   27.02    4.02
 -16   6   1    7.02    1.47
 -15   6   1   -0.28    0.51
 -14   6   1   -0.05    0.48
 -13   6   1   46.09    3.04
 -12   6   1    7.72    1.31
 -11   6   1   71.93    2.61
 -10   6   1   21.51    1.30
  -9   6   1    1.65    0.38
  -8   6   1   40.61    1.39
  -7   6   1   16.39    0.97
  -6   6   1    4.14    0.46
  -5   6   1   11.35    0.70
  -4   6   1    0.49    0.16
  -3   6   1    6.43    0.36
  -2   6   1    1.74    0.18
  -1   6   1  246.00    3.23
   0   6   1  117.95    2.16
   1   6   1  241.53    3.72
   2   6   1    1.37    0.29
   3   6   1    5.83    0.57
   4   6   1    0.14    0.16
   5   6   1   11.81    0.67
   6   6   1    4.68    0.47
   7   6   1   15.62    1.14
   8   6   1   44.74    1.71
   9   6   1    2.14    0.49
  10   6   1   22.18    1.55
  11   6   1   71.65    2.56
  12   6   1    9.84    1.13
  13   6   1   49.16    2.81
  14   6   1    0.20    0.49
  15   6   1   -0.19    0.58
  16   6   1    8.07    1.54
 -16   7   1    1.68    1.37
 -15   7   1    6.22    1.37
 -14   7   1    0.44    0.55
 -13   7   1   74.64    3.71
 -12   7   1    0.62    0.53
 -11   7   1    4.67    0.78
 -10   7   1    1.53    0.50
  -9   7   1    1.84    0.47
  -8   7   1   15.74    1.24
  -7   7   1   16.94    0.92
  -6   7   1   21.04    0.93
  -5   7   1  240.44    3.97
  -4   7   1    7.07    0.52
  -3   7   1   21.68    0.66
  -2   7   1   12.59    0.49
  -1   7   1    6.65    0.34
   0   7   1    0.02    0.12
   1   7   1    6.55    0.51
   2   7   1   13.98    0.93
   3   7   1   20.94    0.96
   4   7   1    5.98    0.61
   5   7   1  235.33    4.70
   6   7   1   19.93    1.19
   7   7   1   17.15    1.22
   8   7   1   19.30    1.38
   9   7   1    1.26    0.43
  10   7   1    0.96    0.40
  11   7   1    5.84    0.86
  12   7   1    0.32    0.33
  13   7   1   76.04    3.31
  14   7   1    0.37    0.60
  15   7   1    3.46    1.41
  16   7   1    1.22    1.52
 -16   8   1    9.12    2.59
 -15   8   1    7.75    1.58
 -14   8   1    3.05    1.00
 -13   8   1    1.82    0.78
 -12   8   1    2.89    0.78
 -11   8   1   11.67    1.26
 -10   8   1    3.30    0.65
  -9   8   1   21.10    1.57
  -8   8   1   35.04    1.64
  -7   8   1   19.28    1.36
  -6   8   1    0.07    0.21
  -5   8   1   28.60    1.31
  -4   8   1   23.99    1.14
  -3   8   1   38.58    1.42
  -2   8   1   80.43    1.47
  -1   8   1   27.09    0.73
   0   8   1   18.76    0.79
   1   8   1   26.24    0.91
   2   8   1   77.86    2.09
   3   8   1   39.34    1.40
   4   8   1   29.02    1.21
   5   8   1   27.89    1.25
   6   8   1    0.01    0.19
   7   8   1   20.49    1.26
   8   8   1   35.98    1.59
   9   8   1   20.62    1.48
  10   8   1    3.53    0.66
  11   8   1   13.57    1.32
  12   8   1    6.57    1.23
  13   8   1    0.34    0.60
  14   8   1    2.05    1.24
  15   8   1    7.02    1.97
 -15   9   1    9.87    1.81
 -14   9   1    8.16    1.44
 -13   9   1    0.97    0.66
 -12   9   1    0.12    0.48
 -11   9   1    1.05    0.47
 -10   9   1   26.74    1.85
  -9   9   1   73.93    2.64
  -8   9   1   22.21    1.59
  -7   9   1    6.31    0.82
  -6   9   1   20.95    1.43
  -5   9   1   68.63    2.23
  -4   9   1    0.19    0.20
  -3   9   1    0.16    0.20
  -2   9   1  128.04    2.64
  -1   9   1   44.73    1.33
   0   9   1    0.08    0.12
   1   9   1   47.57    1.33
   2   9   1  133.15    2.59
   3   9   1   -0.10    0.18
   4   9   1   -0.03    0.20
   5   9   1   73.10    2.22
   6   9   1   20.51    1.25
   7   9   1    5.29    0.72
   8   9   1   25.04    1.50
   9   9   1   81.86    3.43
  10   9   1   27.52    2.43
  11   9   1    1.17    0.61
  12   9   1    0.17    0.48
  13   9   1    0.43    0.59
  14   9   1    8.17    2.34
  15   9   1   10.97    2.85
 -15  10   1    2.08    1.42
 -14  10   1    8.65    1.70
 -13  10   1   10.04    1.64
 -12  10   1   11.35    1.73
 -11  10   1   45.00    2.17
 -10  10   1    0.78    0.43
  -9  10   1    3.23    0.67
  -8  10   1    4.15    0.73
  -7  10   1    1.04    0.37
  -6  10   1   21.94    1.52
  -5  10   1    2.78    0.49
  -4  10   1   76.16    2.35
  -3  10   1   16.01    1.19
  -2  10   1    0.14    0.18
  -1  10   1   64.16    1.71
   0  10   1   24.94    1.02
   1  10   1   59.59    1.62
   2  10   1    0.07    0.16
   3  10   1   16.91    1.05
   4  10   1   73.71    2.25
   5  10   1    3.80    0.82
   6  10   1   25.11    2.08
   7  10   1    0.58    0.46
   8  10   1    3.64    0.87
   9  10   1    1.70    0.64
  10  10   1    1.93    0.74
  11  10   1   42.41    3.20
  12  10   1   11.44    1.68
  13  10   1   11.40    1.79
  14  10   1    5.83    1.72
 -14  11   1   -0.47    0.80
 -13  11   1    1.98    0.89
 -12  11   1    0.05    0.56
 -11  11   1    0.20    0.44
 -10  11   1    0.34    0.51
  -9  11   1   27.39    1.92
  -8  11   1    1.05    0.44
  -7  11   1   83.24    2.74
  -6  11   1   36.44    1.72
  -5  11   1    8.17    0.91
  -4  11   1   11.16    1.06
  -3  11   1    0.65    0.33
  -2  11   1   16.54    1.24
  -1  11   1   49.30    1.55
   0  11   1    0.10    0.18
   1  11   1   54.49    1.69
   2  11   1   20.75    1.25
   3  11   1    0.66    0.30
   4  11   1   12.76    1.48
   5  11   1    6.67    1.08
   6  11   1   36.21    2.39
   7  11   1   82.98    3.53
   8  11   1    1.17    0.62
   9  11   1   24.22    2.35
  10  11   1    0.32    0.53
  11  11   1    0.57    0.54
  12  11   1   -0.03    0.57
  13  11   1    2.42    1.06
 -13  12   1    0.12    0.66
 -12  12   1    0.31    0.65
 -11  12   1    7.96    1.44
 -10  12   1   20.06    2.32
  -9  12   1   11.07    1.66
  -8  12   1    1.36    0.66
  -7  12   1   20.55    1.62
  -6  12   1    0.13    0.33
  -5  12   1   19.30    1.48
  -4  12   1   39.34    1.75
  -3  12   1   24.68    1.64
  -2  12   1    4.31    0.68
  -1  12   1    0.39    0.30
   0  12   1   27.47    1.44
   1  12   1    0.57    0.31
   2  12   1    3.94    0.61
   3  12   1   28.96    1.59
   4  12   1   40.09    2.28
   5  12   1   19.48    1.93
   6  12   1    0.30    0.44
   7  12   1   24.59    2.32
   8  12   1    2.11    0.72
   9  12   1   14.28    1.87
  10  12   1   17.66    2.08
  11  12   1    6.73    1.39
  12  12   1    0.32    0.59
  13  12   1   -0.04    0.74
 -12  13   1    2.18    1.00
 -11  13   1   26.84    2.72
 -10  13   1   27.27    2.72
  -9  13   1   11.42    1.73
  -8  13   1   19.59    2.19
  -7  13   1   10.79    1.61
  -6  13   1   -0.07    0.39
  -5  13   1    0.50    0.37
  -4  13   1    3.25    0.66
  -3  13   1   73.47    2.54
  -2  13   1   22.33    1.60
  -1  13   1    0.08    0.26
   0  13   1    0.08    0.25
   1  13   1   -0.01    0.24
   2  13   1   16.78    1.70
   3  13   1   73.48    3.29
   4  13   1    2.81    0.73
   5  13   1    0.50    0.46
   6  13   1    0.28    0.47
   7  13   1   11.35    1.65
   8  13   1   20.01    2.20
   9  13   1   10.04    1.60
  10  13   1   23.43    2.47
  11  13   1   26.15    2.72
  12  13   1    3.16    1.16
 -11  14   1    0.34    0.69
 -10  14   1    3.59    1.13
  -9  14   1    6.53    1.43
  -8  14   1   33.18    2.88
  -7  14   1    0.29    0.45
  -6  14   1    0.25    0.44
  -5  14   1    2.19    0.78
  -4  14   1   24.49    2.30
  -3  14   1    1.98    0.55
  -2  14   1    2.87    0.63
  -1  14   1   10.99    1.15
   0  14   1   69.04    2.51
   1  14   1   11.32    1.50
   2  14   1    2.06    0.73
   3  14   1    2.52    0.76
   4  14   1   25.38    2.39
   5  14   1    1.54    0.65
   6  14   1    0.25    0.46
   7  14   1   -0.12    0.45
   8  14   1   36.03    3.09
   9  14   1    6.81    1.42
  10  14   1    3.84    1.14
  11  14   1    0.45    0.71
 -10  15   1   -0.15    0.68
  -9  15   1   -0.32    0.61
  -8  15   1    0.35    0.63
  -7  15   1    0.09    0.56
  -6  15   1   43.71    3.42
  -5  15   1   39.46    3.07
  -4  15   1   24.80    2.43
  -3  15   1   11.03    1.55
  -2  15   1    4.94    1.09
  -1  15   1    0.35    0.47
   0  15   1    0.09    0.42
   1  15   1    0.24    0.47
   2  15   1    3.87    0.97
   3  15   1   11.10    1.60
   4  15   1   20.93    2.23
   5  15   1   38.72    3.15
   6  15   1   41.03    2.87
   7  15   1    0.60    0.61
   8  15   1    0.17    0.71
   9  15   1    0.24    0.68
  10  15   1    0.32    0.70
  -9  16   1    0.49    0.83
  -8  16   1    0.82    0.78
  -7  16   1   13.64    1.86
  -6  16   1    2.77    1.05
  -5  16   1    2.84    0.97
  -4  16   1    0.76    0.57
  -3  16   1   21.50    3.47
  -2  16   1   22.33    3.48
  -1  16   1    3.76    1.52
   0  16   1   49.36    4.46
   1  16   1    7.07    2.12
   2  16   1   23.22    2.29
   3  16   1   16.38    2.02
   4  16   1    1.02    0.70
   5  16   1    2.05    0.86
   6  16   1    3.57    1.08
   7  16   1   10.61    1.67
   8  16   1   -0.18    0.69
   9  16   1    2.56    1.05
  -7  17   1    3.45    1.36
  -6  17   1    0.11    0.94
  -5  17   1   -0.78    0.83
  -4  17   1    4.53    1.80
  -3  17   1    4.28    1.67
  -2  17   1    3.05    1.47
  -1  17   1   35.22    4.70
   0  17   1    1.27    1.12
   1  17   1   31.76    4.40
   2  17   1    5.12    1.95
   3  17   1    4.63    1.94
   4  17   1    6.10    2.12
   5  17   1   -0.02    0.65
   6  17   1    0.07    0.67
   7  17   1    3.60    1.22
  -4  18   1    7.20    3.18
  -3  18   1    6.78    2.26
  -2  18   1    2.07    1.36
  -1  18   1   -0.07    0.98
   0  18   1    4.51    1.97
   1  18   1    2.24    1.46
   2  18   1    3.52    1.68
   3  18   1    9.34    2.71
   4  18   1    2.67    1.83
  -6 -17   2   10.49    2.86
  -5 -17   2    9.58    1.62
  -4 -17   2    4.08    1.28
  -3 -17   2    2.20    1.55
  -2 -17   2    3.06    1.81
  -1 -17   2    9.53    2.77
   0 -17   2    0.51    1.23
   1 -17   2    9.55    2.59
   2 -17   2    1.28    1.34
   3 -17   2   -0.26    1.06
   4 -17   2    2.27    1.40
   5 -17   2   17.61    3.48
   6 -17   2   15.54    3.76
  -7 -16   2   10.08    2.38
  -6 -16   2   -0.36    0.69
  -5 -16   2    3.40    1.05
  -4 -16   2   29.11    2.72
  -3 -16   2    1.78    0.80
  -2 -16   2    0.25    1.09
  -1 -16   2    8.35    2.46
   0 -16   2   19.99    3.55
   1 -16   2    9.62    2.53
   2 -16   2    0.54    1.14
   3 -16   2    2.39    1.40
   4 -16   2   24.50    2.68
   5 -16   2    1.21    0.79
   6 -16   2    0.84    0.77
   7 -16   2    6.65    1.49
   8 -16   2    0.63    1.14
  -9 -15   2    3.07    1.41
  -8 -15   2   18.46    3.05
  -7 -15   2    0.28    0.95
  -6 -15   2   -0.20    0.61
  -5 -15   2    1.83    0.85
  -4 -15   2    6.26    1.34
  -3 -15   2    9.34    1.53
  -2 -15   2   18.06    3.43
  -1 -15   2    0.17    1.11
   0 -15   2   -0.09    0.90
   1 -15   2    0.02    0.98
   2 -15   2   17.80    3.22
   3 -15   2   10.90    1.73
   4 -15   2    3.14    1.02
   5 -15   2    1.33    0.81
   6 -15   2   -0.27    0.54
   7 -15   2    0.09    0.62
   8 -15   2   15.19    2.17
   9 -15   2    1.96    1.40
 -10 -14   2    1.66    1.11
  -9 -14   2    3.25    1.43
  -8 -14   2   41.46    4.38
  -7 -14   2   -0.19    0.67
  -6 -14   2    1.90    0.79
  -5 -14   2    1.03    0.73
  -4 -14   2    9.60    1.53
  -3 -14   2   -0.09    0.45
  -2 -14   2    5.95    1.19
  -1 -14   2    7.77    2.33
   0 -14   2   66.16    5.39
   1 -14   2   20.09    3.61
   2 -14   2    4.11    1.03
   3 -14   2    0.00    0.52
   4 -14   2    9.92    1.64
   5 -14   2    2.30    0.92
   6 -14   2    2.48    0.86
   7 -14   2   -0.07    0.56
   8 -14   2   40.66    3.44
   9 -14   2    2.73    1.04
  10 -14   2    6.76    2.79
 -11 -13   2    0.30    0.92
 -10 -13   2   -0.27    0.83
  -9 -13   2    0.22    0.73
  -8 -13   2    0.75    0.81
  -7 -13   2    8.69    1.88
  -6 -13   2   37.74    2.85
  -5 -13   2   81.71    3.58
  -4 -13   2   10.74    1.56
  -3 -13   2    0.95    0.54
  -2 -13   2    1.29    0.56
  -1 -13   2    1.00    0.97
   0 -13   2   -0.08    0.83
   1 -13   2    2.42    0.85
   2 -13   2    1.45    0.73
   3 -13   2    1.02    0.69
   4 -13   2   12.70    1.75
   5 -13   2   79.99    3.92
   6 -13   2   28.71    2.73
   7 -13   2    9.90    1.67
   8 -13   2    1.32    0.83
   9 -13   2    0.85    0.70
  10 -13   2    0.59    1.34
  11 -13   2   -0.13    1.16
 -11 -12   2   21.03    3.18
 -10 -12   2    0.49    0.80
  -9 -12   2    0.28    0.71
  -8 -12   2    7.08    1.71
  -7 -12   2   24.28    2.52
  -6 -12   2   10.85    1.49
  -5 -12   2    1.60    0.69
  -4 -12   2    6.40    1.14
  -3 -12   2   14.82    1.74
  -2 -12   2   51.21    2.85
  -1 -12   2   43.73    2.62
   0 -12   2   19.25    1.89
   1 -12   2   40.41    2.56
   2 -12   2   41.87    2.76
   3 -12   2   10.12    1.56
   4 -12   2    6.15    1.24
   5 -12   2    2.79    0.87
   6 -12   2   10.97    1.68
   7 -12   2   21.20    2.34
   8 -12   2    5.06    1.21
   9 -12   2   -0.49    0.48
  10 -12   2    0.05    0.93
  11 -12   2   23.60    3.90
  12 -12   2   20.37    3.66
 -13 -11   2    0.89    1.06
 -12 -11   2   -0.45    0.52
 -11 -11   2    0.11    0.75
 -10 -11   2   19.90    2.88
  -9 -11   2   35.78    3.84
  -8 -11   2   -0.01    0.54
  -7 -11   2    3.03    0.80
  -6 -11   2    1.55    0.62
  -5 -11   2    3.05    0.80
  -4 -11   2    8.33    1.20
  -3 -11   2   12.51    1.47
  -2 -11   2   16.65    1.69
  -1 -11   2   63.01    2.20
   0 -11   2   -0.06    0.34
   1 -11   2   62.53    2.90
   2 -11   2   22.04    2.06
   3 -11   2   17.50    1.93
   4 -11   2    8.15    1.35
   5 -11   2    0.95    0.57
   6 -11   2    1.09    0.59
   7 -11   2    3.19    0.89
   8 -11   2    0.06    0.52
   9 -11   2   43.88    2.89
  10 -11   2   20.41    3.56
  11 -11   2    1.30    1.26
  12 -11   2   -0.92    0.72
  13 -11   2    0.07    1.66
 -13 -10   2   16.40    2.10
 -12 -10   2   44.23    3.41
 -11 -10   2    2.39    0.85
 -10 -10   2   -0.24    0.36
  -9 -10   2    4.02    0.94
  -8 -10   2    4.90    1.34
  -7 -10   2    6.97    1.11
  -6 -10   2   11.75    1.37
  -5 -10   2    5.14    0.94
  -4 -10   2   58.40    2.65
  -3 -10   2   46.06    2.33
  -2 -10   2   11.50    1.31
  -1 -10   2   25.18    1.43
   0 -10   2   -0.18    0.27
   1 -10   2   25.89    2.04
   2 -10   2   15.59    1.66
   3 -10   2   50.35    2.60
   4 -10   2   52.90    2.76
   5 -10   2    3.32    0.85
   6 -10   2   12.42    1.61
   7 -10   2    5.67    1.13
   8 -10   2    3.37    0.87
   9 -10   2    2.79    0.86
  10 -10   2    0.47    0.75
  11 -10   2    1.38    0.84
  12 -10   2   37.86    3.36
  13 -10   2   12.45    1.99
  14 -10   2   19.36    3.79
 -14  -9   2   14.14    2.73
 -13  -9   2   -0.30    0.48
 -12  -9   2    1.92    0.74
 -11  -9   2    8.46    1.40
 -10  -9   2   17.76    1.88
  -9  -9   2    0.18    0.39
  -8  -9   2    1.85    0.62
  -7  -9   2   42.87    1.81
  -6  -9   2   81.61    3.12
  -5  -9   2   18.71    1.61
  -4  -9   2    1.27    0.51
  -3  -9   2   37.22    1.99
  -2  -9   2   26.07    1.38
  -1  -9   2    1.91    0.42
   0  -9   2   -0.06    0.23
   1  -9   2    0.95    0.46
   2  -9   2   19.82    1.76
   3  -9   2   40.84    2.22
   4  -9   2    1.09    0.49
   5  -9   2   15.31    1.67
   6  -9   2   87.69    2.79
   7  -9   2   40.80    1.98
   8  -9   2    1.33    0.51
   9  -9   2    0.30    0.38
  10  -9   2   20.24    2.36
  11  -9   2   11.84    1.81
  12  -9   2    3.77    1.15
  13  -9   2    0.80    0.77
  14  -9   2   13.98    2.12
 -14  -8   2    4.30    1.12
 -13  -8   2    1.72    0.70
 -12  -8   2    9.79    1.49
 -11  -8   2   12.75    1.66
 -10  -8   2   30.50    2.56
  -9  -8   2    3.91    0.87
  -8  -8   2   36.90    2.13
  -7  -8   2   19.19    1.37
  -6  -8   2   12.37    1.08
  -5  -8   2   12.16    1.28
  -4  -8   2    9.31    1.11
  -3  -8   2   31.53    1.26
  -2  -8   2    0.19    0.22
  -1  -8   2   45.57    1.62
   0  -8   2  131.07    3.17
   1  -8   2   44.99    2.11
   2  -8   2   -0.05    0.26
   3  -8   2   30.04    1.28
   4  -8   2   10.13    0.93
   5  -8   2   16.97    1.27
   6  -8   2   11.31    1.09
   7  -8   2   19.84    1.51
   8  -8   2   37.75    1.92
   9  -8   2    5.06    0.87
  10  -8   2   30.28    2.80
  11  -8   2   17.05    2.15
  12  -8   2    9.43    1.60
  13  -8   2    1.76    0.88
  14  -8   2    4.50    1.26
  15  -8   2    0.81    0.88
 -15  -7   2   -0.55    0.58
 -14  -7   2   -0.37    0.56
 -13  -7   2   21.14    2.24
 -12  -7   2    0.53    0.53
 -11  -7   2   12.60    1.62
 -10  -7   2    0.71    0.48
  -9  -7   2   58.04    2.72
  -8  -7   2   15.75    1.59
  -7  -7   2   35.37    1.50
  -6  -7   2   10.98    0.97
  -5  -7   2   21.83    1.26
  -4  -7   2    6.09    0.86
  -3  -7   2   95.19    2.35
  -2  -7   2   10.88    0.85
  -1  -7   2   21.10    1.06
   0  -7   2    0.16    0.19
   1  -7   2   21.44    0.97
   2  -7   2   11.65    0.77
   3  -7   2   93.35    2.43
   4  -7   2    5.28    0.68
   5  -7   2   18.07    1.30
   6  -7   2   10.11    1.02
   7  -7   2   37.67    1.71
   8  -7   2   17.52    1.45
   9  -7   2   53.20    2.21
  10  -7   2    0.40    0.50
  11  -7   2   15.66    2.01
  12  -7   2    0.07    0.51
  13  -7   2   28.67    2.85
  14  -7   2    0.44    0.73
  15  -7   2    0.24    0.81
 -15  -6   2   19.02    2.29
 -14  -6   2    0.08    0.54
 -13  -6   2    5.64    1.17
 -12  -6   2    2.04    0.69
 -11  -6   2    2.85    0.81
 -10  -6   2   16.60    1.77
  -9  -6   2   22.38    1.97
  -8  -6   2   60.46    2.67
  -7  -6   2   40.62    1.53
  -6  -6   2    3.59    0.53
  -5  -6   2   49.53    1.70
  -4  -6   2    2.57    0.36
  -3  -6   2  194.37    3.79
  -2  -6   2   60.99    1.34
  -1  -6   2    2.03    0.26
   0  -6   2   87.40    1.78
   1  -6   2    2.10    0.35
   2  -6   2   60.88    1.75
   3  -6   2  188.55    3.91
   4  -6   2    2.63    0.47
   5  -6   2   49.00    1.76
   6  -6   2    4.25    0.63
   7  -6   2   37.77    1.72
   8  -6   2   57.30    2.19
   9  -6   2   25.22    1.75
  10  -6   2   16.82    2.00
  11  -6   2    2.48    0.88
  12  -6   2    1.81    0.73
  13  -6   2    2.22    0.91
  14  -6   2    0.09    0.62
  15  -6   2   23.77    2.62
 -16  -5   2    4.13    1.90
 -15  -5   2    4.71    1.18
 -14  -5   2    8.79    1.50
 -13  -5   2    0.62    0.54
 -12  -5   2    3.58    0.91
 -11  -5   2    7.03    1.15
 -10  -5   2   18.83    1.86
  -9  -5   2   35.35    2.03
  -8  -5   2   -0.15    0.27
  -7  -5   2   12.81    0.95
  -6  -5   2  104.17    2.62
  -5  -5   2   18.28    0.78
  -4  -5   2   13.49    0.71
  -3  -5   2    0.10    0.13
  -2  -5   2   79.99    1.61
  -1  -5   2   41.86    1.07
   0  -5   2   -0.02    0.10
   1  -5   2   40.13    1.29
   2  -5   2   75.87    1.98
   3  -5   2    0.18    0.17
   4  -5   2   12.68    0.95
   5  -5   2   19.15    1.24
   6  -5   2  104.96    2.83
   7  -5   2   11.60    1.06
   8  -5   2   -0.19    0.23
   9  -5   2   35.08    1.83
  10  -5   2   20.09    2.07
  11  -5   2    4.77    1.05
  12  -5   2    4.52    1.12
  13  -5   2    0.29    0.60
  14  -5   2   12.60    1.87
  15  -5   2    3.07    1.01
 -16  -4   2    0.45    0.65
 -15  -4   2   16.41    2.10
 -14  -4   2    2.05    0.77
 -13  -4   2    0.03    0.45
 -12  -4   2  121.45    4.42
 -11  -4   2    4.57    0.88
 -10  -4   2    7.28    1.14
  -9  -4   2    2.77    0.56
  -8  -4   2    0.17    0.23
  -7  -4   2    4.54    0.51
  -6  -4   2   58.57    1.73
  -5  -4   2    6.12    0.51
  -4  -4   2   54.38    1.34
  -3  -4   2    2.38    0.27
  -2  -4   2  141.83    2.22
  -1  -4   2    1.05    0.20
   0  -4   2   90.95    2.03
   1  -4   2    0.89    0.24
   2  -4   2  140.34    2.99
   3  -4   2    2.47    0.40
   4  -4   2   57.16    1.24
   5  -4   2    5.56    0.44
   6  -4   2   55.28    1.88
   7  -4   2    4.15    0.59
   8  -4   2    0.38    0.29
   9  -4   2    3.42    0.63
  10  -4   2    8.24    1.32
  11  -4   2    5.08    1.10
  12  -4   2  121.29    4.72
  13  -4   2    0.46    0.55
  14  -4   2    2.90    1.03
  15  -4   2   15.01    3.20
  16  -4   2    0.85    1.16
 -16  -3   2    3.53    1.11
 -15  -3   2    9.78    1.58
 -14  -3   2    1.55    0.70
 -13  -3   2    8.41    1.08
 -12  -3   2    0.99    0.40
 -11  -3   2   10.02    1.09
 -10  -3   2   -0.09    0.26
  -9  -3   2  125.34    3.45
  -8  -3   2   36.54    1.60
  -7  -3   2   13.73    0.78
  -6  -3   2  128.18    2.53
  -5  -3   2    8.30    0.53
  -4  -3   2   26.26    0.78
  -3  -3   2   52.50    1.04
  -2  -3   2    1.10    0.17
  -1  -3   2  124.15    1.93
   0  -3   2   -0.01    0.08
   1  -3   2  125.05    2.12
   2  -3   2    1.42    0.20
   3  -3   2   54.37    1.20
   4  -3   2   25.84    0.81
   5  -3   2    7.62    0.54
   6  -3   2  126.00    2.48
   7  -3   2   14.16    0.88
   8  -3   2   36.90    1.29
   9  -3   2  132.44    2.93
  10  -3   2   -0.16    0.34
  11  -3   2    9.95    1.39
  12  -3   2    2.03    0.77
  13  -3   2    8.35    1.37
  14  -3   2    2.28    0.90
  15  -3   2   11.27    2.72
  16  -3   2    5.37    2.06
 -16  -2   2    2.02    0.87
 -15  -2   2   47.05    2.68
 -14  -2   2    5.77    0.97
 -13  -2   2    2.36    0.64
 -12  -2   2    4.89    0.82
 -11  -2   2    9.03    1.06
 -10  -2   2   18.70    1.50
  -9  -2   2   28.81    1.62
  -8  -2   2    3.10    0.55
  -7  -2   2   43.47    1.27
  -6  -2   2   32.24    1.04
  -5  -2   2   47.22    1.01
  -4  -2   2  127.74    1.78
  -3  -2   2  113.34    1.60
  -2  -2   2   12.69    0.44
  -1  -2   2    2.07    0.20
   0  -2   2    3.20    0.32
   1  -2   2    2.85    0.28
   2  -2   2   14.07    0.59
   3  -2   2  116.73    2.10
   4  -2   2  130.27    2.36
   5  -2   2   46.64    1.25
   6  -2   2   32.32    1.06
   7  -2   2   40.33    1.29
   8  -2   2    3.56    0.47
   9  -2   2   30.79    1.30
  10  -2   2   19.91    1.48
  11  -2   2    8.20    1.05
  12  -2   2    5.67    1.11
  13  -2   2    2.03    0.79
  14  -2   2    4.86    1.77
  15  -2   2   57.73    5.01
  16  -2   2    0.91    1.11
 -16  -1   2    7.59    1.24
 -15  -1   2    0.00    0.45
 -14  -1   2    2.19    0.64
 -13  -1   2   22.20    1.75
 -12  -1   2   13.61    1.34
 -11  -1   2   26.55    1.84
 -10  -1   2    0.27    0.28
  -9  -1   2    9.99    0.98
  -8  -1   2    0.04    0.21
  -7  -1   2    4.30    0.54
  -6  -1   2  108.11    2.00
  -5  -1   2   17.72    0.69
  -4  -1   2   82.02    1.29
  -3  -1   2  114.35    1.59
  -2  -1   2   19.92    0.52
  -1  -1   2    2.57    0.21
   0  -1   2    0.04    0.08
   1  -1   2    2.49    0.24
   2  -1   2   19.77    0.68
   3  -1   2  112.84    2.10
   4  -1   2   79.62    1.71
   5  -1   2   16.35    0.75
   6  -1   2  110.78    2.26
   7  -1   2    5.49    0.56
   8  -1   2    0.21    0.20
   9  -1   2   12.87    0.92
  10  -1   2    0.20    0.28
  11  -1   2   24.82    1.71
  12  -1   2   14.73    1.40
  13  -1   2   24.20    1.88
  14  -1   2    3.12    1.40
  15  -1   2   -0.40    0.83
  16  -1   2   12.52    2.82
 -17   0   2    0.17    1.39
 -16   0   2    1.83    0.70
 -15   0   2    0.11    0.42
 -14   0   2   36.35    2.45
 -13   0   2    0.18    0.37
 -12   0   2   31.16    2.02
 -11   0   2   -0.12    0.26
 -10   0   2  108.05    3.13
  -9   0   2    0.36    0.24
  -8   0   2   89.48    2.56
  -7   0   2    0.02    0.16
  -6   0   2    0.81    0.24
  -5   0   2    0.17    0.13
  -4   0   2    0.89    0.16
  -3   0   2    0.02    0.07
  -2   0   2    5.23    0.32
  -1   0   2    0.02    0.07
   0   0   2  939.55   10.86
   1   0   2    0.04    0.08
   2   0   2    5.02    0.27
   3   0   2    0.12    0.12
   4   0   2    1.06    0.23
   5   0   2    0.00    0.13
   6   0   2    0.71    0.23
   7   0   2   -0.07    0.16
   8   0   2   91.08    2.12
   9   0   2    0.02    0.19
  10   0   2  105.50    3.05
  11   0   2   -0.14    0.29
  12   0   2   37.43    2.04
  13   0   2   -0.09    0.44
  14   0   2   41.66    3.28
  15   0   2   -0.48    0.74
  16   0   2    1.07    1.24
 -16   1   2    8.26    2.16
 -15   1   2    0.33    0.46
 -14   1   2    1.37    0.59
 -13   1   2   23.65    1.83
 -12   1   2   14.27    1.38
 -11   1   2   22.43    1.70
 -10   1   2    0.24    0.28
  -9   1   2   10.67    1.01
  -8   1   2    0.08    0.19
  -7   1   2    5.87    0.58
  -6   1   2  109.80    2.31
  -5   1   2   18.01    0.75
  -4   1   2   81.71    1.55
  -3   1   2  113.40    1.72
  -2   1   2   20.02    0.51
  -1   1   2    2.19    0.21
   0   1   2    0.06    0.07
   1   1   2    2.18    0.24
   2   1   2   20.57    0.64
   3   1   2  115.92    1.81
   4   1   2   79.19    1.40
   5   1   2   17.52    0.57
   6   1   2  109.90    1.89
   7   1   2    5.82    0.68
   8   1   2   -0.04    0.21
   9   1   2   10.86    1.00
  10   1   2    0.42    0.30
  11   1   2   24.48    1.53
  12   1   2   15.56    1.84
  13   1   2   25.34    2.43
  14   1   2    2.77    0.99
  15   1   2    0.19    0.62
  16   1   2    6.53    2.05
 -16   2   2    0.26    0.66
 -15   2   2   45.17    3.61
 -14   2   2    6.10    1.14
 -13   2   2    1.49    0.54
 -12   2   2    5.83    0.92
 -11   2   2    8.21    0.99
 -10   2   2   21.94    1.57
  -9   2   2   32.47    1.35
  -8   2   2    3.01    0.43
  -7   2   2   44.67    1.39
  -6   2   2   30.77    1.07
  -5   2   2   45.72    1.14
  -4   2   2  125.28    2.11
  -3   2   2  113.60    1.73
  -2   2   2   13.15    0.47
  -1   2   2    2.59    0.25
   0   2   2    3.18    0.26
   1   2   2    2.62    0.30
   2   2   2   14.97    0.61
   3   2   2  117.95    2.10
   4   2   2  131.31    2.31
   5   2   2   45.71    1.17
   6   2   2   30.21    0.97
   7   2   2   45.21    1.62
   8   2   2    3.95    0.61
   9   2   2   28.77    1.47
  10   2   2   24.50    1.50
  11   2   2    7.95    1.07
  12   2   2    5.21    0.94
  13   2   2    2.56    0.89
  14   2   2    7.73    1.42
  15   2   2   53.47    3.45
  16   2   2    1.19    0.89
 -16   3   2    3.23    1.09
 -15   3   2   11.41    1.81
 -14   3   2    3.04    1.05
 -13   3   2    5.33    1.11
 -12   3   2    1.46    0.63
 -11   3   2   13.39    1.31
 -10   3   2   -0.21    0.18
  -9   3   2  134.40    2.99
  -8   3   2   37.79    1.35
  -7   3   2   14.72    0.93
  -6   3   2  125.79    2.53
  -5   3   2    8.07    0.53
  -4   3   2   25.52    0.75
  -3   3   2   52.46    1.09
  -2   3   2    1.49    0.22
  -1   3   2  123.86    1.99
   0   3   2   -0.07    0.07
   1   3   2  125.33    2.29
   2   3   2    0.78    0.19
   3   3   2   51.75    1.28
   4   3   2   25.42    0.86
   5   3   2    8.56    0.60
   6   3   2  130.17    2.49
   7   3   2   15.00    0.82
   8   3   2   37.82    1.54
   9   3   2  134.68    3.39
  10   3   2    0.22    0.28
  11   3   2    8.96    1.35
  12   3   2    0.57    0.56
  13   3   2    6.83    1.26
  14   3   2    2.39    0.95
  15   3   2   12.18    2.73
  16   3   2    4.47    1.21
 -16   4   2    1.77    0.92
 -15   4   2   13.50    1.96
 -14   4   2    1.81    0.75
 -13   4   2    0.22    0.45
 -12   4   2  113.70    4.53
 -11   4   2    4.38    0.77
 -10   4   2    6.01    0.87
  -9   4   2    3.37    0.54
  -8   4   2    0.16    0.20
  -7   4   2    4.80    0.53
  -6   4   2   59.20    1.51
  -5   4   2    5.07    0.40
  -4   4   2   57.22    1.19
  -3   4   2    2.29    0.22
  -2   4   2  138.57    2.55
  -1   4   2    1.17    0.20
   0   4   2   92.04    1.56
   1   4   2    0.89    0.21
   2   4   2  143.96    2.61
   3   4   2    2.73    0.35
   4   4   2   56.59    1.42
   5   4   2    5.61    0.51
   6   4   2   55.32    1.50
   7   4   2    3.79    0.48
   8   4   2    0.16    0.23
   9   4   2    3.39    0.61
  10   4   2    6.14    1.05
  11   4   2    5.97    1.11
  12   4   2  120.32    4.59
  13   4   2    0.52    0.53
  14   4   2    3.01    0.93
  15   4   2   16.09    2.10
  16   4   2    0.75    0.76
 -16   5   2    3.23    1.67
 -15   5   2    1.32    0.73
 -14   5   2    7.23    1.40
 -13   5   2    0.60    0.46
 -12   5   2    4.77    1.06
 -11   5   2    4.78    0.83
 -10   5   2   20.14    1.62
  -9   5   2   38.14    1.78
  -8   5   2   -0.08    0.18
  -7   5   2   10.49    1.00
  -6   5   2  102.56    2.81
  -5   5   2   18.96    0.99
  -4   5   2   13.40    0.86
  -3   5   2    0.15    0.15
  -2   5   2   80.78    1.77
  -1   5   2   41.01    1.13
   0   5   2   -0.04    0.09
   1   5   2   39.54    1.20
   2   5   2   78.06    1.79
   3   5   2    0.23    0.16
   4   5   2   12.43    0.80
   5   5   2   18.23    0.87
   6   5   2  107.78    2.32
   7   5   2   11.70    0.81
   8   5   2    0.19    0.20
   9   5   2   37.22    2.13
  10   5   2   22.80    2.08
  11   5   2    4.54    1.03
  12   5   2    5.27    1.08
  13   5   2    0.97    0.64
  14   5   2    7.50    1.39
  15   5   2    1.45    0.87
  16   5   2    1.59    1.00
 -15   6   2   20.96    2.50
 -14   6   2    0.27    0.48
 -13   6   2    4.65    1.13
 -12   6   2    1.70    0.62
 -11   6   2    1.41    0.50
 -10   6   2   17.38    1.54
  -9   6   2   26.02    1.76
  -8   6   2   61.66    2.26
  -7   6   2   35.94    1.62
  -6   6   2    3.96    0.61
  -5   6   2   50.88    1.58
  -4   6   2    2.46    0.38
  -3   6   2  190.11    3.43
  -2   6   2   61.44    1.55
  -1   6   2    1.86    0.28
   0   6   2   86.98    1.80
   1   6   2    1.94    0.24
   2   6   2   59.45    1.56
   3   6   2  188.22    3.40
   4   6   2    2.58    0.39
   5   6   2   50.06    1.46
   6   6   2    4.37    0.50
   7   6   2   39.41    1.35
   8   6   2   64.06    2.17
   9   6   2   22.28    1.99
  10   6   2   19.41    1.96
  11   6   2    2.44    0.76
  12   6   2    1.41    0.65
  13   6   2    8.06    1.36
  14   6   2    0.11    0.58
  15   6   2   23.25    2.52
  16   6   2   11.03    2.59
 -15   7   2    0.42    0.64
 -14   7   2   -0.48    0.45
 -13   7   2   23.51    2.57
 -12   7   2    0.54    0.48
 -11   7   2   11.97    1.32
 -10   7   2    0.19    0.36
  -9   7   2   50.52    2.14
  -8   7   2   18.27    1.41
  -7   7   2   34.16    1.61
  -6   7   2   12.67    1.12
  -5   7   2   18.21    1.14
  -4   7   2    5.05    0.55
  -3   7   2   94.44    2.18
  -2   7   2   11.32    0.79
  -1   7   2   19.71    0.84
   0   7   2   -0.08    0.13
   1   7   2   18.95    1.12
   2   7   2   12.53    0.97
   3   7   2   93.56    2.16
   4   7   2    5.25    0.55
   5   7   2   16.92    1.00
   6   7   2   11.58    0.86
   7   7   2   36.06    1.32
   8   7   2   19.04    1.41
   9   7   2   55.92    2.72
  10   7   2    0.61    0.47
  11   7   2   12.89    1.63
  12   7   2    0.88    0.62
  13   7   2   22.40    2.34
  14   7   2    0.18    0.56
  15   7   2    0.45    0.73
 -15   8   2    2.33    2.08
 -14   8   2    3.67    1.11
 -13   8   2    2.98    1.03
 -12   8   2   10.66    1.29
 -11   8   2   17.18    1.67
 -10   8   2   31.83    2.11
  -9   8   2    4.71    0.80
  -8   8   2   38.31    1.80
  -7   8   2   17.15    1.36
  -6   8   2   11.30    1.08
  -5   8   2   16.01    1.22
  -4   8   2   10.53    0.85
  -3   8   2   33.84    1.23
  -2   8   2    0.01    0.15
  -1   8   2   44.51    1.36
   0   8   2  130.43    2.70
   1   8   2   45.48    1.67
   2   8   2   -0.04    0.18
   3   8   2   30.76    1.36
   4   8   2   10.86    0.99
   5   8   2   16.04    1.23
   6   8   2   12.29    0.93
   7   8   2   20.97    1.45
   8   8   2   37.63    1.81
   9   8   2    5.74    1.02
  10   8   2   30.39    2.51
  11   8   2   12.48    1.63
  12   8   2    7.63    1.36
  13   8   2    1.29    0.73
  14   8   2    3.67    1.12
 -14   9   2   15.83    2.33
 -13   9   2    0.33    0.60
 -12   9   2    2.87    0.77
 -11   9   2   10.95    1.30
 -10   9   2   17.55    1.62
  -9   9   2    0.07    0.32
  -8   9   2    2.09    0.57
  -7   9   2   42.46    1.90
  -6   9   2   83.93    2.70
  -5   9   2   16.77    1.29
  -4   9   2    1.71    0.38
  -3   9   2   40.00    1.40
  -2   9   2   21.53    1.12
  -1   9   2    2.02    0.38
   0   9   2   -0.03    0.20
   1   9   2    1.60    0.40
   2   9   2   24.01    1.36
   3   9   2   37.48    1.60
   4   9   2    1.17    0.37
   5   9   2   15.20    1.24
   6   9   2   82.55    2.64
   7   9   2   43.86    1.88
   8   9   2    1.94    0.54
   9   9   2    0.56    0.40
  10   9   2   20.15    2.06
  11   9   2    8.65    1.37
  12   9   2    2.57    0.95
  13   9   2   -0.17    0.86
  14   9   2   19.40    3.46
 -14  10   2   25.00    5.55
 -13  10   2   17.70    1.87
 -12  10   2   40.58    2.76
 -11  10   2    1.68    0.61
 -10  10   2    0.34    0.41
  -9  10   2    4.65    0.77
  -8  10   2    4.01    0.77
  -7  10   2    6.00    0.85
  -6  10   2   14.68    1.32
  -5  10   2    5.33    0.75
  -4  10   2   58.64    1.86
  -3  10   2   49.13    1.63
  -2  10   2   14.56    1.05
  -1  10   2   23.66    1.41
   0  10   2    0.24    0.26
   1  10   2   23.94    1.52
   2  10   2   13.64    1.16
   3  10   2   53.57    1.97
   4  10   2   57.89    2.12
   5  10   2    3.29    0.63
   6  10   2   14.39    1.30
   7  10   2    6.00    0.88
   8  10   2    3.22    0.69
   9  10   2    4.30    0.77
  10  10   2    0.16    0.71
  11  10   2    1.88    1.21
  12  10   2   43.83    5.00
  13  10   2   14.18    2.95
 -13  11   2    1.25    0.73
 -12  11   2   -0.35    0.43
 -11  11   2    0.42    0.54
 -10  11   2   18.01    1.70
  -9  11   2   42.18    2.38
  -8  11   2    0.85    0.43
  -7  11   2    2.71    0.65
  -6  11   2    0.49    0.35
  -5  11   2    2.74    0.59
  -4  11   2    7.07    0.92
  -3  11   2   13.41    1.22
  -2  11   2   17.30    1.39
  -1  11   2   61.82    2.24
   0  11   2    0.31    0.29
   1  11   2   61.63    2.21
   2  11   2   18.75    1.42
   3  11   2   15.62    1.29
   4  11   2    8.15    0.96
   5  11   2    2.43    0.57
   6  11   2    1.01    0.44
   7  11   2    3.55    0.91
   8  11   2    0.99    0.56
   9  11   2   43.59    2.96
  10  11   2   16.25    2.84
  11  11   2    1.17    1.15
  12  11   2   -0.60    0.90
 -12  12   2   23.68    2.61
 -11  12   2   18.15    1.81
 -10  12   2   -0.01    0.42
  -9  12   2    0.51    0.47
  -8  12   2    5.71    0.93
  -7  12   2   24.81    1.87
  -6  12   2   10.59    1.18
  -5  12   2    1.29    0.47
  -4  12   2    4.83    1.04
  -3  12   2   15.06    1.36
  -2  12   2   49.71    2.07
  -1  12   2   41.45    1.88
   0  12   2   19.76    1.53
   1  12   2   40.61    1.84
   2  12   2   47.46    1.99
   3  12   2   15.49    1.77
   4  12   2    5.47    1.09
   5  12   2    1.57    0.68
   6  12   2   12.21    1.60
   7  12   2   24.25    2.38
   8  12   2    3.20    0.92
   9  12   2    0.49    0.58
  10  12   2    0.13    0.77
  11  12   2   19.50    3.35
  12  12   2   26.68    3.90
 -11  13   2   -0.67    0.62
 -10  13   2    0.32    0.59
  -9  13   2    1.62    0.66
  -8  13   2    1.66    0.67
  -7  13   2    6.73    1.07
  -6  13   2   33.20    2.78
  -5  13   2   73.87    3.50
  -4  13   2   17.98    1.98
  -3  13   2    1.99    0.69
  -2  13   2    2.97    0.67
  -1  13   2    1.80    0.67
   0  13   2    0.25    0.38
   1  13   2    2.60    0.78
   2  13   2    1.63    0.58
   3  13   2    0.66    0.44
   4  13   2   14.59    1.75
   5  13   2   74.72    3.61
   6  13   2   35.82    2.95
   7  13   2    7.10    1.29
   8  13   2    0.74    0.66
   9  13   2    0.74    0.68
  10  13   2    0.46    0.73
  11  13   2   -0.28    0.92
 -10  14   2    1.05    1.31
  -9  14   2    4.84    1.93
  -8  14   2   41.24    3.34
  -7  14   2   -0.23    0.49
  -6  14   2    1.66    0.69
  -5  14   2    1.68    0.71
  -4  14   2    7.11    1.24
  -3  14   2    0.72    0.51
  -2  14   2    5.29    1.08
  -1  14   2   16.08    1.90
   0  14   2   75.16    3.53
   1  14   2   12.61    1.67
   2  14   2    5.20    1.15
   3  14   2    1.14    0.67
   4  14   2    7.81    1.42
   5  14   2    0.99    0.60
   6  14   2    2.11    0.82
   7  14   2   -0.10    0.56
   8  14   2   48.14    3.76
   9  14   2    2.09    0.98
  10  14   2    4.00    1.68
  -8  15   2   22.82    3.96
  -7  15   2    1.30    1.16
  -6  15   2    0.04    0.52
  -5  15   2    1.20    0.68
  -4  15   2    4.64    1.10
  -3  15   2   12.50    1.71
  -2  15   2   19.69    2.25
  -1  15   2   -0.18    0.43
   0  15   2    0.12    0.54
   1  15   2    0.04    0.46
   2  15   2   15.02    1.98
   3  15   2   14.05    1.88
   4  15   2    6.10    1.29
   5  15   2    2.31    0.90
   6  15   2    0.55    0.63
   7  15   2   -0.11    0.67
   8  15   2   15.73    2.18
  -7  16   2    5.59    2.74
  -6  16   2   -0.15    0.77
  -5  16   2    1.33    1.16
  -4  16   2   27.40    2.65
  -3  16   2    2.04    0.87
  -2  16   2    1.24    0.62
  -1  16   2    8.52    1.50
   0  16   2   19.22    2.25
   1  16   2    7.24    1.47
   2  16   2    1.70    0.81
   3  16   2    1.93    0.90
   4  16   2   37.52    3.25
   5  16   2    4.31    1.18
   6  16   2    0.38    0.75
   7  16   2    5.03    1.29
   8  16   2    2.78    1.79
  -4  17   2    2.29    1.26
  -3  17   2    0.74    1.14
  -2  17   2    3.12    1.64
  -1  17   2    9.78    1.65
   0  17   2   -0.08    0.68
   1  17   2   11.28    1.82
   2  17   2    5.01    1.28
   3  17   2    1.28    0.81
   4  17   2    2.08    1.00
   5  17   2   13.55    2.01
   6  17   2   18.23    5.92
   2  18   2   -0.01    1.13
  -5 -16   3   -0.13    1.36
  -4 -16   3    0.18    1.51
  -3 -16   3   14.03    3.23
  -2 -16   3   11.90    3.08
  -1 -16   3    0.81    1.43
   0 -16   3   25.51    4.46
   1 -16   3    4.06    2.12
   2 -16   3   15.06    3.56
  -6 -15   3   27.52    3.71
  -5 -15   3   25.46    2.65
  -4 -15   3   12.63    1.95
  -3 -15   3    5.45    2.14
  -2 -15   3    2.67    1.56
  -1 -15   3   -0.17    1.16
   0 -15   3    0.45    1.34
   1 -15   3    1.05    1.24
   2 -15   3    2.37    1.80
   3 -15   3    9.58    2.61
   4 -15   3   11.67    1.90
   5 -15   3   22.13    2.62
   6 -15   3   25.37    2.81
  -7 -14   3    0.59    0.91
  -6 -14   3    0.56    0.83
  -5 -14   3    1.64    0.87
  -4 -14   3   15.90    2.07
  -3 -14   3    1.68    0.78
  -2 -14   3    2.20    1.48
  -1 -14   3    5.84    2.15
   0 -14   3   44.26    5.55
   1 -14   3    7.39    2.31
   2 -14   3   -0.42    0.84
   3 -14   3   -0.05    0.69
   4 -14   3   14.93    2.04
   5 -14   3    0.63    0.70
   6 -14   3    0.46    0.81
   7 -14   3   -0.22    0.73
   8 -14   3   21.05    2.72
  -9 -13   3    5.04    1.75
  -8 -13   3   12.02    2.53
  -7 -13   3    7.24    1.85
  -6 -13   3    0.09    0.59
  -5 -13   3    0.43    0.58
  -4 -13   3    0.86    0.69
  -3 -13   3   46.23    3.39
  -2 -13   3   14.09    2.92
  -1 -13   3   -0.51    0.79
   0 -13   3   -0.57    0.75
   1 -13   3   -1.06    0.82
   2 -13   3   12.68    1.82
   3 -13   3   49.96    3.23
   4 -13   3    0.90    0.78
   5 -13   3    0.68    0.67
   6 -13   3   -0.23    0.62
   7 -13   3    7.97    1.63
   8 -13   3   11.46    1.97
   9 -13   3    6.93    1.59
 -10 -12   3    9.24    2.40
  -9 -12   3    4.52    1.65
  -8 -12   3    1.88    1.04
  -7 -12   3   13.98    2.63
  -6 -12   3    0.14    0.52
  -5 -12   3   11.95    1.64
  -4 -12   3   25.22    2.36
  -3 -12   3   14.83    1.81
  -2 -12   3    1.46    0.73
  -1 -12   3    0.86    1.08
   0 -12   3   18.71    3.28
   1 -12   3   -0.08    0.45
   2 -12   3    1.20    0.74
   3 -12   3   14.72    1.92
   4 -12   3   26.31    2.58
   5 -12   3    9.91    1.62
   6 -12   3    0.30    0.56
   7 -12   3   12.66    1.89
   8 -12   3    2.69    1.09
   9 -12   3    7.10    1.46
  10 -12   3   10.40    2.89
 -11 -11   3    0.95    0.99
 -10 -11   3    0.39    0.96
  -9 -11   3   13.60    2.60
  -8 -11   3    1.14    0.80
  -7 -11   3   61.18    4.30
  -6 -11   3   24.44    2.25
  -5 -11   3    3.72    0.93
  -4 -11   3    7.70    1.26
  -3 -11   3    0.20    0.39
  -2 -11   3    8.63    1.21
  -1 -11   3   32.66    4.05
   0 -11   3   -0.10    0.43
   1 -11   3   29.83    2.53
   2 -11   3    8.08    1.37
   3 -11   3   -0.01    0.36
   4 -11   3    6.39    1.25
   5 -11   3    2.51    0.85
   6 -11   3   25.71    2.57
   7 -11   3   49.30    3.23
   8 -11   3    0.54    0.66
   9 -11   3   16.92    2.20
  10 -11   3    0.17    0.72
  11 -11   3   -0.25    1.00
 -12 -10   3    6.84    1.61
 -11 -10   3   32.56    4.25
 -10 -10   3    0.52    0.88
  -9 -10   3    3.18    1.30
  -8 -10   3    3.28    1.39
  -7 -10   3    2.13    1.00
  -6 -10   3   15.84    1.74
  -5 -10   3    2.37    0.79
  -4 -10   3   50.27    2.58
  -3 -10   3    7.38    1.19
  -2 -10   3    0.13    0.37
  -1 -10   3   40.31    2.34
   0 -10   3   18.04    1.82
   1 -10   3   31.73    2.22
   2 -10   3    0.54    0.48
   3 -10   3    8.90    1.41
   4 -10   3   47.90    2.71
   5 -10   3    3.07    0.91
   6 -10   3   14.56    1.87
   7 -10   3    0.18    0.50
   8 -10   3    1.99    0.80
   9 -10   3    3.76    1.07
  10 -10   3    0.74    0.72
  11 -10   3   27.40    4.20
  12 -10   3    7.74    2.47
 -12  -9   3   -0.14    0.54
 -11  -9   3   -0.12    0.43
 -10  -9   3   15.18    1.90
  -9  -9   3   48.99    2.84
  -8  -9   3   14.53    2.38
  -7  -9   3    3.43    1.31
  -6  -9   3   12.61    1.51
  -5  -9   3   42.30    2.29
  -4  -9   3    0.20    0.37
  -3  -9   3   -0.05    0.28
  -2  -9   3   86.38    2.82
  -1  -9   3   26.76    2.07
   0  -9   3    0.15    0.34
   1  -9   3   22.88    1.97
   2  -9   3   83.90    3.45
   3  -9   3    0.15    0.42
   4  -9   3    0.17    0.39
   5  -9   3   35.97    2.79
   6  -9   3   11.79    1.59
   7  -9   3    3.57    0.96
   8  -9   3   16.10    1.94
   9  -9   3   53.09    3.23
  10  -9   3   16.33    1.94
  11  -9   3    0.71    1.07
  12  -9   3   -0.68    0.90
 -13  -8   3    0.81    0.68
 -12  -8   3    1.57    0.80
 -11  -8   3    9.65    1.60
 -10  -8   3    3.09    0.94
  -9  -8   3   11.43    1.58
  -8  -8   3   21.13    2.08
  -7  -8   3   16.75    1.77
  -6  -8   3    0.35    0.34
  -5  -8   3   20.57    1.86
  -4  -8   3   18.10    1.75
  -3  -8   3   22.07    1.89
  -2  -8   3   43.44    1.72
  -1  -8   3   15.88    1.25
   0  -8   3   11.01    1.28
   1  -8   3   13.70    1.46
   2  -8   3   44.00    2.30
   3  -8   3   17.98    1.80
   4  -8   3   14.02    1.65
   5  -8   3   18.24    1.88
   6  -8   3    0.08    0.40
   7  -8   3   11.53    1.38
   8  -8   3   22.31    1.77
   9  -8   3   12.19    1.36
  10  -8   3    1.40    0.62
  11  -8   3    7.06    1.51
  12  -8   3    2.07    1.05
  13  -8   3    0.91    0.97
 -14  -7   3   -0.26    1.70
 -13  -7   3   54.51    3.53
 -12  -7   3   -0.08    0.50
 -11  -7   3    2.27    0.80
 -10  -7   3   -0.05    0.43
  -9  -7   3    0.22    0.39
  -8  -7   3    7.03    1.23
  -7  -7   3    9.03    1.23
  -6  -7   3   10.75    1.08
  -5  -7   3  144.48    4.38
  -4  -7   3    2.95    0.68
  -3  -7   3   13.28    1.09
  -2  -7   3    6.51    0.77
  -1  -7   3    1.99    0.45
   0  -7   3   -0.01    0.25
   1  -7   3    2.41    0.62
   2  -7   3    6.27    0.97
   3  -7   3   14.82    1.60
   4  -7   3    3.93    0.63
   5  -7   3  138.74    3.63
   6  -7   3   12.14    1.20
   7  -7   3   11.36    1.20
   8  -7   3    9.97    1.17
   9  -7   3    0.58    0.40
  10  -7   3    1.34    0.59
  11  -7   3    3.50    1.15
  12  -7   3   -0.29    0.68
  13  -7   3   57.82    4.39
  14  -7   3    0.40    0.83
 -14  -6   3   -0.03    0.66
 -13  -6   3   31.22    2.93
 -12  -6   3    4.82    1.14
 -11  -6   3   47.22    2.99
 -10  -6   3   15.09    1.78
  -9  -6   3    1.61    0.65
  -8  -6   3   26.94    2.25
  -7  -6   3    8.82    1.21
  -6  -6   3    2.04    0.48
  -5  -6   3    7.25    0.86
  -4  -6   3    0.33    0.24
  -3  -6   3    2.30    0.46
  -2  -6   3    0.30    0.25
  -1  -6   3  129.50    3.19
   0  -6   3   61.61    2.53
   1  -6   3  129.64    3.08
   2  -6   3    0.43    0.26
   3  -6   3    1.49    0.39
   4  -6   3    0.36    0.27
   5  -6   3    6.98    0.82
   6  -6   3    1.96    0.49
   7  -6   3   14.25    1.35
   8  -6   3   24.13    1.79
   9  -6   3    1.55    0.54
  10  -6   3   10.79    1.28
  11  -6   3   54.93    3.32
  12  -6   3    6.81    1.52
  13  -6   3   34.08    3.24
  14  -6   3   -0.19    0.82
 -14  -5   3   10.40    1.76
 -13  -5   3    0.11    0.49
 -12  -5   3    1.66    0.74
 -11  -5   3   12.28    1.71
 -10  -5   3   36.90    2.76
  -9  -5   3    3.26    0.80
  -8  -5   3    4.07    0.89
  -7  -5   3   54.15    2.54
  -6  -5   3   23.59    1.35
  -5  -5   3    1.55    0.38
  -4  -5   3    1.54    0.32
  -3  -5   3   51.46    1.46
  -2  -5   3   87.03    1.97
  -1  -5   3    4.63    0.51
   0  -5   3   -0.12    0.19
   1  -5   3    3.52    0.51
   2  -5   3   84.45    2.38
   3  -5   3   52.08    1.83
   4  -5   3    0.96    0.35
   5  -5   3    1.26    0.38
   6  -5   3   21.89    1.54
   7  -5   3   52.52    2.10
   8  -5   3    6.17    0.92
   9  -5   3    4.17    0.78
  10  -5   3   41.60    2.24
  11  -5   3   11.22    1.64
  12  -5   3    1.68    0.89
  13  -5   3    0.01    0.71
  14  -5   3    9.81    1.75
  15  -5   3    1.41    1.30
 -15  -4   3   -0.22    1.25
 -14  -4   3   41.44    3.40
 -13  -4   3    0.13    0.53
 -12  -4   3    1.82    0.81
 -11  -4   3    5.00    1.09
 -10  -4   3    4.17    0.93
  -9  -4   3    2.22    0.56
  -8  -4   3   15.36    1.33
  -7  -4   3   10.09    1.23
  -6  -4   3   15.04    1.12
  -5  -4   3    0.68    0.25
  -4  -4   3  148.08    2.54
  -3  -4   3    7.67    0.63
  -2  -4   3   14.47    0.71
  -1  -4   3   12.83    0.78
   0  -4   3    8.41    0.78
   1  -4   3   11.91    0.97
   2  -4   3   12.11    0.98
   3  -4   3    6.96    0.74
   4  -4   3  146.07    3.51
   5  -4   3    0.56    0.26
   6  -4   3   13.89    1.16
   7  -4   3    9.57    1.03
   8  -4   3   17.12    1.40
   9  -4   3    2.69    0.59
  10  -4   3    4.00    0.75
  11  -4   3    4.02    0.99
  12  -4   3    3.44    1.02
  13  -4   3   -0.18    0.64
  14  -4   3   38.62    3.37
  15  -4   3   -0.30    0.95
 -15  -3   3    3.62    1.17
 -14  -3   3    2.95    1.02
 -13  -3   3   -0.03    0.39
 -12  -3   3    0.48    0.39
 -11  -3   3    7.95    1.07
 -10  -3   3   24.97    1.85
  -9  -3   3   25.12    1.78
  -8  -3   3   30.90    1.88
  -7  -3   3  115.15    3.20
  -6  -3   3    2.60    0.38
  -5  -3   3   48.37    1.19
  -4  -3   3   18.45    0.77
  -3  -3   3    4.81    0.38
  -2  -3   3   74.09    1.57
  -1  -3   3  130.25    2.49
   0  -3   3    0.01    0.14
   1  -3   3  126.52    2.46
   2  -3   3   72.96    2.15
   3  -3   3    4.39    0.61
   4  -3   3   19.25    1.18
   5  -3   3   51.46    1.87
   6  -3   3    1.61    0.41
   7  -3   3  112.86    3.20
   8  -3   3   24.93    1.68
   9  -3   3   25.58    1.77
  10  -3   3   20.26    1.64
  11  -3   3    7.37    1.34
  12  -3   3    0.73    0.59
  13  -3   3    0.52    0.67
  14  -3   3    3.25    1.05
  15  -3   3    2.64    1.94
 -15  -2   3    1.59    0.74
 -14  -2   3    0.44    0.49
 -13  -2   3    8.02    1.16
 -12  -2   3   18.54    1.68
 -11  -2   3   54.75    2.37
 -10  -2   3    3.95    0.77
  -9  -2   3    0.21    0.34
  -8  -2   3    0.18    0.26
  -7  -2   3   32.08    1.49
  -6  -2   3    0.48    0.21
  -5  -2   3    0.68    0.19
  -4  -2   3   21.39    0.70
  -3  -2   3    9.80    0.54
  -2  -2   3   26.71    0.73
  -1  -2   3  126.89    2.41
   0  -2   3    0.39    0.17
   1  -2   3  123.49    2.44
   2  -2   3   27.36    0.97
   3  -2   3    9.39    0.69
   4  -2   3   18.89    0.91
   5  -2   3    0.39    0.26
   6  -2   3    0.66    0.31
   7  -2   3   32.15    1.54
   8  -2   3    0.14    0.29
   9  -2   3    0.99    0.42
  10  -2   3    3.41    0.69
  11  -2   3   50.89    2.90
  12  -2   3   18.30    2.09
  13  -2   3    9.74    1.62
  14  -2   3    0.57    0.72
  15  -2   3    2.00    1.48
 -15  -1   3    1.86    0.91
 -14  -1   3   13.99    1.98
 -13  -1   3   18.12    1.71
 -12  -1   3    2.07    0.65
 -11  -1   3   11.17    1.28
 -10  -1   3   53.01    2.22
  -9  -1   3    3.01    0.62
  -8  -1   3   28.46    1.73
  -7  -1   3    0.03    0.19
  -6  -1   3    0.16    0.16
  -5  -1   3  135.79    2.08
  -4  -1   3   16.04    0.70
  -3  -1   3   39.96    0.93
  -2  -1   3   33.61    0.82
  -1  -1   3    0.97    0.22
   0  -1   3    0.17    0.13
   1  -1   3    1.20    0.21
   2  -1   3   32.77    1.10
   3  -1   3   39.45    1.24
   4  -1   3   14.36    0.81
   5  -1   3  137.03    2.79
   6  -1   3   -0.10    0.17
   7  -1   3   -0.04    0.19
   8  -1   3   25.15    1.67
   9  -1   3    3.93    0.70
  10  -1   3   49.13    2.09
  11  -1   3    9.52    1.44
  12  -1   3    2.77    0.91
  13  -1   3   25.74    2.57
  14  -1   3   16.62    3.40
  15  -1   3    1.86    1.53
 -15   0   3   -0.08    0.61
 -14   0   3   17.15    2.22
 -13   0   3   -0.25    0.44
 -12   0   3   -0.24    0.34
 -11   0   3   -0.15    0.32
 -10   0   3    1.78    0.52
  -9   0   3    0.06    0.29
  -8   0   3  161.13    3.42
  -7   0   3   -0.19    0.18
  -6   0   3   22.90    1.00
  -5   0   3    0.09    0.13
  -4   0   3  113.14    1.78
  -3   0   3    0.00    0.11
  -2   0   3  102.21    1.77
  -1   0   3    0.06    0.13
   0   0   3    8.45    0.58
   1   0   3    0.09    0.13
   2   0   3  105.66    2.26
   3   0   3   -0.13    0.13
   4   0   3  112.03    2.41
   5   0   3    0.01    0.15
   6   0   3   22.66    1.12
   7   0   3   -0.05    0.19
   8   0   3  159.80    3.34
   9   0   3    0.09    0.25
  10   0   3    3.41    0.85
  11   0   3    0.24    0.46
  12   0   3    0.10    0.51
  13   0   3   -0.18    0.85
  14   0   3   16.14    3.22
  15   0   3   -0.14    0.88
 -15   1   3    2.06    0.90
 -14   1   3   18.89    2.43
 -13   1   3   16.21    2.10
 -12   1   3    3.48    0.95
 -11   1   3    7.76    1.32
 -10   1   3   48.99    2.46
  -9   1   3    1.38    0.39
  -8   1   3   28.23    1.38
  -7   1   3    0.12    0.21
  -6   1   3    0.10    0.17
  -5   1   3  138.75    2.49
  -4   1   3   14.43    0.71
  -3   1   3   40.94    1.00
  -2   1   3   34.09    0.91
  -1   1   3    0.85    0.18
   0   1   3    0.02    0.12
   1   1   3    0.56    0.18
   2   1   3   32.20    1.14
   3   1   3   38.13    1.26
   4   1   3   14.81    0.93
   5   1   3  136.19    2.85
   6   1   3    0.11    0.19
   7   1   3    0.21    0.26
   8   1   3   31.98    1.59
   9   1   3    3.52    0.68
  10   1   3   49.02    2.11
  11   1   3   11.02    1.25
  12   1   3    1.82    0.75
  13   1   3   19.03    3.27
  14   1   3   15.53    3.27
  15   1   3    1.94    1.42
 -15   2   3    0.65    0.65
 -14   2   3    0.44    0.62
 -13   2   3   10.11    1.68
 -12   2   3   17.27    2.10
 -11   2   3   48.11    2.80
 -10   2   3    3.60    0.69
  -9   2   3    0.67    0.35
  -8   2   3    0.14    0.29
  -7   2   3   34.22    1.58
  -6   2   3    0.52    0.21
  -5   2   3    1.15    0.26
  -4   2   3   21.75    0.78
  -3   2   3    8.22    0.59
  -2   2   3   27.99    0.89
  -1   2   3  125.24    2.16
   0   2   3    0.35    0.19
   1   2   3  122.77    2.45
   2   2   3   27.00    0.94
   3   2   3    8.95    0.82
   4   2   3   18.80    1.26
   5   2   3    0.69    0.29
   6   2   3    0.77    0.33
   7   2   3   32.36    1.50
   8   2   3    0.10    0.26
   9   2   3    0.49    0.31
  10   2   3    4.42    0.76
  11   2   3   51.39    2.26
  12   2   3   18.46    2.14
  13   2   3    7.95    2.16
  14   2   3    0.62    1.01
  15   2   3    0.72    1.15
 -15   3   3    3.44    1.19
 -14   3   3    2.64    1.01
 -13   3   3    0.21    0.57
 -12   3   3    0.35    0.54
 -11   3   3    9.29    1.21
 -10   3   3   21.16    1.73
  -9   3   3   27.72    1.93
  -8   3   3   25.83    1.77
  -7   3   3  119.07    3.30
  -6   3   3    2.02    0.43
  -5   3   3   51.51    1.61
  -4   3   3   18.21    0.99
  -3   3   3    5.70    0.52
  -2   3   3   73.58    1.60
  -1   3   3  130.41    2.66
   0   3   3   -0.02    0.15
   1   3   3  124.89    2.57
   2   3   3   75.58    1.81
   3   3   3    5.18    0.66
   4   3   3   19.58    1.29
   5   3   3   51.27    1.84
   6   3   3    1.88    0.45
   7   3   3  116.63    3.19
   8   3   3   29.44    1.66
   9   3   3   24.79    1.70
  10   3   3   24.52    1.78
  11   3   3    5.72    1.16
  12   3   3    0.55    0.62
  13   3   3    0.50    0.74
  14   3   3    1.49    1.11
  15   3   3    4.55    1.77
 -15   4   3    0.80    1.14
 -14   4   3   40.12    3.48
 -13   4   3   -0.32    0.41
 -12   4   3    2.41    0.87
 -11   4   3    4.72    0.87
 -10   4   3    3.73    0.75
  -9   4   3    2.79    0.66
  -8   4   3   14.62    1.33
  -7   4   3    9.74    1.03
  -6   4   3   14.25    1.04
  -5   4   3   -0.07    0.17
  -4   4   3  144.16    2.97
  -3   4   3    7.93    0.66
  -2   4   3   13.91    0.94
  -1   4   3   11.57    0.86
   0   4   3    7.64    0.67
   1   4   3   12.40    0.86
   2   4   3   12.99    0.79
   3   4   3    8.71    0.79
   4   4   3  140.96    3.47
   5   4   3    0.26    0.25
   6   4   3   13.35    1.15
   7   4   3   10.84    1.03
   8   4   3   16.28    1.35
   9   4   3    1.96    0.54
  10   4   3    5.62    0.87
  11   4   3    3.87    1.01
  12   4   3    2.18    0.89
  13   4   3   -0.16    0.58
  14   4   3   39.17    3.39
  15   4   3   -0.44    1.91
 -14   5   3   12.85    2.01
 -13   5   3   -0.25    0.48
 -12   5   3    1.36    0.56
 -11   5   3   10.57    1.28
 -10   5   3   41.49    2.31
  -9   5   3    3.59    0.73
  -8   5   3    5.23    0.81
  -7   5   3   54.67    2.16
  -6   5   3   20.93    1.29
  -5   5   3    1.21    0.35
  -4   5   3    1.22    0.32
  -3   5   3   53.14    1.93
  -2   5   3   83.88    2.47
  -1   5   3    4.27    0.53
   0   5   3    0.22    0.19
   1   5   3    2.90    0.43
   2   5   3   83.84    2.08
   3   5   3   54.02    1.59
   4   5   3    1.03    0.34
   5   5   3    0.99    0.36
   6   5   3   20.62    1.46
   7   5   3   52.42    2.06
   8   5   3    6.88    0.89
   9   5   3    3.03    0.66
  10   5   3   41.44    2.72
  11   5   3   10.63    1.59
  12   5   3    2.62    0.90
  13   5   3    0.00    0.65
  14   5   3   14.51    2.10
  15   5   3   -0.36    1.30
 -14   6   3    0.21    0.65
 -13   6   3   31.49    3.02
 -12   6   3    7.09    1.14
 -11   6   3   49.79    2.43
 -10   6   3   11.46    1.31
  -9   6   3    0.74    0.42
  -8   6   3   25.37    1.86
  -7   6   3   10.95    1.17
  -6   6   3    1.14    0.33
  -5   6   3    7.19    0.75
  -4   6   3    0.14    0.23
  -3   6   3    1.79    0.44
  -2   6   3    1.11    0.36
  -1   6   3  125.43    3.26
   0   6   3   63.51    1.82
   1   6   3  126.70    2.81
   2   6   3    0.63    0.26
   3   6   3    2.35    0.41
   4   6   3   -0.11    0.19
   5   6   3    7.36    0.88
   6   6   3    1.58    0.44
   7   6   3    8.72    0.98
   8   6   3   26.87    1.82
   9   6   3    1.42    0.64
  10   6   3   12.26    1.67
  11   6   3   51.04    2.98
  12   6   3    5.12    1.24
  13   6   3   28.90    2.80
  14   6   3   -0.34    0.72
 -14   7   3   -0.10    0.95
 -13   7   3   50.26    2.90
 -12   7   3   -0.28    0.41
 -11   7   3    3.61    0.82
 -10   7   3    0.45    0.41
  -9   7   3    0.73    0.43
  -8   7   3    9.91    1.15
  -7   7   3   10.83    1.17
  -6   7   3   12.29    1.02
  -5   7   3  141.26    3.83
  -4   7   3    2.98    0.56
  -3   7   3   11.91    1.13
  -2   7   3    7.08    0.86
  -1   7   3    3.70    0.62
   0   7   3   -0.12    0.19
   1   7   3    2.58    0.48
   2   7   3    6.92    0.70
   3   7   3   13.65    1.00
   4   7   3    2.48    0.45
   5   7   3  140.24    3.69
   6   7   3   11.40    1.12
   7   7   3   10.03    1.07
   8   7   3    8.05    1.27
   9   7   3    0.61    0.45
  10   7   3    0.16    0.50
  11   7   3    1.91    0.80
  12   7   3    0.78    0.61
  13   7   3   47.61    5.42
  14   7   3   -0.06    0.75
 -13   8   3    0.34    0.56
 -12   8   3    2.37    0.76
 -11   8   3    8.04    1.21
 -10   8   3    1.71    0.62
  -9   8   3   12.77    1.39
  -8   8   3   23.58    1.83
  -7   8   3   15.31    1.59
  -6   8   3    0.15    0.29
  -5   8   3   19.12    1.58
  -4   8   3   16.25    1.42
  -3   8   3   23.30    1.62
  -2   8   3   41.82    1.82
  -1   8   3   14.39    1.21
   0   8   3   10.38    1.02
   1   8   3   16.76    1.30
   2   8   3   40.82    1.75
   3   8   3   22.91    1.35
   4   8   3   15.09    1.10
   5   8   3   16.03    1.32
   6   8   3    0.02    0.26
   7   8   3   15.43    1.36
   8   8   3   24.37    2.25
   9   8   3   16.92    1.89
  10   8   3    2.17    0.77
  11   8   3    7.42    1.40
  12   8   3    3.22    1.06
  13   8   3    0.05    0.72
 -13   9   3    0.29    0.87
 -12   9   3    0.79    0.64
 -11   9   3    0.40    0.49
 -10   9   3   15.39    1.61
  -9   9   3   47.98    2.84
  -8   9   3   13.90    1.78
  -7   9   3    3.50    0.91
  -6   9   3   12.89    1.68
  -5   9   3   37.10    2.00
  -4   9   3    0.22    0.30
  -3   9   3    0.25    0.28
  -2   9   3   82.38    2.74
  -1   9   3   24.59    1.68
   0   9   3   -0.27    0.21
   1   9   3   26.54    1.71
   2   9   3   78.53    2.63
   3   9   3   -0.05    0.29
   4   9   3   -0.01    0.26
   5   9   3   45.12    2.42
   6   9   3   14.09    1.33
   7   9   3    3.54    0.91
   8   9   3   15.38    1.84
   9   9   3   50.33    2.87
  10   9   3   17.74    2.04
  11   9   3    0.47    0.64
  12   9   3    0.23    0.74
  13   9   3   -0.34    1.11
 -12  10   3    9.75    1.90
 -11  10   3   25.92    2.77
 -10  10   3    0.59    0.66
  -9  10   3    0.86    0.58
  -8  10   3    2.71    0.88
  -7  10   3    1.28    0.62
  -6  10   3   16.34    1.92
  -5  10   3    2.23    0.65
  -4  10   3   42.80    2.05
  -3  10   3    8.73    1.02
  -2  10   3    0.08    0.30
  -1  10   3   36.96    1.81
   0  10   3   17.32    1.45
   1  10   3   35.33    1.83
   2  10   3    0.05    0.30
   3  10   3    8.58    1.03
   4  10   3   49.50    2.09
   5  10   3    1.68    0.67
   6  10   3   17.80    1.93
   7  10   3    0.13    0.44
   8  10   3    3.74    1.04
   9  10   3    1.58    0.80
  10  10   3    1.13    0.69
  11  10   3   25.92    2.72
  12  10   3    7.58    2.24
 -11  11   3    0.32    0.63
 -10  11   3    0.43    0.65
  -9  11   3   15.20    2.06
  -8  11   3    0.89    0.63
  -7  11   3   52.12    3.02
  -6  11   3   22.88    2.29
  -5  11   3    2.37    0.80
  -4  11   3    7.26    1.02
  -3  11   3    0.13    0.30
  -2  11   3   12.11    1.28
  -1  11   3   29.21    1.98
   0  11   3    0.26    0.32
   1  11   3   33.00    2.09
   2  11   3   11.74    1.23
   3  11   3    0.15    0.31
   4  11   3    8.16    1.06
   5  11   3    5.33    1.07
   6  11   3   27.42    2.44
   7  11   3   54.76    3.02
   8  11   3    1.34    0.70
   9  11   3   15.68    1.91
  10  11   3   -0.01    1.07
  11  11   3    0.47    1.09
 -10  12   3    9.64    1.75
  -9  12   3    6.64    1.36
  -8  12   3    0.89    0.75
  -7  12   3   11.75    1.72
  -6  12   3    0.30    0.51
  -5  12   3   12.57    1.69
  -4  12   3   23.22    1.88
  -3  12   3   13.74    1.40
  -2  12   3    2.16    0.66
  -1  12   3    0.69    0.39
   0  12   3   16.65    1.53
   1  12   3    0.56    0.40
   2  12   3    1.39    0.51
   3  12   3   17.35    1.58
   4  12   3   21.50    1.76
   5  12   3   12.98    1.73
   6  12   3    0.07    0.50
   7  12   3    9.09    2.20
   8  12   3    1.32    1.16
   9  12   3    6.98    2.04
  10  12   3   15.82    3.14
  -9  13   3    7.23    1.50
  -8  13   3   14.19    2.09
  -7  13   3    5.86    1.28
  -6  13   3    0.30    0.57
  -5  13   3    0.77    0.51
  -4  13   3    1.35    0.68
  -3  13   3   51.84    2.88
  -2  13   3   11.47    1.31
  -1  13   3   -0.17    0.34
   0  13   3   -0.15    0.34
   1  13   3    0.04    0.37
   2  13   3   13.56    1.42
   3  13   3   50.55    2.94
   4  13   3    2.00    0.82
   5  13   3    0.30    0.75
   6  13   3    0.59    0.95
   7  13   3    6.26    1.84
   8  13   3   11.53    2.61
   9  13   3    8.72    2.42
  -8  14   3   21.85    3.64
  -7  14   3   -0.19    0.52
  -6  14   3    0.38    0.67
  -5  14   3    0.66    0.67
  -4  14   3   15.78    2.05
  -3  14   3    1.23    0.59
  -2  14   3    1.74    0.65
  -1  14   3    7.64    1.37
   0  14   3   46.50    3.52
   1  14   3    7.23    1.29
   2  14   3    1.23    0.65
   3  14   3    1.09    0.73
   4  14   3   19.45    2.31
   5  14   3    1.46    1.05
   6  14   3    0.24    0.87
   7  14   3    0.56    0.97
  -7  15   3   -0.20    1.07
  -6  15   3   31.45    3.22
  -5  15   3   21.89    2.46
  -4  15   3   11.46    1.76
  -3  15   3    8.89    1.59
  -2  15   3    2.68    1.00
  -1  15   3    0.34    0.61
   0  15   3   -0.07    0.58
   1  15   3    0.14    0.61
   2  15   3    1.93    0.83
   3  15   3    5.40    1.24
   4  15   3   11.52    1.88
   5  15   3   27.57    3.88
   6  15   3   35.89    5.28
  -4  16   3    0.41    1.03
  -3  16   3   16.26    2.23
  -2  16   3   14.79    2.00
  -1  16   3    2.67    1.01
   0  16   3   33.07    4.22
   1  16   3    2.92    1.05
   2  16   3   10.84    1.81
   3  16   3   11.39    1.81
   4  16   3   -0.16    1.09
  -4 -14   4    7.05    2.28
  -3 -14   4    2.22    1.41
  -2 -14   4    4.23    2.00
  -1 -14   4    4.47    2.14
   0 -14   4   34.03    5.11
   1 -14   4    6.03    2.25
   2 -14   4    3.69    2.55
   4 -14   4    6.37    2.06
  -5 -13   4   46.99    3.80
  -4 -13   4    7.31    2.33
  -3 -13   4    3.29    1.69
  -2 -13   4    1.37    1.19
  -1 -13   4    0.76    1.10
   0 -13   4   -0.09    0.88
   1 -13   4    1.44    1.17
   2 -13   4    2.29    1.26
   3 -13   4    0.80    0.79
   4 -13   4    9.49    1.72
   5 -13   4   43.05    3.63
   6 -13   4   20.81    3.83
  -7 -12   4   19.52    4.48
  -6 -12   4    5.03    1.75
  -5 -12   4    0.37    0.74
  -4 -12   4    2.66    1.45
  -3 -12   4    9.43    2.30
  -2 -12   4   26.87    3.98
  -1 -12   4   16.25    3.11
   0 -12   4    8.83    2.36
   1 -12   4   19.92    3.65
   2 -12   4   27.32    2.69
   3 -12   4    7.62    1.45
   4 -12   4    2.10    0.96
   5 -12   4    0.65    0.74
   6 -12   4    4.12    1.15
   7 -12   4   13.27    2.04
  -8 -11   4    0.57    1.03
  -7 -11   4    1.48    1.12
  -6 -11   4   -0.19    0.74
  -5 -11   4    1.10    0.75
  -4 -11   4    4.89    1.14
  -3 -11   4    7.47    2.14
  -2 -11   4    8.62    2.32
  -1 -11   4   35.72    4.49
   0 -11   4   -0.48    0.70
   1 -11   4   33.77    2.82
   2 -11   4   11.45    1.69
   3 -11   4   10.15    1.64
   4 -11   4    1.46    0.67
   5 -11   4    0.38    0.70
   6 -11   4    1.18    0.78
   7 -11   4    2.03    0.93
   8 -11   4   -0.04    0.76
   9 -11   4   22.98    3.57
  -9 -10   4    3.16    1.40
  -8 -10   4    1.68    1.25
  -7 -10   4    3.51    1.34
  -6 -10   4    6.92    1.79
  -5 -10   4    3.58    0.97
  -4 -10   4   34.30    2.87
  -3 -10   4   14.51    2.63
  -2 -10   4    6.96    1.90
  -1 -10   4   12.24    2.55
   0 -10   4    0.37    0.53
   1 -10   4   13.62    1.77
   2 -10   4    5.63    1.19
   3 -10   4   22.97    2.37
   4 -10   4   36.69    3.14
   5 -10   4    2.93    0.97
   6 -10   4    7.90    1.51
   7 -10   4    2.06    0.93
   8 -10   4    3.96    1.16
   9 -10   4    1.76    0.93
  10 -10   4    1.67    1.13
 -10  -9   4   10.12    2.51
  -9  -9   4    0.25    0.93
  -8  -9   4    0.60    1.03
  -7  -9   4   18.47    2.87
  -6  -9   4   48.72    3.87
  -5  -9   4    8.95    1.38
  -4  -9   4    0.83    0.60
  -3  -9   4   15.99    2.70
  -2  -9   4   13.99    2.70
  -1  -9   4    0.37    0.53
   0  -9   4    0.45    0.52
   1  -9   4    0.59    0.54
   2  -9   4   14.70    1.77
   3  -9   4   17.53    2.06
   4  -9   4    1.15    0.69
   5  -9   4    9.65    1.54
   6  -9   4   48.66    3.24
   7  -9   4   18.96    2.26
   8  -9   4    1.90    0.91
   9  -9   4   -0.49    0.56
  10  -9   4    9.47    1.71
 -11  -8   4    5.18    1.36
 -10  -8   4   21.73    3.45
  -9  -8   4    2.84    1.34
  -8  -8   4   21.21    3.13
  -7  -8   4    9.39    2.06
  -6  -8   4    5.87    1.50
  -5  -8   4   11.70    1.59
  -4  -8   4    4.60    0.97
  -3  -8   4   15.29    1.74
  -2  -8   4    0.42    0.72
  -1  -8   4   23.59    2.14
   0  -8   4   62.09    2.98
   1  -8   4   20.48    2.03
   2  -8   4   -0.04    0.40
   3  -8   4   18.18    2.02
   4  -8   4    2.41    0.84
   5  -8   4    7.76    1.38
   6  -8   4    5.13    1.16
   7  -8   4    8.73    1.53
   8  -8   4   17.98    2.18
   9  -8   4    3.77    1.13
  10  -8   4   17.70    2.21
 -12  -7   4    1.36    2.18
 -11  -7   4    6.65    1.32
 -10  -7   4    0.71    0.67
  -9  -7   4   31.57    2.84
  -8  -7   4   14.10    2.49
  -7  -7   4   13.29    2.40
  -6  -7   4    4.51    1.09
  -5  -7   4    9.12    1.32
  -4  -7   4    0.78    0.56
  -3  -7   4   46.13    2.47
  -2  -7   4    4.53    0.94
  -1  -7   4    8.11    1.21
   0  -7   4    0.06    0.39
   1  -7   4   10.00    1.37
   2  -7   4    5.34    0.98
   3  -7   4   44.79    2.56
   4  -7   4    1.47    0.73
   5  -7   4    6.91    1.29
   6  -7   4    6.63    1.26
   7  -7   4   20.01    2.22
   8  -7   4    9.79    1.57
   9  -7   4   22.84    2.38
  10  -7   4    0.33    0.62
  11  -7   4    5.01    1.79
 -12  -6   4    0.30    0.76
 -11  -6   4    0.86    0.74
 -10  -6   4   10.04    1.59
  -9  -6   4   13.82    1.84
  -8  -6   4   36.04    2.84
  -7  -6   4   17.06    1.82
  -6  -6   4    1.95    0.64
  -5  -6   4   28.64    2.29
  -4  -6   4    1.26    0.53
  -3  -6   4   88.68    2.77
  -2  -6   4   27.60    2.16
  -1  -6   4    0.18    0.39
   0  -6   4   43.63    2.34
   1  -6   4    0.69    0.46
   2  -6   4   22.42    2.08
   3  -6   4   81.82    3.57
   4  -6   4    1.40    0.64
   5  -6   4   28.22    2.02
   6  -6   4    1.72    0.53
   7  -6   4   21.11    1.76
   8  -6   4   31.71    2.19
   9  -6   4   11.37    1.33
  10  -6   4    6.34    1.04
  11  -6   4    0.89    0.77
  12  -6   4    1.57    0.99
 -13  -5   4    1.17    1.44
 -12  -5   4    3.88    1.14
 -11  -5   4    1.14    0.77
 -10  -5   4   10.67    1.64
  -9  -5   4   16.66    1.91
  -8  -5   4   -0.04    0.46
  -7  -5   4    8.37    1.32
  -6  -5   4   54.35    2.15
  -5  -5   4    7.65    1.11
  -4  -5   4    5.58    0.78
  -3  -5   4    0.15    0.29
  -2  -5   4   35.68    2.20
  -1  -5   4   19.07    1.79
   0  -5   4    0.29    0.39
   1  -5   4   19.27    1.50
   2  -5   4   36.70    1.76
   3  -5   4    0.13    0.29
   4  -5   4    5.94    0.79
   5  -5   4    7.16    0.98
   6  -5   4   51.90    2.22
   7  -5   4    5.53    0.90
   8  -5   4   -0.31    0.33
   9  -5   4   19.32    1.72
  10  -5   4    9.14    1.21
  11  -5   4    2.26    0.94
  12  -5   4    2.94    1.15
 -13  -4   4   -0.30    1.19
 -12  -4   4   65.64    3.65
 -11  -4   4    3.83    1.09
 -10  -4   4    2.50    0.89
  -9  -4   4    1.36    0.70
  -8  -4   4    0.22    0.46
  -7  -4   4    2.32    0.69
  -6  -4   4   27.45    1.77
  -5  -4   4    2.30    0.47
  -4  -4   4   27.86    1.58
  -3  -4   4    1.10    0.41
  -2  -4   4   60.80    2.09
  -1  -4   4    0.24    0.31
   0  -4   4   36.95    1.74
   1  -4   4    0.24    0.29
   2  -4   4   61.41    2.22
   3  -4   4    1.74    0.50
   4  -4   4   29.69    1.74
   5  -4   4    1.75    0.51
   6  -4   4   26.62    1.85
   7  -4   4    2.03    0.59
   8  -4   4   -0.09    0.30
   9  -4   4    1.46    0.58
  10  -4   4    3.74    0.82
  11  -4   4    4.30    1.17
  12  -4   4   75.63    4.09
  13  -4   4   -0.50    0.74
 -13  -3   4    3.20    1.54
 -12  -3   4   -0.55    0.79
 -11  -3   4    5.46    0.93
 -10  -3   4   -0.27    0.34
  -9  -3   4   64.79    2.66
  -8  -3   4   14.62    1.39
  -7  -3   4    8.20    1.02
  -6  -3   4   61.47    1.94
  -5  -3   4    2.52    0.36
  -4  -3   4   10.62    0.79
  -3  -3   4   22.61    1.48
  -2  -3   4    0.81    0.36
  -1  -3   4   51.50    1.96
   0  -3   4   -0.02    0.25
   1  -3   4   49.03    1.95
   2  -3   4    0.67    0.36
   3  -3   4   23.18    1.59
   4  -3   4    9.43    1.07
   5  -3   4    2.60    0.59
   6  -3   4   59.99    2.38
   7  -3   4    6.71    0.99
   8  -3   4   15.99    1.52
   9  -3   4   71.48    2.82
  10  -3   4    0.18    0.45
  11  -3   4    7.29    1.47
  12  -3   4    0.72    0.75
  13  -3   4    5.07    1.41
 -13  -2   4    0.72    0.76
 -12  -2   4    2.79    0.96
 -11  -2   4    3.90    1.07
 -10  -2   4    7.51    1.39
  -9  -2   4   19.98    1.72
  -8  -2   4    1.84    0.56
  -7  -2   4   21.15    1.57
  -6  -2   4   14.24    0.80
  -5  -2   4   22.85    1.00
  -4  -2   4   59.98    1.36
  -3  -2   4   50.44    1.45
  -2  -2   4    5.93    0.65
  -1  -2   4    0.10    0.28
   0  -2   4    0.49    0.33
   1  -2   4    0.18    0.29
   2  -2   4    4.86    0.74
   3  -2   4   49.86    2.02
   4  -2   4   56.60    2.22
   5  -2   4   20.76    1.58
   6  -2   4   14.35    1.34
   7  -2   4   23.21    1.76
   8  -2   4    1.35    0.49
   9  -2   4   14.42    1.48
  10  -2   4    9.77    1.21
  11  -2   4    3.71    1.10
  12  -2   4    3.63    1.10
  13  -2   4    0.02    0.79
 -13  -1   4   11.69    1.89
 -12  -1   4    6.06    1.32
 -11  -1   4   12.38    1.81
 -10  -1   4   -0.45    0.38
  -9  -1   4    6.80    1.25
  -8  -1   4    0.10    0.34
  -7  -1   4    2.23    0.48
  -6  -1   4   54.12    1.60
  -5  -1   4    9.89    0.65
  -4  -1   4   34.34    1.00
  -3  -1   4   47.43    1.42
  -2  -1   4    9.36    0.82
  -1  -1   4    0.73    0.30
   0  -1   4    0.27    0.23
   1  -1   4    0.46    0.31
   2  -1   4   10.51    1.08
   3  -1   4   48.80    1.99
   4  -1   4   34.01    1.75
   5  -1   4    6.84    0.90
   6  -1   4   53.08    2.20
   7  -1   4    1.05    0.45
   8  -1   4   -0.15    0.29
   9  -1   4    5.19    0.88
  10  -1   4   -0.13    0.51
  11  -1   4   13.32    1.89
  12  -1   4    8.19    1.54
  13  -1   4   12.89    1.99
 -13   0   4    0.25    0.65
 -12   0   4   16.62    2.17
 -11   0   4   -0.06    0.51
 -10   0   4   57.38    3.17
  -9   0   4   -0.33    0.33
  -8   0   4   49.13    2.16
  -7   0   4   -0.03    0.29
  -6   0   4    0.37    0.31
  -5   0   4   -0.02    0.19
  -4   0   4    1.07    0.31
  -3   0   4   -0.01    0.19
  -2   0   4    1.00    0.31
  -1   0   4    0.06    0.20
   0   0   4  447.24    7.06
   1   0   4   -0.15    0.18
   2   0   4    0.93    0.31
   3   0   4    0.06    0.22
   4   0   4    1.03    0.39
   5   0   4   -0.04    0.25
   6   0   4    0.26    0.28
   7   0   4    0.56    0.37
   8   0   4   41.23    2.76
   9   0   4    0.44    0.47
  10   0   4   42.86    3.26
  11   0   4    0.18    0.59
  12   0   4   18.00    2.20
  13   0   4   -0.09    0.71
 -13   1   4   11.33    1.92
 -12   1   4    6.32    1.36
 -11   1   4   13.64    1.87
 -10   1   4    0.12    0.40
  -9   1   4    6.00    0.97
  -8   1   4    0.02    0.34
  -7   1   4    2.16    0.57
  -6   1   4   52.30    1.83
  -5   1   4    8.04    0.81
  -4   1   4   37.22    1.46
  -3   1   4   48.27    1.63
  -2   1   4    9.42    0.84
  -1   1   4    0.78    0.36
   0   1   4   -0.07    0.20
   1   1   4    0.71    0.29
   2   1   4    8.66    0.83
   3   1   4   43.71    1.60
   4   1   4   35.44    1.55
   5   1   4    7.87    0.89
   6   1   4   49.00    2.65
   7   1   4    1.88    0.68
   8   1   4   -0.16    0.37
   9   1   4    4.78    1.08
  10   1   4   -0.22    0.51
  11   1   4   14.11    1.89
  12   1   4   10.33    1.74
  13   1   4   13.23    3.05
 -13   2   4    1.89    0.96
 -12   2   4    2.29    0.95
 -11   2   4    4.20    1.10
 -10   2   4   11.54    1.42
  -9   2   4   16.05    1.56
  -8   2   4    0.90    0.43
  -7   2   4   21.20    1.62
  -6   2   4   12.26    1.21
  -5   2   4   17.83    1.44
  -4   2   4   57.02    1.87
  -3   2   4   47.62    1.67
  -2   2   4    5.56    0.67
  -1   2   4    0.55    0.31
   0   2   4    0.86    0.35
   1   2   4    0.32    0.30
   2   2   4    5.35    0.78
   3   2   4   48.31    1.93
   4   2   4   57.11    2.15
   5   2   4   19.45    1.48
   6   2   4   14.54    1.31
   7   2   4   22.36    1.65
   8   2   4    1.01    0.53
   9   2   4   17.95    2.02
  10   2   4    9.67    1.54
  11   2   4    3.62    0.90
  12   2   4    4.13    1.68
  13   2   4    1.66    1.17
 -13   3   4    3.23    1.21
 -12   3   4    0.55    0.68
 -11   3   4    5.57    1.03
 -10   3   4    0.02    0.42
  -9   3   4   71.08    2.82
  -8   3   4   18.47    1.78
  -7   3   4    7.08    1.00
  -6   3   4   60.18    2.40
  -5   3   4    2.36    0.56
  -4   3   4    9.83    1.06
  -3   3   4   20.26    1.30
  -2   3   4    0.78    0.32
  -1   3   4   51.35    2.05
   0   3   4    0.16    0.26
   1   3   4   51.09    2.02
   2   3   4    1.08    0.38
   3   3   4   21.39    1.53
   4   3   4   10.00    1.07
   5   3   4    2.21    0.55
   6   3   4   61.86    2.35
   7   3   4    8.85    0.98
   8   3   4   19.00    1.57
   9   3   4   74.55    3.54
  10   3   4    0.14    0.44
  11   3   4    5.06    1.24
  12   3   4    1.31    1.23
 -13   4   4   -0.41    0.90
 -12   4   4   65.49    3.78
 -11   4   4    3.50    0.92
 -10   4   4    1.99    0.79
  -9   4   4    1.59    0.73
  -8   4   4   -0.24    0.41
  -7   4   4    2.09    0.63
  -6   4   4   25.28    1.84
  -5   4   4    1.66    0.51
  -4   4   4   30.56    1.96
  -3   4   4    1.12    0.43
  -2   4   4   60.26    1.93
  -1   4   4    0.10    0.30
   0   4   4   34.20    1.75
   1   4   4    0.37    0.29
   2   4   4   58.81    2.24
   3   4   4    0.82    0.40
   4   4   4   25.06    1.74
   5   4   4    1.88    0.55
   6   4   4   29.69    1.97
   7   4   4    1.44    0.52
   8   4   4    0.00    0.29
   9   4   4    0.98    0.52
  10   4   4    2.98    0.73
  11   4   4    2.79    1.34
  12   4   4   63.68    5.29
 -12   5   4    2.06    0.93
 -11   5   4    2.20    0.94
 -10   5   4   10.72    1.59
  -9   5   4   17.99    2.08
  -8   5   4    0.04    0.49
  -7   5   4    3.41    0.89
  -6   5   4   50.03    2.28
  -5   5   4    6.41    0.92
  -4   5   4    5.02    0.81
  -3   5   4    0.10    0.30
  -2   5   4   39.64    1.80
  -1   5   4   19.31    1.32
   0   5   4   -0.12    0.28
   1   5   4   12.17    1.22
   2   5   4   34.74    1.71
   3   5   4   -0.07    0.25
   4   5   4    4.90    0.72
   5   5   4    8.47    0.97
   6   5   4   54.26    2.29
   7   5   4    5.18    0.86
   8   5   4   -0.04    0.32
   9   5   4   19.52    1.73
  10   5   4   10.74    1.64
  11   5   4    3.64    1.14
  12   5   4    4.96    1.79
 -12   6   4    0.31    0.92
 -11   6   4    0.10    0.60
 -10   6   4    4.34    1.14
  -9   6   4   12.43    1.74
  -8   6   4   34.73    3.02
  -7   6   4   18.31    2.10
  -6   6   4    1.78    0.58
  -5   6   4   25.26    1.92
  -4   6   4    1.34    0.52
  -3   6   4   88.98    2.95
  -2   6   4   25.56    1.76
  -1   6   4    0.28    0.26
   0   6   4   38.67    1.97
   1   6   4    0.08    0.26
   2   6   4   24.29    1.76
   3   6   4   91.66    3.00
   4   6   4    1.14    0.44
   5   6   4   26.70    1.86
   6   6   4    1.44    0.51
   7   6   4   18.75    1.64
   8   6   4   35.02    2.31
   9   6   4   14.44    1.49
  10   6   4    8.70    1.45
  11   6   4    0.82    0.70
  12   6   4    0.82    0.86
 -11   7   4    5.09    1.26
 -10   7   4   -0.21    0.52
  -9   7   4   26.50    2.65
  -8   7   4    8.34    1.45
  -7   7   4   16.00    1.97
  -6   7   4    5.23    0.90
  -5   7   4   10.81    1.28
  -4   7   4    1.47    0.53
  -3   7   4   45.45    2.09
  -2   7   4    4.56    0.79
  -1   7   4   10.32    1.11
   0   7   4    0.18    0.38
   1   7   4   10.24    1.14
   2   7   4    3.93    0.73
   3   7   4   42.55    2.03
   4   7   4    2.40    0.61
   5   7   4    8.48    1.09
   6   7   4    4.07    0.83
   7   7   4   15.89    1.51
   8   7   4   10.37    1.28
   9   7   4   25.24    2.54
  10   7   4    0.50    0.68
  11   7   4    9.05    1.58
  12   7   4    0.24    1.22
 -11   8   4    6.61    2.37
 -10   8   4   18.31    2.36
  -9   8   4    1.62    0.76
  -8   8   4   19.96    2.19
  -7   8   4   13.36    1.79
  -6   8   4    3.41    0.74
  -5   8   4    8.33    1.15
  -4   8   4    5.28    0.88
  -3   8   4   18.88    1.65
  -2   8   4   -0.03    0.28
  -1   8   4   23.91    1.78
   0   8   4   60.80    3.01
   1   8   4   19.81    2.04
   2   8   4    0.32    0.40
   3   8   4   15.83    1.48
   4   8   4    3.80    0.73
   5   8   4    8.99    1.04
   6   8   4    4.91    0.84
   7   8   4   10.96    1.30
   8   8   4   15.03    1.89
   9   8   4    4.09    1.15
  10   8   4   19.29    2.34
  11   8   4    7.22    1.51
 -10   9   4    9.96    1.78
  -9   9   4    0.04    0.60
  -8   9   4    0.95    0.70
  -7   9   4   21.77    2.31
  -6   9   4   47.50    2.62
  -5   9   4    7.47    1.10
  -4   9   4    0.86    0.46
  -3   9   4   19.54    1.71
  -2   9   4    9.88    1.19
  -1   9   4    0.73    0.45
   0   9   4   -0.03    0.41
   1   9   4    0.99    0.55
   2   9   4   12.31    1.65
   3   9   4   19.27    2.06
   4   9   4    0.80    0.55
   5   9   4    8.25    1.13
   6   9   4   50.16    2.38
   7   9   4   20.76    2.26
   8   9   4    0.74    0.66
   9   9   4   -0.11    0.56
  10   9   4   10.58    1.76
  -9  10   4    1.96    0.90
  -8  10   4    3.81    1.13
  -7  10   4    2.96    0.98
  -6  10   4    8.87    1.51
  -5  10   4    1.01    0.52
  -4  10   4   31.45    2.24
  -3  10   4   22.72    1.93
  -2  10   4    5.30    0.92
  -1  10   4   12.27    1.36
   0  10   4    0.47    0.52
   1  10   4   13.20    1.77
   2  10   4    5.18    1.11
   3  10   4   25.60    2.48
   4  10   4   31.17    2.74
   5  10   4    2.11    0.75
   6  10   4    6.62    1.29
   7  10   4    3.63    1.10
   8  10   4    3.81    1.16
   9  10   4    2.17    0.96
  10  10   4    0.43    1.19
  -8  11   4    0.37    0.67
  -7  11   4    2.18    0.93
  -6  11   4   -0.10    0.53
  -5  11   4    0.72    0.56
  -4  11   4    4.05    0.83
  -3  11   4    7.16    1.12
  -2  11   4   11.24    1.38
  -1  11   4   32.92    2.29
   0  11   4   -0.33    0.42
   1  11   4   32.33    2.78
   2  11   4    9.65    1.50
   3  11   4    8.30    1.51
   4  11   4    4.07    1.08
   5  11   4    0.09    0.62
   6  11   4    0.14    0.58
   7  11   4    1.72    0.84
   8  11   4    1.08    0.83
   9  11   4   26.39    3.95
  -7  12   4   13.30    2.14
  -6  12   4    5.72    1.34
  -5  12   4    1.49    0.65
  -4  12   4    2.47    0.74
  -3  12   4    7.75    1.12
  -2  12   4   22.46    1.98
  -1  12   4   23.02    1.98
   0  12   4    9.37    1.52
   1  12   4   18.54    2.17
   2  12   4   27.30    2.66
   3  12   4   11.13    1.77
   4  12   4    4.23    1.16
   5  12   4    1.37    0.80
   6  12   4    7.34    1.50
   7  12   4   13.77    2.13
   8  12   4    2.54    1.48
  -6  13   4   13.12    3.17
  -5  13   4   48.71    3.90
  -4  13   4    6.89    1.15
  -3  13   4    1.10    0.64
  -2  13   4    1.95    0.71
  -1  13   4    0.84    0.62
   0  13   4   -0.01    0.61
   1  13   4    0.60    0.73
   2  13   4    1.55    0.84
   3  13   4    0.69    0.75
   4  13   4   10.46    1.72
   5  13   4   42.65    3.72
  -4  14   4    6.24    2.11
  -3  14   4    0.79    0.79
  -2  14   4    3.46    0.94
  -1  14   4    7.87    1.28
   0  14   4   40.14    4.72
   1  14   4    8.67    1.54
  -3 -11   5   -0.87    1.22
  -2 -11   5    6.00    2.01
  -1 -11   5   20.85    4.21
   0 -11   5    0.29    1.84
   3 -11   5   -1.12    0.95
  -4 -10   5   22.26    3.67
  -3 -10   5    1.27    1.32
  -2 -10   5    0.07    1.19
  -1 -10   5   15.35    3.20
   0 -10   5    6.54    2.29
   1 -10   5   13.35    3.13
   2 -10   5    0.03    0.75
   3 -10   5    1.43    0.89
   4 -10   5   25.93    3.84
  -4  -9   5   -1.19    0.85
  -3  -9   5    0.67    1.11
  -2  -9   5   39.16    4.71
  -1  -9   5   20.47    3.51
   0  -9   5    0.51    0.99
   1  -9   5    8.78    1.45
   2  -9   5   37.84    3.20
   3  -9   5   -0.35    0.54
   4  -9   5   -0.11    0.58
   5  -9   5   15.84    2.19
   6  -9   5    6.13    3.15
  -7  -8   5    6.56    1.98
  -4  -8   5   10.43    2.32
  -3  -8   5   12.04    2.46
  -2  -8   5   19.30    3.22
  -1  -8   5    6.87    1.98
   0  -8   5    5.01    1.16
   1  -8   5    7.93    1.42
   2  -8   5   13.52    1.89
   3  -8   5    9.43    1.58
   4  -8   5    7.69    1.47
   5  -8   5    7.04    1.51
   6  -8   5   -0.10    0.56
   7  -8   5    6.24    2.05
  -8  -7   5    3.09    1.48
  -7  -7   5    5.55    1.82
  -6  -7   5    7.03    1.95
  -5  -7   5   72.33    7.29
  -4  -7   5    1.76    1.16
  -3  -7   5    5.79    1.70
  -2  -7   5    1.39    1.07
  -1  -7   5    1.06    0.66
   0  -7   5    1.06    0.67
   1  -7   5    0.17    0.60
   2  -7   5    1.45    0.72
   3  -7   5    5.11    1.18
   4  -7   5    1.13    0.73
   5  -7   5   60.64    3.53
   6  -7   5    6.49    1.32
   7  -7   5    3.63    1.13
   8  -7   5    5.01    1.80
  -9  -6   5    1.75    1.34
  -8  -6   5   12.44    2.61
  -7  -6   5    4.16    1.49
  -6  -6   5    2.46    1.21
  -5  -6   5    1.14    1.04
  -4  -6   5    0.83    0.93
  -3  -6   5    0.39    0.74
  -2  -6   5   -0.10    0.52
  -1  -6   5   51.68    2.93
   0  -6   5   28.35    2.55
   1  -6   5   52.74    3.03
   2  -6   5   -0.19    0.42
   3  -6   5    0.39    0.53
   4  -6   5    0.02    0.55
   5  -6   5    3.86    1.14
   6  -6   5    0.42    0.62
   7  -6   5    5.32    1.32
   8  -6   5   11.23    1.87
   9  -6   5   -0.32    0.93
  -8  -5   5    3.77    1.57
  -7  -5   5   19.31    2.86
  -6  -5   5   13.14    2.45
  -5  -5   5   -0.40    0.65
  -4  -5   5   -0.66    0.69
  -3  -5   5   22.93    2.24
  -2  -5   5   47.14    3.29
  -1  -5   5    1.72    0.75
   0  -5   5    0.09    0.48
   1  -5   5    2.34    0.84
   2  -5   5   33.20    2.84
   3  -5   5   18.19    2.06
   4  -5   5    0.33    0.51
   5  -5   5    0.73    0.61
   6  -5   5   11.54    1.83
   7  -5   5   20.47    2.43
   8  -5   5    2.97    1.05
   9  -5   5    0.38    1.03
 -10  -4   5    1.86    1.40
  -9  -4   5    0.89    1.13
  -5  -4   5    0.30    0.77
  -4  -4   5   64.65    4.47
  -3  -4   5    2.82    0.82
  -2  -4   5    7.68    1.34
  -1  -4   5    4.58    1.01
   0  -4   5    1.36    0.72
   1  -4   5    5.18    1.13
   2  -4   5    5.18    1.16
   3  -4   5    2.98    0.87
   4  -4   5   63.99    2.67
   5  -4   5    0.01    0.46
   6  -4   5    6.74    1.13
   7  -4   5    4.41    0.86
   8  -4   5    6.97    1.11
   9  -4   5    0.83    0.66
  10  -4   5    0.76    0.91
 -10  -3   5   11.88    2.69
  -5  -3   5   22.57    3.04
  -4  -3   5    6.25    1.14
  -3  -3   5    1.44    0.67
  -2  -3   5   30.04    2.58
  -1  -3   5   47.78    2.76
   0  -3   5    0.19    0.37
   1  -3   5   48.42    2.32
   2  -3   5   32.37    2.15
   3  -3   5    1.59    0.56
   4  -3   5    5.50    0.94
   5  -3   5   22.44    1.87
   6  -3   5    0.56    0.44
   7  -3   5   46.52    2.64
   8  -3   5   10.14    1.21
   9  -3   5   11.97    1.50
  10  -3   5   11.81    1.85
 -10  -2   5    1.29    1.17
  -9  -2   5    0.18    0.85
  -5  -2   5    0.95    0.65
  -4  -2   5   10.11    1.19
  -3  -2   5    5.25    0.85
  -2  -2   5   10.29    1.20
  -1  -2   5   45.30    2.13
   0  -2   5   -0.12    0.36
   1  -2   5   48.59    2.23
   2  -2   5   10.86    1.27
   3  -2   5    4.76    0.86
   4  -2   5    9.28    1.18
   5  -2   5    0.26    0.44
   6  -2   5    0.21    0.44
   7  -2   5   11.43    1.39
   8  -2   5    0.00    0.47
   9  -2   5    0.34    0.51
  10  -2   5    1.22    0.92
 -10  -1   5   21.25    3.65
  -9  -1   5    0.63    1.05
  -8  -1   5   15.50    2.98
  -7  -1   5    0.30    0.91
  -6  -1   5   -0.67    0.74
  -5  -1   5   55.96    2.95
  -4  -1   5    4.10    0.98
  -3  -1   5   17.38    1.57
  -2  -1   5   11.04    1.50
  -1  -1   5    0.32    0.39
   0  -1   5   -0.14    0.34
   1  -1   5    0.35    0.39
   2  -1   5   15.91    1.43
   3  -1   5   16.65    1.58
   4  -1   5    3.66    0.77
   5  -1   5   55.33    2.53
   6  -1   5   -0.01    0.43
   7  -1   5    0.01    0.44
   8  -1   5   11.78    1.73
   9  -1   5    1.18    0.77
  10  -1   5   22.37    2.58
 -10   0   5    0.39    1.07
  -9   0   5   -0.12    0.88
  -8   0   5   72.51    3.73
  -7   0   5    0.00    0.86
  -6   0   5    9.47    1.50
  -5   0   5    0.11    0.44
  -4   0   5   49.42    2.21
  -3   0   5   -0.42    0.43
  -2   0   5   39.04    2.61
  -1   0   5   -0.26    0.43
   0   0   5    1.69    0.68
   1   0   5    0.11    0.40
   2   0   5   34.73    2.30
   3   0   5    0.10    0.36
   4   0   5   47.61    3.04
   5   0   5    0.25    0.42
   6   0   5    8.00    1.44
   7   0   5    0.28    0.60
   8   0   5   75.03    3.87
   9   0   5   -1.00    0.53
  10   0   5    1.61    0.95
 -10   1   5   25.99    3.98
  -9   1   5    1.22    0.82
  -8   1   5   12.45    1.82
  -7   1   5    0.55    0.86
  -6   1   5    0.09    0.53
  -5   1   5   56.78    3.02
  -4   1   5    4.55    0.84
  -3   1   5   15.26    1.44
  -2   1   5    9.73    1.08
  -1   1   5    0.46    0.52
   0   1   5    0.00    0.43
   1   1   5   -0.02    0.42
   2   1   5   15.25    1.86
   3   1   5   11.76    1.67
   4   1   5    3.89    1.01
   5   1   5   57.53    3.16
   6   1   5    0.49    0.55
   7   1   5    0.55    0.57
   8   1   5   10.29    1.69
   9   1   5   -0.12    0.65
  10   1   5   23.01    2.52
 -10   2   5    1.76    0.91
  -9   2   5    0.16    0.66
  -8   2   5    0.06    0.64
  -7   2   5   14.79    2.30
  -6   2   5    0.14    0.59
  -5   2   5   -0.01    0.54
  -4   2   5    6.92    1.27
  -3   2   5    3.81    0.74
  -2   2   5    8.48    1.08
  -1   2   5   48.91    2.21
   0   2   5    0.34    0.40
   1   2   5   48.74    2.83
   2   2   5   11.66    1.60
   3   2   5    4.50    0.99
   4   2   5    7.83    1.40
   5   2   5    0.74    0.57
   6   2   5    0.21    0.55
   7   2   5   12.66    1.83
   8   2   5    0.71    0.72
   9   2   5    0.34    0.63
  10   2   5    1.59    1.27
 -10   3   5   10.35    1.92
  -9   3   5   11.78    1.80
  -8   3   5    9.27    1.63
  -7   3   5   53.57    2.70
  -6   3   5   -0.14    0.51
  -5   3   5   24.16    2.34
  -4   3   5    5.24    1.13
  -3   3   5    0.93    0.50
  -2   3   5   27.48    2.02
  -1   3   5   56.23    2.42
   0   3   5   -0.18    0.34
   1   3   5   47.70    2.23
   2   3   5   26.13    1.90
   3   3   5    0.69    0.56
   4   3   5    6.06    1.19
   5   3   5   23.41    2.45
   6   3   5    0.48    0.54
   7   3   5   57.03    3.32
   8   3   5   10.98    1.83
   9   3   5   14.44    3.05
  10   3   5    6.53    1.93
 -10   4   5    2.43    1.65
  -9   4   5    0.59    0.80
  -8   4   5    5.58    1.27
  -7   4   5    4.06    0.92
  -6   4   5    4.13    1.13
  -5   4   5    0.56    0.62
  -4   4   5   61.01    3.20
  -3   4   5    2.52    0.86
  -2   4   5    4.96    0.92
  -1   4   5    3.22    0.74
   0   4   5    1.51    0.58
   1   4   5    4.61    0.82
   2   4   5    4.50    0.83
   3   4   5    3.06    0.71
   4   4   5   59.12    2.59
   5   4   5    0.09    0.54
   6   4   5    4.39    1.12
   7   4   5    6.40    1.31
   8   4   5    7.47    1.45
   9   4   5    0.26    0.68
  10   4   5    1.86    1.54
  -9   5   5    2.09    0.97
  -8   5   5    3.77    1.18
  -7   5   5   21.57    1.95
  -6   5   5   11.37    1.73
  -5   5   5   -0.37    0.54
  -4   5   5    0.37    0.56
  -3   5   5   21.30    2.18
  -2   5   5   39.45    3.05
  -1   5   5    1.86    0.63
   0   5   5    0.21    0.40
   1   5   5    0.92    0.50
   2   5   5   42.01    2.38
   3   5   5   21.36    1.80
   4   5   5    0.35    0.41
   5   5   5    0.51    0.51
   6   5   5    8.79    1.54
   7   5   5   24.79    2.62
   8   5   5    3.86    1.15
   9   5   5    0.77    1.10
  -9   6   5   -0.24    1.03
  -8   6   5   11.84    1.93
  -7   6   5    4.40    1.20
  -6   6   5    1.02    0.78
  -5   6   5    3.06    0.97
  -4   6   5    0.67    0.58
  -3   6   5    0.40    0.54
  -2   6   5    0.90    0.63
  -1   6   5   47.82    2.87
   0   6   5   27.07    2.10
   1   6   5   58.27    2.71
   2   6   5    0.57    0.46
   3   6   5    0.56    0.48
   4   6   5    0.32    0.46
   5   6   5    2.17    0.68
   6   6   5    1.23    0.62
   7   6   5    4.07    0.88
   8   6   5   12.91    1.94
   9   6   5    0.50    1.08
  -8   7   5    1.64    1.35
  -7   7   5    7.18    1.53
  -6   7   5    4.74    1.24
  -5   7   5   66.51    3.63
  -4   7   5    0.55    0.55
  -3   7   5    3.76    1.05
  -2   7   5    2.95    0.96
  -1   7   5    1.57    0.74
   0   7   5    0.05    0.54
   1   7   5    0.35    0.59
   2   7   5    2.84    0.77
   3   7   5    5.35    0.96
   4   7   5    1.33    0.60
   5   7   5   69.29    3.61
   6   7   5    6.51    1.15
   7   7   5    3.99    0.94
   8   7   5    4.72    1.24
  -7   8   5    8.03    2.53
  -6   8   5   -0.21    0.69
  -5   8   5    9.72    1.66
  -4   8   5    7.81    1.57
  -3   8   5    9.21    1.54
  -2   8   5   13.37    1.84
  -1   8   5    5.19    1.17
   0   8   5    3.60    0.97
   1   8   5    6.16    1.26
   2   8   5   17.13    2.19
   3   8   5    9.34    1.26
   4   8   5    8.53    1.26
   5   8   5    9.03    1.35
   6   8   5    0.01    0.52
   7   8   5    5.30    1.29
  -5   9   5   12.08    1.86
  -4   9   5   -0.84    0.52
  -3   9   5   -0.67    0.61
  -2   9   5   39.26    3.33
  -1   9   5    9.96    1.64
   0   9   5    0.39    0.62
   1   9   5    8.57    1.49
   2   9   5   42.76    3.41
   3   9   5   -0.06    0.67
   4   9   5   -0.64    0.56
   5   9   5   17.98    2.26
   6   9   5    6.40    1.68
  -3  10   5    1.81    0.89
  -2  10   5   -0.28    0.59
  -1  10   5   16.64    2.10
   0  10   5    7.09    1.42
   1  10   5   13.31    1.92
   2  10   5    0.14    0.60
   3  10   5    4.80    1.30
   4  10   5   22.84    2.57
   0  11   5    0.72    1.10
   1  11   5   18.22    3.81
  -1  -5   6    5.38    1.93
   0  -5   6    0.15    1.14
   1  -5   6    8.75    2.45
  -3  -4   6   -0.03    0.99
  -2  -4   6   18.93    2.25
  -1  -4   6    0.42    0.77
   0  -4   6   17.33    2.23
   1  -4   6    0.48    1.11
   2  -4   6   15.46    3.46
  -3  -3   6    9.34    1.67
  -2  -3   6    1.20    0.79
  -1  -3   6   21.18    2.49
   0  -3   6   -0.49    0.69
   1  -3   6   22.51    2.59
   2  -3   6    0.97    0.89
  -3  -2   6   20.00    3.27
  -2  -2   6    1.01    1.23
  -1  -2   6    0.03    1.02
   0  -2   6    0.12    0.70
   1  -2   6    0.18    0.72
   2  -2   6    1.25    0.82
   3  -2   6   21.50    3.29
   4  -2   6   23.39    3.73
  -4  -1   6   13.32    2.91
  -3  -1   6   20.21    3.36
  -2  -1   6    4.48    1.76
  -1  -1   6    1.35    1.21
   0  -1   6   -0.26    0.67
   1  -1   6    0.07    0.76
   2  -1   6    3.29    1.10
   3  -1   6   19.81    2.30
   4  -1   6    8.77    2.27
   5  -1   6    4.18    1.65
  -4   0   6   -0.23    1.15
  -3   0   6   -0.12    0.68
  -2   0   6    0.35    0.76
  -1   0   6   -0.50    0.64
   0   0   6  173.58    6.28
   1   0   6    0.29    0.71
   2   0   6    0.80    0.78
   3   0   6   -0.21    0.61
   4   0   6    0.42    1.06
   5   0   6    0.60    1.02
  -5   1   6    2.59    1.57
  -4   1   6   12.55    2.72
  -3   1   6   16.77    2.14
  -2   1   6    3.88    1.17
  -1   1   6   -0.26    0.66
   0   1   6    0.02    0.67
   1   1   6    1.07    0.75
   2   1   6    1.25    0.80
   3   1   6   18.02    2.37
   4   1   6    5.88    1.97
  -4   2   6   24.37    3.72
  -3   2   6   23.57    3.64
  -2   2   6    1.39    0.88
  -1   2   6   -0.48    0.60
   0   2   6    0.00    0.69
   1   2   6    0.05    0.71
   2   2   6    2.15    0.96
   3   2   6   15.63    3.00
   4   2   6   22.32    5.51
  -4   3   6    3.95    2.64
  -3   3   6    8.62    2.31
  -2   3   6    0.24    0.73
  -1   3   6   16.71    2.21
   0   3   6    0.50    0.71
   1   3   6   21.17    2.59
   2   3   6    1.30    1.03
   3   3   6    6.48    3.07
  -1   4   6    0.21    1.21
   0   4   6   15.11    2.98
   1   4   6    0.47    1.01
  -2   5   6   18.13    3.17
   0   0   0    0.00    0.00
;
_shelx_hkl_checksum              43260
loop_
_space_group_symop_operation_xyz
'x, y, z'
'-x, -y, z'
'-x+1/2, y+1/2, -z'
'x+1/2, -y+1/2, -z'
'-x, -y, -z'
'x, y, -z'
'x-1/2, -y-1/2, z'
'-x-1/2, y-1/2, z'
loop_
_atom_site_label
_atom_site_type_symbol
_atom_site_fract_x
_atom_site_fract_y
_atom_site_fract_z
_atom_site_U_iso_or_equiv
_atom_site_adp_type
_atom_site_occupancy
_atom_site_site_symmetry_order
_atom_site_calc_flag
_atom_site_refinement_flags_posn
_atom_site_refinement_flags_adp
_atom_site_refinement_flags_occupancy
Ba Ba 0.0000 0.5000 0.5000 0.01715(13) Uani 1 4 d S T P
La La 0.11888(3) 0.14360(3) 0.5000 0.01111(9) Uani 1 2 d S T P
In In 0.28787(4) 0.37759(3) 0.0000 0.01363(11) Uani 1 2 d S T P
S1 S 0.35795(13) 0.28606(12) 0.5000 0.0138(3) Uani 1 2 d S T P
S2 S 0.08293(12) 0.30578(11) 0.0000 0.0123(3) Uani 1 2 d S T P
S3 S 0.28700(12) 0.06262(11) 0.0000 0.0123(3) Uani 1 2 d S T P
S4 S 0.0000 0.0000 0.0000 0.0134(4) Uani 1 4 d S T P
loop_
_atom_site_aniso_label
_atom_site_aniso_U_11
_atom_site_aniso_U_22
_atom_site_aniso_U_33
_atom_site_aniso_U_23
_atom_site_aniso_U_13
_atom_site_aniso_U_12
Ba 0.0168(2) 0.0229(3) 0.0118(2) 0.000 0.000 0.00501(19)
La 0.01296(15) 0.01176(16) 0.00861(15) 0.000 0.000 0.00016(11)
In 0.0162(2) 0.0134(2) 0.01133(18) 0.000 0.000 0.00149(14)
S1 0.0159(6) 0.0157(7) 0.0098(6) 0.000 0.000 0.0018(5)
S2 0.0131(6) 0.0111(6) 0.0127(6) 0.000 0.000 -0.0003(5)
S3 0.0110(6) 0.0108(6) 0.0152(6) 0.000 0.000 -0.0006(5)
S4 0.0145(9) 0.0124(9) 0.0133(9) 0.000 0.000 -0.0032(7)
loop_
_atom_type_symbol
_atom_type_description
_atom_type_scat_dispersion_real
_atom_type_scat_dispersion_imag
_atom_type_scat_source
S S 0.1246 0.1234 'International Tables Vol C Tables 4.2.6.8 and 6.1.1.4'
In In -0.7276 1.3100 'International Tables Vol C Tables 4.2.6.8 and 6.1.1.4'
Ba Ba -0.3244 2.2819 'International Tables Vol C Tables 4.2.6.8 and 6.1.1.4'
La La -0.2871 2.4523 'International Tables Vol C Tables 4.2.6.8 and 6.1.1.4'
loop_
_geom_angle_atom_site_label_1
_geom_angle_atom_site_label_2
_geom_angle_atom_site_label_3
_geom_angle
_geom_angle_site_symmetry_1
_geom_angle_site_symmetry_3
S3 Ba S3 180.0 7_565 3_556
S3 Ba S3 76.16(3) 7_565 7_566
S3 Ba S3 103.84(3) 3_556 7_566
S3 Ba S3 103.84(3) 7_565 3
S3 Ba S3 76.16(3) 3_556 3
S3 Ba S3 180.0 7_566 3
S3 Ba S2 109.46(3) 7_565 5_566
S3 Ba S2 70.54(3) 3_556 5_566
S3 Ba S2 64.70(3) 7_566 5_566
S3 Ba S2 115.30(3) 3 5_566
S3 Ba S2 115.30(3) 7_565 1_556
S3 Ba S2 64.70(3) 3_556 1_556
S3 Ba S2 70.54(3) 7_566 1_556
S3 Ba S2 109.46(3) 3 1_556
S2 Ba S2 103.87(3) 5_566 1_556
S3 Ba S2 64.70(3) 7_565 5_565
S3 Ba S2 115.30(3) 3_556 5_565
S3 Ba S2 109.46(3) 7_566 5_565
S3 Ba S2 70.54(3) 3 5_565
S2 Ba S2 76.13(3) 5_566 5_565
S2 Ba S2 180.0 1_556 5_565
S3 Ba S2 70.54(3) 7_565 .
S3 Ba S2 109.46(3) 3_556 .
S3 Ba S2 115.30(3) 7_566 .
S3 Ba S2 64.70(3) 3 .
S2 Ba S2 180.0 5_566 .
S2 Ba S2 76.13(3) 1_556 .
S2 Ba S2 103.87(3) 5_565 .
S3 Ba Ba 128.080(15) 7_565 1_556
S3 Ba Ba 51.920(15) 3_556 1_556
S3 Ba Ba 51.920(15) 7_566 1_556
S3 Ba Ba 128.080(15) 3 1_556
S2 Ba Ba 51.935(15) 5_566 1_556
S2 Ba Ba 51.935(15) 1_556 1_556
S2 Ba Ba 128.065(15) 5_565 1_556
S2 Ba Ba 128.065(15) . 1_556
S3 Ba Ba 51.920(15) 7_565 1_554
S3 Ba Ba 128.080(15) 3_556 1_554
S3 Ba Ba 128.080(15) 7_566 1_554
S3 Ba Ba 51.920(15) 3 1_554
S2 Ba Ba 128.065(15) 5_566 1_554
S2 Ba Ba 128.065(15) 1_556 1_554
S2 Ba Ba 51.935(15) 5_565 1_554
S2 Ba Ba 51.935(15) . 1_554
Ba Ba Ba 180.0 1_556 1_554
S2 La S2 89.36(4) . 1_556
S2 La S3 143.67(4) . 1_556
S2 La S3 81.40(3) 1_556 1_556
S2 La S3 81.40(3) . .
S2 La S3 143.67(4) 1_556 .
S3 La S3 85.56(4) 1_556 .
S2 La S4 82.65(2) . .
S2 La S4 144.46(3) 1_556 .
S3 La S4 123.69(3) 1_556 .
S3 La S4 69.22(2) . .
S2 La S4 144.46(3) . 1_556
S2 La S4 82.65(2) 1_556 1_556
S3 La S4 69.22(2) 1_556 1_556
S3 La S4 123.69(3) . 1_556
S4 La S4 84.070(10) . 1_556
S2 La S1 70.64(3) . 7_565
S2 La S1 70.64(3) 1_556 7_565
S3 La S1 136.06(2) 1_556 7_565
S3 La S1 136.06(2) . 7_565
S4 La S1 74.04(2) . 7_565
S4 La S1 74.04(2) 1_556 7_565
S2 La S1 75.41(3) . .
S2 La S1 75.41(3) 1_556 .
S3 La S1 68.26(3) 1_556 .
S3 La S1 68.26(3) . .
S4 La S1 134.352(11) . .
S4 La S1 134.352(11) 1_556 .
S1 La S1 131.469(14) 7_565 .
S2 La La 134.68(2) . 1_556
S2 La La 45.32(2) 1_556 1_556
S3 La La 47.222(19) 1_556 1_556
S3 La La 132.778(19) . 1_556
S4 La La 132.034(5) . 1_556
S4 La La 47.965(5) 1_556 1_556
S1 La La 90.0 7_565 1_556
S1 La La 90.0 . 1_556
S2 La La 45.32(2) . 1_554
S2 La La 134.68(2) 1_556 1_554
S3 La La 132.778(19) 1_556 1_554
S3 La La 47.222(19) . 1_554
S4 La La 47.965(5) . 1_554
S4 La La 132.034(5) 1_556 1_554
S1 La La 90.0 7_565 1_554
S1 La La 90.0 . 1_554
La La La 180.0 1_556 1_554
S3 In S1 123.20(3) 3 1_554
S3 In S1 123.20(3) 3 .
S1 In S1 110.98(6) 1_554 .
S3 In S2 89.76(5) 3 .
S1 In S2 98.50(4) 1_554 .
S1 In S2 98.50(4) . .
S3 In S4 79.11(3) 3 3
S1 In S4 87.74(4) 1_554 3
S1 In S4 87.74(4) . 3
S2 In S4 168.87(4) . 3
In S1 In 110.98(6) . 1_556
In S1 La 100.94(4) . 7_665
In S1 La 100.94(4) 1_556 7_665
In S1 La 88.21(4) . .
In S1 La 88.21(4) 1_556 .
La S1 La 163.59(5) 7_665 .
In S2 La 96.24(4) . .
In S2 La 96.24(4) . 1_554
La S2 La 89.36(4) . 1_554
In S2 Ba 91.01(4) . .
La S2 Ba 96.757(9) . .
La S2 Ba 169.97(5) 1_554 .
In S2 Ba 91.01(4) . 1_554
La S2 Ba 169.97(5) . 1_554
La S2 Ba 96.757(9) 1_554 1_554
Ba S2 Ba 76.13(3) . 1_554
In S3 La 94.75(4) 3_545 .
In S3 La 94.74(4) 3_545 1_554
La S3 La 85.56(4) . 1_554
In S3 Ba 92.61(4) 3_545 3_546
La S3 Ba 98.654(9) . 3_546
La S3 Ba 171.20(5) 1_554 3_546
In S3 Ba 92.61(4) 3_545 3_545
La S3 Ba 171.20(5) . 3_545
La S3 Ba 98.654(8) 1_554 3_545
Ba S3 Ba 76.16(3) 3_546 3_545
In S4 In 180.000(17) 7_565 3_545
In S4 La 85.445(9) 7_565 5
In S4 La 94.555(9) 3_545 5
In S4 La 94.555(9) 7_565 1_554
In S4 La 85.445(9) 3_545 1_554
La S4 La 95.929(10) 5 1_554
In S4 La 85.445(9) 7_565 5_556
In S4 La 94.555(9) 3_545 5_556
La S4 La 84.071(10) 5 5_556
La S4 La 180.000(10) 1_554 5_556
In S4 La 94.555(9) 7_565 .
In S4 La 85.445(9) 3_545 .
La S4 La 180.0 5 .
La S4 La 84.070(10) 1_554 .
La S4 La 95.930(10) 5_556 .
loop_
_geom_bond_atom_site_label_1
_geom_bond_atom_site_label_2
_geom_bond_distance
_geom_bond_site_symmetry_2
Ba S3 3.2986(11) 7_565
Ba S3 3.2986(11) 3_556
Ba S3 3.2986(11) 7_566
Ba S3 3.2986(11) 3
Ba S2 3.2997(11) 5_566
Ba S2 3.2997(11) 1_556
Ba S2 3.2997(11) 5_565
Ba S2 3.2997(11) .
Ba Ba 4.0689(3) 1_556
Ba Ba 4.0689(3) 1_554
La S2 2.8933(10) .
La S2 2.8933(10) 1_556
La S3 2.9955(10) 1_556
La S3 2.9955(10) .
La S4 3.0384(3) .
La S4 3.0384(3) 1_556
La S1 3.1579(16) 7_565
La S1 3.2956(16) .
La La 4.0689(3) 1_556
La La 4.0689(3) 1_554
In S3 2.4576(15) 3
In S1 2.4689(9) 1_554
In S1 2.4689(9) .
In S2 2.5449(15) .
In S4 2.8979(5) 3
S1 In 2.4689(9) 1_556
S1 La 3.1579(16) 7_665
S2 La 2.8933(10) 1_554
S2 Ba 3.2997(11) 1_554
S3 In 2.4576(15) 3_545
S3 La 2.9955(10) 1_554
S3 Ba 3.2986(11) 3_546
S3 Ba 3.2986(11) 3_545
S4 In 2.8979(5) 7_565
S4 In 2.8979(5) 3_545
S4 La 3.0384(3) 5
S4 La 3.0384(3) 1_554
S4 La 3.0384(3) 5_556
