#------------------------------------------------------------------------------
#$Date: 2016-08-07 12:09:56 +0300 (Sun, 07 Aug 2016) $
#$Revision: 185456 $
#$URL: file:///home/coder/svn-repositories/cod/cif/7/03/98/7039851.cif $
#------------------------------------------------------------------------------
#
# This file is available in the Crystallography Open Database (COD),
# http://www.crystallography.net/
#
# All data on this site have been placed in the public domain by the
# contributors.
#
data_7039851
loop_
_publ_author_name
'Yin, Wenlong'
'Iyer, Abishek K.'
'Lin, Xinsong'
'Li, Chao'
'Yao, Jiyong'
'Mar, Arthur'
_publ_section_title
;
 Quaternary chalcogenides BaRE2In2Ch7 (RE = La-Nd; Ch = S, Se) containing
 InCh5 trigonal bipyramids.
;
_journal_issue                   31
_journal_name_full
'Dalton transactions (Cambridge, England : 2003)'
_journal_page_first              12329
_journal_page_last               12337
_journal_paper_doi               10.1039/c6dt02385a
_journal_volume                  45
_journal_year                    2016
_chemical_formula_structural     'Ba Pr2 In2 S7'
_chemical_formula_sum            'Ba In2 Pr2 S7'
_chemical_formula_weight         873.22
_chemical_name_common
'barium praseodymium indium sulfide (1/2/2/7)'
_chemical_name_systematic
'barium praseodymium indium sulfide (1/2/2/7)'
_space_group_crystal_system      orthorhombic
_space_group_IT_number           55
_space_group_name_Hall           '-P 2 2ab'
_space_group_name_H-M_alt        'P b a m'
_symmetry_space_group_name_Hall  '-P 2 2ab'
_symmetry_space_group_name_H-M   'P b a m'
_audit_creation_method           SHELXL-2014/7
_cell_angle_alpha                90
_cell_angle_beta                 90
_cell_angle_gamma                90
_cell_formula_units_Z            2
_cell_length_a                   11.5920(6)
_cell_length_b                   12.3232(7)
_cell_length_c                   4.0210(2)
_cell_measurement_reflns_used    2416
_cell_measurement_temperature    296(2)
_cell_measurement_theta_max      32.02
_cell_measurement_theta_min      2.41
_cell_volume                     574.40(5)
_computing_cell_refinement       'Bruker SAINT 8.34A (Bruker, 2013)'
_computing_data_collection       'Bruker APEX 2 (Bruker, 2008)'
_computing_data_reduction        'Bruker SAINT 8.34A'
_computing_molecular_graphics    'ATOMS 5.1 (Dowty, 1999)'
_computing_publication_material  'SHELXL-2014/7 (Sheldrick, 2014)'
_computing_structure_refinement  'SHELXL-2014/7 (Sheldrick, 2014)'
_computing_structure_solution    'SHELXS-97 (Sheldrick, 2008)'
_diffrn_ambient_temperature      296(2)
_diffrn_measured_fraction_theta_full 1.000
_diffrn_measured_fraction_theta_max 0.999
_diffrn_measurement_device_type  'Bruker PLATFORM SMART/APEX II CCD'
_diffrn_measurement_method       '\w and \f scans'
_diffrn_radiation_type           MoK\a
_diffrn_radiation_wavelength     0.71073
_diffrn_reflns_av_R_equivalents  0.0596
_diffrn_reflns_av_unetI/netI     0.0335
_diffrn_reflns_Laue_measured_fraction_full 1.000
_diffrn_reflns_Laue_measured_fraction_max 0.999
_diffrn_reflns_limit_h_max       17
_diffrn_reflns_limit_h_min       -17
_diffrn_reflns_limit_k_max       18
_diffrn_reflns_limit_k_min       -18
_diffrn_reflns_limit_l_max       6
_diffrn_reflns_limit_l_min       -6
_diffrn_reflns_number            7994
_diffrn_reflns_point_group_measured_fraction_full 1.000
_diffrn_reflns_point_group_measured_fraction_max 0.999
_diffrn_reflns_theta_full        25.242
_diffrn_reflns_theta_max         33.189
_diffrn_reflns_theta_min         2.412
_diffrn_source                   'fine-focus sealed tube'
_exptl_absorpt_coefficient_mu    16.864
_exptl_absorpt_correction_T_max  0.719
_exptl_absorpt_correction_T_min  0.464
_exptl_absorpt_correction_type   numerical
_exptl_absorpt_process_details   'SHELXL-2014/7 (Sheldrick, 2014)'
_exptl_crystal_colour            black
_exptl_crystal_density_diffrn    5.049
_exptl_crystal_description       prism
_exptl_crystal_F_000             768
_exptl_crystal_size_max          0.059
_exptl_crystal_size_mid          0.036
_exptl_crystal_size_min          0.026
_refine_diff_density_max         2.210
_refine_diff_density_min         -2.000
_refine_diff_density_rms         0.355
_refine_ls_extinction_method     none
_refine_ls_goodness_of_fit_ref   1.141
_refine_ls_hydrogen_treatment    undef
_refine_ls_matrix_type           full
_refine_ls_number_parameters     39
_refine_ls_number_reflns         1228
_refine_ls_number_restraints     0
_refine_ls_restrained_S_all      1.141
_refine_ls_R_factor_all          0.0403
_refine_ls_R_factor_gt           0.0300
_refine_ls_shift/su_max          0.000
_refine_ls_shift/su_mean         0.000
_refine_ls_structure_factor_coef Fsqd
_refine_ls_weighting_details
'w=1/[\s^2^(Fo^2^)+(0.0222P)^2^+2.1305P] where P=(Fo^2^+2Fc^2^)/3'
_refine_ls_weighting_scheme      calc
_refine_ls_wR_factor_gt          0.0601
_refine_ls_wR_factor_ref         0.0634
_reflns_Friedel_coverage         0.000
_reflns_number_gt                1022
_reflns_number_total             1228
_reflns_threshold_expression     'I > 2\s(I)'
_cod_data_source_file            c6dt02385a7.cif
_cod_data_source_block           pbam
_cod_depositor_comments
'Adding full bibliography for 7039846--7039853.cif.'
_cod_database_code               7039851
_shelx_shelxl_version_number     2014/7
_shelx_space_group_comment
;
The symmetry employed for this shelxl refinement is uniquely defined
by the following loop, which should always be used as a source of
symmetry information in preference to the above space-group names.
They are only intended as comments.
;
_shelx_estimated_absorpt_t_min   0.436
_shelx_estimated_absorpt_t_max   0.668
_shelx_res_file
;

    pbam.res created by SHELXL-2014/7

TITL BaPr2In2S7 Pbam lsf final refinement
CELL 0.71073  11.59200  12.32320   4.02100  90.0000  90.0000  90.0000
ZERR    2.00   0.00060   0.00070   0.00020   0.0000   0.0000   0.0000
LATT  1
SYMM -X, -Y, Z
SYMM 0.5-X, 0.5+Y, -Z
SYMM 0.5+X, 0.5-Y, -Z
SFAC S IN BA PR
UNIT 14 4 2 4
TEMP 23
SIZE 0.026 0.036 0.059

L.S. 4
ACTA

WGHT    0.022200    2.130500
FVAR       0.06331
BA    3    0.000000    0.500000    0.500000    10.25000    0.01729    0.02507 =
         0.01239    0.00000    0.00000    0.00567
PR    4    0.118586    0.142796    0.500000    10.50000    0.01455    0.01411 =
         0.00955    0.00000    0.00000    0.00085
IN    2    0.290170    0.375872    0.000000    10.50000    0.01636    0.01548 =
         0.01241    0.00000    0.00000    0.00108
S1    1    0.361437    0.283128    0.500000    10.50000    0.01931    0.01810 =
         0.01093    0.00000    0.00000    0.00253
S2    1    0.085190    0.303378    0.000000    10.50000    0.01402    0.01198 =
         0.01472    0.00000    0.00000   -0.00029
S3    1    0.284562    0.062337    0.000000    10.50000    0.01133    0.01324 =
         0.01518    0.00000    0.00000   -0.00061
S4    1    0.000000    0.000000    0.000000    10.25000    0.01517    0.01376 =
         0.01554    0.00000    0.00000   -0.00272
HKLF 4

REM  BaPr2In2S7 Pbam lsf final refinement
REM R1 =  0.0300 for    1022 Fo > 4sig(Fo)  and  0.0403 for all    1228 data
REM     39 parameters refined using      0 restraints

END

WGHT      0.0222      2.1307

REM Highest difference peak  2.210,  deepest hole -2.000,  1-sigma level  0.355
Q1    1   0.2060  0.4157  0.0000  10.50000  0.05    2.21
Q2    1  -0.0219  0.1239  0.0000  10.50000  0.05    2.13
Q3    1   0.3883  0.3482  0.5000  10.50000  0.05    2.05
Q4    1   0.2597  0.0008 -0.5000  10.50000  0.05    2.01
Q5    1   0.0935  0.2343  0.0000  10.50000  0.05    1.94
Q6    1   0.4033 -0.0061  0.0000  10.50000  0.05    1.89
Q7    1   0.0006  0.2085  0.5000  10.50000  0.05    1.85
Q8    1   0.2457  0.2014  0.5000  10.50000  0.05    1.60
Q9    1   0.3001  0.1360  0.5000  10.50000  0.05    1.54
Q10   1   0.1430  0.3513 -0.5000  10.50000  0.05    1.52
Q11   1  -0.0124  0.5892  0.5000  10.50000  0.05    1.51
Q12   1   0.2067  0.1288  0.0000  10.50000  0.05    1.51
Q13   1   0.1724  0.2647  0.0000  10.50000  0.05    1.49
Q14   1   0.0851 -0.0066  0.5000  10.50000  0.05    1.46
Q15   1   0.2999  0.0042  0.0000  10.50000  0.05    1.45
Q16   1   0.2191  0.0601  0.0000  10.50000  0.05    1.42
Q17   1   0.1223  0.3613  0.0000  10.50000  0.05    1.32
Q18   1   0.4179  0.2702  0.5000  10.50000  0.05    1.30
Q19   1   0.3015  0.0897 -0.5000  10.50000  0.05    1.29
Q20   1   0.0415  0.6325  0.5000  10.50000  0.05    1.24
;
_shelx_res_checksum              41970
_shelx_hkl_file
;
  -1  -3  -6   24.09    6.03
   0  -3  -6    0.39    1.41
  -2  -2  -6    1.71    1.49
  -1  -2  -6    0.70    1.14
   0  -2  -6    0.65    1.13
   1  -2  -6   -0.70    1.11
   2  -2  -6    0.53    1.36
   3  -2  -6   14.96    4.29
  -3  -1  -6   16.04    3.46
  -2  -1  -6    1.99    1.68
  -1  -1  -6    0.67    1.14
   0  -1  -6   -0.11    1.06
   1  -1  -6    0.50    1.18
   2  -1  -6    3.02    1.62
   3  -1  -6   11.48    2.79
   4  -1  -6    8.30    3.20
  -4   0  -6    2.45    2.16
  -3   0  -6   -0.22    1.16
  -2   0  -6   -0.35    1.11
  -1   0  -6    0.94    1.23
   0   0  -6  145.04    8.03
   1   0  -6   -0.94    1.15
   2   0  -6    0.98    1.23
   3   0  -6   -0.19    1.14
   4   0  -6    0.58    1.34
  -4   1  -6    8.04    2.28
  -3   1  -6   11.02    2.77
  -2   1  -6    4.90    1.94
  -1   1  -6    1.43    1.20
   0   1  -6    2.22    1.32
   1   1  -6   -0.77    1.11
   2   1  -6    2.70    1.27
   3   1  -6   14.64    3.01
   4   1  -6    8.06    3.35
  -4   2  -6   15.96    3.18
  -3   2  -6   16.23    3.25
  -2   2  -6    1.67    1.33
  -1   2  -6   -0.02    0.92
   0   2  -6   -0.60    1.02
   1   2  -6   -0.16    0.95
   2   2  -6    0.63    2.24
  -3   3  -6    8.38    2.62
  -2   3  -6    1.45    1.43
  -1   3  -6   15.19    2.99
   0   3  -6   -0.46    1.00
   1   3  -6   14.56    3.44
  -2   4  -6   13.10    2.94
  -1   4  -6    0.56    1.43
   0   4  -6    9.57    2.91
  -3 -10  -5    2.73    1.73
  -2 -10  -5    0.27    0.80
  -1 -10  -5   13.79    2.16
   0 -10  -5    7.45    1.67
   1 -10  -5   14.42    2.23
   2 -10  -5   -0.35    0.76
   3 -10  -5    0.83    1.05
   4 -10  -5   24.82    3.90
  -5  -9  -5   11.86    2.78
  -4  -9  -5    0.60    0.86
  -3  -9  -5   -0.28    0.73
  -2  -9  -5   33.11    3.21
  -1  -9  -5    6.90    1.59
   0  -9  -5   -0.14    0.69
   1  -9  -5    4.48    1.33
   2  -9  -5   36.04    3.38
   3  -9  -5    0.90    0.81
   4  -9  -5    0.16    0.79
   5  -9  -5   14.08    2.30
  -6  -8  -5   -0.05    0.71
  -5  -8  -5    6.09    1.40
  -4  -8  -5    8.25    1.57
  -3  -8  -5    5.28    1.29
  -2  -8  -5   11.80    1.88
  -1  -8  -5    3.51    1.03
   0  -8  -5    3.97    1.18
   1  -8  -5    7.73    1.58
   2  -8  -5   16.84    2.26
   3  -8  -5    7.55    1.53
   4  -8  -5    5.51    1.37
   5  -8  -5    5.96    1.52
   6  -8  -5   -0.30    0.92
  -7  -7  -5    5.07    1.37
  -6  -7  -5    1.72    0.95
  -5  -7  -5   53.57    4.10
  -4  -7  -5    0.69    0.76
  -3  -7  -5    4.94    1.32
  -2  -7  -5    1.36    0.82
  -1  -7  -5    0.29    0.66
   0  -7  -5   -0.09    0.63
   1  -7  -5    0.04    0.69
   2  -7  -5    1.30    0.82
   3  -7  -5    6.03    1.34
   4  -7  -5    0.43    0.71
   5  -7  -5   60.20    5.17
   6  -7  -5    2.83    1.66
   7  -7  -5    3.32    1.99
  -8  -6  -5   10.74    4.34
  -7  -6  -5    2.70    1.15
  -6  -6  -5    0.35    0.69
  -5  -6  -5    3.75    1.19
  -4  -6  -5   -0.61    0.58
  -3  -6  -5    0.08    0.60
  -2  -6  -5    0.61    0.63
  -1  -6  -5   42.92    3.36
   0  -6  -5   22.14    2.45
   1  -6  -5   45.76    3.49
   2  -6  -5    1.25    0.78
   3  -6  -5   -0.19    0.58
   4  -6  -5    0.91    1.09
   5  -6  -5    2.52    1.28
   6  -6  -5    0.50    1.12
   7  -6  -5    1.48    1.27
  -9  -5  -5    1.59    1.38
  -8  -5  -5    2.26    1.08
  -7  -5  -5   21.35    2.67
  -6  -5  -5    5.42    1.34
  -5  -5  -5    0.27    0.64
  -4  -5  -5    0.54    0.63
  -3  -5  -5   15.44    2.04
  -2  -5  -5   33.37    3.06
  -1  -5  -5    0.44    0.70
   0  -5  -5    0.23    0.57
   1  -5  -5    2.07    0.89
   2  -5  -5   35.03    3.01
   3  -5  -5   16.36    3.05
   4  -5  -5    0.38    0.87
   5  -5  -5    0.57    1.10
   6  -5  -5    7.41    2.21
   7  -5  -5   17.52    3.37
   8  -5  -5    2.85    1.77
  -9  -4  -5    0.73    0.95
  -8  -4  -5    8.86    1.80
  -7  -4  -5    2.49    1.00
  -6  -4  -5    8.61    1.59
  -5  -4  -5   -0.05    0.62
  -4  -4  -5   51.69    3.42
  -3  -4  -5    2.12    0.84
  -2  -4  -5    2.12    0.88
  -1  -4  -5    3.59    1.05
   0  -4  -5    1.71    0.75
   1  -4  -5    3.96    0.96
   2  -4  -5    4.69    1.12
   3  -4  -5    0.42    0.94
   4  -4  -5   43.93    4.97
   5  -4  -5   -0.32    0.78
   6  -4  -5    6.89    2.09
   7  -4  -5    2.74    1.37
   8  -4  -5    7.55    2.53
   9  -4  -5    1.33    1.49
 -10  -3  -5    7.57    2.18
  -9  -3  -5    9.71    1.48
  -8  -3  -5    9.14    1.79
  -7  -3  -5   38.98    3.46
  -6  -3  -5   -0.67    0.61
  -5  -3  -5   18.46    2.29
  -4  -3  -5    3.88    1.05
  -3  -3  -5    1.45    0.70
  -2  -3  -5   35.49    3.01
  -1  -3  -5   39.15    3.10
   0  -3  -5   -0.47    0.53
   1  -3  -5   43.32    2.88
   2  -3  -5   30.78    4.16
   3  -3  -5    1.73    1.31
   4  -3  -5    2.25    1.28
   5  -3  -5   20.10    3.36
   6  -3  -5   -0.41    0.84
   7  -3  -5   45.82    5.26
   8  -3  -5   10.55    2.80
   9  -3  -5   11.65    1.91
  10  -3  -5    8.03    2.24
 -10  -2  -5   -0.61    1.23
  -9  -2  -5    0.03    0.64
  -8  -2  -5   -1.18    0.58
  -7  -2  -5    8.62    1.67
  -6  -2  -5    0.24    0.65
  -5  -2  -5    0.98    0.74
  -4  -2  -5    5.64    1.23
  -3  -2  -5    3.90    0.97
  -2  -2  -5   10.64    1.63
  -1  -2  -5   44.09    2.91
   0  -2  -5    0.15    0.48
   1  -2  -5   34.20    4.31
   2  -2  -5    5.88    1.76
   3  -2  -5    3.88    1.50
   4  -2  -5    6.41    1.95
   5  -2  -5    0.01    0.98
   6  -2  -5    0.88    1.04
   7  -2  -5   13.55    2.90
   8  -2  -5   -0.47    0.63
   9  -2  -5    1.38    0.83
  10  -2  -5    1.72    1.13
 -10  -1  -5   16.94    3.23
  -9  -1  -5   -0.05    0.59
  -8  -1  -5    6.06    1.30
  -7  -1  -5    0.20    0.64
  -6  -1  -5   -0.22    0.60
  -5  -1  -5   52.42    3.39
  -4  -1  -5    4.29    1.16
  -3  -1  -5   13.34    1.78
  -2  -1  -5   15.65    1.89
  -1  -1  -5   -0.11    0.51
   0  -1  -5    0.17    0.67
   1  -1  -5   -0.71    0.68
   2  -1  -5    9.17    2.19
   3  -1  -5   14.89    2.87
   4  -1  -5    5.61    1.81
   5  -1  -5   52.92    4.49
   6  -1  -5    0.32    0.85
   7  -1  -5    0.31    0.67
   8  -1  -5    7.30    1.54
   9  -1  -5    0.09    0.71
  10  -1  -5   16.26    2.21
 -10   0  -5   -0.69    0.99
  -9   0  -5   -0.01    0.70
  -8   0  -5   61.52    3.17
  -7   0  -5    0.89    0.68
  -6   0  -5    4.29    1.15
  -5   0  -5   -0.53    0.55
  -4   0  -5   41.09    3.26
  -3   0  -5   -0.66    0.42
  -2   0  -5   31.20    2.74
  -1   0  -5   -0.18    0.71
   0   0  -5    6.11    1.66
   1   0  -5   -0.30    0.69
   2   0  -5   33.39    4.06
   3   0  -5   -0.51    0.67
   4   0  -5   37.40    4.42
   5   0  -5   -0.07    0.74
   6   0  -5    4.12    1.10
   7   0  -5   -0.44    0.55
   8   0  -5   59.66    3.54
   9   0  -5   -0.01    0.72
  10   0  -5    0.23    0.87
 -10   1  -5   11.46    2.18
  -9   1  -5   -0.38    0.66
  -8   1  -5    8.81    1.37
  -7   1  -5    0.63    0.71
  -6   1  -5   -0.58    0.53
  -5   1  -5   44.98    3.45
  -4   1  -5    4.27    1.09
  -3   1  -5   11.21    1.67
  -2   1  -5   11.66    2.31
  -1   1  -5   -0.17    0.70
   0   1  -5    0.10    0.64
   1   1  -5    0.14    0.82
   2   1  -5    9.26    2.12
   3   1  -5   11.71    2.43
   4   1  -5    3.95    1.42
   5   1  -5   49.19    3.18
   6   1  -5    0.78    0.70
   7   1  -5    0.35    0.66
   8   1  -5    6.03    1.25
   9   1  -5   -0.59    0.75
  10   1  -5   16.22    2.33
 -10   2  -5    3.36    1.50
  -9   2  -5    0.19    0.77
  -8   2  -5    0.63    0.63
  -7   2  -5   10.66    1.81
  -6   2  -5    0.56    0.73
  -5   2  -5    0.92    0.71
  -4   2  -5    7.13    1.36
  -3   2  -5    2.50    1.27
  -2   2  -5    9.15    1.98
  -1   2  -5   39.88    4.29
   0   2  -5   -0.11    0.72
   1   2  -5   41.69    3.63
   2   2  -5    4.02    1.48
   3   2  -5    4.72    1.13
   4   2  -5    9.05    1.48
   5   2  -5    1.28    0.67
   6   2  -5    0.33    0.70
   7   2  -5    9.54    1.70
   8   2  -5   -0.20    1.06
   9   2  -5    0.64    1.22
  10   2  -5    0.39    1.18
 -10   3  -5    7.38    2.37
  -9   3  -5   15.10    2.17
  -8   3  -5    9.99    1.54
  -7   3  -5   39.05    3.38
  -6   3  -5    0.42    0.67
  -5   3  -5   17.16    2.11
  -4   3  -5    5.66    1.98
  -3   3  -5    1.44    0.97
  -2   3  -5   26.76    3.43
  -1   3  -5   44.64    3.73
   0   3  -5   -0.19    0.49
   1   3  -5   45.70    2.93
   2   3  -5   22.51    2.24
   3   3  -5    1.28    0.72
   4   3  -5    5.86    1.83
   5   3  -5   21.58    3.57
   6   3  -5   -0.21    0.80
   7   3  -5   30.66    4.19
   8   3  -5    6.77    2.07
   9   3  -5   10.92    2.65
  -9   4  -5    1.18    0.93
  -8   4  -5    7.99    1.29
  -7   4  -5    3.33    1.13
  -6   4  -5    6.44    1.38
  -5   4  -5    0.48    1.06
  -4   4  -5   51.15    4.10
  -3   4  -5    1.26    0.72
  -2   4  -5    3.68    1.29
  -1   4  -5    3.88    1.51
   0   4  -5    1.42    0.97
   1   4  -5    3.74    1.47
   2   4  -5    2.64    1.17
   3   4  -5    1.98    1.22
   4   4  -5   42.86    4.78
   5   4  -5   -0.14    0.87
   6   4  -5    4.83    1.87
   7   4  -5    4.08    1.68
   8   4  -5    6.53    2.12
   9   4  -5    0.83    1.19
  -9   5  -5    1.93    1.07
  -8   5  -5    3.08    1.24
  -7   5  -5   13.80    3.15
  -3   5  -5   13.90    2.57
  -2   5  -5   40.81    4.49
  -1   5  -5    1.81    1.07
   0   5  -5    0.14    0.80
   1   5  -5    1.19    1.13
   2   5  -5   30.85    4.08
   3   5  -5   14.51    2.85
   4   5  -5    0.69    1.03
   5   5  -5    0.90    1.15
   6   5  -5    6.60    2.06
   7   5  -5   22.66    3.86
   8   5  -5    3.45    1.60
  -2   6  -5    0.30    1.01
  -1   6  -5   46.87    4.88
   0   6  -5   21.52    3.32
   1   6  -5   49.39    5.14
   2   6  -5    0.49    1.03
   3   6  -5   -0.45    0.73
   4   6  -5    0.37    0.95
   5   6  -5    2.37    1.42
   6   6  -5    1.19    1.06
   7   6  -5    2.51    1.60
   8   6  -5    2.57    2.54
  -2   7  -5    2.39    0.96
  -1   7  -5    0.32    0.85
   0   7  -5    0.36    0.90
   1   7  -5    2.09    1.22
   2   7  -5    2.21    1.45
   3   7  -5    5.14    1.83
   4   7  -5   -0.10    0.75
   5   7  -5   53.35    5.66
   6   7  -5    3.66    1.71
   7   7  -5    4.61    2.06
  -3   8  -5    6.64    2.02
  -2   8  -5   13.90    2.95
  -1   8  -5    6.53    1.95
   0   8  -5    6.16    1.92
   1   8  -5    5.39    1.89
   2   8  -5   10.68    2.57
   3   8  -5    8.69    2.37
   4   8  -5    7.66    2.27
   5   8  -5    2.97    1.66
   6   8  -5   -0.46    1.19
  -4   9  -5   -0.23    1.10
  -3   9  -5    0.40    1.19
  -2   9  -5   29.87    4.31
  -1   9  -5    8.34    2.16
   0   9  -5   -0.34    0.96
   1   9  -5    8.74    2.34
   2   9  -5   40.36    4.95
   3   9  -5    0.78    1.25
   4   9  -5   -0.38    1.04
   5   9  -5   19.91    4.84
  -4  10  -5   23.10    3.90
  -3  10  -5    0.84    1.27
  -2  10  -5    0.91    1.15
  -1  10  -5    7.62    2.20
   0  10  -5    7.62    2.32
   1  10  -5   16.64    3.31
   2  10  -5   -0.04    1.05
   3  10  -5    2.75    1.70
   0  11  -5    0.20    1.37
   1  11  -5   18.41    3.60
  -6 -13  -4   14.08    3.10
  -5 -13  -4   32.22    4.23
  -4 -13  -4    6.70    2.25
  -3 -13  -4    1.97    1.41
  -2 -13  -4    1.81    1.01
  -1 -13  -4   -0.31    0.66
   0 -13  -4   -0.44    0.67
   1 -13  -4    1.19    0.93
   2 -13  -4    1.64    0.99
   3 -13  -4    0.72    0.81
   4 -13  -4    8.19    1.51
   5 -13  -4   24.21    4.11
   6 -13  -4   18.85    4.00
  -7 -12  -4    9.40    1.81
  -6 -12  -4    3.15    0.91
  -5 -12  -4    0.97    0.77
  -4 -12  -4    2.73    1.01
  -3 -12  -4    6.49    1.40
  -2 -12  -4   15.87    2.13
  -1 -12  -4   11.04    1.82
   0 -12  -4    7.10    1.42
   1 -12  -4   17.16    2.17
   2 -12  -4   18.22    2.27
   3 -12  -4    8.72    1.63
   4 -12  -4    3.81    1.13
   5 -12  -4    0.23    0.69
   6 -12  -4    3.78    1.27
   7 -12  -4    7.70    1.73
  -8 -11  -4    0.06    0.66
  -7 -11  -4    1.63    0.80
  -6 -11  -4    0.36    0.59
  -5 -11  -4    1.42    0.66
  -4 -11  -4    3.64    0.97
  -3 -11  -4    7.24    1.45
  -2 -11  -4    7.24    1.44
  -1 -11  -4   24.62    2.51
   0 -11  -4   -0.44    0.55
   1 -11  -4   29.21    2.81
   2 -11  -4    5.50    1.32
   3 -11  -4    9.34    1.69
   4 -11  -4    3.93    1.14
   5 -11  -4    0.35    0.74
   6 -11  -4   -0.62    0.64
   7 -11  -4    2.04    1.06
   8 -11  -4   -0.65    0.71
  -9 -10  -4    2.19    0.82
  -8 -10  -4    2.46    0.83
  -7 -10  -4    3.38    0.86
  -6 -10  -4    5.06    1.01
  -5 -10  -4    0.93    0.62
  -4 -10  -4   22.57    1.95
  -3 -10  -4   23.63    2.58
  -2 -10  -4    5.63    1.24
  -1 -10  -4    7.52    1.32
   0 -10  -4    0.78    0.63
   1 -10  -4    7.58    1.46
   2 -10  -4    3.61    1.02
   3 -10  -4   20.91    2.39
   4 -10  -4   24.51    2.61
   5 -10  -4    1.77    0.81
   6 -10  -4    4.30    1.14
   7 -10  -4    3.06    1.07
   8 -10  -4    2.39    1.13
   9 -10  -4    3.10    1.22
 -10  -9  -4    8.58    1.43
  -9  -9  -4   -0.08    0.56
  -8  -9  -4    0.13    0.54
  -7  -9  -4   14.15    1.61
  -6  -9  -4   41.38    2.75
  -5  -9  -4    5.78    0.95
  -4  -9  -4    1.99    0.68
  -3  -9  -4   12.22    1.70
  -2  -9  -4    7.29    1.39
  -1  -9  -4    0.94    0.67
   0  -9  -4   -0.41    0.44
   1  -9  -4    0.19    0.51
   2  -9  -4   10.81    1.67
   3  -9  -4   16.35    2.01
   4  -9  -4    1.14    0.70
   5  -9  -4    7.98    1.47
   6  -9  -4   44.24    3.41
   7  -9  -4   15.29    2.12
   8  -9  -4    0.24    0.79
   9  -9  -4    1.01    0.76
  10  -9  -4    6.85    3.33
 -10  -8  -4   16.51    1.88
  -9  -8  -4    2.36    0.79
  -8  -8  -4   11.88    1.50
  -7  -8  -4    9.46    1.24
  -6  -8  -4    4.12    0.91
  -5  -8  -4    6.34    1.03
  -4  -8  -4    0.98    0.53
  -3  -8  -4   17.71    2.09
  -2  -8  -4    0.04    0.46
  -1  -8  -4   13.80    1.81
   0  -8  -4   53.93    2.97
   1  -8  -4   15.90    1.92
   2  -8  -4   -0.10    0.47
   3  -8  -4   18.15    2.05
   4  -8  -4    2.19    0.86
   5  -8  -4    7.41    1.36
   6  -8  -4    6.20    1.28
   7  -8  -4    8.97    1.59
   8  -8  -4   14.80    2.09
   9  -8  -4    5.78    2.00
  10  -8  -4   19.05    3.78
 -11  -7  -4    4.02    1.25
 -10  -7  -4   -0.26    0.67
  -9  -7  -4   23.94    2.69
  -8  -7  -4    5.17    0.99
  -7  -7  -4   10.71    1.30
  -6  -7  -4    2.47    0.66
  -5  -7  -4    6.37    1.02
  -4  -7  -4    1.99    0.62
  -3  -7  -4   41.25    3.10
  -2  -7  -4    3.94    0.98
  -1  -7  -4    9.52    1.47
   0  -7  -4   -0.15    0.41
   1  -7  -4    8.18    1.37
   2  -7  -4    2.81    0.80
   3  -7  -4   40.72    2.73
   4  -7  -4    1.30    0.66
   5  -7  -4    7.75    1.37
   6  -7  -4    2.69    0.88
   7  -7  -4   13.05    1.76
   8  -7  -4    3.53    1.54
   9  -7  -4   27.66    4.29
  10  -7  -4    0.04    1.08
  11  -7  -4    4.67    1.97
 -11  -6  -4    0.34    0.76
 -10  -6  -4    6.44    1.44
  -9  -6  -4   10.81    1.80
  -8  -6  -4   23.05    2.44
  -7  -6  -4   23.68    2.03
  -6  -6  -4    1.68    0.60
  -5  -6  -4   18.35    1.64
  -4  -6  -4    0.48    0.43
  -3  -6  -4   78.31    2.78
  -2  -6  -4   17.55    1.94
  -1  -6  -4    0.20    0.45
   0  -6  -4   40.92    2.65
   1  -6  -4    0.01    0.41
   2  -6  -4   19.86    2.06
   3  -6  -4   77.41    3.44
   4  -6  -4    0.50    0.51
   5  -6  -4   21.82    2.28
   6  -6  -4    1.58    0.68
   7  -6  -4   28.59    2.66
   8  -6  -4   27.30    3.92
   9  -6  -4   13.42    2.94
  10  -6  -4    4.43    1.75
  11  -6  -4    2.08    1.29
 -12  -5  -4    0.65    0.82
 -11  -5  -4    3.86    1.15
 -10  -5  -4   10.38    1.77
  -9  -5  -4   13.24    1.92
  -8  -5  -4    0.12    0.57
  -7  -5  -4    2.58    0.72
  -6  -5  -4   51.34    2.35
  -5  -5  -4    4.62    0.86
  -4  -5  -4    4.70    0.80
  -3  -5  -4   -0.11    0.30
  -2  -5  -4   32.81    2.65
  -1  -5  -4   17.75    1.94
   0  -5  -4   -0.06    0.38
   1  -5  -4   17.08    1.83
   2  -5  -4   33.62    2.25
   3  -5  -4   -0.16    0.41
   4  -5  -4    3.98    0.98
   5  -5  -4    5.81    1.15
   6  -5  -4   54.26    2.86
   7  -5  -4    2.01    1.15
   8  -5  -4   -0.12    0.77
   9  -5  -4   14.89    3.01
  10  -5  -4   18.34    3.53
  11  -5  -4    2.07    1.34
  12  -5  -4    0.10    1.36
 -12  -4  -4   58.31    3.84
 -11  -4  -4    2.34    0.98
 -10  -4  -4    3.66    1.15
  -9  -4  -4    1.37    0.71
  -8  -4  -4    0.05    0.51
  -7  -4  -4    1.16    0.65
  -6  -4  -4   17.52    1.60
  -5  -4  -4    2.16    0.59
  -4  -4  -4   29.64    1.97
  -3  -4  -4    0.96    0.39
  -2  -4  -4   50.29    2.62
  -1  -4  -4    0.88    0.52
   0  -4  -4   34.55    2.33
   1  -4  -4    0.22    0.41
   2  -4  -4   50.32    2.54
   3  -4  -4    0.92    0.52
   4  -4  -4   28.53    2.36
   5  -4  -4    1.30    0.56
   6  -4  -4   16.32    2.76
   7  -4  -4    1.17    0.89
   8  -4  -4    0.89    0.99
   9  -4  -4    0.78    1.17
  10  -4  -4    4.31    1.30
  11  -4  -4    0.45    1.10
  12  -4  -4   46.09    5.81
 -12  -3  -4    0.46    0.75
 -11  -3  -4    2.90    1.01
 -10  -3  -4    0.25    0.58
  -9  -3  -4   61.09    3.30
  -8  -3  -4   12.69    1.85
  -7  -3  -4    7.00    1.34
  -6  -3  -4   51.33    2.71
  -5  -3  -4    2.65    0.64
  -4  -3  -4    8.48    1.07
  -3  -3  -4   19.38    1.53
  -2  -3  -4    1.09    0.50
  -1  -3  -4   55.38    2.65
   0  -3  -4   -0.44    0.33
   1  -3  -4   43.72    2.33
   2  -3  -4    1.25    0.55
   3  -3  -4   21.53    1.99
   4  -3  -4    7.82    1.22
   5  -3  -4    1.57    1.01
   6  -3  -4   57.24    4.26
   7  -3  -4    4.78    1.62
   8  -3  -4   17.03    3.03
   9  -3  -4   58.04    4.89
  10  -3  -4    0.52    0.64
  11  -3  -4    8.57    2.36
  12  -3  -4   -0.69    1.07
 -13  -2  -4    1.26    1.59
 -12  -2  -4    2.54    0.96
 -11  -2  -4    3.06    1.05
 -10  -2  -4    7.30    1.52
  -9  -2  -4   14.32    1.94
  -8  -2  -4    0.59    0.60
  -7  -2  -4   23.02    2.27
  -6  -2  -4   12.21    1.68
  -5  -2  -4   16.51    1.51
  -4  -2  -4   50.23    2.05
  -3  -2  -4   42.59    1.85
  -2  -2  -4    3.60    0.85
  -1  -2  -4    0.28    0.34
   0  -2  -4    0.92    0.49
   1  -2  -4    0.46    0.42
   2  -2  -4    4.41    0.93
   3  -2  -4   44.01    2.26
   4  -2  -4   44.98    3.62
   5  -2  -4   19.27    2.98
   6  -2  -4   13.13    2.44
   7  -2  -4   19.52    3.00
   8  -2  -4    1.83    1.32
   9  -2  -4   21.48    2.32
  10  -2  -4    6.25    1.32
  11  -2  -4    2.23    1.44
  12  -2  -4    5.70    2.14
  13  -2  -4    0.51    1.50
 -13  -1  -4   10.58    2.30
 -12  -1  -4    2.24    1.01
 -11  -1  -4    8.79    1.61
 -10  -1  -4    0.04    0.56
  -9  -1  -4    4.82    1.17
  -8  -1  -4   -0.41    0.44
  -7  -1  -4    2.14    0.79
  -6  -1  -4   48.85    2.61
  -5  -1  -4    6.74    0.96
  -4  -1  -4   26.04    1.77
  -3  -1  -4   40.93    1.78
  -2  -1  -4    7.51    1.23
  -1  -1  -4    0.94    0.53
   0  -1  -4   -0.24    0.33
   1  -1  -4    1.21    0.54
   2  -1  -4    7.77    1.13
   3  -1  -4   37.67    3.19
   4  -1  -4   25.43    3.14
   5  -1  -4    8.48    1.88
   6  -1  -4   45.97    3.74
   7  -1  -4    1.57    0.93
   8  -1  -4   -0.17    0.47
   9  -1  -4    2.94    0.95
  10  -1  -4    0.33    0.63
  11  -1  -4    7.50    1.54
  12  -1  -4    4.05    1.93
  13  -1  -4   12.12    3.14
 -13   0  -4   -0.28    0.77
 -12   0  -4   16.24    2.17
 -11   0  -4   -0.30    0.58
 -10   0  -4   52.90    3.45
  -9   0  -4   -0.46    0.49
  -8   0  -4   38.53    3.16
  -7   0  -4   -0.30    0.42
  -6   0  -4    0.58    0.50
  -5   0  -4    0.03    0.39
  -4   0  -4    0.99    0.41
  -3   0  -4    0.21    0.30
  -2   0  -4    0.75    0.47
  -1   0  -4    0.03    0.39
   0   0  -4  399.04    8.17
   1   0  -4   -0.21    0.34
   2   0  -4    1.41    0.56
   3   0  -4    0.00    0.54
   4   0  -4    4.01    1.37
   5   0  -4    0.15    0.56
   6   0  -4    0.75    0.67
   7   0  -4    0.14    0.43
   8   0  -4   39.11    3.06
   9   0  -4   -0.21    0.51
  10   0  -4   57.10    3.26
  11   0  -4    0.65    0.74
  12   0  -4   18.45    3.55
  13   0  -4    0.16    1.49
 -13   1  -4   14.38    2.63
 -12   1  -4    3.56    1.21
 -11   1  -4    9.19    1.74
 -10   1  -4    0.30    0.60
  -9   1  -4    3.47    1.03
  -8   1  -4    0.50    0.55
  -7   1  -4    1.46    0.65
  -6   1  -4   45.30    2.58
  -5   1  -4    7.42    1.27
  -4   1  -4   26.00    1.79
  -3   1  -4   38.89    1.73
  -2   1  -4    9.06    1.27
  -1   1  -4    0.72    0.44
   0   1  -4    0.15    0.39
   1   1  -4    1.12    0.50
   2   1  -4    8.24    1.68
   3   1  -4   42.40    3.29
   4   1  -4   30.04    3.28
   5   1  -4    5.78    1.56
   6   1  -4   47.86    2.60
   7   1  -4    2.30    0.76
   8   1  -4   -0.06    0.52
   9   1  -4    3.58    1.06
  10   1  -4    0.27    0.58
  11   1  -4    9.59    1.71
  12   1  -4    5.44    1.57
  13   1  -4   12.79    3.27
 -13   2  -4   -0.42    1.57
 -12   2  -4    3.22    1.14
 -11   2  -4    1.30    0.89
 -10   2  -4    8.51    1.60
  -9   2  -4   14.00    1.95
  -8   2  -4    1.40    0.77
  -7   2  -4   28.41    2.55
  -6   2  -4   13.61    1.71
  -5   2  -4   13.68    1.61
  -4   2  -4   50.77    2.04
  -3   2  -4   42.03    1.78
  -2   2  -4    4.10    0.82
  -1   2  -4    0.04    0.36
   0   2  -4    0.23    0.40
   1   2  -4    0.19    0.58
   2   2  -4    3.17    1.03
   3   2  -4   40.14    3.14
   4   2  -4   51.38    2.57
   5   2  -4   13.86    1.59
   6   2  -4    9.77    1.42
   7   2  -4   28.57    2.53
   8   2  -4    0.89    0.69
   9   2  -4   18.49    2.19
  10   2  -4    6.72    1.32
  11   2  -4    4.07    1.20
  12   2  -4    2.68    1.10
 -13   3  -4    5.83    2.00
 -12   3  -4    0.67    0.64
 -11   3  -4    2.17    0.77
 -10   3  -4    0.52    0.50
  -9   3  -4   60.24    2.65
  -8   3  -4   13.16    1.45
  -7   3  -4    4.48    0.84
  -6   3  -4   52.35    2.17
  -5   3  -4    1.92    0.56
  -4   3  -4    8.36    0.87
  -3   3  -4   18.88    1.47
  -2   3  -4    1.67    0.61
  -1   3  -4   50.92    2.29
   0   3  -4   -0.16    0.54
   1   3  -4   47.50    3.27
   2   3  -4    0.87    0.51
   3   3  -4   17.14    1.79
   4   3  -4    5.78    1.07
   5   3  -4    1.25    0.62
   6   3  -4   52.74    2.74
   7   3  -4    4.73    1.09
   8   3  -4   12.73    1.75
   9   3  -4   65.10    3.41
  10   3  -4    1.59    1.17
  11   3  -4    3.55    1.53
  12   3  -4    0.03    1.04
 -13   4  -4   -1.16    1.18
 -12   4  -4   55.49    3.70
 -11   4  -4    1.27    0.79
 -10   4  -4    3.79    1.10
  -9   4  -4    0.76    0.57
  -8   4  -4    0.33    0.51
  -7   4  -4    0.60    0.47
  -6   4  -4   19.66    1.65
  -5   4  -4    1.55    0.52
  -4   4  -4   28.52    1.29
  -3   4  -4    1.27    0.35
  -2   4  -4   45.59    1.87
  -1   4  -4    1.03    0.51
   0   4  -4   33.07    2.13
   1   4  -4    0.35    0.42
   2   4  -4   46.12    2.57
   3   4  -4    1.59    0.60
   4   4  -4   28.54    2.35
   5   4  -4    2.75    0.79
   6   4  -4   15.32    2.76
   7   4  -4    0.78    0.82
   8   4  -4   -0.42    0.75
   9   4  -4    1.26    1.00
  10   4  -4    3.73    1.61
  11   4  -4   -0.02    1.05
  13   4  -4    0.72    1.67
 -12   5  -4    0.63    0.75
 -11   5  -4    2.57    0.99
 -10   5  -4   11.20    1.72
  -9   5  -4   14.50    1.88
  -8   5  -4   -0.09    0.45
  -7   5  -4    1.30    0.71
  -6   5  -4   50.92    2.71
  -5   5  -4    5.47    0.77
  -4   5  -4    4.51    0.51
  -3   5  -4   -0.24    0.23
  -2   5  -4   31.42    2.08
  -1   5  -4   17.36    1.72
   0   5  -4    0.22    0.56
   1   5  -4   13.83    2.41
   2   5  -4   39.48    4.17
   3   5  -4   -0.32    0.52
   4   5  -4    5.12    1.71
   5   5  -4    4.03    1.49
   6   5  -4   52.04    4.25
   7   5  -4    3.84    1.44
   8   5  -4   -0.11    0.73
   9   5  -4    9.24    2.38
  10   5  -4   13.39    2.87
  11   5  -4    1.47    1.23
  12   5  -4    0.57    1.30
 -12   6  -4   -0.11    1.17
 -11   6  -4    0.63    0.73
 -10   6  -4    9.53    1.70
  -9   6  -4   10.37    1.61
  -8   6  -4   23.11    2.41
  -7   6  -4   24.04    2.42
  -6   6  -4    1.77    0.58
  -5   6  -4   18.86    1.65
  -4   6  -4    0.82    0.45
  -3   6  -4   82.08    3.31
  -2   6  -4   17.02    2.55
  -1   6  -4    0.48    0.75
   0   6  -4   34.30    3.70
   1   6  -4    0.62    0.81
   2   6  -4   21.34    3.09
   3   6  -4   76.67    5.04
   4   6  -4    0.81    0.81
   5   6  -4   17.81    2.98
   6   6  -4    2.31    1.18
   7   6  -4   20.52    3.36
   8   6  -4   19.33    3.34
   9   6  -4   13.22    2.84
  10   6  -4    7.32    2.06
  11   6  -4    1.22    1.43
  12   6  -4   -0.52    1.17
 -11   7  -4    2.52    1.01
 -10   7  -4   -1.02    0.56
  -9   7  -4   25.14    2.67
  -8   7  -4    5.58    1.21
  -7   7  -4   14.24    1.53
  -6   7  -4    2.47    0.66
  -5   7  -4    7.12    1.19
  -4   7  -4    1.87    0.73
  -3   7  -4   40.83    2.40
  -2   7  -4    4.96    1.53
  -1   7  -4    8.62    1.94
   0   7  -4   -0.12    0.70
   1   7  -4   12.86    2.43
   2   7  -4    5.75    1.82
   3   7  -4   45.06    4.72
   4   7  -4    1.69    1.10
   5   7  -4    5.05    1.74
   6   7  -4    1.35    1.02
   7   7  -4   17.51    3.17
   8   7  -4    3.55    1.50
   9   7  -4   26.81    4.13
  10   7  -4   -0.47    1.15
  11   7  -4    4.06    1.85
 -11   8  -4    5.07    1.98
 -10   8  -4   17.52    2.36
  -9   8  -4    1.90    0.90
  -8   8  -4   13.95    1.96
  -7   8  -4    9.09    1.57
  -6   8  -4    5.99    1.26
  -5   8  -4    5.34    1.17
  -4   8  -4    0.40    0.82
  -3   8  -4   21.23    3.31
  -2   8  -4   -0.23    0.61
  -1   8  -4   17.40    2.73
   0   8  -4   60.67    4.29
   1   8  -4   14.79    2.62
   2   8  -4   -0.18    0.66
   3   8  -4   14.41    2.75
   4   8  -4    0.89    0.88
   5   8  -4    7.91    2.14
   6   8  -4    3.86    1.57
   7   8  -4    9.46    2.33
   8   8  -4    9.97    2.54
   9   8  -4    3.03    1.59
  10   8  -4   23.21    4.18
 -10   9  -4    9.10    1.74
  -9   9  -4   -0.26    0.68
  -8   9  -4    0.38    0.74
  -7   9  -4   13.75    1.93
  -6   9  -4   40.39    3.36
  -5   9  -4    4.82    1.21
  -4   9  -4    2.38    1.20
  -3   9  -4   11.87    2.44
  -2   9  -4    9.94    1.54
  -1   9  -4    0.89    0.97
   0   9  -4   -0.61    0.68
   1   9  -4    0.32    0.79
   2   9  -4    9.15    2.19
   3   9  -4   11.01    2.45
   4   9  -4    2.39    1.32
   5   9  -4    2.37    1.32
   6   9  -4   37.53    4.79
   7   9  -4   19.11    3.67
   8   9  -4    0.64    1.08
   9   9  -4   -0.49    0.97
  10   9  -4    8.15    2.90
  -9  10  -4    2.22    0.76
  -8  10  -4    1.24    0.86
  -7  10  -4    6.45    1.44
  -6  10  -4    4.53    1.04
  -5  10  -4    1.34    0.81
  -4  10  -4   23.84    3.58
  -3  10  -4   18.13    3.13
  -2  10  -4   12.01    2.79
  -1  10  -4    7.95    2.01
   0  10  -4    0.51    0.86
   1  10  -4    7.28    1.98
   2  10  -4    6.74    2.00
   3  10  -4   20.13    3.48
   4  10  -4   24.63    3.97
   5  10  -4    1.00    1.28
   6  10  -4    6.16    2.15
   7  10  -4    3.21    1.64
   8  10  -4    2.84    1.86
   9  10  -4    3.10    2.43
  -8  11  -4   -0.19    0.75
  -7  11  -4    0.67    0.90
  -6  11  -4    0.51    0.71
  -5  11  -4    0.26    0.75
  -4  11  -4    2.83    1.58
  -3  11  -4   11.51    2.71
  -2  11  -4    5.10    1.77
  -1  11  -4   33.15    3.08
   0  11  -4    0.54    1.00
   1  11  -4   33.51    4.51
   2  11  -4    7.25    2.24
   3  11  -4    7.76    2.34
   4  11  -4    2.66    1.49
   5  11  -4    0.22    1.23
   6  11  -4    0.61    1.32
   7  11  -4    1.82    1.61
  -7  12  -4    9.50    2.16
  -6  12  -4    5.39    1.37
  -5  12  -4    0.22    0.74
  -4  12  -4    3.07    1.67
  -3  12  -4    4.92    1.79
  -2  12  -4   21.38    3.68
  -1  12  -4   16.54    3.29
   0  12  -4   14.19    2.16
   1  12  -4   17.01    3.47
   2  12  -4   20.94    3.71
   3  12  -4    8.06    2.35
   4  12  -4    3.87    1.73
   5  12  -4    1.26    1.19
   6  12  -4    5.34    2.25
  -5  13  -4   31.66    3.68
  -4  13  -4    8.25    2.52
  -3  13  -4   -0.25    1.05
  -2  13  -4    1.75    1.32
  -1  13  -4    2.52    1.35
   0  13  -4    0.28    0.78
   1  13  -4    0.68    1.20
   2  13  -4    0.70    1.40
   3  13  -4    2.66    1.86
   4  13  -4    6.22    2.25
   5  13  -4   49.88    9.11
   1  14  -4    4.91    2.09
   2  14  -4    0.90    1.52
   3  14  -4   -0.20    1.86
  -4 -16  -3    0.99    1.95
  -3 -16  -3   11.95    2.15
  -2 -16  -3   12.67    2.10
  -1 -16  -3    5.29    1.46
   0 -16  -3   19.29    3.60
   1 -16  -3    4.10    1.99
  -6 -15  -3   21.51    2.86
  -5 -15  -3   22.76    2.64
  -4 -15  -3    6.54    1.48
  -3 -15  -3    3.07    1.07
  -2 -15  -3    1.88    0.95
  -1 -15  -3   -0.69    0.63
   0 -15  -3   -0.40    1.01
   1 -15  -3    0.25    0.90
   2 -15  -3    1.64    1.29
   3 -15  -3    6.32    2.16
   4 -15  -3    8.41    2.42
   5 -15  -3   17.06    3.41
  -8 -14  -3   17.64    3.31
  -7 -14  -3   -0.32    0.74
  -6 -14  -3   -0.14    0.68
  -5 -14  -3    0.34    0.66
  -4 -14  -3   14.23    2.05
  -3 -14  -3    0.02    0.59
  -2 -14  -3    2.91    1.06
  -1 -14  -3    6.09    1.30
   0 -14  -3   33.86    3.10
   1 -14  -3    8.56    2.28
   2 -14  -3    0.44    1.00
   3 -14  -3    0.72    0.98
   4 -14  -3   16.28    3.19
   5 -14  -3    0.53    0.97
   6 -14  -3    0.54    1.09
   7 -14  -3   -0.15    1.23
  -9 -13  -3    2.53    1.19
  -8 -13  -3    9.16    1.71
  -7 -13  -3    3.66    1.04
  -6 -13  -3    0.18    0.60
  -5 -13  -3    1.03    0.74
  -4 -13  -3    2.22    0.82
  -3 -13  -3   37.17    3.08
  -2 -13  -3   10.60    1.65
  -1 -13  -3    0.18    0.53
   0 -13  -3    0.13    0.51
   1 -13  -3   -0.74    0.69
   2 -13  -3   16.78    2.06
   3 -13  -3   38.97    3.21
   4 -13  -3    1.68    0.78
   5 -13  -3    0.25    0.67
   6 -13  -3   -0.57    0.68
   7 -13  -3    3.40    1.09
   8 -13  -3   12.33    2.03
   9 -13  -3    3.74    1.36
 -10 -12  -3   10.78    1.85
  -9 -12  -3    3.77    1.18
  -8 -12  -3    3.88    1.23
  -7 -12  -3    8.32    1.47
  -6 -12  -3   -0.02    0.53
  -5 -12  -3    5.09    1.19
  -4 -12  -3   19.42    1.79
  -3 -12  -3   11.91    1.35
  -2 -12  -3    1.60    0.55
  -1 -12  -3    1.14    0.52
   0 -12  -3   13.68    1.42
   1 -12  -3    0.50    0.51
   2 -12  -3    2.46    0.89
   3 -12  -3   13.61    1.81
   4 -12  -3   14.02    1.92
   5 -12  -3   10.20    1.68
   6 -12  -3   -0.13    0.56
   7 -12  -3   10.58    1.76
   8 -12  -3    2.25    1.00
   9 -12  -3    4.55    1.29
  10 -12  -3   13.41    2.31
 -11 -11  -3   -0.01    0.72
 -10 -11  -3    0.59    0.72
  -9 -11  -3   10.18    1.47
  -8 -11  -3   -0.44    0.45
  -7 -11  -3   47.47    2.66
  -6 -11  -3   16.04    1.62
  -5 -11  -3    9.41    1.24
  -4 -11  -3    7.88    1.13
  -3 -11  -3   -0.14    0.38
  -2 -11  -3    8.35    1.14
  -1 -11  -3   29.67    2.02
   0 -11  -3   -0.18    0.34
   1 -11  -3   30.25    2.02
   2 -11  -3    7.35    1.34
   3 -11  -3    0.50    0.56
   4 -11  -3    7.32    1.35
   5 -11  -3    8.41    1.52
   6 -11  -3   18.04    2.21
   7 -11  -3   46.56    3.56
   8 -11  -3   -0.36    0.62
   9 -11  -3   13.11    2.01
  10 -11  -3    2.09    1.12
  11 -11  -3   -0.23    0.84
 -12 -10  -3    5.62    2.02
 -11 -10  -3   24.21    2.70
 -10 -10  -3    0.77    0.75
  -9 -10  -3    3.53    0.84
  -8 -10  -3    1.93    0.68
  -7 -10  -3    0.45    0.45
  -6 -10  -3   10.61    1.27
  -5 -10  -3    1.51    0.54
  -4 -10  -3   48.20    2.16
  -3 -10  -3    5.58    0.89
  -2 -10  -3   -0.22    0.30
  -1 -10  -3   35.03    2.00
   0 -10  -3   11.01    1.18
   1 -10  -3   35.62    1.83
   2 -10  -3    0.21    0.46
   3 -10  -3    6.32    1.23
   4 -10  -3   52.43    2.82
   5 -10  -3    0.82    0.60
   6 -10  -3   10.63    1.60
   7 -10  -3    0.09    0.55
   8 -10  -3    4.53    1.20
   9 -10  -3    2.91    1.07
  10 -10  -3    0.26    0.78
  11 -10  -3   24.74    2.86
  12 -10  -3    6.96    1.82
 -13  -9  -3   -0.31    1.03
 -12  -9  -3    2.22    1.04
 -11  -9  -3    0.62    0.74
 -10  -9  -3   14.44    1.99
  -9  -9  -3   31.60    2.81
  -8  -9  -3   15.72    1.97
  -7  -9  -3    1.87    0.61
  -6  -9  -3    8.33    1.14
  -5  -9  -3   37.34    2.14
  -4  -9  -3   -0.19    0.28
  -3  -9  -3   -0.03    0.29
  -2  -9  -3   73.68    2.52
  -1  -9  -3   14.58    1.29
   0  -9  -3   -0.16    0.28
   1  -9  -3   19.21    1.49
   2  -9  -3   72.55    3.20
   3  -9  -3    0.06    0.44
   4  -9  -3    0.41    0.45
   5  -9  -3   40.55    2.68
   6  -9  -3    8.49    1.42
   7  -9  -3    1.51    0.73
   8  -9  -3   21.58    2.38
   9  -9  -3   31.50    2.98
  10  -9  -3   15.88    2.20
  11  -9  -3    1.47    0.97
  12  -9  -3    2.43    1.16
 -13  -8  -3    0.08    0.72
 -12  -8  -3    2.35    0.92
 -11  -8  -3   13.38    1.99
 -10  -8  -3    1.14    0.69
  -9  -8  -3   13.03    1.84
  -8  -8  -3   21.83    2.24
  -7  -8  -3   10.36    1.53
  -6  -8  -3    0.37    0.37
  -5  -8  -3   13.00    1.33
  -4  -8  -3   15.92    1.40
  -3  -8  -3   13.56    1.26
  -2  -8  -3   33.57    1.73
  -1  -8  -3   15.60    1.33
   0  -8  -3   13.26    1.21
   1  -8  -3   16.58    1.32
   2  -8  -3   33.97    2.55
   3  -8  -3   17.89    1.83
   4  -8  -3   17.12    1.84
   5  -8  -3   14.83    1.76
   6  -8  -3   -0.04    0.42
   7  -8  -3   12.64    1.71
   8  -8  -3   34.26    2.93
   9  -8  -3   13.57    1.88
  10  -8  -3    0.54    0.62
  11  -8  -3    6.46    1.48
  12  -8  -3    0.92    1.36
  13  -8  -3    4.08    2.04
 -14  -7  -3   -0.40    1.05
 -13  -7  -3   38.02    3.41
 -12  -7  -3    0.36    0.65
 -11  -7  -3    3.19    1.03
 -10  -7  -3   -0.26    0.48
  -9  -7  -3   -0.04    0.43
  -8  -7  -3    6.96    1.27
  -7  -7  -3    8.41    1.35
  -6  -7  -3    6.31    1.16
  -5  -7  -3  128.31    3.46
  -4  -7  -3    1.53    0.48
  -3  -7  -3    9.61    1.06
  -2  -7  -3    5.11    0.75
  -1  -7  -3    2.18    0.52
   0  -7  -3    0.01    0.25
   1  -7  -3    2.33    0.51
   2  -7  -3    3.50    0.87
   3  -7  -3   12.07    1.53
   4  -7  -3    1.72    0.63
   5  -7  -3  129.78    4.30
   6  -7  -3   10.43    1.51
   7  -7  -3   10.78    1.53
   8  -7  -3    6.95    1.29
   9  -7  -3    0.51    0.62
  10  -7  -3    0.80    0.63
  11  -7  -3    3.28    1.19
  12  -7  -3    1.05    1.33
  13  -7  -3   31.05    4.87
 -14  -6  -3    0.21    0.98
 -13  -6  -3   24.29    2.64
 -12  -6  -3    5.10    1.28
 -11  -6  -3   45.32    3.50
 -10  -6  -3    8.85    1.44
  -9  -6  -3    0.16    0.48
  -8  -6  -3   23.22    2.31
  -7  -6  -3    8.54    1.35
  -6  -6  -3    0.13    0.43
  -5  -6  -3    6.00    1.06
  -4  -6  -3   -0.01    0.27
  -3  -6  -3    0.74    0.33
  -2  -6  -3    1.83    0.45
  -1  -6  -3  115.49    2.90
   0  -6  -3   50.49    1.80
   1  -6  -3  119.68    2.84
   2  -6  -3    0.87    0.42
   3  -6  -3    0.92    0.49
   4  -6  -3    0.75    0.45
   5  -6  -3    9.26    1.30
   6  -6  -3    0.68    0.50
   7  -6  -3    6.37    1.15
   8  -6  -3   23.35    2.17
   9  -6  -3    0.16    0.48
  10  -6  -3   10.56    1.63
  11  -6  -3   51.00    5.71
  12  -6  -3    5.33    2.10
  13  -6  -3   30.33    4.86
  14  -6  -3   -0.34    1.94
 -14  -5  -3   12.23    1.69
 -13  -5  -3    0.20    0.58
 -12  -5  -3    3.53    1.04
 -11  -5  -3    4.02    1.01
 -10  -5  -3   30.88    2.72
  -9  -5  -3    3.49    0.96
  -8  -5  -3    7.60    1.26
  -7  -5  -3   41.58    2.33
  -6  -5  -3   15.51    1.68
  -5  -5  -3    1.06    0.55
  -4  -5  -3    1.25    0.45
  -3  -5  -3   43.05    1.72
  -2  -5  -3   82.31    2.39
  -1  -5  -3    4.85    0.66
   0  -5  -3   -0.11    0.22
   1  -5  -3    4.18    0.60
   2  -5  -3   84.51    3.05
   3  -5  -3   43.49    2.19
   4  -5  -3    2.21    0.67
   5  -5  -3    0.58    0.40
   6  -5  -3   19.99    1.90
   7  -5  -3   38.73    2.41
   8  -5  -3    5.93    1.12
   9  -5  -3    2.07    0.74
  10  -5  -3   30.31    4.10
  11  -5  -3    2.51    1.42
  12  -5  -3    1.20    1.19
  13  -5  -3    1.45    1.39
  14  -5  -3   17.47    3.69
 -15  -4  -3    0.21    2.02
 -14  -4  -3   31.56    3.13
 -13  -4  -3   -0.25    0.60
 -12  -4  -3    0.09    0.44
 -11  -4  -3    4.17    0.92
 -10  -4  -3    4.87    1.02
  -9  -4  -3    2.49    0.81
  -8  -4  -3   21.34    2.08
  -7  -4  -3   11.48    1.52
  -6  -4  -3   14.69    1.62
  -5  -4  -3    0.45    0.38
  -4  -4  -3  123.28    3.73
  -3  -4  -3    5.44    0.73
  -2  -4  -3   10.75    0.97
  -1  -4  -3   13.60    1.06
   0  -4  -3    5.65    0.67
   1  -4  -3   12.12    0.95
   2  -4  -3   12.25    1.34
   3  -4  -3    4.53    0.86
   4  -4  -3  124.76    3.79
   5  -4  -3    0.01    0.35
   6  -4  -3   16.31    1.66
   7  -4  -3    9.76    1.33
   8  -4  -3   20.04    2.02
   9  -4  -3    0.78    0.76
  10  -4  -3    3.88    1.62
  11  -4  -3    5.81    1.95
  12  -4  -3    1.08    1.14
  13  -4  -3    1.25    1.15
  14  -4  -3   44.25    5.92
 -15  -3  -3    2.11    1.17
 -14  -3  -3    1.97    0.78
 -13  -3  -3   -0.08    0.47
 -12  -3  -3    0.34    0.45
 -11  -3  -3    4.48    0.88
 -10  -3  -3   21.92    1.82
  -9  -3  -3   27.32    1.94
  -8  -3  -3   25.12    1.78
  -7  -3  -3   98.45    2.81
  -6  -3  -3    0.96    0.38
  -5  -3  -3   50.82    2.34
  -4  -3  -3   12.31    1.34
  -3  -3  -3    4.53    0.67
  -2  -3  -3   70.12    2.08
  -1  -3  -3  111.49    2.61
   0  -3  -3    0.01    0.22
   1  -3  -3  111.95    2.46
   2  -3  -3   73.16    2.63
   3  -3  -3    4.81    0.84
   4  -3  -3   14.45    1.45
   5  -3  -3   48.89    2.22
   6  -3  -3    0.50    0.41
   7  -3  -3  104.93    3.55
   8  -3  -3   23.14    3.17
   9  -3  -3   17.72    2.88
  10  -3  -3   19.78    2.04
  11  -3  -3   10.71    2.64
  12  -3  -3   -0.05    0.82
  13  -3  -3    0.20    0.97
  14  -3  -3    2.86    1.74
 -15  -2  -3    2.66    1.05
 -14  -2  -3    0.32    0.55
 -13  -2  -3    5.18    1.03
 -12  -2  -3   14.49    1.62
 -11  -2  -3   51.45    2.38
 -10  -2  -3    3.47    0.74
  -9  -2  -3    0.93    0.43
  -8  -2  -3    0.20    0.32
  -7  -2  -3   24.35    1.63
  -6  -2  -3    1.01    0.40
  -5  -2  -3    1.97    0.47
  -4  -2  -3   19.39    1.13
  -3  -2  -3   11.05    1.18
  -2  -2  -3   21.36    1.19
  -1  -2  -3  111.28    2.58
   0  -2  -3    0.15    0.20
   1  -2  -3  111.35    2.35
   2  -2  -3   19.63    1.32
   3  -2  -3    9.78    1.09
   4  -2  -3   16.39    1.47
   5  -2  -3    2.18    0.59
   6  -2  -3    0.44    0.36
   7  -2  -3   25.29    2.18
   8  -2  -3    0.55    0.72
   9  -2  -3    0.94    0.50
  10  -2  -3    4.50    1.07
  11  -2  -3   52.99    5.57
  12  -2  -3   25.16    4.08
  13  -2  -3    4.24    1.94
  14  -2  -3   -0.23    1.23
  15  -2  -3    3.39    1.85
 -15  -1  -3    3.83    0.95
 -14  -1  -3   14.28    1.76
 -13  -1  -3   13.52    1.58
 -12  -1  -3    2.04    0.66
 -11  -1  -3   10.81    1.34
 -10  -1  -3   33.49    2.26
  -9  -1  -3    0.64    0.40
  -8  -1  -3   22.41    1.67
  -7  -1  -3    0.21    0.30
  -6  -1  -3   -0.16    0.24
  -5  -1  -3  129.40    2.98
  -4  -1  -3   16.00    1.15
  -3  -1  -3   31.87    1.25
  -2  -1  -3   32.71    1.05
  -1  -1  -3    0.82    0.23
   0  -1  -3   -0.10    0.17
   1  -1  -3    1.23    0.31
   2  -1  -3   31.48    1.57
   3  -1  -3   36.12    1.68
   4  -1  -3   15.42    1.35
   5  -1  -3  128.97    3.54
   6  -1  -3    0.40    0.36
   7  -1  -3    0.64    0.75
   8  -1  -3   17.18    1.80
   9  -1  -3    0.71    0.56
  10  -1  -3   38.03    2.53
  11  -1  -3   12.50    2.02
  12  -1  -3    4.37    1.80
  13  -1  -3   13.43    3.28
  14  -1  -3   15.45    3.40
  15  -1  -3    5.19    2.13
 -15   0  -3    0.01    0.62
 -14   0  -3   12.58    1.61
 -13   0  -3    0.14    0.48
 -12   0  -3    0.08    0.44
 -11   0  -3    0.40    0.40
 -10   0  -3    3.22    0.73
  -9   0  -3    0.16    0.34
  -8   0  -3  148.84    3.76
  -7   0  -3    0.37    0.30
  -6   0  -3   12.39    1.15
  -5   0  -3    0.13    0.26
  -4   0  -3   99.66    2.06
  -3   0  -3    0.08    0.22
  -2   0  -3   94.39    1.95
  -1   0  -3    0.10    0.16
   0   0  -3    9.96    0.81
   1   0  -3    0.04    0.17
   2   0  -3   95.76    2.81
   3   0  -3   -0.05    0.21
   4   0  -3   99.53    2.90
   5   0  -3   -0.05    0.37
   6   0  -3   12.46    2.05
   7   0  -3   -0.30    0.28
   8   0  -3  153.10    4.61
   9   0  -3   -0.10    0.41
  10   0  -3    2.70    0.83
  11   0  -3   -0.19    0.54
  12   0  -3   -0.55    0.80
  13   0  -3    1.39    1.26
  14   0  -3   13.47    3.21
  15   0  -3    0.33    1.36
 -15   1  -3    4.53    1.07
 -14   1  -3   11.07    1.79
 -13   1  -3   14.37    2.01
 -12   1  -3    2.44    0.89
 -11   1  -3    7.74    1.39
 -10   1  -3   37.54    2.90
  -9   1  -3    1.02    0.57
  -8   1  -3   17.67    1.78
  -7   1  -3    0.09    0.33
  -6   1  -3    0.21    0.33
  -5   1  -3  129.26    2.54
  -4   1  -3   14.88    0.94
  -3   1  -3   34.51    1.32
  -2   1  -3   30.65    1.05
  -1   1  -3    0.38    0.24
   0   1  -3    0.32    0.20
   1   1  -3    0.73    0.25
   2   1  -3   31.51    1.46
   3   1  -3   32.69    1.48
   4   1  -3   12.11    1.81
   5   1  -3  116.08    5.17
   6   1  -3    0.02    0.30
   7   1  -3    0.15    0.38
   8   1  -3   21.16    1.98
   9   1  -3    1.12    0.60
  10   1  -3   38.22    2.90
  11   1  -3    9.79    1.47
  12   1  -3    4.12    1.68
  13   1  -3   12.97    2.99
  14   1  -3   12.87    3.10
  15   1  -3    6.08    2.29
 -15   2  -3    2.94    1.35
 -14   2  -3   -0.03    0.63
 -13   2  -3    6.85    1.40
 -12   2  -3   20.50    2.34
 -11   2  -3   48.88    3.95
 -10   2  -3    3.49    0.94
  -9   2  -3    1.20    0.55
  -8   2  -3    0.62    0.36
  -7   2  -3   22.77    2.04
  -6   2  -3    0.85    0.34
  -5   2  -3    1.81    0.43
  -4   2  -3   20.20    1.18
  -3   2  -3   13.06    1.04
  -2   2  -3   23.37    1.10
  -1   2  -3  110.07    2.48
   0   2  -3    0.17    0.20
   1   2  -3  113.51    2.30
   2   2  -3   21.75    1.16
   3   2  -3   11.38    1.76
   4   2  -3   17.54    1.59
   5   2  -3    1.50    0.51
   6   2  -3    1.12    0.49
   7   2  -3   24.17    2.11
   8   2  -3    0.12    0.38
   9   2  -3    1.60    0.62
  10   2  -3    2.73    0.89
  11   2  -3   49.22    3.10
  12   2  -3   18.29    2.08
  13   2  -3    3.62    1.84
  14   2  -3    0.43    1.39
  15   2  -3    1.23    1.69
 -15   3  -3   -0.07    1.04
 -14   3  -3    3.56    1.06
 -13   3  -3    0.25    0.60
 -12   3  -3    0.04    0.49
 -11   3  -3    3.84    1.00
 -10   3  -3   19.78    2.09
  -9   3  -3   23.71    2.19
  -8   3  -3   22.28    2.10
  -7   3  -3  103.04    2.85
  -6   3  -3    0.43    0.32
  -5   3  -3   49.94    1.82
  -4   3  -3   13.32    1.08
  -3   3  -3    5.02    1.18
  -2   3  -3   68.43    2.43
  -1   3  -3  111.11    3.08
   0   3  -3    0.00    0.23
   1   3  -3  115.44    2.94
   2   3  -3   72.99    2.57
   3   3  -3    5.97    0.91
   4   3  -3   15.11    1.47
   5   3  -3   54.74    2.39
   6   3  -3    0.81    0.46
   7   3  -3  101.42    3.60
   8   3  -3   22.18    2.05
   9   3  -3   27.06    2.36
  10   3  -3   21.58    2.25
  11   3  -3    6.66    1.39
  12   3  -3    0.32    0.72
  13   3  -3    0.23    0.99
  14   3  -3    3.61    2.68
 -14   4  -3   28.28    3.00
 -13   4  -3    0.83    0.71
 -12   4  -3    1.85    0.81
 -11   4  -3    3.56    0.98
 -10   4  -3    3.83    1.00
  -9   4  -3    1.31    0.64
  -8   4  -3   16.72    1.45
  -7   4  -3    9.74    1.10
  -6   4  -3   19.72    1.51
  -5   4  -3    0.44    0.38
  -4   4  -3  121.73    3.61
  -2   4  -3   13.06    1.25
  -1   4  -3   15.81    1.12
   0   4  -3    7.03    0.73
   1   4  -3   13.26    0.95
   2   4  -3   10.77    1.21
   3   4  -3    6.04    0.92
   4   4  -3  124.44    3.66
   5   4  -3    0.62    0.39
   6   4  -3   17.37    1.72
   7   4  -3   12.19    1.49
   8   4  -3   15.13    1.70
   9   4  -3    2.15    0.76
  10   4  -3    4.41    1.03
  11   4  -3    3.69    1.17
  12   4  -3    2.73    1.27
 -14   5  -3   10.07    1.78
 -13   5  -3    0.91    0.66
 -12   5  -3    2.13    0.76
 -11   5  -3    6.15    1.26
 -10   5  -3   30.93    2.72
  -9   5  -3    3.74    0.76
  -8   5  -3    6.07    0.93
  -7   5  -3   45.34    2.37
  -6   5  -3   19.26    1.85
  -5   5  -3    1.06    0.39
  -4   5  -3    1.63    0.52
  -3   5  -3   41.64    1.98
  -2   5  -3   90.64    2.83
  -1   5  -3    4.77    0.81
   0   5  -3    0.06    0.19
   1   5  -3    4.05    0.74
   2   5  -3   89.28    2.88
   3   5  -3   43.65    1.99
   4   5  -3    0.26    0.32
   5   5  -3    1.52    0.55
   6   5  -3   21.72    1.93
   7   5  -3   43.47    4.37
   8   5  -3    6.31    1.83
   9   5  -3    2.08    1.09
  10   5  -3   31.57    4.08
  11   5  -3    5.68    1.83
  12   5  -3    3.84    1.63
  13   5  -3    0.42    1.12
 -14   6  -3   -0.34    0.81
 -13   6  -3   24.71    2.69
 -12   6  -3    1.89    0.87
 -11   6  -3   39.91    3.24
 -10   6  -3    9.06    1.20
  -9   6  -3    0.78    0.44
  -8   6  -3   18.23    1.96
  -7   6  -3    9.07    1.38
  -6   6  -3    1.18    0.51
  -5   6  -3    6.04    1.06
  -4   6  -3    0.64    0.40
  -3   6  -3    0.52    0.41
  -2   6  -3    1.92    0.54
  -1   6  -3  118.12    3.31
   0   6  -3   44.92    2.42
   1   6  -3  107.48    5.22
   2   6  -3    1.45    0.84
   3   6  -3    1.75    0.96
   4   6  -3   -0.24    0.51
   5   6  -3    7.87    1.76
   6   6  -3    0.69    0.69
   7   6  -3   10.69    2.23
   8   6  -3   21.47    3.20
   9   6  -3   -0.04    0.81
  10   6  -3   10.56    2.48
  11   6  -3   52.93    5.53
  12   6  -3    3.62    1.75
  13   6  -3   27.73    4.14
 -13   7  -3   34.81    3.21
 -12   7  -3   -0.03    0.60
 -11   7  -3    2.98    0.80
 -10   7  -3   -0.13    0.43
  -9   7  -3    0.54    0.59
  -8   7  -3    7.38    1.32
  -7   7  -3    7.20    1.27
  -6   7  -3    8.38    1.27
  -5   7  -3  129.78    4.33
  -4   7  -3    2.08    0.62
  -3   7  -3   10.18    1.31
  -2   7  -3    5.60    1.42
  -1   7  -3    2.67    1.02
   0   7  -3   -0.10    0.50
   1   7  -3    1.54    0.86
   2   7  -3    7.70    1.72
   3   7  -3   13.13    2.42
   4   7  -3    1.44    0.88
   5   7  -3  129.25    6.37
   6   7  -3    7.96    2.01
   7   7  -3   15.81    2.79
   8   7  -3    9.78    2.29
   9   7  -3    0.41    0.85
  10   7  -3    0.08    0.94
  11   7  -3    4.52    1.73
  12   7  -3    0.17    1.05
  13   7  -3   41.96    5.28
 -13   8  -3    2.17    1.04
 -12   8  -3    2.97    1.03
 -11   8  -3    9.69    1.36
 -10   8  -3    0.18    0.53
  -9   8  -3   10.76    1.71
  -8   8  -3   28.60    2.61
  -7   8  -3    9.59    1.51
  -6   8  -3    0.39    0.45
  -5   8  -3   12.96    2.40
  -4   8  -3   15.61    2.58
  -3   8  -3   18.19    1.80
  -2   8  -3   31.72    3.37
  -1   8  -3   21.21    2.78
   0   8  -3   19.47    2.75
   1   8  -3   16.60    2.61
   2   8  -3   35.76    3.79
   3   8  -3   13.47    2.39
   4   8  -3   11.48    2.24
   5   8  -3   20.24    3.18
   6   8  -3   -0.18    0.54
   7   8  -3   10.18    2.42
   8   8  -3   20.53    3.47
   9   8  -3   11.17    2.68
  10   8  -3   -0.20    0.93
  11   8  -3    9.25    2.49
  12   8  -3    1.98    1.43
  13   8  -3    2.23    1.52
 -12   9  -3    0.76    0.65
 -11   9  -3    0.84    0.56
 -10   9  -3   13.05    1.93
  -9   9  -3   31.10    2.89
  -8   9  -3   16.56    2.07
  -7   9  -3    1.19    0.68
  -6   9  -3    8.99    1.47
  -5   9  -3   33.13    3.93
  -4   9  -3    0.02    0.58
  -3   9  -3    0.15    0.42
  -2   9  -3   72.44    3.11
  -1   9  -3   16.63    2.48
   0   9  -3    0.03    0.59
   1   9  -3   15.75    2.54
   2   9  -3   72.84    4.65
   3   9  -3   -0.43    0.50
   4   9  -3   -0.60    0.59
   5   9  -3   32.55    4.07
   6   9  -3   10.74    2.52
   7   9  -3    1.36    0.93
   8   9  -3   21.47    3.82
   9   9  -3   25.31    3.93
  10   9  -3   15.21    3.21
  11   9  -3    0.27    1.19
  12   9  -3    0.50    1.14
  13   9  -3    0.77    1.37
 -12  10  -3    8.82    2.67
 -11  10  -3   19.47    2.41
 -10  10  -3    1.22    0.80
  -9  10  -3    2.46    0.94
  -8  10  -3    1.07    0.68
  -7  10  -3    0.81    0.58
  -6  10  -3   10.27    1.67
  -5  10  -3    1.91    1.19
  -4  10  -3   46.97    3.96
  -3  10  -3    3.50    1.39
  -2  10  -3    0.16    0.46
  -1  10  -3   33.83    3.82
   0  10  -3   14.61    2.63
   1  10  -3   37.16    4.28
   2  10  -3   -0.65    0.50
   3  10  -3    3.41    1.31
   4  10  -3   47.60    5.19
   5  10  -3    0.72    0.91
   6  10  -3   11.28    2.59
   7  10  -3    2.43    1.30
   8  10  -3    3.65    1.60
   9  10  -3    1.99    1.43
  10  10  -3    1.10    1.35
  11  10  -3   17.91    3.48
  12  10  -3    6.07    2.10
 -11  11  -3   -0.08    0.83
 -10  11  -3    0.18    0.68
  -9  11  -3   13.74    2.06
  -8  11  -3    0.22    0.54
  -7  11  -3   47.51    3.64
  -6  11  -3   16.73    2.16
  -5  11  -3    8.25    2.21
  -4  11  -3    6.52    1.92
  -3  11  -3    0.34    0.70
  -2  11  -3    9.57    1.51
  -1  11  -3   31.61    2.77
   0  11  -3    0.27    0.77
   1  11  -3   29.84    3.95
   2  11  -3    9.25    2.38
   3  11  -3    0.11    0.92
   4  11  -3    6.05    1.90
   5  11  -3    5.21    1.86
   6  11  -3   20.29    3.60
   7  11  -3   47.71    5.52
   8  11  -3    0.43    1.02
   9  11  -3   16.83    3.24
  10  11  -3   -0.31    1.02
  11  11  -3    0.54    1.19
 -10  12  -3   10.02    2.00
  -9  12  -3    2.97    1.10
  -8  12  -3    1.00    0.82
  -7  12  -3    9.65    1.67
  -6  12  -3   -0.11    0.53
  -5  12  -3    5.89    1.87
  -4  12  -3   16.76    3.13
  -3  12  -3   13.77    2.77
  -2  12  -3    2.51    1.34
  -1  12  -3    0.72    0.68
   0  12  -3   11.35    1.75
   1  12  -3    2.06    1.25
   2  12  -3    0.71    0.99
   3  12  -3   12.49    2.82
   4  12  -3   15.02    3.02
   5  12  -3   10.13    2.60
   6  12  -3    0.21    0.98
   7  12  -3    9.79    2.65
   8  12  -3    0.92    1.35
   9  12  -3    2.68    1.82
  10  12  -3    6.79    2.56
  -9  13  -3    2.94    1.82
  -8  13  -3    8.48    1.63
  -7  13  -3    3.51    1.08
  -6  13  -3   -0.26    0.59
  -5  13  -3    1.52    1.18
  -4  13  -3    1.01    1.09
  -3  13  -3   31.99    4.32
  -2  13  -3   17.78    3.23
  -1  13  -3    0.53    0.61
   0  13  -3    0.12    0.55
   1  13  -3    0.26    0.91
   2  13  -3   19.69    3.43
   3  13  -3   37.62    4.92
   4  13  -3    4.94    1.90
   5  13  -3    1.71    1.33
   6  13  -3   -0.37    0.97
   7  13  -3    2.92    1.54
   8  13  -3    9.02    2.58
  -7  14  -3   -0.69    0.65
  -6  14  -3   -0.09    0.64
  -5  14  -3    0.93    1.10
  -4  14  -3   13.89    2.86
  -3  14  -3   -1.11    0.86
  -2  14  -3    1.61    1.37
  -1  14  -3    3.92    1.61
   0  14  -3   28.24    2.83
   1  14  -3    8.19    1.60
   2  14  -3    1.62    1.45
   3  14  -3   -0.55    1.10
   4  14  -3   21.23    3.89
   5  14  -3    1.26    1.52
   6  14  -3   -0.25    1.14
   7  14  -3    0.67    1.45
  -5  15  -3   18.87    3.55
  -4  15  -3    6.40    2.07
  -3  15  -3    3.64    1.67
  -2  15  -3    0.80    1.22
  -1  15  -3    0.26    1.01
   0  15  -3   -0.69    0.76
   1  15  -3   -0.09    0.67
   2  15  -3    2.43    1.07
   3  15  -3    6.00    2.11
   4  15  -3    8.76    2.65
   5  15  -3   25.03    4.24
  -1  16  -3    5.96    2.46
   0  16  -3   21.38    3.65
   1  16  -3    5.16    1.36
   2  16  -3    8.70    1.78
   3  16  -3    8.39    2.67
  -4 -17  -2    3.86    1.26
  -3 -17  -2    0.12    0.78
  -2 -17  -2    2.49    1.08
  -1 -17  -2    4.83    1.20
   0 -17  -2    0.51    0.72
   1 -17  -2    5.93    1.47
   2 -17  -2    1.62    0.93
   3 -17  -2    0.02    0.75
   4 -17  -2    7.29    2.65
  -6 -16  -2    0.23    1.04
  -5 -16  -2    2.59    1.00
  -4 -16  -2   22.81    2.55
  -3 -16  -2    2.29    0.99
  -2 -16  -2    0.91    0.66
  -1 -16  -2    6.18    1.38
   0 -16  -2   17.89    2.14
   1 -16  -2    7.37    1.50
   2 -16  -2    1.37    0.84
   3 -16  -2    3.33    1.08
   4 -16  -2   20.38    2.42
   5 -16  -2    3.84    1.72
   6 -16  -2   -0.37    0.99
  -8 -15  -2    8.16    2.34
  -7 -15  -2   -0.75    0.92
  -6 -15  -2    0.61    0.66
  -5 -15  -2    0.40    0.79
  -4 -15  -2    2.90    0.99
  -3 -15  -2   11.08    1.78
  -2 -15  -2    8.94    1.54
  -1 -15  -2    0.19    0.59
   0 -15  -2    0.13    0.51
   1 -15  -2   -0.27    0.51
   2 -15  -2   15.16    2.03
   3 -15  -2   11.38    1.75
   4 -15  -2    1.85    0.83
   5 -15  -2    1.10    1.20
   6 -15  -2   -0.92    0.90
   7 -15  -2   -0.20    1.13
   8 -15  -2   10.04    2.71
  -9 -14  -2    1.44    1.25
  -8 -14  -2   39.07    4.98
  -7 -14  -2   -0.13    0.62
  -6 -14  -2    0.79    0.76
  -5 -14  -2    1.11    0.74
  -4 -14  -2    6.17    1.25
  -3 -14  -2   -0.20    0.54
  -2 -14  -2    1.97    0.83
  -1 -14  -2    7.65    1.41
   0 -14  -2   69.17    3.38
   1 -14  -2    7.63    1.37
   2 -14  -2    2.33    0.85
   3 -14  -2    0.42    0.58
   4 -14  -2    8.41    1.44
   5 -14  -2    2.02    1.31
   6 -14  -2   -0.43    0.78
   7 -14  -2   -0.84    0.87
   8 -14  -2   28.28    4.40
   9 -14  -2    5.31    2.11
 -10 -13  -2   -0.43    0.85
  -9 -13  -2    1.79    1.03
  -8 -13  -2    1.82    0.84
  -7 -13  -2    5.23    1.23
  -6 -13  -2   34.64    2.94
  -5 -13  -2   63.77    3.22
  -4 -13  -2   17.10    2.09
  -3 -13  -2    1.67    0.67
  -2 -13  -2    2.34    0.80
  -1 -13  -2    2.34    0.74
   0 -13  -2   -0.19    0.46
   1 -13  -2    2.05    0.77
   2 -13  -2    2.43    0.81
   3 -13  -2    1.17    0.67
   4 -13  -2   19.52    2.12
   5 -13  -2   57.53    3.01
   6 -13  -2   30.97    4.23
   7 -13  -2    6.14    1.95
   8 -13  -2    1.01    1.27
   9 -13  -2    0.85    1.19
  10 -13  -2   -0.06    1.07
  11 -13  -2   -0.02    1.23
 -11 -12  -2   10.70    2.53
 -10 -12  -2    0.51    0.89
  -9 -12  -2   -0.57    0.59
  -8 -12  -2    5.79    1.20
  -7 -12  -2   19.81    2.22
  -6 -12  -2   12.29    1.68
  -5 -12  -2    2.02    0.81
  -4 -12  -2    7.52    1.30
  -3 -12  -2   13.14    1.64
  -2 -12  -2   38.78    2.50
  -1 -12  -2   27.89    2.41
   0 -12  -2   19.40    2.00
   1 -12  -2   30.84    1.82
   2 -12  -2   36.73    1.85
   3 -12  -2   12.23    1.28
   4 -12  -2    7.81    1.05
   5 -12  -2    1.20    0.50
   6 -12  -2    8.98    1.57
   7 -12  -2   24.77    2.61
   8 -12  -2    5.15    1.27
   9 -12  -2    0.17    0.71
  10 -12  -2    0.92    0.82
  11 -12  -2   18.63    2.56
  12 -12  -2   20.20    2.68
 -12 -11  -2    1.01    1.05
 -11 -11  -2   -0.18    0.79
 -10 -11  -2   12.59    1.84
  -9 -11  -2   44.38    3.34
  -8 -11  -2    0.00    0.51
  -7 -11  -2    2.47    0.88
  -6 -11  -2   -0.18    0.41
  -5 -11  -2    1.19    0.50
  -4 -11  -2    5.13    0.80
  -3 -11  -2   18.11    1.45
  -2 -11  -2   13.59    1.26
  -1 -11  -2   59.64    2.17
   0 -11  -2   -0.27    0.27
   1 -11  -2   58.22    2.16
   2 -11  -2   12.70    1.21
   3 -11  -2   19.31    1.55
   4 -11  -2    6.18    0.88
   5 -11  -2    1.81    0.56
   6 -11  -2    0.33    0.56
   7 -11  -2    2.63    0.89
   8 -11  -2    0.05    0.61
   9 -11  -2   45.71    3.63
  10 -11  -2   11.47    1.90
  11 -11  -2   -0.84    0.66
  12 -11  -2   -0.04    0.80
  13 -11  -2    4.24    1.47
 -13 -10  -2   15.64    3.19
 -12 -10  -2   43.33    5.11
 -11 -10  -2    1.84    0.85
 -10 -10  -2   -0.05    0.51
  -9 -10  -2    5.81    1.19
  -8 -10  -2    2.65    0.82
  -7 -10  -2    6.70    1.23
  -6 -10  -2   12.18    1.23
  -5 -10  -2    3.44    0.66
  -4 -10  -2   47.57    1.93
  -3 -10  -2   39.98    2.07
  -2 -10  -2   17.19    1.38
  -1 -10  -2   20.04    1.44
   0 -10  -2    1.47    0.46
   1 -10  -2   20.58    1.50
   2 -10  -2   18.65    1.38
   3 -10  -2   38.27    1.69
   4 -10  -2   49.95    1.95
   5 -10  -2    3.33    0.64
   6 -10  -2   10.96    1.55
   7 -10  -2    6.78    1.30
   8 -10  -2    3.37    1.01
   9 -10  -2    5.24    1.29
  10 -10  -2   -0.30    0.61
  11 -10  -2    2.88    1.06
  12 -10  -2   42.77    3.78
  13 -10  -2   13.08    2.19
  14 -10  -2   13.70    3.21
 -14  -9  -2   13.04    2.31
 -13  -9  -2    0.20    0.63
 -12  -9  -2    1.67    0.68
 -11  -9  -2   10.46    1.32
 -10  -9  -2   12.02    1.31
  -9  -9  -2    0.08    0.34
  -8  -9  -2    1.33    0.50
  -7  -9  -2   31.10    2.53
  -6  -9  -2   83.70    3.34
  -5  -9  -2   11.98    1.17
  -4  -9  -2    4.08    0.68
  -3  -9  -2   34.36    1.55
  -2  -9  -2   18.56    1.35
  -1  -9  -2    1.49    0.43
   0  -9  -2    0.12    0.24
   1  -9  -2    1.12    0.40
   2  -9  -2   20.10    1.41
   3  -9  -2   33.14    1.50
   4  -9  -2    3.34    0.61
   5  -9  -2   12.66    1.15
   6  -9  -2   86.19    3.48
   7  -9  -2   27.37    2.48
   8  -9  -2    1.63    0.68
   9  -9  -2    0.36    0.54
  10  -9  -2   14.66    2.00
  11  -9  -2   11.89    1.82
  12  -9  -2    2.64    1.11
  13  -9  -2    0.58    0.78
  14  -9  -2   11.99    2.16
 -15  -8  -2    4.39    1.86
 -14  -8  -2    1.60    0.89
 -13  -8  -2    1.23    0.60
 -12  -8  -2    9.39    1.25
 -11  -8  -2   12.65    1.42
 -10  -8  -2   31.85    2.08
  -9  -8  -2    5.17    0.79
  -8  -8  -2   27.34    1.84
  -7  -8  -2   22.13    1.55
  -6  -8  -2   16.39    1.31
  -5  -8  -2   14.18    1.13
  -4  -8  -2    4.31    0.67
  -3  -8  -2   37.14    1.55
  -2  -8  -2    0.12    0.26
  -1  -8  -2   37.52    1.51
   0  -8  -2  133.24    3.01
   1  -8  -2   34.37    1.44
   2  -8  -2    0.13    0.23
   3  -8  -2   35.21    1.47
   4  -8  -2    3.93    0.61
   5  -8  -2   14.06    1.18
   6  -8  -2   12.44    1.48
   7  -8  -2   19.98    2.07
   8  -8  -2   24.88    2.35
   9  -8  -2    4.71    1.13
  10  -8  -2   37.56    3.10
  11  -8  -2   12.72    1.89
  12  -8  -2   12.20    1.96
  13  -8  -2    1.54    0.91
  14  -8  -2    5.90    1.51
 -15  -7  -2   -0.22    0.70
 -14  -7  -2    0.22    0.55
 -13  -7  -2   23.17    2.02
 -12  -7  -2    0.25    0.40
 -11  -7  -2    8.44    1.11
 -10  -7  -2    0.46    0.36
  -9  -7  -2   47.90    2.01
  -8  -7  -2   10.51    1.08
  -7  -7  -2   33.57    1.66
  -6  -7  -2    7.94    0.88
  -5  -7  -2   14.89    1.17
  -4  -7  -2    5.91    0.69
  -3  -7  -2   97.10    2.01
  -2  -7  -2    9.82    0.93
  -1  -7  -2   20.34    1.30
   0  -7  -2   -0.02    0.19
   1  -7  -2   23.09    1.17
   2  -7  -2    8.63    0.86
   3  -7  -2   94.53    2.39
   4  -7  -2    6.00    0.70
   5  -7  -2   14.83    1.14
   6  -7  -2    5.89    1.03
   7  -7  -2   31.20    2.42
   8  -7  -2    7.93    1.32
   9  -7  -2   53.53    2.90
  10  -7  -2    0.52    0.54
  11  -7  -2    7.48    1.41
  12  -7  -2    0.73    0.70
  13  -7  -2   26.35    2.86
  14  -7  -2    1.85    1.43
  15  -7  -2   -0.02    1.41
 -15  -6  -2   20.79    2.58
 -14  -6  -2   -0.11    0.51
 -13  -6  -2    6.09    1.07
 -12  -6  -2    1.58    0.57
 -11  -6  -2    0.80    0.46
 -10  -6  -2   17.91    1.55
  -9  -6  -2   22.89    1.71
  -8  -6  -2   47.06    1.90
  -7  -6  -2   47.63    1.82
  -6  -6  -2    5.38    0.76
  -5  -6  -2   41.96    1.55
  -4  -6  -2    1.56    0.38
  -3  -6  -2  178.42    2.84
  -2  -6  -2   49.56    1.24
  -1  -6  -2    1.21    0.25
   0  -6  -2   78.44    2.05
   1  -6  -2    0.78    0.28
   2  -6  -2   46.27    1.52
   3  -6  -2  178.21    3.35
   4  -6  -2    1.68    0.39
   5  -6  -2   41.70    1.47
   6  -6  -2    4.25    0.84
   7  -6  -2   47.71    2.41
   8  -6  -2   49.94    2.58
   9  -6  -2   23.64    2.29
  10  -6  -2   16.79    1.89
  11  -6  -2    0.17    0.52
  12  -6  -2    1.41    0.79
  13  -6  -2    7.29    1.45
  14  -6  -2   -0.19    1.06
  15  -6  -2   26.19    4.59
 -16  -5  -2    4.72    1.89
 -15  -5  -2    1.39    0.72
 -14  -5  -2    5.84    1.06
 -13  -5  -2   -0.08    0.44
 -12  -5  -2    2.61    0.71
 -11  -5  -2    7.34    1.07
 -10  -5  -2   22.14    1.71
  -9  -5  -2   30.13    1.75
  -8  -5  -2   -0.18    0.25
  -7  -5  -2    7.00    0.82
  -6  -5  -2  105.38    2.63
  -5  -5  -2   16.08    1.14
  -4  -5  -2   13.29    1.00
  -3  -5  -2    0.20    0.18
  -2  -5  -2   69.90    1.45
  -1  -5  -2   41.29    0.95
   0  -5  -2   -0.04    0.18
   1  -5  -2   38.94    1.31
   2  -5  -2   73.54    1.83
   3  -5  -2    0.07    0.18
   4  -5  -2   14.59    0.88
   5  -5  -2   14.79    0.89
   6  -5  -2  104.59    3.44
   7  -5  -2    6.99    1.11
   8  -5  -2    0.16    0.36
   9  -5  -2   26.67    2.32
  10  -5  -2   23.23    2.21
  11  -5  -2    6.72    1.29
  12  -5  -2    3.23    0.95
  13  -5  -2    0.25    1.04
  14  -5  -2   10.56    2.81
  15  -5  -2    3.64    1.94
 -16  -4  -2    0.65    0.75
 -15  -4  -2   12.76    1.58
 -14  -4  -2    3.22    0.85
 -13  -4  -2    0.37    0.48
 -12  -4  -2  102.92    3.34
 -11  -4  -2    2.75    0.64
 -10  -4  -2    8.87    1.07
  -9  -4  -2    3.33    0.66
  -8  -4  -2    0.50    0.34
  -7  -4  -2    2.68    0.53
  -6  -4  -2   41.00    1.54
  -5  -4  -2    5.47    0.66
  -4  -4  -2   57.00    1.64
  -3  -4  -2    3.32    0.44
  -2  -4  -2  124.21    2.03
  -1  -4  -2    2.00    0.23
   0  -4  -2   85.25    1.97
   1  -4  -2    1.83    0.34
   2  -4  -2  126.86    2.40
   3  -4  -2    2.96    0.42
   4  -4  -2   59.49    1.72
   5  -4  -2    6.98    0.61
   6  -4  -2   40.13    1.98
   7  -4  -2    3.15    0.78
   8  -4  -2    0.32    0.41
   9  -4  -2    2.46    0.78
  10  -4  -2    9.24    1.36
  11  -4  -2    4.68    1.07
  12  -4  -2  115.26    6.98
  13  -4  -2    0.30    1.05
  14  -4  -2    4.42    1.88
  15  -4  -2    8.21    2.55
  16  -4  -2   -1.03    2.12
 -16  -3  -2    4.93    1.05
 -15  -3  -2   16.05    1.78
 -14  -3  -2    1.51    0.63
 -13  -3  -2    8.13    1.17
 -12  -3  -2    0.63    0.44
 -11  -3  -2    7.76    1.08
 -10  -3  -2   -0.18    0.28
  -9  -3  -2  122.76    3.22
  -8  -3  -2   28.68    1.76
  -7  -3  -2   10.84    1.05
  -6  -3  -2  115.93    2.73
  -5  -3  -2    7.55    0.76
  -4  -3  -2   22.61    1.03
  -3  -3  -2   47.03    1.36
  -2  -3  -2    1.45    0.26
  -1  -3  -2  122.90    1.80
   0  -3  -2   -0.02    0.12
   1  -3  -2  119.04    2.26
   2  -3  -2    2.81    0.38
   3  -3  -2   50.85    1.27
   4  -3  -2   24.90    0.86
   5  -3  -2    6.66    0.65
   6  -3  -2  121.50    3.47
   7  -3  -2   10.50    1.25
   8  -3  -2   29.94    1.94
   9  -3  -2  122.18    3.01
  10  -3  -2    0.59    0.52
  11  -3  -2    8.93    1.43
  12  -3  -2    0.64    0.85
  13  -3  -2   12.45    2.93
  14  -3  -2    2.96    1.74
  15  -3  -2   11.85    2.93
  16  -3  -2    3.69    2.03
 -16  -2  -2    1.30    0.73
 -15  -2  -2   28.52    2.34
 -14  -2  -2    6.36    1.08
 -13  -2  -2    1.24    0.55
 -12  -2  -2    6.33    0.98
 -11  -2  -2    5.54    0.92
 -10  -2  -2   13.62    1.30
  -9  -2  -2   31.85    1.79
  -8  -2  -2    2.25    0.49
  -7  -2  -2   49.05    1.76
  -6  -2  -2   25.17    1.25
  -5  -2  -2   35.08    0.95
  -4  -2  -2  118.07    1.87
  -3  -2  -2  107.34    1.67
  -2  -2  -2   12.05    0.66
  -1  -2  -2    1.10    0.20
   0  -2  -2    1.76    0.31
   1  -2  -2    0.59    0.19
   2  -2  -2   11.61    0.57
   3  -2  -2  106.68    2.80
   4  -2  -2  115.44    3.04
   5  -2  -2   34.81    1.60
   6  -2  -2   25.70    1.55
   7  -2  -2   53.58    2.19
   8  -2  -2    2.56    0.49
   9  -2  -2   39.28    1.66
  10  -2  -2   14.53    1.37
  11  -2  -2    6.98    2.01
  12  -2  -2    4.79    1.72
  13  -2  -2    1.39    1.15
  14  -2  -2    7.08    2.25
  15  -2  -2   27.84    4.59
  16  -2  -2    1.13    1.73
 -16  -1  -2    9.84    1.41
 -15  -1  -2   -0.45    0.48
 -14  -1  -2    0.39    0.58
 -13  -1  -2   27.09    2.63
 -12  -1  -2    9.34    1.47
 -11  -1  -2   12.25    1.62
 -10  -1  -2    0.24    0.39
  -9  -1  -2    7.54    1.15
  -8  -1  -2    0.33    0.36
  -7  -1  -2    4.44    0.55
  -6  -1  -2  108.48    2.32
  -5  -1  -2   17.65    0.78
  -4  -1  -2   76.36    1.49
  -3  -1  -2  108.41    1.77
  -2  -1  -2   19.99    0.78
  -1  -1  -2    3.24    0.32
   0  -1  -2    0.15    0.15
   1  -1  -2    3.20    0.36
   2  -1  -2   20.32    0.61
   3  -1  -2  106.37    2.68
   4  -1  -2   72.91    2.20
   5  -1  -2   16.63    1.11
   6  -1  -2  108.34    3.01
   7  -1  -2    4.57    0.60
   8  -1  -2    0.02    0.21
   9  -1  -2    9.43    0.98
  10  -1  -2    0.20    0.39
  11  -1  -2   10.96    2.44
  12  -1  -2   11.74    2.58
  13  -1  -2   22.50    3.64
  14  -1  -2    0.44    1.00
  15  -1  -2    0.63    1.14
  16  -1  -2    6.58    2.31
 -16   0  -2    2.90    1.13
 -15   0  -2    0.37    0.64
 -14   0  -2   25.05    2.60
 -13   0  -2   -0.48    0.43
 -12   0  -2   37.14    2.96
 -11   0  -2   -0.07    0.36
 -10   0  -2  118.13    4.05
  -9   0  -2   -0.09    0.34
  -8   0  -2   81.86    2.27
  -7   0  -2    0.27    0.22
  -6   0  -2    0.90    0.30
  -5   0  -2   -0.01    0.15
  -4   0  -2    3.31    0.43
  -3   0  -2    0.08    0.13
  -2   0  -2    3.10    0.39
  -1   0  -2    0.19    0.16
   0   0  -2  984.92   11.26
   1   0  -2    0.20    0.13
   2   0  -2    3.61    0.30
   3   0  -2    0.21    0.19
   4   0  -2    2.79    0.49
   5   0  -2   -0.02    0.19
   6   0  -2    0.78    0.27
   7   0  -2    0.11    0.19
   8   0  -2   83.29    2.27
   9   0  -2   -0.16    0.29
  10   0  -2  108.16    3.73
  11   0  -2   -0.03    0.71
  12   0  -2   22.22    3.50
  13   0  -2    0.01    0.79
  14   0  -2   30.63    4.43
  15   0  -2   -0.29    1.04
  16   0  -2    4.54    2.03
 -16   1  -2    8.40    1.66
 -15   1  -2    0.68    0.69
 -14   1  -2    0.45    0.57
 -13   1  -2   21.15    2.27
 -12   1  -2   12.62    1.72
 -11   1  -2   16.22    1.88
 -10   1  -2    0.28    0.45
  -9   1  -2   11.23    1.09
  -8   1  -2   -0.12    0.23
  -7   1  -2    3.41    0.54
  -6   1  -2  106.74    2.47
  -5   1  -2   17.32    0.98
  -4   1  -2   71.10    1.78
  -3   1  -2  110.78    2.18
  -2   1  -2   19.81    1.44
  -1   1  -2    3.96    0.53
   0   1  -2    0.14    0.13
   1   1  -2    3.18    0.34
   2   1  -2   18.83    0.61
   3   1  -2  109.04    2.44
   4   1  -2   75.15    1.95
   5   1  -2   17.48    0.88
   6   1  -2  110.94    2.32
   7   1  -2    3.21    0.70
   8   1  -2    0.09    0.31
   9   1  -2    9.54    1.28
  10   1  -2    0.22    0.40
  11   1  -2   14.80    1.69
  12   1  -2    9.41    2.36
  13   1  -2   23.44    3.63
  14   1  -2    0.74    1.17
  15   1  -2    1.47    1.57
  16   1  -2    9.75    2.76
 -16   2  -2   -0.42    0.69
 -15   2  -2   31.07    3.00
 -14   2  -2    5.53    1.17
 -13   2  -2    1.38    0.74
 -12   2  -2    4.67    1.05
 -11   2  -2    3.79    0.89
 -10   2  -2   13.06    1.22
  -9   2  -2   35.97    1.63
  -8   2  -2    3.00    0.56
  -7   2  -2   51.63    1.77
  -6   2  -2   30.37    1.27
  -5   2  -2   36.27    1.32
  -4   2  -2  123.66    3.05
  -3   2  -2  104.78    2.68
   0   2  -2    1.43    0.32
   1   2  -2    1.67    0.33
   2   2  -2   12.20    0.71
   3   2  -2  105.69    1.98
   4   2  -2  117.63    2.14
   5   2  -2   36.28    1.07
   6   2  -2   26.67    1.63
   7   2  -2   49.87    2.23
   8   2  -2    3.07    0.72
   9   2  -2   34.52    2.17
  10   2  -2   13.89    1.59
  11   2  -2    4.07    0.97
  12   2  -2    8.56    2.22
  13   2  -2    0.24    0.91
  14   2  -2    5.15    1.99
  15   2  -2   33.96    4.69
  16   2  -2   -0.62    1.25
 -16   3  -2    4.32    1.26
 -15   3  -2   11.50    1.85
 -14   3  -2    2.24    0.92
 -13   3  -2   10.87    1.67
 -12   3  -2    1.13    0.63
 -11   3  -2    6.86    0.97
 -10   3  -2    0.17    0.30
  -9   3  -2  115.55    3.15
  -8   3  -2   25.81    1.48
  -7   3  -2    9.97    0.97
  -6   3  -2  117.76    3.36
  -5   3  -2    7.08    0.90
  -4   3  -2   24.52    1.30
  -3   3  -2   49.35    2.55
   0   3  -2   -0.21    0.20
   1   3  -2  119.37    2.16
   2   3  -2    1.17    0.21
   3   3  -2   47.82    1.10
   4   3  -2   22.78    1.38
   5   3  -2    6.51    0.91
   6   3  -2  119.61    3.44
   7   3  -2   11.24    1.29
   8   3  -2   30.44    2.25
   9   3  -2  115.10    3.88
  10   3  -2   -0.09    0.41
  11   3  -2    7.18    1.25
  12   3  -2    1.50    0.72
  13   3  -2    8.98    2.39
  14   3  -2    2.71    1.57
  15   3  -2   11.06    2.70
  16   3  -2    5.65    2.19
 -16   4  -2    0.34    0.91
 -15   4  -2   15.20    2.12
 -14   4  -2    2.87    1.00
 -13   4  -2    0.21    0.50
 -12   4  -2  106.85    3.42
 -11   4  -2    2.95    0.72
 -10   4  -2    8.19    1.02
  -9   4  -2    3.56    0.67
  -8   4  -2    0.61    0.39
  -7   4  -2    2.48    0.66
  -6   4  -2   44.39    2.02
  -5   4  -2    6.79    0.67
  -4   4  -2   55.13    1.89
  -3   4  -2    3.27    0.57
  -2   4  -2  120.47    4.15
  -1   4  -2    1.83    0.65
   0   4  -2   82.71    2.27
   1   4  -2    1.62    0.39
   2   4  -2  120.68    2.11
   3   4  -2    2.36    0.48
   4   4  -2   58.58    2.10
   5   4  -2    5.63    0.81
   6   4  -2   42.79    1.99
   7   4  -2    1.18    0.50
   8   4  -2    0.77    0.45
   9   4  -2    2.30    0.69
  10   4  -2    6.52    1.15
  11   4  -2    3.39    0.93
  12   4  -2  110.75    4.30
  13   4  -2    0.02    0.99
  14   4  -2    2.35    1.55
  15   4  -2   10.09    3.59
 -15   5  -2    2.07    0.96
 -14   5  -2    3.61    1.04
 -13   5  -2    0.21    0.43
 -12   5  -2    1.50    0.58
 -11   5  -2    6.04    0.94
 -10   5  -2   21.75    1.71
  -9   5  -2   26.13    2.21
  -8   5  -2   -0.15    0.31
  -7   5  -2    6.82    1.06
  -6   5  -2  106.03    3.40
  -5   5  -2   13.42    1.00
  -4   5  -2   15.18    1.27
  -3   5  -2    0.01    0.24
  -2   5  -2   69.00    3.12
  -1   5  -2   41.21    2.43
   0   5  -2    0.13    0.18
   1   5  -2   38.48    1.46
   2   5  -2   69.48    1.45
   3   5  -2    0.00    0.21
   4   5  -2   12.39    1.13
   5   5  -2   13.87    1.28
   6   5  -2  105.39    3.28
   7   5  -2    8.53    1.17
   8   5  -2    0.25    0.39
   9   5  -2   31.68    2.49
  10   5  -2   18.33    1.94
  11   5  -2    7.85    1.33
  12   5  -2    3.74    1.13
 -15   6  -2   17.29    2.29
 -14   6  -2   -0.01    0.54
 -13   6  -2    3.81    0.88
 -12   6  -2    0.98    0.52
 -11   6  -2    1.88    0.59
 -10   6  -2   13.96    1.74
  -9   6  -2   21.68    2.11
  -8   6  -2   51.13    2.51
  -7   6  -2   52.38    2.45
  -6   6  -2    3.05    0.70
  -5   6  -2   43.33    1.53
  -4   6  -2    1.89    0.51
  -3   6  -2  175.77    4.18
  -2   6  -2   45.42    2.60
  -1   6  -2    0.92    0.32
   0   6  -2   74.31    2.08
   1   6  -2    1.07    0.33
   2   6  -2   48.05    1.64
   3   6  -2  173.27    3.84
   4   6  -2    1.84    0.48
   5   6  -2   39.80    1.82
   6   6  -2    4.35    0.83
   7   6  -2   46.32    3.49
   8   6  -2   46.10    3.56
   9   6  -2   24.56    3.30
  10   6  -2   12.38    2.39
  11   6  -2    0.48    0.69
  12   6  -2    0.85    0.97
  13   6  -2    3.82    1.48
 -15   7  -2    0.58    0.78
 -14   7  -2    0.71    0.62
 -13   7  -2   22.69    2.00
 -12   7  -2    0.41    0.42
 -11   7  -2    9.79    1.54
 -10   7  -2    0.25    0.43
  -9   7  -2   42.41    2.70
  -8   7  -2   10.39    1.43
  -7   7  -2   31.19    2.44
  -6   7  -2    6.23    1.03
  -5   7  -2   14.11    2.20
  -4   7  -2    6.01    0.86
  -3   7  -2   90.15    2.92
  -2   7  -2    7.43    1.00
  -1   7  -2   26.06    2.57
   0   7  -2   -0.16    0.37
   1   7  -2   25.10    2.75
   2   7  -2    9.01    1.66
   3   7  -2   89.74    4.54
   4   7  -2    3.93    1.25
   5   7  -2   13.58    2.26
   6   7  -2    7.02    1.68
   7   7  -2   28.95    3.42
   8   7  -2    6.46    1.75
   9   7  -2   50.55    4.02
  10   7  -2    1.54    1.05
  11   7  -2    8.12    2.11
  12   7  -2   -0.42    0.80
  13   7  -2   20.39    3.42
 -15   8  -2    3.55    1.92
 -14   8  -2    2.07    0.79
 -13   8  -2    1.12    0.65
 -12   8  -2    9.35    1.28
 -11   8  -2   11.24    1.73
 -10   8  -2   33.30    2.82
  -9   8  -2    4.09    1.04
  -8   8  -2   25.06    2.30
  -7   8  -2   20.00    2.05
  -6   8  -2   11.81    1.42
  -5   8  -2   14.45    2.47
  -4   8  -2    5.29    0.92
  -3   8  -2   33.13    1.82
  -2   8  -2    0.17    0.29
  -1   8  -2   39.49    2.78
   0   8  -2  128.96    5.53
   1   8  -2   35.13    2.83
   2   8  -2    0.17    0.52
   3   8  -2   34.59    3.59
   4   8  -2    4.43    1.39
   5   8  -2   13.22    2.40
   6   8  -2   15.79    2.81
   7   8  -2   18.84    2.90
   8   8  -2   25.01    3.64
   9   8  -2    5.77    1.79
  10   8  -2   32.54    4.21
  11   8  -2   13.71    2.74
  12   8  -2   10.75    2.59
  13   8  -2    0.46    1.10
 -14   9  -2   10.00    1.55
 -13   9  -2   -0.22    0.49
 -12   9  -2    1.26    0.75
 -11   9  -2    6.48    1.37
 -10   9  -2   15.69    2.03
  -9   9  -2    0.67    0.58
  -8   9  -2    2.05    0.75
  -7   9  -2   25.08    2.19
  -6   9  -2   79.17    3.37
  -5   9  -2   10.14    2.01
  -4   9  -2    2.23    0.98
  -3   9  -2   29.82    1.95
  -2   9  -2   17.86    1.76
  -1   9  -2    1.06    0.76
   0   9  -2    0.61    0.67
   1   9  -2    1.44    0.82
   2   9  -2   20.84    2.98
   3   9  -2   26.65    3.29
   4   9  -2    2.07    1.11
   5   9  -2   11.86    2.43
   6   9  -2   79.94    5.18
   7   9  -2   29.34    3.88
   8   9  -2    0.91    0.89
   9   9  -2    0.39    0.89
  10   9  -2   14.03    2.83
  11   9  -2    6.80    2.01
  12   9  -2    2.04    1.48
  13   9  -2   -1.22    0.94
  14   9  -2    7.50    2.29
 -14  10  -2    4.62    2.85
 -13  10  -2   10.81    1.91
 -12  10  -2   37.48    3.35
 -11  10  -2    0.89    0.75
 -10  10  -2    0.15    0.51
  -9  10  -2    5.05    1.18
  -8  10  -2    2.34    0.83
  -7  10  -2    6.24    1.20
  -6  10  -2    9.96    1.50
  -5  10  -2    1.72    0.95
  -4  10  -2   40.83    3.52
  -3  10  -2   38.75    2.16
  -2  10  -2   16.38    1.73
  -1  10  -2   19.03    1.85
   0  10  -2    1.66    0.93
   1  10  -2   15.66    2.59
   2  10  -2   13.78    2.42
   3  10  -2   38.03    4.11
   4  10  -2   40.88    4.58
   5  10  -2    2.57    1.30
   6  10  -2    8.36    2.17
   7  10  -2    4.41    1.60
   8  10  -2    2.30    1.20
   9  10  -2    4.03    1.50
  10  10  -2   -0.34    0.86
  11  10  -2    1.14    1.15
  12  10  -2   36.54    4.98
  13  10  -2   12.59    3.00
  14  10  -2   10.60    2.81
 -13  11  -2   -0.20    1.11
 -12  11  -2    0.67    0.83
 -11  11  -2    0.15    0.70
 -10  11  -2   10.31    1.72
  -9  11  -2   36.09    3.13
  -8  11  -2    0.34    0.55
  -7  11  -2    2.84    0.90
  -6  11  -2    0.28    0.47
  -5  11  -2    1.13    0.97
  -4  11  -2    7.80    1.92
  -3  11  -2   16.99    1.90
  -2  11  -2   12.54    1.60
  -1  11  -2   54.76    2.76
   0  11  -2   -0.44    0.32
   1  11  -2   57.93    4.14
   2  11  -2   11.97    2.31
   3  11  -2   14.06    2.62
   4  11  -2    7.76    2.01
   5  11  -2    2.18    1.23
   6  11  -2   -0.33    0.66
   7  11  -2    2.43    1.32
   8  11  -2   -0.61    0.74
   9  11  -2   39.81    4.94
  10  11  -2   19.99    3.66
  11  11  -2    0.07    0.98
  12  11  -2    0.84    1.27
  13  11  -2    6.22    2.20
 -12  12  -2   17.60    3.50
 -11  12  -2   14.28    2.14
 -10  12  -2    1.17    0.73
  -9  12  -2   -0.21    0.57
  -8  12  -2    5.31    1.27
  -7  12  -2   21.31    2.38
  -6  12  -2    6.44    1.91
  -5  12  -2    2.57    1.25
  -4  12  -2    5.93    1.76
  -3  12  -2   11.11    2.36
  -2  12  -2   36.32    2.81
  -1  12  -2   29.04    2.56
   0  12  -2   18.54    2.02
   1  12  -2   30.19    3.89
   2  12  -2   34.91    4.11
   3  12  -2   10.49    2.36
   4  12  -2    9.74    2.43
   5  12  -2    1.32    1.19
   6  12  -2    8.67    2.31
   7  12  -2   19.51    3.47
   8  12  -2    4.70    1.78
   9  12  -2    0.14    0.97
  10  12  -2    1.74    1.25
  11  12  -2    8.62    2.48
  12  12  -2   20.43    3.97
 -11  13  -2    0.41    1.00
 -10  13  -2    0.40    0.82
  -9  13  -2    1.44    0.83
  -8  13  -2    0.90    0.78
  -7  13  -2    7.31    1.44
  -6  13  -2   30.94    4.19
  -5  13  -2   55.64    4.62
  -4  13  -2   18.03    3.07
  -3  13  -2    1.25    1.02
  -2  13  -2    4.09    1.12
  -1  13  -2    2.08    0.80
   0  13  -2    0.38    0.54
   1  13  -2    3.31    1.03
   2  13  -2    1.49    1.13
   3  13  -2    1.04    0.93
   4  13  -2   22.35    3.81
   5  13  -2   59.12    6.13
   6  13  -2   29.34    4.32
   7  13  -2    7.27    2.31
   8  13  -2    1.37    1.13
   9  13  -2    0.38    1.01
  10  13  -2   -0.83    1.01
  11  13  -2    0.60    1.50
  -9  14  -2    5.39    1.47
  -8  14  -2   29.23    2.90
  -7  14  -2   -0.28    0.63
  -6  14  -2    1.50    0.78
  -5  14  -2    1.48    1.11
  -4  14  -2    6.22    2.06
  -3  14  -2   -0.20    0.79
  -2  14  -2    2.86    1.40
  -1  14  -2    9.60    1.56
   0  14  -2   69.33    3.52
   1  14  -2    9.85    1.58
   2  14  -2    2.96    1.00
   3  14  -2    0.85    1.11
   4  14  -2    9.82    2.48
   5  14  -2    0.72    1.14
   6  14  -2    0.08    0.96
   7  14  -2    0.21    1.20
   8  14  -2   40.60    5.31
   9  14  -2    5.41    2.10
  -8  15  -2   11.22    1.97
  -7  15  -2   -0.06    0.71
  -6  15  -2    0.80    0.81
  -5  15  -2    3.16    1.58
  -4  15  -2    2.73    1.52
  -3  15  -2    9.41    2.38
  -2  15  -2    7.23    2.13
  -1  15  -2   -0.70    0.71
   0  15  -2    1.01    0.65
   1  15  -2    0.17    0.62
   2  15  -2   13.75    2.01
   3  15  -2    8.44    1.64
   4  15  -2    4.34    1.91
   5  15  -2    1.44    1.39
   6  15  -2    0.71    1.24
   7  15  -2   -1.13    1.18
   8  15  -2    9.32    2.58
  -6  16  -2   -0.63    0.73
  -5  16  -2    3.01    1.76
  -4  16  -2   16.07    3.35
  -3  16  -2    2.78    1.48
  -2  16  -2    1.64    1.32
  -1  16  -2    7.56    2.29
   0  16  -2   22.63    2.63
   1  16  -2    6.60    1.40
   2  16  -2    1.22    0.88
   3  16  -2    3.00    1.13
   4  16  -2   22.06    2.61
   5  16  -2    3.33    1.21
   6  16  -2   -0.07    1.22
  -4  17  -2    2.81    2.32
  -3  17  -2   -0.10    0.99
  -2  17  -2    2.92    1.73
  -1  17  -2    4.69    1.97
   0  17  -2   -0.94    1.09
   1  17  -2    5.05    1.40
   2  17  -2    4.01    1.28
   3  17  -2    0.51    0.83
   4  17  -2    3.30    1.24
   5  17  -2   10.69    2.73
  -3 -18  -1    9.95    3.90
  -2 -18  -1    1.89    1.51
  -1 -18  -1    1.27    1.30
   0 -18  -1    2.92    1.14
   1 -18  -1    0.33    0.83
   2 -18  -1    1.37    0.89
   3 -18  -1    3.05    1.21
   4 -18  -1    4.18    1.32
  -6 -17  -1   -0.58    0.82
  -5 -17  -1   -0.21    1.05
  -4 -17  -1    3.08    1.55
  -3 -17  -1    1.14    1.11
  -2 -17  -1    3.70    1.59
  -1 -17  -1   27.28    2.79
   0 -17  -1    0.88    0.74
   1 -17  -1   24.00    2.69
   2 -17  -1    6.18    1.44
   3 -17  -1    3.10    1.02
   4 -17  -1    6.16    1.40
   5 -17  -1    0.01    0.77
   6 -17  -1    0.35    0.82
   7 -17  -1    2.91    1.52
  -8 -16  -1    0.91    1.03
  -7 -16  -1   10.91    2.70
  -6 -16  -1    2.34    1.38
  -5 -16  -1    1.43    1.09
  -4 -16  -1    0.27    0.88
  -3 -16  -1   14.26    2.87
  -2 -16  -1   15.63    2.05
  -1 -16  -1    8.95    1.55
   0 -16  -1   34.18    2.98
   1 -16  -1    4.72    1.18
   2 -16  -1   12.10    1.89
   3 -16  -1   17.46    2.21
   4 -16  -1    0.78    0.77
   5 -16  -1    1.16    0.85
   6 -16  -1    1.39    0.90
   7 -16  -1    9.93    1.81
   8 -16  -1    0.91    0.89
  -9 -15  -1   -0.28    0.98
  -8 -15  -1    0.17    0.83
  -7 -15  -1    0.10    0.84
  -6 -15  -1   23.91    3.59
  -5 -15  -1   34.22    4.34
  -4 -15  -1   12.89    2.10
  -3 -15  -1    7.78    1.47
  -2 -15  -1    1.28    0.70
  -1 -15  -1    0.35    0.60
   0 -15  -1    0.52    0.58
   1 -15  -1    0.20    0.53
   2 -15  -1    1.80    0.82
   3 -15  -1    7.08    1.31
   4 -15  -1   11.37    1.69
   5 -15  -1   41.13    3.27
   6 -15  -1   29.74    2.87
   7 -15  -1    0.38    0.63
   8 -15  -1    0.59    0.81
   9 -15  -1   -0.21    1.13
 -11 -14  -1    2.13    1.47
 -10 -14  -1    2.40    1.26
  -9 -14  -1    4.56    1.74
  -8 -14  -1   28.50    4.05
  -7 -14  -1    0.11    0.88
  -6 -14  -1   -0.45    0.54
  -5 -14  -1    0.84    0.61
  -4 -14  -1   27.53    2.48
  -3 -14  -1    0.30    0.53
  -2 -14  -1    2.61    0.81
  -1 -14  -1   10.96    1.53
   0 -14  -1   48.32    2.70
   1 -14  -1   13.61    1.79
   2 -14  -1    3.23    0.85
   3 -14  -1    0.16    0.50
   4 -14  -1   25.05    2.49
   5 -14  -1    0.07    0.47
   6 -14  -1    0.14    0.50
   7 -14  -1    0.27    0.54
   8 -14  -1   26.38    2.68
   9 -14  -1    5.87    2.08
  10 -14  -1    2.03    1.76
  11 -14  -1    1.24    2.12
 -12 -13  -1    1.34    0.91
 -11 -13  -1   15.99    2.10
 -10 -13  -1   18.04    2.02
  -9 -13  -1    3.74    1.07
  -8 -13  -1   15.76    1.93
  -7 -13  -1    5.81    1.19
  -6 -13  -1    0.46    0.43
  -5 -13  -1    1.00    0.50
  -4 -13  -1    4.01    0.78
  -3 -13  -1   61.91    2.31
  -2 -13  -1   20.73    1.62
  -1 -13  -1   -0.12    0.37
   0 -13  -1   -0.10    0.42
   1 -13  -1    0.05    0.40
   2 -13  -1   21.52    2.11
   3 -13  -1   56.66    2.86
   4 -13  -1    5.90    1.12
   5 -13  -1    0.19    0.43
   6 -13  -1    0.42    0.53
   7 -13  -1    7.95    1.43
   8 -13  -1   16.31    2.14
   9 -13  -1    6.33    1.44
  10 -13  -1   16.76    3.41
  11 -13  -1   18.70    3.54
  12 -13  -1    3.03    1.75
 -13 -12  -1   -0.16    0.75
 -12 -12  -1   -0.05    0.60
 -11 -12  -1    6.10    1.30
 -10 -12  -1   13.68    1.91
  -9 -12  -1    5.74    1.15
  -8 -12  -1    4.32    1.03
  -7 -12  -1   15.18    1.46
  -6 -12  -1   -0.17    0.37
  -5 -12  -1   14.02    1.32
  -4 -12  -1   31.48    1.81
  -3 -12  -1   19.21    1.51
  -2 -12  -1    3.92    0.67
  -1 -12  -1    0.44    0.35
   0 -12  -1   26.20    1.58
   1 -12  -1    1.08    0.42
   2 -12  -1    3.92    0.87
   3 -12  -1   18.86    1.91
   4 -12  -1   32.39    2.59
   5 -12  -1    9.91    1.43
   6 -12  -1    0.33    0.47
   7 -12  -1   19.55    2.08
   8 -12  -1    3.22    0.73
   9 -12  -1    5.88    1.06
  10 -12  -1   14.46    2.11
  11 -12  -1    8.04    1.66
  12 -12  -1    0.84    1.00
  13 -12  -1   -0.16    0.94
 -14 -11  -1   -0.25    0.77
 -13 -11  -1    0.61    0.82
 -12 -11  -1    0.12    0.62
 -11 -11  -1    0.63    0.62
 -10 -11  -1    1.57    0.71
  -9 -11  -1   21.25    2.21
  -8 -11  -1   -0.11    0.36
  -7 -11  -1   78.22    2.61
  -6 -11  -1   26.59    1.78
  -5 -11  -1   12.25    1.18
  -4 -11  -1   10.44    1.07
  -3 -11  -1   -0.11    0.29
  -2 -11  -1   13.75    1.19
  -1 -11  -1   53.91    1.90
   0 -11  -1    0.05    0.27
   1 -11  -1   52.95    1.89
   2 -11  -1   13.21    0.99
   3 -11  -1    0.74    0.31
   4 -11  -1   10.68    0.93
   5 -11  -1   13.96    1.10
   6 -11  -1   25.02    1.78
   7 -11  -1   75.88    2.72
   8 -11  -1    0.34    0.41
   9 -11  -1   24.87    1.96
  10 -11  -1    1.22    0.83
  11 -11  -1    0.78    0.72
  12 -11  -1    0.86    0.81
  13 -11  -1    2.38    1.17
  14 -11  -1   -0.03    1.59
 -14 -10  -1    8.30    1.60
 -13 -10  -1    7.96    1.51
 -12 -10  -1    7.13    1.38
 -11 -10  -1   40.18    3.09
 -10 -10  -1    1.19    0.60
  -9 -10  -1    4.83    0.98
  -8 -10  -1    4.04    0.75
  -7 -10  -1    0.25    0.31
  -6 -10  -1   18.00    1.43
  -5 -10  -1    2.79    0.59
  -4 -10  -1   82.31    2.02
  -3 -10  -1    9.84    0.79
  -2 -10  -1   -0.07    0.20
  -1 -10  -1   58.56    1.56
   0 -10  -1   19.94    0.98
   1 -10  -1   59.53    1.59
   2 -10  -1    0.14    0.20
   3 -10  -1   10.28    0.85
   4 -10  -1   78.28    2.01
   5 -10  -1    2.68    0.50
   6 -10  -1   21.61    1.60
   7 -10  -1    0.34    0.40
   8 -10  -1    6.40    0.98
   9 -10  -1    6.38    1.03
  10 -10  -1    0.04    0.61
  11 -10  -1   38.08    3.34
  12 -10  -1    5.94    1.38
  13 -10  -1    8.70    1.60
  14 -10  -1    7.85    1.82
 -15  -9  -1    5.29    1.38
 -14  -9  -1    9.35    1.58
 -13  -9  -1    0.55    0.67
 -12  -9  -1    1.26    0.71
 -11  -9  -1    2.42    0.83
 -10  -9  -1   21.11    2.14
  -9  -9  -1   53.88    2.11
  -8  -9  -1   29.66    1.68
  -7  -9  -1    4.39    0.73
  -6  -9  -1   17.91    1.37
  -5  -9  -1   68.16    2.14
  -4  -9  -1    0.23    0.21
  -3  -9  -1    0.09    0.19
  -2  -9  -1  129.25    2.36
  -1  -9  -1   34.37    1.12
   0  -9  -1   -0.13    0.16
   1  -9  -1   32.94    1.11
   2  -9  -1  127.27    2.41
   3  -9  -1    0.00    0.17
   4  -9  -1   -0.12    0.20
   5  -9  -1   67.51    1.83
   6  -9  -1   16.77    1.35
   7  -9  -1    1.73    0.49
   8  -9  -1   30.38    2.01
   9  -9  -1   52.60    2.23
  10  -9  -1   23.48    2.15
  11  -9  -1    1.24    0.83
  12  -9  -1    2.17    0.99
  13  -9  -1   -0.41    0.65
  14  -9  -1   11.20    2.00
  15  -9  -1    6.61    1.67
 -15  -8  -1    6.61    1.54
 -14  -8  -1    2.95    1.03
 -13  -8  -1    2.58    0.91
 -12  -8  -1    4.54    1.09
 -11  -8  -1   13.89    1.76
 -10  -8  -1    0.75    0.41
  -9  -8  -1   18.54    1.47
  -8  -8  -1   43.74    1.81
  -7  -8  -1   18.63    1.39
  -6  -8  -1    0.32    0.28
  -5  -8  -1   22.49    1.28
  -4  -8  -1   26.03    1.26
  -3  -8  -1   30.04    1.04
  -2  -8  -1   61.55    1.49
  -1  -8  -1   26.67    0.94
   0  -8  -1   22.21    0.91
   1  -8  -1   25.86    0.96
   2  -8  -1   66.01    1.55
   3  -8  -1   34.27    1.11
   4  -8  -1   25.96    1.05
   5  -8  -1   25.28    1.41
   6  -8  -1    0.34    0.29
   7  -8  -1   16.07    1.34
   8  -8  -1   46.34    1.94
   9  -8  -1   17.14    1.52
  10  -8  -1    0.94    0.46
  11  -8  -1   15.63    2.05
  12  -8  -1    4.28    1.12
  13  -8  -1    3.73    1.24
  14  -8  -1    1.74    1.03
  15  -8  -1    4.80    1.44
 -16  -7  -1    3.79    1.31
 -15  -7  -1    8.00    1.54
 -14  -7  -1    0.08    0.57
 -13  -7  -1   55.08    3.08
 -12  -7  -1    0.06    0.43
 -11  -7  -1    5.06    0.83
 -10  -7  -1    0.77    0.38
  -9  -7  -1    1.41    0.46
  -8  -7  -1   13.87    1.21
  -7  -7  -1   18.64    1.36
  -6  -7  -1   16.26    1.17
  -5  -7  -1  223.13    4.04
  -4  -7  -1    4.56    0.45
  -3  -7  -1   17.37    1.01
  -2  -7  -1   10.49    0.68
  -1  -7  -1    5.25    0.48
   0  -7  -1    0.23    0.15
   1  -7  -1    6.11    0.52
   2  -7  -1   11.49    0.67
   3  -7  -1   17.26    0.84
   4  -7  -1    4.11    0.49
   5  -7  -1  222.70    4.09
   6  -7  -1   16.49    1.24
   7  -7  -1   20.18    1.45
   8  -7  -1   13.98    1.22
   9  -7  -1    1.93    0.55
  10  -7  -1    0.17    0.35
  11  -7  -1    6.45    1.35
  12  -7  -1   -0.02    0.53
  13  -7  -1   61.62    3.76
  14  -7  -1    0.10    0.68
  15  -7  -1    4.76    1.40
  16  -7  -1    2.55    1.57
 -16  -6  -1    3.59    1.19
 -15  -6  -1    0.18    0.65
 -14  -6  -1   -0.31    0.53
 -13  -6  -1   44.77    3.40
 -12  -6  -1    5.54    0.89
 -11  -6  -1   78.31    2.66
 -10  -6  -1   12.42    1.24
  -9  -6  -1    0.73    0.35
  -8  -6  -1   34.92    1.52
  -7  -6  -1   13.60    1.10
  -6  -6  -1    2.35    0.48
  -5  -6  -1   11.62    0.65
  -4  -6  -1    0.14    0.16
  -3  -6  -1    3.15    0.45
  -2  -6  -1    2.78    0.34
  -1  -6  -1  225.23    3.03
   0  -6  -1   96.71    1.69
   1  -6  -1  230.59    3.04
   2  -6  -1    2.52    0.32
   3  -6  -1    3.15    0.37
   4  -6  -1    0.21    0.20
   5  -6  -1   12.32    0.99
   6  -6  -1    2.25    0.47
   7  -6  -1   15.84    1.24
   8  -6  -1   37.43    1.67
   9  -6  -1    0.60    0.36
  10  -6  -1   13.24    1.28
  11  -6  -1   76.13    3.57
  12  -6  -1    4.65    1.14
  13  -6  -1   47.67    3.24
  14  -6  -1   -0.11    0.63
  15  -6  -1   -0.39    0.68
  16  -6  -1    2.15    1.49
 -16  -5  -1    0.02    0.82
 -15  -5  -1   -0.66    0.55
 -14  -5  -1   20.28    2.30
 -13  -5  -1    0.28    0.43
 -12  -5  -1    5.05    0.84
 -11  -5  -1    9.57    1.09
 -10  -5  -1   48.17    1.94
  -9  -5  -1    6.52    0.83
  -8  -5  -1    9.77    0.95
  -7  -5  -1   81.72    1.83
  -6  -5  -1   33.19    1.00
  -5  -5  -1    2.20    0.30
  -4  -5  -1    3.44    0.33
  -3  -5  -1   91.83    1.53
  -2  -5  -1  166.71    2.80
  -1  -5  -1    8.45    0.53
   0  -5  -1    0.01    0.11
   1  -5  -1    8.78    0.48
   2  -5  -1  172.05    2.38
   3  -5  -1   91.02    1.66
   4  -5  -1    3.93    0.52
   5  -5  -1    1.91    0.39
   6  -5  -1   33.21    1.31
   7  -5  -1   80.21    2.23
   8  -5  -1   11.10    1.03
   9  -5  -1    5.83    0.77
  10  -5  -1   51.16    1.98
  11  -5  -1   10.19    1.54
  12  -5  -1    5.78    1.23
  13  -5  -1    1.11    0.75
  14  -5  -1   23.00    2.57
  15  -5  -1    0.08    0.69
  16  -5  -1    0.22    1.25
 -17  -4  -1   -0.30    1.13
 -16  -4  -1    5.51    1.37
 -15  -4  -1    0.71    0.71
 -14  -4  -1   54.60    2.54
 -13  -4  -1   -0.08    0.39
 -12  -4  -1    1.92    0.60
 -11  -4  -1    4.64    0.78
 -10  -4  -1    6.81    0.86
  -9  -4  -1    3.63    0.63
  -8  -4  -1   29.30    1.06
  -7  -4  -1   17.58    0.87
  -6  -4  -1   31.62    0.96
  -5  -4  -1    0.90    0.20
  -4  -4  -1  246.27    3.04
  -3  -4  -1    9.74    0.40
  -2  -4  -1   29.43    0.92
  -1  -4  -1   31.40    0.77
   0  -4  -1   15.17    0.51
   1  -4  -1   30.16    0.72
   2  -4  -1   30.68    0.77
   3  -4  -1   11.16    0.75
   4  -4  -1  244.74    3.79
   5  -4  -1    0.84    0.27
   6  -4  -1   32.41    1.23
   7  -4  -1   15.59    0.98
   8  -4  -1   28.15    1.34
   9  -4  -1    2.68    0.54
  10  -4  -1    8.40    0.98
  11  -4  -1    4.93    1.04
  12  -4  -1    1.68    0.74
  13  -4  -1   -0.13    0.51
  14  -4  -1   46.23    3.17
  15  -4  -1    0.31    1.13
  16  -4  -1    7.13    2.44
 -17  -3  -1   35.92    4.54
 -16  -3  -1    0.95    0.77
 -15  -3  -1    1.71    0.86
 -14  -3  -1    3.98    0.80
 -13  -3  -1   -0.18    0.43
 -12  -3  -1    0.05    0.34
 -11  -3  -1    8.73    1.27
 -10  -3  -1   31.72    2.07
  -9  -3  -1   44.48    1.61
  -8  -3  -1   45.24    1.52
  -7  -3  -1  186.97    2.90
  -6  -3  -1    2.19    0.32
  -5  -3  -1   97.53    1.69
  -4  -3  -1   34.38    0.79
  -3  -3  -1   13.54    0.74
  -2  -3  -1  171.82    2.60
  -1  -3  -1  273.14    3.50
   0  -3  -1    0.13    0.10
   1  -3  -1  266.54    3.34
   2  -3  -1  169.56    2.60
   3  -3  -1   14.24    0.65
   4  -3  -1   33.08    1.03
   5  -3  -1   99.79    2.08
   6  -3  -1    2.74    0.42
   7  -3  -1  181.50    3.41
   8  -3  -1   45.17    1.26
   9  -3  -1   43.85    1.63
  10  -3  -1   34.08    1.60
  11  -3  -1   13.07    1.55
  12  -3  -1    1.04    0.60
  13  -3  -1   -0.10    0.46
  14  -3  -1    3.29    1.71
  15  -3  -1    4.62    1.91
  16  -3  -1    3.00    1.71
 -17  -2  -1   -0.11    0.73
 -16  -2  -1   -0.53    0.56
 -15  -2  -1    3.00    1.01
 -14  -2  -1    0.11    0.47
 -13  -2  -1    9.97    1.59
 -12  -2  -1   27.69    2.39
 -11  -2  -1   84.90    3.30
 -10  -2  -1    6.89    0.81
  -9  -2  -1    3.58    0.58
  -8  -2  -1   -0.15    0.19
  -7  -2  -1   40.34    1.36
  -6  -2  -1    2.26    0.36
  -5  -2  -1    4.38    0.44
  -4  -2  -1   37.87    0.86
  -3  -2  -1   24.88    0.60
  -2  -2  -1   60.27    1.25
  -1  -2  -1  263.54    3.32
   0  -2  -1    1.93    0.26
   1  -2  -1  261.07    3.37
   2  -2  -1   57.75    1.16
   3  -2  -1   23.04    0.72
   4  -2  -1   36.31    1.00
   5  -2  -1    4.81    0.48
   6  -2  -1    2.85    0.41
   7  -2  -1   41.84    1.12
   8  -2  -1    0.17    0.20
   9  -2  -1    2.90    0.49
  10  -2  -1    7.01    1.12
  11  -2  -1   79.69    3.29
  12  -2  -1   32.47    2.60
  13  -2  -1    9.92    1.50
  14  -2  -1    0.16    1.00
  15  -2  -1    1.48    1.41
  16  -2  -1    0.53    1.29
  17  -2  -1   -0.23    1.37
 -17  -1  -1    1.70    0.94
 -16  -1  -1    2.33    1.03
 -15  -1  -1    9.24    1.59
 -14  -1  -1   17.49    2.07
 -13  -1  -1   22.28    2.25
 -12  -1  -1    3.80    0.90
 -11  -1  -1   19.00    1.46
 -10  -1  -1   62.04    2.09
  -9  -1  -1    1.92    0.41
  -8  -1  -1   38.94    1.45
  -7  -1  -1    0.23    0.22
  -6  -1  -1    0.86    0.26
  -5  -1  -1  258.43    3.85
  -4  -1  -1   35.54    0.99
  -3  -1  -1   82.21    1.48
  -2  -1  -1   65.06    1.01
  -1  -1  -1    2.41    0.26
   0  -1  -1    0.18    0.13
   1  -1  -1    2.72    0.24
   2  -1  -1   64.81    1.61
   3  -1  -1   83.44    1.39
   4  -1  -1   36.70    0.91
   5  -1  -1  259.45    3.72
   6  -1  -1    0.63    0.22
   7  -1  -1    0.48    0.24
   8  -1  -1   40.83    1.42
   9  -1  -1    1.67    0.42
  10  -1  -1   60.85    2.64
  11  -1  -1   15.95    1.73
  12  -1  -1    3.84    0.94
  13  -1  -1   25.69    3.80
  14  -1  -1   22.23    3.78
  15  -1  -1   10.24    2.76
  16  -1  -1    1.53    1.20
  17  -1  -1   -0.61    1.33
 -17   0  -1   -0.20    0.67
 -16   0  -1   57.48    3.62
 -15   0  -1   -0.25    0.50
 -14   0  -1   21.18    2.33
 -13   0  -1   -0.08    0.42
 -12   0  -1    0.04    0.34
 -11   0  -1   -0.07    0.25
 -10   0  -1    3.69    0.65
  -9   0  -1   -0.14    0.21
  -8   0  -1  252.37    4.44
  -7   0  -1   -0.11    0.18
  -6   0  -1   28.13    1.07
  -5   0  -1    0.24    0.18
  -4   0  -1  218.39    3.28
  -3   0  -1   -0.01    0.12
  -2   0  -1  229.21    3.03
  -1   0  -1    0.05    0.15
   0   0  -1   12.35    0.43
   1   0  -1    0.40    0.17
   2   0  -1  236.46    3.75
   3   0  -1    0.08    0.17
   4   0  -1  218.58    3.97
   5   0  -1    0.06    0.15
   6   0  -1   27.72    1.03
   7   0  -1   -0.02    0.17
   8   0  -1  254.89    4.29
   9   0  -1   -0.25    0.19
  10   0  -1    4.87    0.70
  11   0  -1    0.42    0.41
  12   0  -1    0.58    0.89
  13   0  -1   -0.04    0.76
  14   0  -1   21.38    3.52
  15   0  -1   -0.55    1.02
  16   0  -1   50.63    5.90
  17   0  -1    1.45    1.43
 -17   1  -1    1.77    0.93
 -16   1  -1    1.03    0.79
 -15   1  -1    8.31    1.53
 -14   1  -1   19.38    2.17
 -13   1  -1   21.28    1.67
 -12   1  -1    4.92    0.83
 -11   1  -1   21.55    1.60
 -10   1  -1   60.06    2.12
  -9   1  -1    1.96    0.46
  -8   1  -1   40.51    1.55
  -7   1  -1    0.18    0.21
  -6   1  -1    0.34    0.21
  -5   1  -1  256.77    3.97
  -4   1  -1   36.39    1.32
  -3   1  -1   80.06    1.94
  -2   1  -1   64.13    1.57
   0   1  -1   -0.25    0.15
   1   1  -1    2.46    0.29
   2   1  -1   64.87    1.34
   3   1  -1   82.44    1.47
   4   1  -1   36.13    0.97
   5   1  -1  259.89    3.79
   6   1  -1    0.43    0.21
   7   1  -1    0.72    0.26
   8   1  -1   40.72    1.41
   9   1  -1    1.71    0.43
  10   1  -1   67.39    2.06
  11   1  -1   20.52    2.99
  12   1  -1    2.87    1.32
  13   1  -1   23.23    3.51
  14   1  -1   22.15    3.59
  15   1  -1    6.24    2.16
  16   1  -1    1.33    1.60
  17   1  -1    0.93    1.25
 -17   2  -1    0.06    0.70
 -16   2  -1   -0.06    0.69
 -15   2  -1    2.51    0.93
 -14   2  -1    0.24    0.41
 -13   2  -1    8.53    1.15
 -12   2  -1   28.12    1.90
 -11   2  -1   83.06    2.67
 -10   2  -1    7.42    0.92
  -9   2  -1    3.47    0.60
  -8   2  -1    0.10    0.24
  -7   2  -1   41.02    1.48
  -6   2  -1    2.12    0.48
  -5   2  -1    4.85    0.67
  -4   2  -1   33.78    1.35
  -3   2  -1   23.65    1.03
  -2   2  -1   57.25    2.22
   0   2  -1    1.76    0.28
   1   2  -1  257.85    4.13
   2   2  -1   55.20    1.50
   3   2  -1   24.19    1.03
   4   2  -1   36.39    0.89
   5   2  -1    4.78    0.45
   6   2  -1    2.03    0.31
   7   2  -1   41.51    1.30
   8   2  -1    0.10    0.21
   9   2  -1    4.02    0.58
  10   2  -1    7.57    1.19
  11   2  -1   86.36    3.29
  12   2  -1   33.37    4.07
  13   2  -1   12.58    2.57
  14   2  -1    0.27    0.77
  15   2  -1    3.22    1.72
  16   2  -1   -0.04    1.00
  17   2  -1    0.36    1.11
 -17   3  -1   24.77    3.85
 -16   3  -1    1.76    0.96
 -15   3  -1    2.86    0.76
 -14   3  -1    2.07    0.67
 -13   3  -1    0.44    0.44
 -12   3  -1    0.13    0.36
 -11   3  -1   11.27    1.22
 -10   3  -1   32.62    1.81
  -9   3  -1   37.59    1.63
  -8   3  -1   46.56    2.09
  -7   3  -1  186.31    4.46
  -6   3  -1    2.60    0.57
  -5   3  -1   97.89    1.77
  -4   3  -1   33.26    0.92
  -3   3  -1   13.75    0.70
  -2   3  -1  171.15    3.18
  -1   3  -1  267.41    6.21
   0   3  -1    0.12    0.14
   1   3  -1  263.30    4.24
   2   3  -1  167.37    3.11
   3   3  -1   15.83    0.90
   4   3  -1   32.24    1.35
   5   3  -1   99.31    1.80
   6   3  -1    2.15    0.33
   7   3  -1  185.87    3.23
   8   3  -1   45.94    1.46
   9   3  -1   43.22    2.16
  10   3  -1   35.82    2.24
  11   3  -1   12.13    1.56
  12   3  -1    0.74    0.84
  13   3  -1    1.08    0.86
  14   3  -1    2.58    1.38
  15   3  -1    3.56    1.47
  16   3  -1    1.42    1.29
  17   3  -1   33.20    4.75
 -17   4  -1    0.22    1.19
 -16   4  -1    5.67    1.35
 -15   4  -1    0.25    0.55
 -14   4  -1   48.71    2.49
 -13   4  -1    0.14    0.39
 -12   4  -1    2.21    0.61
 -11   4  -1    5.39    0.84
 -10   4  -1    7.82    0.94
  -9   4  -1    2.86    0.66
  -8   4  -1   29.55    1.90
  -7   4  -1   12.48    1.27
  -6   4  -1   31.24    1.59
  -5   4  -1    1.18    0.24
  -4   4  -1  241.48    3.62
  -3   4  -1    9.49    0.67
  -2   4  -1   27.69    1.14
  -1   4  -1   30.57    1.65
   0   4  -1   16.24    0.63
   1   4  -1   31.27    0.92
   2   4  -1   28.66    1.01
   3   4  -1    9.43    0.81
   4   4  -1  247.42    4.71
   5   4  -1    1.29    0.40
   6   4  -1   33.85    1.66
   7   4  -1   15.99    1.48
   8   4  -1   26.59    1.81
   9   4  -1    4.98    0.92
  10   4  -1    9.82    1.30
  11   4  -1    7.88    1.28
  12   4  -1    3.37    0.89
  13   4  -1   -0.06    0.75
  14   4  -1   54.19    4.53
  15   4  -1    0.68    1.04
  16   4  -1    7.67    2.26
  17   4  -1    2.00    1.72
 -16   5  -1    0.13    0.60
 -15   5  -1   -0.19    0.43
 -14   5  -1   20.54    1.85
 -13   5  -1    0.28    0.42
 -12   5  -1    3.09    0.73
 -11   5  -1    8.48    1.04
 -10   5  -1   50.75    2.57
  -9   5  -1    6.92    1.09
  -8   5  -1   12.14    1.42
  -7   5  -1   74.80    2.78
  -6   5  -1   30.07    1.63
  -5   5  -1    1.74    0.30
  -4   5  -1    3.52    0.54
  -3   5  -1   91.18    2.41
  -2   5  -1  168.48    3.58
  -1   5  -1    7.88    1.14
   0   5  -1    0.12    0.11
   1   5  -1    8.68    1.38
   2   5  -1  164.75    3.11
   3   5  -1   89.95    2.26
   4   5  -1    3.62    0.59
   5   5  -1    1.45    0.45
   6   5  -1   33.02    1.67
   7   5  -1   83.65    2.89
   8   5  -1   11.88    1.32
   9   5  -1    7.95    1.18
  10   5  -1   51.82    2.52
  11   5  -1   11.12    1.54
  12   5  -1    3.93    0.88
  13   5  -1    1.25    0.92
  14   5  -1   18.67    3.13
  15   5  -1   -0.47    0.99
 -16   6  -1    4.50    1.05
 -15   6  -1    1.09    0.61
 -14   6  -1    0.12    0.50
 -13   6  -1   40.71    2.61
 -12   6  -1    3.89    0.80
 -11   6  -1   76.89    3.39
 -10   6  -1   16.36    1.81
  -9   6  -1    0.55    0.42
  -8   6  -1   34.35    1.99
  -7   6  -1   10.89    1.24
  -6   6  -1    1.77    0.53
  -5   6  -1   13.57    0.79
  -4   6  -1    0.35    0.26
  -3   6  -1    2.03    0.49
  -2   6  -1    3.58    0.61
  -1   6  -1  225.91    6.57
   0   6  -1   92.10    3.88
   1   6  -1  229.19    7.00
   2   6  -1    3.10    0.96
   3   6  -1    3.38    0.44
   4   6  -1    0.26    0.23
   5   6  -1   11.02    1.08
   6   6  -1    3.52    0.70
   7   6  -1   13.22    1.33
   8   6  -1   39.29    2.03
   9   6  -1    1.00    0.46
  10   6  -1   14.76    1.65
  11   6  -1   78.29    3.32
  12   6  -1    4.37    0.97
 -16   7  -1    3.81    1.24
 -15   7  -1    8.33    1.27
 -14   7  -1    0.19    0.51
 -13   7  -1   58.33    2.62
 -12   7  -1    0.49    0.52
 -11   7  -1    5.98    1.17
 -10   7  -1    0.68    0.52
  -9   7  -1    1.48    0.51
  -8   7  -1    9.34    1.26
  -7   7  -1   19.16    1.80
  -6   7  -1   15.76    1.55
  -5   7  -1  226.76    4.51
  -4   7  -1    4.73    0.70
  -3   7  -1   18.68    1.26
  -2   7  -1    9.82    1.04
  -1   7  -1    5.67    0.83
   0   7  -1    0.03    0.44
   1   7  -1    5.14    1.21
   2   7  -1   11.21    1.75
   3   7  -1   18.59    2.49
   4   7  -1    3.65    0.67
   5   7  -1  211.76    4.71
   6   7  -1   13.55    1.36
   7   7  -1   13.10    2.23
   8   7  -1   13.21    2.27
   9   7  -1    1.64    0.99
  10   7  -1    0.36    0.69
  11   7  -1   10.45    2.15
  12   7  -1    0.58    0.93
  13   7  -1   63.62    4.65
 -15   8  -1    6.36    1.19
 -14   8  -1    1.28    0.70
 -13   8  -1    1.63    0.64
 -12   8  -1    5.37    1.22
 -11   8  -1   11.15    1.61
 -10   8  -1    0.54    0.47
  -9   8  -1   14.16    1.71
  -8   8  -1   45.54    2.45
  -7   8  -1   15.98    1.69
  -6   8  -1    0.54    0.39
  -5   8  -1   26.71    3.08
  -4   8  -1   28.40    1.46
  -3   8  -1   29.37    1.58
  -2   8  -1   62.52    2.35
  -1   8  -1   27.03    1.54
   0   8  -1   17.72    2.28
   1   8  -1   22.83    2.60
   2   8  -1   61.75    3.68
   3   8  -1   30.13    3.27
   4   8  -1   22.20    2.76
   5   8  -1   22.03    2.97
   6   8  -1   -0.07    0.41
   7   8  -1   15.54    2.59
   8   8  -1   49.32    3.84
   9   8  -1   14.46    2.59
  10   8  -1    3.10    1.26
  11   8  -1   10.02    2.22
  12   8  -1    3.84    1.61
  13   8  -1    0.55    0.94
 -15   9  -1    5.40    1.17
 -14   9  -1    9.63    1.40
 -13   9  -1    0.12    0.67
 -12   9  -1    2.06    0.81
 -11   9  -1    1.73    0.77
 -10   9  -1   19.33    2.18
  -9   9  -1   54.03    2.86
  -8   9  -1   31.78    2.60
  -7   9  -1    1.34    0.56
  -6   9  -1   16.93    1.74
  -5   9  -1   59.45    3.88
  -4   9  -1   -0.15    0.26
  -3   9  -1   -0.05    0.30
  -2   9  -1  123.69    3.65
  -1   9  -1   29.19    1.70
   0   9  -1    0.05    0.30
   1   9  -1   27.75    3.16
   2   9  -1  117.97    5.60
   3   9  -1    0.00    0.56
   4   9  -1    0.12    0.68
   5   9  -1   68.73    4.42
   6   9  -1   14.29    2.45
   7   9  -1    1.79    1.06
   8   9  -1   27.95    3.69
   9   9  -1   59.90    4.46
  10   9  -1   19.87    3.30
  11   9  -1    1.46    1.04
  12   9  -1    2.72    1.38
  13   9  -1   -0.49    0.89
 -14  10  -1    8.85    1.38
 -13  10  -1    6.74    1.55
 -12  10  -1    9.72    1.70
 -11  10  -1   29.27    2.74
 -10  10  -1    1.15    0.69
  -9  10  -1    4.31    1.06
  -8  10  -1    3.71    0.98
  -7  10  -1   -0.09    0.35
  -6  10  -1   16.05    1.79
  -5  10  -1    1.95    0.96
  -4  10  -1   79.06    2.87
  -3  10  -1   11.42    1.33
  -2  10  -1   -0.04    0.32
  -1  10  -1   57.60    2.52
   0  10  -1   21.31    1.92
   1  10  -1   60.22    3.83
   2  10  -1    0.10    0.49
   3  10  -1    9.07    2.02
   4  10  -1   78.45    4.81
   5  10  -1    2.71    1.20
   6  10  -1   21.16    3.08
   7  10  -1    0.70    0.80
   8  10  -1    5.54    1.73
   9  10  -1    4.77    1.76
  10  10  -1    0.01    0.83
  11  10  -1   30.83    4.27
  12  10  -1    4.28    1.59
  13  10  -1   10.29    2.43
  14  10  -1    9.80    2.83
 -13  11  -1    1.78    1.00
 -12  11  -1    0.35    0.74
 -11  11  -1    0.50    0.72
 -10  11  -1    1.11    0.74
  -9  11  -1   24.96    2.53
  -8  11  -1    0.14    0.46
  -7  11  -1   82.15    3.55
  -6  11  -1   31.27    2.62
  -5  11  -1   12.83    2.41
  -4  11  -1    8.71    1.87
  -3  11  -1    0.49    0.45
  -2  11  -1   12.29    1.46
  -1  11  -1   53.73    2.51
   0  11  -1   -0.22    0.30
   1  11  -1   47.79    2.45
   2  11  -1   11.97    2.20
   3  11  -1    0.36    0.68
   4  11  -1   13.48    2.48
   5  11  -1   10.34    2.20
   6  11  -1   26.84    3.78
   7  11  -1   73.87    5.23
   8  11  -1   -0.40    0.57
   9  11  -1   22.96    3.64
  10  11  -1    1.53    1.05
  11  11  -1   -0.55    0.75
  12  11  -1    1.65    1.28
  13  11  -1   -1.16    1.03
  14  11  -1    0.86    1.27
 -13  12  -1   -0.59    0.89
 -12  12  -1    0.15    0.76
 -11  12  -1    6.62    1.38
 -10  12  -1   14.28    2.04
  -9  12  -1    3.80    1.04
  -8  12  -1    7.34    1.47
  -7  12  -1   13.73    1.80
  -6  12  -1    0.32    0.48
  -5  12  -1    8.51    1.97
  -4  12  -1   27.66    3.51
  -3  12  -1   16.17    1.70
  -2  12  -1    3.32    0.84
  -1  12  -1    1.61    0.64
   0  12  -1   21.79    2.10
   1  12  -1    1.65    0.65
   2  12  -1    3.03    0.89
   3  12  -1   19.19    3.13
   4  12  -1   27.16    3.61
   5  12  -1   12.37    2.68
   6  12  -1   -0.49    0.67
   7  12  -1   15.47    2.92
   8  12  -1    6.70    1.96
   9  12  -1    1.47    1.19
  10  12  -1   14.79    3.10
  11  12  -1    5.70    1.95
  12  12  -1   -0.42    0.99
  13  12  -1    0.17    1.13
 -12  13  -1    1.61    1.07
 -11  13  -1   16.64    2.23
 -10  13  -1   18.33    2.31
  -9  13  -1    5.65    1.32
  -8  13  -1   16.87    2.17
  -7  13  -1    5.62    1.25
  -6  13  -1    0.11    0.43
  -5  13  -1    0.62    0.65
  -4  13  -1    4.66    1.58
  -3  13  -1   64.65    4.50
  -2  13  -1   26.56    2.39
  -1  13  -1    0.26    0.50
   0  13  -1    0.21    0.40
   1  13  -1    0.12    0.44
   2  13  -1   23.10    2.30
   3  13  -1   64.71    3.11
   4  13  -1    5.36    1.73
   5  13  -1    1.43    1.01
   6  13  -1    0.45    0.83
   7  13  -1    4.48    1.66
   8  13  -1   14.58    2.96
   9  13  -1    5.15    1.87
  10  13  -1   15.89    3.31
  11  13  -1   12.76    3.04
  12  13  -1    2.86    1.70
 -11  14  -1    0.66    1.18
 -10  14  -1    3.11    1.14
  -9  14  -1    5.53    1.33
  -8  14  -1   27.47    2.80
  -7  14  -1    0.54    0.63
  -6  14  -1    0.38    0.64
  -5  14  -1    0.79    0.83
  -4  14  -1   19.55    3.16
  -3  14  -1    1.47    1.01
  -2  14  -1    2.55    0.82
  -1  14  -1   11.33    1.60
   0  14  -1   41.58    3.17
   1  14  -1   13.22    1.79
   2  14  -1    1.83    0.74
   3  14  -1    1.32    0.78
   4  14  -1   25.55    2.52
   5  14  -1    1.26    0.93
   6  14  -1    0.93    0.99
   7  14  -1    0.35    0.80
   8  14  -1   33.91    4.71
   9  14  -1    9.12    2.67
  10  14  -1    2.01    1.64
  11  14  -1    1.37    1.44
 -10  15  -1    0.90    1.32
  -9  15  -1    0.36    0.82
  -8  15  -1   -0.75    0.61
  -7  15  -1    0.76    0.73
  -6  15  -1   31.81    2.98
  -5  15  -1   35.87    4.68
  -4  15  -1   10.04    2.41
  -3  15  -1    7.33    2.07
  -2  15  -1    2.23    1.17
  -1  15  -1    0.34    0.61
   0  15  -1    0.11    0.57
   1  15  -1    0.18    0.60
   2  15  -1    2.10    0.86
   3  15  -1    7.79    1.51
   4  15  -1   12.20    1.84
   5  15  -1   41.84    3.42
   6  15  -1   30.60    4.54
   7  15  -1   -0.08    1.19
   8  15  -1    0.33    1.07
   9  15  -1    0.93    1.19
  -9  16  -1   -0.59    1.41
  -8  16  -1    0.76    0.87
  -7  16  -1   11.56    1.94
  -6  16  -1    1.91    0.92
  -5  16  -1    2.12    1.50
  -4  16  -1    0.64    1.01
  -3  16  -1   15.36    3.12
  -2  16  -1   21.80    3.43
  -1  16  -1    6.06    1.43
   0  16  -1   37.65    3.25
   1  16  -1    4.25    1.05
   2  16  -1   22.25    2.52
   3  16  -1   18.88    2.28
   4  16  -1   -0.10    0.70
   5  16  -1    3.09    1.68
   6  16  -1    1.43    1.28
   7  16  -1    9.49    2.75
   8  16  -1    2.27    1.62
  -7  17  -1    2.71    1.67
  -6  17  -1    0.11    0.77
  -5  17  -1   -0.46    1.20
  -4  17  -1    7.49    2.37
  -3  17  -1    2.69    1.54
  -2  17  -1    5.77    2.01
  -1  17  -1   31.02    4.44
   0  17  -1    0.36    0.69
   1  17  -1   24.08    2.69
   2  17  -1    5.84    1.46
   3  17  -1    2.00    1.15
   4  17  -1    5.84    1.98
   5  17  -1    0.49    1.25
   6  17  -1   -0.66    1.01
  -4  18  -1    3.41    1.90
  -3  18  -1    4.86    2.06
  -2  18  -1    2.16    1.61
  -1  18  -1    0.32    1.19
   0  18  -1    7.76    2.33
   1  18  -1    1.28    1.02
   2  18  -1    1.47    1.49
   3  18  -1    6.07    2.16
   4  18  -1    3.13    2.32
  -4 -18   0   19.34    4.41
  -3 -18   0   -0.18    0.89
  -2 -18   0    0.92    0.97
  -1 -18   0    6.06    1.95
   0 -18   0    0.82    0.99
   1 -18   0    8.63    2.33
   2 -18   0    0.03    1.05
   3 -18   0   -0.60    0.67
   4 -18   0   22.62    2.74
   5 -18   0    0.07    1.30
  -7 -17   0   17.13    2.42
  -6 -17   0   12.54    2.01
  -5 -17   0    8.47    1.57
  -4 -17   0    4.81    1.20
  -3 -17   0   -0.42    0.60
  -2 -17   0    3.13    0.99
  -1 -17   0    5.62    1.18
   0 -17   0   -0.05    0.56
   1 -17   0    5.45    1.75
   2 -17   0    3.96    1.23
   3 -17   0    1.26    0.75
   4 -17   0    3.86    1.24
   5 -17   0    8.64    1.72
   6 -17   0   17.56    2.38
   7 -17   0   12.35    2.13
  -9 -16   0    2.16    1.07
  -8 -16   0    2.03    0.97
  -7 -16   0    4.94    1.33
  -6 -16   0   -0.03    0.61
  -5 -16   0    4.11    1.13
  -4 -16   0   33.02    2.97
  -3 -16   0    3.48    1.00
  -2 -16   0    1.74    0.79
  -1 -16   0    6.09    1.30
   0 -16   0   23.77    2.47
   1 -16   0    7.00    1.10
   2 -16   0    1.05    0.57
   3 -16   0    6.18    1.05
   4 -16   0   26.69    2.15
   5 -16   0    3.92    1.17
   6 -16   0    1.83    0.88
   7 -16   0    7.24    1.61
   8 -16   0    1.90    0.98
   9 -16   0    3.55    1.53
 -10 -15   0   14.45    2.16
  -9 -15   0    3.80    1.13
  -8 -15   0    9.88    1.66
  -7 -15   0   -0.17    0.52
  -6 -15   0    0.00    0.60
  -5 -15   0    0.72    0.64
  -4 -15   0    3.74    1.03
  -3 -15   0   12.37    1.71
  -2 -15   0   15.24    1.93
  -1 -15   0   -0.12    0.38
   0 -15   0    0.30    0.43
   1 -15   0    0.37    0.39
   2 -15   0   13.87    1.52
   3 -15   0   11.85    1.39
   4 -15   0    3.32    0.83
   5 -15   0    1.31    0.60
   6 -15   0   -0.52    0.48
   7 -15   0   -0.08    0.51
   8 -15   0    9.42    1.74
   9 -15   0    3.72    1.23
  10 -15   0   11.70    1.98
 -12 -14   0    1.62    1.72
 -11 -14   0    2.01    1.02
 -10 -14   0    6.15    1.44
  -9 -14   0    5.44    1.29
  -8 -14   0   36.16    3.02
  -7 -14   0    0.49    0.56
  -6 -14   0    0.56    0.61
  -5 -14   0    2.02    0.78
  -4 -14   0   10.34    1.49
  -3 -14   0   -0.04    0.40
  -2 -14   0    3.88    0.73
  -1 -14   0   11.44    1.23
   0 -14   0   86.02    2.87
   1 -14   0    8.73    1.14
   2 -14   0    4.09    0.80
   3 -14   0    0.69    0.44
   4 -14   0   10.05    1.25
   5 -14   0    1.03    0.52
   6 -14   0    0.26    0.46
   7 -14   0   -0.26    0.42
   8 -14   0   42.03    3.50
   9 -14   0    6.01    1.30
  10 -14   0    7.22    1.56
  11 -14   0    2.02    0.95
  12 -14   0    3.89    1.64
 -13 -13   0    2.85    1.54
 -12 -13   0    7.31    1.48
 -11 -13   0    0.29    0.71
 -10 -13   0   -0.19    0.49
  -9 -13   0    0.68    0.68
  -8 -13   0    0.26    0.52
  -7 -13   0    5.78    1.17
  -6 -13   0   39.95    2.69
  -5 -13   0   68.95    3.20
  -4 -13   0   21.23    2.04
  -3 -13   0    1.95    0.48
  -2 -13   0    4.25    0.74
  -1 -13   0    2.12    0.54
   0 -13   0    0.05    0.29
   1 -13   0    1.74    0.53
   2 -13   0    3.42    0.70
   3 -13   0    2.33    0.60
   4 -13   0   21.48    1.77
   5 -13   0   71.61    2.66
   6 -13   0   37.56    2.39
   7 -13   0    6.11    1.00
   8 -13   0    0.80    0.69
   9 -13   0    0.39    0.61
  10 -13   0   -0.27    0.57
  11 -13   0    0.31    0.73
  12 -13   0    8.57    1.57
 -13 -12   0    0.50    0.78
 -12 -12   0   22.85    2.57
 -11 -12   0   16.71    2.18
 -10 -12   0   -0.16    0.51
  -9 -12   0   -0.23    0.47
  -8 -12   0    6.56    1.21
  -7 -12   0   23.91    2.30
  -6 -12   0   13.79    1.64
  -5 -12   0    0.95    0.52
  -4 -12   0   10.45    1.06
  -3 -12   0   15.41    1.13
  -2 -12   0   45.72    1.60
  -1 -12   0   33.85    1.66
   0 -12   0   29.18    1.82
   1 -12   0   31.81    1.65
   2 -12   0   47.52    1.93
   3 -12   0   17.06    1.46
   4 -12   0    8.09    1.02
   5 -12   0    1.52    0.50
   6 -12   0   11.43    1.28
   7 -12   0   23.16    1.83
   8 -12   0    6.26    1.25
   9 -12   0   -0.12    0.44
  10 -12   0    0.29    0.65
  11 -12   0   17.21    2.21
  12 -12   0   19.16    2.42
  13 -12   0    0.89    1.21
 -14 -11   0    4.06    1.24
 -13 -11   0    2.26    0.97
 -12 -11   0    0.05    0.58
 -11 -11   0    0.63    0.61
 -10 -11   0   13.95    1.85
  -9 -11   0   49.33    2.77
  -8 -11   0    0.44    0.52
  -7 -11   0    2.75    0.80
  -6 -11   0   -0.04    0.37
  -5 -11   0    1.16    0.45
  -4 -11   0    8.14    0.81
  -3 -11   0   21.25    1.29
  -2 -11   0   16.92    1.13
  -1 -11   0   71.71    2.23
   0 -11   0    0.05    0.28
   1 -11   0   78.27    2.37
   2 -11   0   16.80    1.33
   3 -11   0   22.56    1.60
   4 -11   0    9.06    1.06
   5 -11   0    1.50    0.47
   6 -11   0    0.24    0.34
   7 -11   0    2.88    0.68
   8 -11   0    0.19    0.43
   9 -11   0   49.51    2.31
  10 -11   0   16.46    1.73
  11 -11   0    0.58    0.56
  12 -11   0    0.60    0.58
  13 -11   0    2.75    0.83
  14 -11   0    3.99    1.46
 -14 -10   0    9.80    1.71
 -13 -10   0   17.25    2.21
 -12 -10   0   46.30    3.46
 -11 -10   0    0.84    0.68
 -10 -10   0    1.17    0.68
  -9 -10   0    9.31    1.42
  -8 -10   0    5.50    1.06
  -7 -10   0    6.14    1.09
  -6 -10   0   14.97    1.29
  -5 -10   0    4.88    0.60
  -4 -10   0   60.39    1.68
  -3 -10   0   53.84    1.58
  -2 -10   0   22.27    1.08
  -1 -10   0   29.52    1.15
   0 -10   0    1.38    0.43
   1 -10   0   30.10    1.36
   2 -10   0   23.54    1.54
   3 -10   0   53.56    1.93
   4 -10   0   57.23    1.72
   5 -10   0    5.13    0.66
   6 -10   0   15.47    1.15
   7 -10   0    6.26    0.90
   8 -10   0    2.59    0.59
   9 -10   0    7.96    1.15
  10 -10   0    0.84    0.51
  11 -10   0    2.20    0.72
  12 -10   0   44.20    2.84
  13 -10   0   20.05    2.00
  14 -10   0   13.92    2.23
  15 -10   0   11.39    2.97
 -15  -9   0   -0.33    1.03
 -14  -9   0   13.16    1.98
 -13  -9   0   -0.13    0.53
 -12  -9   0    4.01    1.08
 -11  -9   0    9.06    1.47
 -10  -9   0   16.56    1.82
  -9  -9   0    0.35    0.45
  -8  -9   0    2.41    0.75
  -7  -9   0   40.22    1.67
  -6  -9   0  103.43    2.24
  -5  -9   0   17.80    1.07
  -4  -9   0    5.58    0.59
  -3  -9   0   46.26    1.37
  -2  -9   0   24.43    1.02
  -1  -9   0    2.11    0.37
   0  -9   0   -0.01    0.14
   1  -9   0    1.62    0.32
   2  -9   0   25.06    1.02
   3  -9   0   44.74    1.39
   4  -9   0    5.77    0.63
   5  -9   0   17.18    1.11
   6  -9   0  102.57    2.44
   7  -9   0   39.33    1.80
   8  -9   0    1.56    0.48
   9  -9   0    0.38    0.40
  10  -9   0   20.65    1.81
  11  -9   0   14.40    1.53
  12  -9   0    1.50    0.66
  13  -9   0    0.47    0.50
  14  -9   0   16.18    2.36
  15  -9   0    1.13    1.03
 -15  -8   0    1.41    1.16
 -14  -8   0    3.10    0.96
 -13  -8   0    1.07    0.63
 -12  -8   0   11.11    1.59
 -11  -8   0   13.53    1.69
 -10  -8   0   45.65    2.51
  -9  -8   0    7.74    1.23
  -8  -8   0   35.55    1.57
  -7  -8   0   24.62    1.17
  -6  -8   0   17.77    0.97
  -5  -8   0   19.54    0.93
  -4  -8   0    5.81    0.57
  -3  -8   0   46.85    1.04
  -2  -8   0    0.05    0.13
  -1  -8   0   49.41    1.04
   0  -8   0  178.92    2.40
   1  -8   0   45.60    1.20
   2  -8   0    0.22    0.18
   3  -8   0   47.21    1.37
   4  -8   0    8.25    0.71
   5  -8   0   16.49    1.05
   6  -8   0   18.27    1.21
   7  -8   0   23.57    1.61
   8  -8   0   34.55    1.80
   9  -8   0    6.45    0.89
  10  -8   0   43.32    2.13
  11  -8   0   14.84    1.54
  12  -8   0   13.85    1.54
  13  -8   0    2.47    0.76
  14  -8   0    3.62    1.19
  15  -8   0    1.60    0.94
  16  -8   0    7.97    2.73
 -16  -7   0    2.73    1.67
 -15  -7   0    0.34    1.07
 -14  -7   0    0.60    0.61
 -13  -7   0   30.99    2.68
 -12  -7   0    0.52    0.55
 -11  -7   0    9.77    1.38
 -10  -7   0    0.07    0.36
  -9  -7   0   64.04    2.16
  -8  -7   0   17.01    1.07
  -7  -7   0   43.77    1.33
  -6  -7   0   11.03    0.78
  -5  -7   0   18.26    0.86
  -4  -7   0    9.96    0.70
  -3  -7   0  134.33    2.29
  -2  -7   0   14.74    0.54
  -1  -7   0   31.34    0.77
   0  -7   0    0.08    0.11
   1  -7   0   32.22    0.93
   2  -7   0   14.11    0.77
   3  -7   0  136.03    2.40
   4  -7   0    9.10    0.74
   5  -7   0   21.14    1.09
   6  -7   0   11.62    1.09
   7  -7   0   41.34    1.73
   8  -7   0   15.25    1.32
   9  -7   0   59.77    2.26
  10  -7   0    0.30    0.37
  11  -7   0   13.84    1.40
  12  -7   0    0.41    0.42
  13  -7   0   25.39    2.05
  14  -7   0   -0.24    0.63
  15  -7   0   -0.11    0.63
  16  -7   0    2.28    1.09
 -16  -6   0   12.42    2.89
 -15  -6   0   24.57    2.90
 -14  -6   0    0.58    0.62
 -13  -6   0    8.89    1.41
 -12  -6   0    2.11    0.72
 -11  -6   0    2.03    0.71
 -10  -6   0   23.46    1.59
  -9  -6   0   30.01    1.21
  -8  -6   0   63.66    1.66
  -7  -6   0   64.32    1.59
  -6  -6   0    6.79    0.61
  -5  -6   0   58.00    1.38
  -4  -6   0    2.55    0.35
  -3  -6   0  253.35    3.35
  -2  -6   0   71.19    1.43
  -1  -6   0    2.42    0.24
   0  -6   0  114.99    1.62
   1  -6   0    2.35    0.29
   2  -6   0   72.12    1.47
   3  -6   0  257.58    3.51
   4  -6   0    1.98    0.34
   5  -6   0   58.49    1.53
   6  -6   0    5.65    0.74
   7  -6   0   63.13    2.09
   8  -6   0   63.74    2.16
   9  -6   0   29.23    1.70
  10  -6   0   19.43    1.57
  11  -6   0    1.28    0.46
  12  -6   0    2.32    0.65
  13  -6   0    7.55    1.19
  14  -6   0   -0.32    0.49
  15  -6   0   24.56    2.85
  16  -6   0   14.08    2.19
 -16  -5   0    4.36    1.86
 -15  -5   0    2.63    0.98
 -14  -5   0    6.35    1.21
 -13  -5   0    0.39    0.52
 -12  -5   0    4.00    0.96
 -11  -5   0    7.55    0.95
 -10  -5   0   30.43    1.26
  -9  -5   0   38.86    1.34
  -8  -5   0    0.15    0.20
  -7  -5   0   10.69    0.75
  -6  -5   0  152.05    2.48
  -5  -5   0   21.25    0.77
  -4  -5   0   20.01    0.71
  -3  -5   0    0.11    0.12
  -2  -5   0  107.11    1.72
  -1  -5   0   61.37    0.98
   0  -5   0    0.03    0.10
   1  -5   0   60.34    1.17
   2  -5   0  108.07    1.79
   3  -5   0    0.03    0.13
   4  -5   0   19.16    0.81
   5  -5   0   23.08    1.07
   6  -5   0  149.86    3.17
   7  -5   0   10.60    0.98
   8  -5   0   -0.08    0.23
   9  -5   0   39.80    1.73
  10  -5   0   28.58    1.93
  11  -5   0    8.68    1.09
  12  -5   0    3.53    0.77
  13  -5   0   -0.34    0.38
  14  -5   0    4.28    1.19
  15  -5   0    2.47    0.96
  16  -5   0    4.36    1.24
  17  -5   0   -0.86    1.14
 -17  -4   0    1.85    2.18
 -16  -4   0    0.64    1.07
 -15  -4   0   16.08    2.11
 -14  -4   0    3.66    1.03
 -13  -4   0   -0.19    0.44
 -12  -4   0  144.19    3.63
 -11  -4   0    4.07    0.58
 -10  -4   0   10.87    0.88
  -9  -4   0    3.46    0.48
  -8  -4   0    1.00    0.27
  -7  -4   0    3.48    0.43
  -6  -4   0   60.90    1.40
  -5  -4   0    8.96    0.59
  -4  -4   0   83.90    1.50
  -3  -4   0    4.52    0.37
  -2  -4   0  207.66    2.93
  -1  -4   0    5.85    0.28
   0  -4   0  125.97    1.52
   1  -4   0    6.37    0.40
   2  -4   0  206.12    2.67
   3  -4   0    4.61    0.40
   4  -4   0   82.69    1.64
   5  -4   0    7.52    0.71
   6  -4   0   63.19    1.85
   7  -4   0    4.27    0.62
   8  -4   0    0.23    0.28
   9  -4   0    5.01    0.76
  10  -4   0   10.42    1.11
  11  -4   0    2.59    0.63
  12  -4   0  133.86    3.74
  13  -4   0    0.70    0.57
  14  -4   0    5.93    1.31
  15  -4   0   13.79    2.03
  16  -4   0    0.32    0.79
  17  -4   0    0.20    1.55
 -17  -3   0   10.08    2.72
 -16  -3   0    7.37    2.34
 -15  -3   0   14.95    1.96
 -14  -3   0    2.15    0.76
 -13  -3   0   13.77    1.38
 -12  -3   0    0.76    0.41
 -11  -3   0   11.57    1.15
 -10  -3   0    0.12    0.26
  -9  -3   0  148.93    3.28
  -8  -3   0   38.92    1.44
  -7  -3   0   12.64    0.95
  -6  -3   0  170.47    3.05
  -5  -3   0   12.28    0.59
  -4  -3   0   39.03    0.92
  -3  -3   0   82.94    1.35
  -2  -3   0    2.22    0.24
  -1  -3   0  194.49    2.26
   0  -3   0    0.03    0.08
   1  -3   0  192.72    2.27
   2  -3   0    2.41    0.27
   3  -3   0   86.83    1.50
   4  -3   0   39.55    1.21
   5  -3   0   12.43    0.89
   6  -3   0  167.30    3.24
   7  -3   0   14.34    1.08
   8  -3   0   37.49    1.51
   9  -3   0  152.66    3.49
  10  -3   0    0.04    0.29
  11  -3   0    9.61    1.12
  12  -3   0    0.13    0.45
  13  -3   0   11.45    1.70
  14  -3   0    2.57    0.97
  15  -3   0   17.06    2.17
  16  -3   0    7.12    1.45
  17  -3   0    5.98    2.30
 -17  -2   0    0.17    1.26
 -16  -2   0    0.48    1.10
 -15  -2   0   40.20    3.14
 -14  -2   0    8.61    1.07
 -13  -2   0    2.99    0.70
 -12  -2   0    9.06    1.02
 -11  -2   0    6.93    0.90
 -10  -2   0   20.78    1.49
  -9  -2   0   47.22    1.68
  -8  -2   0    2.87    0.45
  -7  -2   0   70.22    1.84
  -6  -2   0   42.13    1.29
  -5  -2   0   52.93    1.37
  -4  -2   0  206.49    3.07
  -3  -2   0  163.80    2.43
  -2  -2   0   20.90    0.50
  -1  -2   0    2.56    0.19
   0  -2   0    3.16    0.21
   1  -2   0    2.59    0.21
   2  -2   0   21.92    0.65
   3  -2   0  163.71    2.58
   4  -2   0  207.03    3.24
   5  -2   0   53.80    1.48
   6  -2   0   41.73    1.38
   7  -2   0   69.18    1.94
   8  -2   0    3.30    0.58
   9  -2   0   47.45    1.79
  10  -2   0   17.04    1.80
  11  -2   0    5.01    1.03
  12  -2   0    9.26    1.32
  13  -2   0    2.52    0.89
  14  -2   0    8.57    1.54
  15  -2   0   51.69    3.84
  16  -2   0    0.03    0.93
  17  -2   0    0.98    1.30
 -17  -1   0   -0.07    1.16
 -16  -1   0   14.34    2.97
 -15  -1   0    0.05    0.46
 -14  -1   0    1.27    0.52
 -13  -1   0   34.76    2.21
 -12  -1   0   13.79    1.28
 -11  -1   0   23.35    1.62
 -10  -1   0    0.01    0.25
  -9  -1   0   10.38    0.99
  -8  -1   0    0.25    0.23
  -7  -1   0    6.34    0.65
  -6  -1   0  160.39    2.88
  -5  -1   0   24.98    0.90
  -4  -1   0  131.32    2.21
  -3  -1   0  172.52    2.50
  -2  -1   0   34.89    0.75
  -1  -1   0    6.76    0.21
   0  -1   0    0.03    0.03
   1  -1   0    6.88    0.26
   2  -1   0   36.82    0.83
   3  -1   0  177.89    2.62
   4  -1   0  132.37    1.83
   5  -1   0   25.39    0.71
   6  -1   0  159.71    2.36
   7  -1   0    7.58    0.55
   8  -1   0    0.10    0.19
   9  -1   0   10.40    1.29
  10  -1   0   -0.08    0.30
  11  -1   0   18.52    1.86
  12  -1   0   14.41    1.73
  13  -1   0   35.32    2.88
  14  -1   0    1.31    0.67
  15  -1   0    0.19    0.58
  16  -1   0   12.35    2.82
  17  -1   0    0.58    1.37
 -17   0   0    0.04    1.06
 -16   0   0    4.16    1.15
 -15   0   0    0.28    0.50
 -14   0   0   35.75    2.33
 -13   0   0   -0.01    0.34
 -12   0   0   43.95    1.95
 -11   0   0    0.00    0.29
 -10   0   0  148.13    3.39
  -9   0   0    0.00    0.21
  -8   0   0  106.00    2.52
  -7   0   0    0.18    0.19
  -6   0   0    1.06    0.26
  -5   0   0    0.02    0.14
  -4   0   0    3.98    0.39
  -3   0   0    0.07    0.13
  -2   0   0    7.21    0.39
  -1   0   0    0.00    0.04
   1   0   0    0.01    0.05
   2   0   0    7.67    0.29
   3   0   0    0.13    0.12
   4   0   0    5.04    0.46
   5   0   0    0.04    0.16
   6   0   0    0.94    0.28
   7   0   0    0.70    0.21
   8   0   0  106.23    2.38
   9   0   0    0.14    0.22
  10   0   0  144.02    4.26
  11   0   0    0.18    0.39
  12   0   0   47.63    2.76
  13   0   0    0.09    0.46
  14   0   0   36.87    3.01
  15   0   0    0.41    1.06
  16   0   0    6.92    2.13
  17   0   0   -0.66    1.15
 -17   1   0    1.16    1.31
 -16   1   0    9.48    1.64
 -15   1   0   -0.06    0.53
 -14   1   0    2.17    0.66
 -13   1   0   35.87    2.24
 -12   1   0   16.39    1.45
 -11   1   0   22.93    1.62
 -10   1   0    0.08    0.27
  -9   1   0   11.93    1.03
  -8   1   0   -0.21    0.18
  -7   1   0    5.49    0.63
  -6   1   0  162.43    2.94
  -5   1   0   25.52    0.92
  -4   1   0  134.24    2.84
  -3   1   0  174.96    3.18
  -1   1   0    6.76    0.33
   0   1   0    0.06    0.10
   1   1   0    7.12    0.25
   2   1   0   35.32    0.77
   3   1   0  175.51    2.54
   4   1   0  134.46    2.26
   5   1   0   25.35    0.91
   6   1   0  157.62    2.88
   7   1   0    6.47    0.65
   8   1   0   -0.03    0.20
   9   1   0   12.66    1.00
  10   1   0    0.08    0.31
  11   1   0   18.10    1.79
  12   1   0   14.32    1.64
  13   1   0   32.89    2.65
  14   1   0    1.00    1.00
  15   1   0    1.09    1.09
  16   1   0   12.83    2.95
  17   1   0    0.91    1.31
 -17   2   0   -0.49    0.78
 -16   2   0    1.68    0.87
 -15   2   0   40.14    3.28
 -14   2   0    9.00    1.21
 -13   2   0    2.60    0.65
 -12   2   0    9.25    1.08
 -11   2   0    6.43    0.87
 -10   2   0   18.12    1.37
  -9   2   0   50.03    1.78
  -8   2   0    4.77    0.66
  -7   2   0   69.95    1.90
  -6   2   0   39.57    1.67
  -5   2   0   55.75    1.84
  -4   2   0  205.77    3.93
  -3   2   0  164.57    3.13
  -2   2   0   20.85    0.53
  -1   2   0    2.61    0.28
   0   2   0    3.22    0.48
   1   2   0    3.28    0.29
   2   2   0   20.45    0.79
   3   2   0  162.24    2.45
   4   2   0  205.80    3.10
   5   2   0   54.40    1.40
   6   2   0   42.34    1.31
   7   2   0   69.01    1.83
   8   2   0    3.93    0.55
   9   2   0   46.60    1.63
  10   2   0   18.27    1.31
  11   2   0    7.19    1.13
  12   2   0    9.76    1.40
  13   2   0    4.45    1.54
  14   2   0    9.66    2.39
  15   2   0   55.11    5.89
  16   2   0    2.16    1.41
  17   2   0   -0.71    1.19
 -17   3   0    7.75    1.66
 -16   3   0    6.00    1.41
 -15   3   0   13.85    1.98
 -14   3   0    3.52    0.82
 -13   3   0   13.14    1.40
 -12   3   0    1.67    0.52
 -11   3   0   10.95    1.14
 -10   3   0    0.88    0.37
  -9   3   0  152.12    3.40
  -8   3   0   37.54    1.88
  -7   3   0   15.85    1.40
  -6   3   0  174.60    4.00
  -5   3   0   12.73    1.10
  -4   3   0   39.43    0.87
  -3   3   0   88.44    1.49
  -2   3   0    2.62    0.34
  -1   3   0  191.27    3.27
   0   3   0    0.45    0.18
   1   3   0  195.26    3.13
   2   3   0    3.12    0.40
   3   3   0   84.54    2.09
   4   3   0   39.97    1.10
   5   3   0   11.85    0.71
   6   3   0  175.47    3.09
   7   3   0   13.47    0.97
   8   3   0   37.26    1.41
   9   3   0  157.14    3.27
  10   3   0    0.52    0.31
  11   3   0   14.07    1.54
  12   3   0    1.30    0.96
  13   3   0   10.69    2.31
  14   3   0    2.92    1.41
  15   3   0   15.11    3.11
  16   3   0    6.24    2.12
  17   3   0    6.47    2.30
 -17   4   0    0.75    0.78
 -16   4   0    0.43    0.85
 -15   4   0   15.88    2.09
 -14   4   0    4.11    0.83
 -13   4   0    0.09    0.34
 -12   4   0  133.70    3.65
 -11   4   0    3.88    0.69
 -10   4   0    9.19    0.99
  -9   4   0    4.99    0.90
  -8   4   0    1.16    0.49
  -7   4   0    2.73    0.61
  -6   4   0   62.63    2.21
  -5   4   0    8.91    0.44
  -4   4   0   84.01    1.59
  -3   4   0    4.76    0.49
  -2   4   0  200.65    3.61
  -1   4   0    5.29    0.58
   0   4   0  127.02    2.61
   1   4   0    5.94    0.40
   2   4   0  212.34    3.64
   3   4   0    5.25    0.59
   4   4   0   85.62    2.31
   5   4   0    9.49    0.98
   6   4   0   62.76    1.68
   7   4   0    2.83    0.45
   8   4   0    0.71    0.31
   9   4   0    3.04    0.53
  10   4   0   10.54    1.00
  11   4   0    2.61    0.75
  12   4   0  133.06    6.74
  13   4   0   -0.03    0.76
  14   4   0    8.32    2.25
  15   4   0   14.32    2.92
  16   4   0   -0.72    1.03
  17   4   0    0.17    1.26
 -17   5   0   -0.24    1.17
 -16   5   0    5.22    1.33
 -15   5   0    2.82    0.99
 -14   5   0    4.88    0.88
 -13   5   0    0.03    0.41
 -12   5   0    3.43    0.75
 -11   5   0   10.24    1.13
 -10   5   0   29.31    2.32
  -9   5   0   35.74    2.03
  -8   5   0    0.02    0.28
  -7   5   0   12.64    1.34
  -6   5   0  143.97    3.79
  -5   5   0   20.48    0.76
  -4   5   0   21.16    0.78
  -3   5   0    0.13    0.19
  -2   5   0  104.21    2.44
  -1   5   0   58.72    1.77
   0   5   0   -0.06    0.18
   1   5   0   61.16    2.84
   2   5   0  113.26    2.34
   3   5   0    0.02    0.14
   4   5   0   20.28    1.13
   5   5   0   19.55    1.21
   6   5   0  152.03    3.81
   7   5   0   11.46    1.26
   8   5   0    0.45    0.35
   9   5   0   42.36    1.61
  10   5   0   28.63    2.25
  11   5   0    8.39    1.30
  12   5   0    0.78    0.85
  13   5   0    0.47    0.92
  14   5   0    6.63    2.09
  15   5   0    5.13    2.08
  16   5   0    3.97    1.75
  17   5   0   -0.34    1.35
 -16   6   0   12.87    2.06
 -15   6   0   19.37    3.51
 -14   6   0   -0.06    0.41
 -13   6   0    6.81    1.03
 -12   6   0    1.13    0.53
 -11   6   0    1.04    0.57
 -10   6   0   17.79    1.82
  -9   6   0   27.21    2.16
  -8   6   0   60.09    2.58
  -7   6   0   63.67    2.51
  -6   6   0    6.02    0.86
  -5   6   0   59.15    1.48
  -4   6   0    2.71    0.43
  -3   6   0  260.65    4.74
  -2   6   0   74.27    2.09
  -1   6   0    2.71    0.49
   0   6   0  118.90    2.86
   1   6   0    3.70    0.98
   2   6   0   70.59    1.77
   3   6   0  253.45    4.65
   4   6   0    2.13    0.45
   5   6   0   58.03    2.04
   6   6   0    5.78    0.81
   7   6   0   65.49    2.45
   8   6   0   62.69    2.56
   9   6   0   28.22    1.94
  10   6   0   21.93    1.99
  11   6   0    1.08    0.62
  12   6   0    2.78    0.85
  13   6   0    7.03    1.89
  14   6   0    0.42    0.83
  15   6   0   27.22    3.99
 -16   7   0    2.08    1.07
 -15   7   0    0.04    0.67
 -14   7   0    0.08    0.48
 -13   7   0   33.25    2.32
 -12   7   0    0.31    0.48
 -11   7   0   12.24    1.58
 -10   7   0    0.05    0.37
  -9   7   0   62.49    2.81
  -8   7   0   15.63    1.59
  -7   7   0   43.58    2.14
  -6   7   0    9.88    1.15
  -5   7   0   21.73    0.95
  -4   7   0    8.56    0.88
  -3   7   0  134.03    3.22
  -2   7   0   13.71    1.15
  -1   7   0   34.98    1.52
   0   7   0   -0.13    0.20
   1   7   0   31.44    1.46
   2   7   0   12.42    1.86
   3   7   0  138.28    3.02
   4   7   0    8.41    0.84
   5   7   0   21.31    1.23
   6   7   0   10.54    1.11
   7   7   0   44.55    2.02
   8   7   0   15.58    1.55
   9   7   0   60.52    2.66
  10   7   0   -0.33    0.39
  11   7   0    8.88    1.33
  12   7   0   -0.16    0.48
  13   7   0   35.43    6.08
 -16   8   0    6.02    2.00
 -15   8   0    0.75    0.88
 -14   8   0    4.59    0.98
 -13   8   0    1.31    0.75
 -12   8   0   13.18    1.80
 -11   8   0   13.84    1.76
 -10   8   0   45.45    2.52
  -9   8   0    8.22    1.29
  -8   8   0   33.94    2.16
  -7   8   0   23.67    1.97
  -6   8   0   15.82    1.53
  -5   8   0   19.23    1.00
  -4   8   0    6.64    0.81
  -3   8   0   44.94    1.81
  -2   8   0    0.06    0.21
  -1   8   0   49.18    1.95
   0   8   0  185.15    4.24
   1   8   0   49.12    1.99
   2   8   0    0.98    0.58
   3   8   0   45.80    1.52
   4   8   0    7.18    0.79
   5   8   0   18.19    1.16
   6   8   0   16.37    1.22
   7   8   0   22.53    1.55
   8   8   0   32.10    2.11
   9   8   0    5.15    1.59
  10   8   0   45.34    4.67
  11   8   0   12.43    2.49
  12   8   0   11.09    2.30
  13   8   0    0.18    1.11
 -15   9   0    0.55    0.81
 -14   9   0   14.79    1.75
 -13   9   0    0.17    0.59
 -12   9   0    2.46    0.92
 -11   9   0   12.95    1.76
 -10   9   0   16.77    1.95
  -9   9   0   -0.09    0.41
  -8   9   0    1.00    0.53
  -7   9   0   40.55    2.22
  -6   9   0   97.98    3.42
  -5   9   0   16.72    1.05
  -4   9   0    5.40    0.81
  -3   9   0   45.54    1.94
  -2   9   0   24.37    1.51
  -1   9   0    1.16    0.46
   0   9   0    0.25    0.30
   1   9   0    0.98    0.37
   2   9   0   22.78    1.54
   3   9   0   48.68    3.42
   4   9   0    5.01    1.41
   5   9   0   17.83    2.71
   6   9   0   98.91    5.40
   7   9   0   31.48    3.71
   8   9   0    1.95    1.30
   9   9   0   -0.76    0.65
  10   9   0   24.60    3.49
  11   9   0   10.67    2.39
  12   9   0    2.82    1.26
  13   9   0    0.15    0.91
 -15  10   0   17.21    3.28
 -14  10   0    7.05    1.52
 -13  10   0   19.09    2.33
 -12  10   0   48.14    3.19
 -11  10   0    1.33    0.71
 -10  10   0    0.64    0.59
  -9  10   0    6.15    1.15
  -8  10   0    4.36    0.94
  -7  10   0    7.15    1.15
  -6  10   0   13.91    1.54
  -5  10   0    2.71    1.14
  -4  10   0   65.66    2.45
  -3  10   0   56.03    2.28
  -2  10   0   23.24    1.61
  -1  10   0   27.46    1.76
   0  10   0    1.52    0.56
   1  10   0   30.23    1.85
   2  10   0   22.84    1.63
   3  10   0   49.80    3.69
   4  10   0   57.28    4.06
   5  10   0    2.68    1.15
   6  10   0   17.49    2.98
   7  10   0    7.15    1.91
   8  10   0    3.26    1.38
   9  10   0    4.80    1.61
  10  10   0    0.94    0.86
  11  10   0    2.07    1.20
  12  10   0   50.10    5.21
  13  10   0   17.72    3.08
 -14  11   0    6.85    1.80
 -13  11   0    2.96    1.11
 -12  11   0    0.73    0.76
 -11  11   0    1.79    0.77
 -10  11   0   16.14    1.98
  -9  11   0   50.28    2.84
  -8  11   0    0.13    0.45
  -7  11   0    3.76    0.91
  -6  11   0   -0.09    0.40
  -5  11   0    0.09    0.62
  -4  11   0    6.53    1.03
  -3  11   0   22.80    1.89
  -2  11   0   17.54    1.65
  -1  11   0   78.57    2.89
   0  11   0    0.47    0.41
   1  11   0   75.64    2.93
   2  11   0   15.18    1.59
   3  11   0   22.14    1.99
   4  11   0    7.12    1.82
   5  11   0    1.56    0.84
   6  11   0    0.19    0.62
   7  11   0    4.83    1.63
   8  11   0    0.09    0.80
   9  11   0   47.89    5.22
  10  11   0   15.10    2.93
  11  11   0    0.13    0.87
  12  11   0    1.35    1.14
  13  11   0    2.68    1.41
 -13  12   0    2.24    1.08
 -12  12   0   24.76    2.63
 -11  12   0   15.63    2.07
 -10  12   0   -0.09    0.64
  -9  12   0   -0.58    0.42
  -8  12   0    4.49    1.08
  -7  12   0   22.29    2.23
  -6  12   0   12.39    1.61
  -5  12   0    0.71    0.85
  -4  12   0   12.41    2.36
  -3  12   0   16.87    1.72
  -2  12   0   46.87    2.33
  -1  12   0   35.66    2.02
   0  12   0   25.97    2.16
   1  12   0   34.93    2.29
   2  12   0   48.44    2.42
   3  12   0   17.51    1.79
   4  12   0   11.77    1.50
   5  12   0    1.70    1.00
   6  12   0   11.72    2.56
   7  12   0   23.65    3.62
   8  12   0    7.03    2.13
   9  12   0   -0.85    0.69
  10  12   0    0.47    0.94
  11  12   0   12.81    2.77
  12  12   0   17.34    3.10
  13  12   0   -0.46    1.08
 -13  13   0    0.79    1.48
 -12  13   0    7.10    1.58
 -11  13   0    0.55    0.77
 -10  13   0    0.77    0.72
  -9  13   0    0.33    0.65
  -8  13   0    0.74    0.65
  -7  13   0    6.76    1.31
  -6  13   0   39.91    3.00
  -5  13   0   73.13    4.88
  -4  13   0   22.27    3.21
  -3  13   0    1.70    0.64
  -2  13   0    4.26    0.91
  -1  13   0    2.31    0.73
   0  13   0    0.19    0.39
   1  13   0    3.00    0.83
   2  13   0    3.42    0.87
   3  13   0    2.27    0.75
   4  13   0   23.51    2.35
   5  13   0   69.15    5.02
   6  13   0   31.73    4.10
   7  13   0    9.80    2.50
   8  13   0    0.70    1.05
   9  13   0    0.73    1.12
  10  13   0   -0.34    0.85
  11  13   0   -0.45    0.96
  12  13   0    4.59    1.76
  13  13   0    3.62    2.89
 -11  14   0    3.45    1.17
 -10  14   0    5.83    1.38
  -9  14   0    4.85    1.30
  -8  14   0   47.65    3.17
  -7  14   0    0.08    0.59
  -6  14   0    0.46    0.64
  -5  14   0    0.86    0.93
  -4  14   0   10.34    2.36
  -3  14   0    0.73    0.65
  -2  14   0    4.32    1.00
  -1  14   0   11.49    1.59
   0  14   0   89.78    3.64
   1  14   0   11.13    1.55
   2  14   0    4.27    1.03
   3  14   0    0.52    0.85
   4  14   0    9.65    2.25
   5  14   0    2.38    1.23
   6  14   0    0.35    0.91
   7  14   0   -0.48    0.79
   8  14   0   48.15    5.51
   9  14   0    3.76    1.55
  10  14   0    3.97    1.75
  11  14   0   -0.23    1.12
 -10  15   0   13.57    3.30
  -9  15   0    3.90    1.31
  -8  15   0    9.18    1.58
  -7  15   0   -0.37    0.67
  -6  15   0   -0.18    0.60
  -5  15   0    1.52    1.08
  -4  15   0    4.03    1.58
  -3  15   0   16.97    3.07
  -2  15   0   15.70    1.90
  -1  15   0   -0.24    0.48
   0  15   0    0.02    0.55
   1  15   0    0.41    0.57
   2  15   0   17.22    3.05
   3  15   0    9.70    2.41
   4  15   0    2.00    1.25
   5  15   0   -0.13    0.85
   6  15   0    0.02    1.10
   7  15   0   -0.47    0.85
   8  15   0    9.84    2.52
   9  15   0    1.63    1.44
  10  15   0    7.44    2.23
  -9  16   0    2.16    1.93
  -8  16   0    1.58    1.32
  -7  16   0    6.95    2.38
  -6  16   0    0.01    0.73
  -5  16   0    3.32    1.10
  -4  16   0   32.89    4.36
  -3  16   0    5.17    1.81
  -2  16   0    3.31    1.36
  -1  16   0    8.85    1.54
   0  16   0   24.91    2.50
   1  16   0    5.81    1.83
   2  16   0    1.95    1.31
   3  16   0    3.95    1.67
   4  16   0   20.09    3.46
   5  16   0    5.17    2.02
   6  16   0    1.15    1.23
   7  16   0    4.48    1.76
   8  16   0   -0.56    1.07
  -7  17   0   11.89    3.05
  -6  17   0   22.56    3.98
  -5  17   0   12.21    2.92
  -4  17   0    6.49    2.25
  -3  17   0    0.82    1.19
  -2  17   0    2.01    1.48
  -1  17   0    6.08    1.42
   0  17   0    0.01    0.90
   1  17   0    7.31    2.24
   2  17   0    1.93    1.44
   3  17   0   -0.31    0.97
   4  17   0    1.74    1.40
   5  17   0   10.01    2.64
   6  17   0   17.23    3.46
  -5  18   0    2.01    1.65
  -4  18   0   22.42    4.01
  -3  18   0    1.38    1.59
   0  18   0    1.36    1.33
   1  18   0    9.01    2.42
   2  18   0   -1.19    1.02
   3  18   0    0.92    1.38
   4  18   0   29.21    4.56
  -4 -18   1    5.17    2.15
  -3 -18   1    3.36    1.20
  -2 -18   1    1.37    0.94
  -1 -18   1    2.72    1.00
   0 -18   1    1.73    0.94
   1 -18   1    0.61    0.78
   2 -18   1    1.95    0.86
   3 -18   1    5.93    2.09
   4 -18   1    7.56    2.25
  -7 -17   1    0.52    1.33
  -6 -17   1   -0.12    0.75
  -5 -17   1    0.09    0.67
  -4 -17   1    3.34    1.06
  -3 -17   1    3.15    1.08
  -2 -17   1    3.19    1.11
  -1 -17   1   26.95    2.75
   0 -17   1    0.17    0.60
   1 -17   1   26.60    2.74
   2 -17   1    7.59    1.48
   3 -17   1    1.95    0.90
   4 -17   1    3.49    1.11
   5 -17   1   -0.26    0.54
   6 -17   1   -0.16    0.58
   7 -17   1    2.61    1.07
  -9 -16   1    1.21    1.30
  -8 -16   1    0.21    0.75
  -7 -16   1   12.38    1.96
  -6 -16   1    1.09    0.78
  -5 -16   1    1.77    0.89
  -4 -16   1    0.68    0.65
  -3 -16   1   17.54    1.79
  -2 -16   1   17.42    2.17
  -1 -16   1    6.22    1.33
   0 -16   1   31.28    2.90
   1 -16   1    8.63    1.48
   2 -16   1   14.08    1.96
   3 -16   1   16.46    2.14
   4 -16   1   -0.05    0.51
   5 -16   1    1.06    0.61
   6 -16   1    1.95    0.81
   7 -16   1   11.29    1.54
   8 -16   1    0.70    0.69
 -10 -15   1    0.42    0.86
  -9 -15   1    0.04    0.77
  -8 -15   1   -0.06    0.58
  -7 -15   1   -0.22    0.67
  -6 -15   1   29.17    2.77
  -5 -15   1   37.87    3.07
  -4 -15   1    9.52    1.18
  -3 -15   1    9.45    1.30
  -2 -15   1    1.51    0.61
  -1 -15   1    0.07    0.49
   0 -15   1    0.05    0.45
   1 -15   1    1.30    0.66
   2 -15   1    2.37    0.85
   3 -15   1    5.75    1.04
   4 -15   1   11.89    1.50
   5 -15   1   39.89    2.73
   6 -15   1   30.27    2.43
   7 -15   1    0.01    0.49
   8 -15   1   -0.08    0.55
   9 -15   1    0.58    0.81
  10 -15   1    0.19    0.94
 -11 -14   1    0.82    1.14
 -10 -14   1    1.73    0.94
  -9 -14   1    4.45    1.16
  -8 -14   1   33.75    3.08
  -7 -14   1    0.03    0.56
  -6 -14   1    0.28    0.47
  -5 -14   1    0.68    0.48
  -4 -14   1   20.54    1.76
  -3 -14   1    0.49    0.41
  -2 -14   1    3.71    0.78
  -1 -14   1   14.13    1.46
   0 -14   1   48.60    2.71
   1 -14   1   10.59    1.55
   2 -14   1    3.45    0.75
   3 -14   1   -0.31    0.35
   4 -14   1   23.31    1.99
   5 -14   1    0.37    0.43
   6 -14   1    0.19    0.47
   7 -14   1   -0.08    0.46
   8 -14   1   28.97    2.33
   9 -14   1    7.53    1.57
  10 -14   1    2.49    0.98
  11 -14   1    0.82    0.86
 -12 -13   1    1.02    1.33
 -11 -13   1   19.73    3.52
 -10 -13   1   17.95    2.16
  -9 -13   1    3.39    0.94
  -8 -13   1   16.79    2.10
  -7 -13   1    4.54    0.92
  -6 -13   1    0.03    0.37
  -5 -13   1    0.89    0.46
  -4 -13   1    3.55    0.76
  -3 -13   1   56.21    2.32
  -2 -13   1   21.30    1.70
  -1 -13   1   -0.02    0.32
   0 -13   1   -0.06    0.34
   1 -13   1   -0.19    0.31
   2 -13   1   21.06    1.70
   3 -13   1   58.17    2.40
   4 -13   1    3.35    0.76
   5 -13   1    0.56    0.43
   6 -13   1    0.11    0.40
   7 -13   1    6.17    1.05
   8 -13   1   16.71    1.74
   9 -13   1    4.20    1.09
  10 -13   1   18.14    2.34
  11 -13   1   16.65    2.20
  12 -13   1    0.71    0.93
 -13 -12   1   -0.35    1.47
 -12 -12   1    0.14    1.08
 -11 -12   1    8.66    1.76
 -10 -12   1   13.45    1.85
  -9 -12   1    3.87    1.01
  -8 -12   1    4.35    0.85
  -7 -12   1   17.05    1.54
  -6 -12   1    0.26    0.39
  -5 -12   1    9.66    1.17
  -4 -12   1   30.91    2.04
  -3 -12   1   13.40    1.31
  -2 -12   1    2.41    0.61
  -1 -12   1    2.48    0.59
   0 -12   1   23.70    1.50
   1 -12   1    1.11    0.47
   2 -12   1    3.26    0.65
   3 -12   1   15.54    1.42
   4 -12   1   28.74    2.01
   5 -12   1   11.64    1.27
   6 -12   1   -0.24    0.31
   7 -12   1   15.30    1.59
   8 -12   1    3.07    0.78
   9 -12   1    6.07    1.34
  10 -12   1   15.12    2.05
  11 -12   1    6.03    1.45
  12 -12   1   -0.21    0.64
  13 -12   1    1.56    1.24
 -13 -11   1    0.36    1.04
 -12 -11   1   -0.29    0.84
 -11 -11   1   -0.30    0.49
 -10 -11   1    1.06    0.68
  -9 -11   1   22.29    1.80
  -8 -11   1    0.42    0.42
  -7 -11   1   77.78    2.69
  -6 -11   1   25.65    1.82
  -5 -11   1   12.94    1.27
  -4 -11   1    8.16    0.99
  -3 -11   1    0.37    0.34
  -2 -11   1   12.72    1.21
  -1 -11   1   48.86    1.64
   0 -11   1   -0.17    0.21
   1 -11   1   50.62    1.71
   2 -11   1   11.48    1.14
   3 -11   1    0.40    0.35
   4 -11   1    8.52    1.07
   5 -11   1   12.47    1.28
   6 -11   1   24.86    1.87
   7 -11   1   73.29    2.75
   8 -11   1    0.18    0.39
   9 -11   1   21.49    2.28
  10 -11   1    0.63    0.58
  11 -11   1   -0.38    0.59
  12 -11   1    0.22    0.58
  13 -11   1    0.86    0.77
  14 -11   1    0.66    1.03
 -14 -10   1   10.44    2.69
 -13 -10   1    8.73    2.32
 -12 -10   1    5.42    1.84
 -11 -10   1   35.25    2.92
 -10 -10   1    0.70    0.48
  -9 -10   1    5.57    0.86
  -8 -10   1    4.66    0.82
  -7 -10   1    0.09    0.31
  -6 -10   1   21.05    1.59
  -5 -10   1    1.85    0.50
  -4 -10   1   78.69    2.46
  -3 -10   1    9.25    0.98
  -2 -10   1   -0.17    0.21
  -1 -10   1   55.49    1.66
   0 -10   1   18.33    1.18
   1 -10   1   55.82    1.73
   2 -10   1    0.16    0.29
   3 -10   1   10.69    1.06
   4 -10   1   76.45    2.52
   5 -10   1    1.80    0.51
   6 -10   1   16.84    1.49
   7 -10   1    0.79    0.43
   8 -10   1    2.07    0.74
   9 -10   1    4.59    0.88
  10 -10   1    0.51    0.50
  11 -10   1   35.19    2.52
  12 -10   1    5.17    1.04
  13 -10   1    8.09    1.38
  14 -10   1    7.41    1.30
 -14  -9   1    9.35    2.47
 -13  -9   1    0.54    0.79
 -12  -9   1    1.84    1.13
 -11  -9   1    0.34    0.48
 -10  -9   1   21.26    1.71
  -9  -9   1   55.90    2.22
  -8  -9   1   26.74    1.80
  -7  -9   1    3.88    0.69
  -6  -9   1   14.76    1.28
  -5  -9   1   61.84    2.10
  -4  -9   1    0.20    0.26
  -3  -9   1    0.00    0.19
  -2  -9   1  128.69    2.49
  -1  -9   1   32.33    1.18
   0  -9   1    0.07    0.21
   1  -9   1   30.83    1.20
   2  -9   1  120.23    3.63
   3  -9   1    0.13    0.25
   4  -9   1    0.31    0.23
   5  -9   1   66.74    1.88
   6  -9   1   18.07    1.24
   7  -9   1    2.38    0.50
   8  -9   1   25.68    1.85
   9  -9   1   50.25    2.23
  10  -9   1   22.59    1.90
  11  -9   1    1.35    0.59
  12  -9   1    1.31    0.64
  13  -9   1    0.58    0.60
  14  -9   1   13.09    1.72
  15  -9   1    5.03    1.45
 -15  -8   1    4.82    1.96
 -14  -8   1    2.58    1.35
 -13  -8   1    0.84    1.02
 -12  -8   1    5.66    1.22
 -11  -8   1   13.00    1.33
 -10  -8   1    0.88    0.42
  -9  -8   1   17.88    1.45
  -8  -8   1   45.63    1.86
  -7  -8   1   17.18    1.32
  -6  -8   1    0.50    0.32
  -5  -8   1   22.34    1.48
  -4  -8   1   23.10    1.45
  -3  -8   1   29.24    1.02
  -2  -8   1   61.59    1.75
  -1  -8   1   26.82    1.01
   0  -8   1   22.60    0.94
   1  -8   1   27.62    1.07
   2  -8   1   64.05    1.34
   3  -8   1   28.87    1.11
   4  -8   1   24.69    1.17
   5  -8   1   23.08    1.21
   6  -8   1    0.11    0.23
   7  -8   1   19.26    1.30
   8  -8   1   46.40    2.01
   9  -8   1   19.14    1.66
  10  -8   1    1.35    0.55
  11  -8   1   12.34    1.43
  12  -8   1    5.33    1.01
  13  -8   1    1.96    0.73
  14  -8   1    1.10    0.72
  15  -8   1    4.12    1.11
 -15  -7   1    7.42    2.39
 -14  -7   1    0.65    0.98
 -13  -7   1   49.99    2.96
 -12  -7   1    0.53    0.56
 -11  -7   1    5.44    0.86
 -10  -7   1    0.35    0.36
  -9  -7   1    0.81    0.40
  -8  -7   1   15.85    1.27
  -7  -7   1   16.68    1.27
  -6  -7   1   11.69    1.02
  -5  -7   1  217.76    4.06
  -4  -7   1    4.02    0.41
  -3  -7   1   17.84    0.82
  -2  -7   1   10.70    0.71
  -1  -7   1    5.20    0.52
   0  -7   1    0.06    0.15
   1  -7   1    5.60    0.35
   2  -7   1    9.65    0.53
   3  -7   1   15.91    0.85
   4  -7   1    4.75    0.56
   5  -7   1  219.74    3.61
   6  -7   1   14.57    1.05
   7  -7   1   16.64    1.36
   8  -7   1   13.57    1.29
   9  -7   1    1.69    0.50
  10  -7   1    0.38    0.41
  11  -7   1    4.38    0.87
  12  -7   1    0.22    0.38
  13  -7   1   56.90    2.67
  14  -7   1    0.07    0.49
  15  -7   1    7.10    1.24
  16  -7   1    3.07    1.43
 -16  -6   1    4.05    1.86
 -15  -6   1    0.56    1.15
 -14  -6   1   -0.04    0.56
 -13  -6   1   42.09    2.89
 -12  -6   1    5.82    1.19
 -11  -6   1   83.14    2.69
 -10  -6   1   14.86    1.60
  -9  -6   1    0.43    0.34
  -8  -6   1   37.48    1.56
  -7  -6   1   13.88    1.10
  -6  -6   1    2.74    0.48
  -5  -6   1   10.96    0.56
  -4  -6   1    0.38    0.16
  -3  -6   1    3.10    0.34
  -2  -6   1    3.17    0.37
  -1  -6   1  224.08    3.14
   0  -6   1   95.42    1.83
   1  -6   1  223.55    2.97
   2  -6   1    3.17    0.34
   3  -6   1    2.24    0.35
   4  -6   1    0.35    0.20
   5  -6   1   11.15    0.85
   6  -6   1    2.37    0.45
   7  -6   1   12.16    1.13
   8  -6   1   37.59    1.72
   9  -6   1    0.61    0.39
  10  -6   1   14.98    1.43
  11  -6   1   75.40    2.81
  12  -6   1    5.83    0.95
  13  -6   1   44.69    2.85
  14  -6   1   -0.62    0.43
  15  -6   1    0.83    0.84
  16  -6   1    6.76    1.65
 -16  -5   1    0.27    1.23
 -15  -5   1    0.33    0.70
 -14  -5   1   21.36    2.44
 -13  -5   1    0.98    0.69
 -12  -5   1    4.14    0.99
 -11  -5   1   10.36    1.13
 -10  -5   1   47.65    1.88
  -9  -5   1    7.40    0.87
  -8  -5   1   11.13    1.02
  -7  -5   1   81.56    2.20
  -6  -5   1   33.56    0.92
  -5  -5   1    1.57    0.35
  -4  -5   1    2.62    0.43
  -3  -5   1   92.27    1.52
  -2  -5   1  165.30    2.36
  -1  -5   1    7.68    0.52
   0  -5   1    0.22    0.14
   1  -5   1    7.94    0.41
   2  -5   1  169.00    2.23
   3  -5   1   91.89    1.78
   4  -5   1    2.73    0.38
   5  -5   1    1.68    0.35
   6  -5   1   33.31    1.43
   7  -5   1   77.87    2.37
   8  -5   1    9.93    1.06
   9  -5   1    6.90    0.96
  10  -5   1   49.37    2.11
  11  -5   1    9.72    1.22
  12  -5   1    4.71    0.91
  13  -5   1    0.31    0.48
  14  -5   1   20.24    2.49
  15  -5   1    1.12    0.95
  16  -5   1   -0.22    0.78
 -16  -4   1   11.13    2.71
 -15  -4   1    0.16    0.61
 -14  -4   1   54.76    3.10
 -13  -4   1   -0.13    0.45
 -12  -4   1    2.11    0.72
 -11  -4   1    6.49    0.89
 -10  -4   1    6.11    0.81
  -9  -4   1    3.00    0.54
  -8  -4   1   29.34    1.35
  -7  -4   1   18.04    0.77
  -6  -4   1   32.32    0.86
  -5  -4   1    0.83    0.27
  -4  -4   1  241.82    3.78
  -3  -4   1    9.42    0.69
  -2  -4   1   29.55    0.70
  -1  -4   1   30.20    0.77
   0  -4   1   14.96    0.44
   1  -4   1   29.33    0.70
   2  -4   1   29.56    0.75
   3  -4   1    9.33    0.63
   4  -4   1  243.79    3.46
   5  -4   1    0.66    0.24
   6  -4   1   33.59    1.40
   7  -4   1   15.85    1.25
   8  -4   1   32.43    1.61
   9  -4   1    3.45    0.67
  10  -4   1    7.28    0.98
  11  -4   1    6.09    0.93
  12  -4   1    0.86    0.50
  13  -4   1   -0.10    0.51
  14  -4   1   54.89    3.61
  15  -4   1    0.57    0.75
  16  -4   1    8.60    1.86
  17  -4   1    0.81    1.23
 -17  -3   1   23.06    4.41
 -16  -3   1    2.65    1.02
 -15  -3   1    2.66    0.89
 -14  -3   1    3.01    0.93
 -13  -3   1    0.46    0.55
 -12  -3   1    0.02    0.40
 -11  -3   1   11.00    1.13
 -10  -3   1   32.46    1.66
  -9  -3   1   44.18    1.64
  -8  -3   1   43.51    1.54
  -7  -3   1  182.40    3.38
  -6  -3   1    2.17    0.38
  -5  -3   1   99.19    2.08
  -4  -3   1   31.83    1.03
  -3  -3   1   13.60    0.64
  -2  -3   1  166.26    2.63
  -1  -3   1  260.31    3.02
   0  -3   1   -0.03    0.08
   1  -3   1  260.40    2.78
   2  -3   1  165.44    2.08
   3  -3   1   13.19    0.67
   4  -3   1   32.66    1.00
   5  -3   1  106.37    2.89
   6  -3   1    1.90    0.41
   7  -3   1  184.05    3.76
   8  -3   1   43.47    1.74
   9  -3   1   39.17    1.82
  10  -3   1   32.80    1.86
  11  -3   1    7.84    1.08
  12  -3   1    0.53    0.48
  13  -3   1    0.22    0.53
  14  -3   1    7.01    1.43
  15  -3   1    3.21    1.16
  16  -3   1    0.94    0.90
  17  -3   1   43.98    5.33
 -17  -2   1    0.43    0.86
 -16  -2   1   -0.61    0.61
 -15  -2   1    3.14    1.04
 -14  -2   1    0.55    0.66
 -13  -2   1    7.36    1.41
 -12  -2   1   26.55    2.35
 -11  -2   1   82.57    2.52
 -10  -2   1    7.77    0.86
  -9  -2   1    2.94    0.53
  -8  -2   1    0.08    0.21
  -7  -2   1   41.14    1.36
  -6  -2   1    2.66    0.40
  -5  -2   1    3.88    0.43
  -4  -2   1   37.44    1.03
  -3  -2   1   21.94    0.73
  -2  -2   1   57.53    1.19
  -1  -2   1  254.34    2.83
   0  -2   1    1.93    0.18
   1  -2   1  256.83    2.41
   2  -2   1   57.12    0.88
   3  -2   1   24.00    0.61
   4  -2   1   37.21    0.87
   5  -2   1    4.82    0.33
   6  -2   1    2.39    0.47
   7  -2   1   42.98    1.60
   8  -2   1    0.23    0.26
   9  -2   1    3.45    0.67
  10  -2   1    7.54    1.24
  11  -2   1   79.88    3.51
  12  -2   1   27.81    2.60
  13  -2   1    8.65    1.56
  14  -2   1   -0.09    0.59
  15  -2   1    2.38    0.98
  16  -2   1    0.54    0.88
  17  -2   1    0.49    0.97
 -17  -1   1    2.05    1.01
 -16  -1   1    2.18    1.01
 -15  -1   1    7.49    1.46
 -14  -1   1   16.63    2.03
 -13  -1   1   21.23    2.19
 -12  -1   1    3.94    0.97
 -11  -1   1   21.48    1.55
 -10  -1   1   62.77    2.03
  -9  -1   1    3.61    0.58
  -8  -1   1   41.78    1.43
  -7  -1   1    0.23    0.19
  -6  -1   1    0.67    0.23
  -5  -1   1  256.45    3.74
  -4  -1   1   36.30    0.84
  -3  -1   1   83.07    1.28
  -2  -1   1   65.39    1.02
  -1  -1   1    2.73    0.21
   0  -1   1    0.12    0.08
   1  -1   1    3.10    0.21
   2  -1   1   65.12    0.91
   3  -1   1   82.66    1.38
   4  -1   1   36.51    0.87
   5  -1   1  254.44    3.30
   6  -1   1    0.63    0.19
   7  -1   1    0.00    0.14
   8  -1   1   36.97    2.00
   9  -1   1    1.86    0.64
  10  -1   1   61.95    2.88
  11  -1   1   16.06    1.91
  12  -1   1    3.06    0.90
  13  -1   1   23.21    2.42
  14  -1   1   18.69    2.30
  15  -1   1    8.04    1.60
  16  -1   1    1.21    0.86
  17  -1   1    1.85    1.07
 -17   0   1    0.33    0.85
 -16   0   1   56.92    3.66
 -15   0   1   -0.21    0.59
 -14   0   1   25.66    2.57
 -13   0   1   -0.08    0.42
 -12   0   1    0.07    0.42
 -11   0   1    0.12    0.29
 -10   0   1    5.44    0.73
  -9   0   1    0.07    0.23
  -8   0   1  261.35    4.34
  -7   0   1   -0.09    0.15
  -6   0   1   27.65    0.99
  -5   0   1   -0.10    0.11
  -4   0   1  222.99    2.70
  -3   0   1    0.04    0.09
  -2   0   1  232.40    3.11
  -1   0   1    0.24    0.12
   0   0   1   12.93    0.34
   1   0   1    0.11    0.08
   2   0   1  227.85    2.39
   3   0   1    0.08    0.12
   4   0   1  217.69    2.86
   5   0   1    0.00    0.15
   6   0   1   29.04    1.01
   7   0   1   -0.01    0.16
   8   0   1  253.95    4.21
   9   0   1   -0.14    0.35
  10   0   1    3.75    0.86
  11   0   1   -0.41    0.34
  12   0   1   -0.27    0.42
  13   0   1    0.09    0.48
  14   0   1   23.15    2.54
  15   0   1   -0.25    0.57
  16   0   1   64.71    3.69
  17   0   1    0.00    1.09
 -17   1   1    1.17    0.91
 -16   1   1    1.26    0.90
 -15   1   1    7.14    1.40
 -14   1   1   18.71    2.15
 -13   1   1   25.84    2.42
 -12   1   1    5.50    1.11
 -11   1   1   20.76    1.74
 -10   1   1   62.67    2.05
  -9   1   1    2.17    0.46
  -8   1   1   40.82    1.43
  -7   1   1    0.48    0.23
  -6   1   1    0.75    0.20
  -5   1   1  260.99    3.21
  -4   1   1   35.93    0.80
  -3   1   1   83.80    1.57
  -2   1   1   66.76    1.24
  -1   1   1    3.06    0.24
   0   1   1   -0.07    0.11
   1   1   1    2.91    0.26
   2   1   1   65.77    1.64
   3   1   1   81.34    1.63
   4   1   1   34.81    1.05
   5   1   1  260.35    3.91
   6   1   1    0.60    0.24
   7   1   1    0.43    0.23
   8   1   1   39.01    1.39
   9   1   1    1.56    0.39
  10   1   1   63.19    2.82
  11   1   1   19.43    2.02
  12   1   1    3.14    0.89
  13   1   1   22.53    2.31
  14   1   1   18.94    2.25
  15   1   1    7.55    1.45
  16   1   1    3.20    1.61
  17   1   1    1.00    1.41
 -17   2   1   -0.22    0.71
 -16   2   1   -0.35    0.70
 -15   2   1    2.75    0.98
 -14   2   1    0.15    0.60
 -13   2   1    6.65    1.31
 -12   2   1   30.85    2.59
 -11   2   1   83.55    3.36
 -10   2   1    6.33    0.72
  -9   2   1    2.21    0.47
  -8   2   1    0.47    0.26
  -7   2   1   41.50    1.11
  -6   2   1    1.81    0.33
  -5   2   1    4.64    0.46
  -4   2   1   37.46    1.05
  -3   2   1   22.85    0.74
  -2   2   1   58.23    1.13
  -1   2   1  258.99    4.19
   0   2   1    2.58    0.34
   1   2   1  256.93    4.31
   2   2   1   56.63    2.20
   3   2   1   23.05    1.02
   4   2   1   35.40    1.12
   5   2   1    4.96    0.54
   6   2   1    2.16    0.40
   7   2   1   39.80    1.40
   8   2   1    0.29    0.21
   9   2   1    2.59    0.48
  10   2   1    7.48    1.16
  11   2   1   79.57    3.33
  12   2   1   31.29    2.63
  13   2   1    8.94    1.44
  14   2   1    0.40    0.60
  15   2   1    2.81    0.93
  16   2   1    0.47    1.27
  17   2   1    0.39    1.30
 -17   3   1   30.23    4.36
 -16   3   1    2.83    1.10
 -15   3   1    5.94    1.34
 -14   3   1    5.53    1.22
 -13   3   1    0.68    0.54
 -12   3   1    0.14    0.43
 -11   3   1    9.41    1.36
 -10   3   1   33.82    1.66
  -9   3   1   44.67    1.64
  -8   3   1   45.22    1.46
  -7   3   1  188.87    3.30
  -6   3   1    2.18    0.36
  -5   3   1  101.71    2.03
  -4   3   1   32.52    1.00
  -3   3   1   14.04    0.62
  -2   3   1  169.73    2.48
  -1   3   1  267.97    3.38
   0   3   1   -0.12    0.13
   1   3   1  268.41    3.45
   2   3   1  170.48    3.35
   3   3   1   14.38    0.92
   4   3   1   31.43    1.08
   5   3   1   96.43    2.15
   6   3   1    2.31    0.41
   7   3   1  182.68    3.50
   8   3   1   44.44    1.60
   9   3   1   44.94    1.67
  10   3   1   33.02    1.57
  11   3   1   11.29    1.50
  12   3   1    0.31    0.46
  13   3   1    0.19    0.53
  14   3   1    6.12    1.33
  15   3   1    4.31    1.79
  16   3   1    2.47    1.68
  17   3   1   40.77    5.56
 -17   4   1    2.35    1.66
 -16   4   1    8.81    1.69
 -15   4   1    0.67    0.75
 -14   4   1   49.97    3.28
 -13   4   1    0.29    0.51
 -12   4   1    1.90    0.74
 -11   4   1    7.35    1.28
 -10   4   1    9.72    1.01
  -9   4   1    4.78    0.85
  -8   4   1   32.33    1.77
  -7   4   1   17.73    0.95
  -6   4   1   33.11    1.14
  -5   4   1    0.69    0.23
  -4   4   1  244.33    3.65
  -3   4   1    9.65    0.65
  -2   4   1   30.24    0.86
  -1   4   1   28.55    1.13
   0   4   1   16.87    0.80
   1   4   1   31.89    0.87
   2   4   1   29.89    0.78
   3   4   1    9.96    0.92
   4   4   1  237.10    4.75
   5   4   1    0.26    0.24
   6   4   1   32.81    1.60
   7   4   1   16.12    1.16
   8   4   1   29.20    1.39
   9   4   1    3.08    0.56
  10   4   1    7.93    0.93
  11   4   1    8.19    1.27
  12   4   1    3.47    0.85
  13   4   1   -0.25    0.44
  14   4   1   53.90    5.75
  15   4   1   -0.42    1.01
  16   4   1    8.78    2.52
  17   4   1    1.15    1.36
 -16   5   1    0.69    0.88
 -15   5   1    0.40    0.78
 -14   5   1   17.41    2.16
 -13   5   1    1.16    0.69
 -12   5   1    3.57    0.91
 -11   5   1   10.38    1.46
 -10   5   1   53.74    2.61
  -9   5   1    7.12    1.10
  -8   5   1   11.58    1.31
  -7   5   1   80.95    1.97
  -6   5   1   31.85    1.15
  -5   5   1    1.95    0.36
  -4   5   1    2.79    0.39
  -3   5   1   88.22    1.84
  -2   5   1  167.17    3.50
  -1   5   1    8.14    0.80
   0   5   1   -0.12    0.15
   1   5   1    8.46    0.54
   2   5   1  166.70    2.64
   3   5   1   90.92    1.72
   4   5   1    2.58    0.54
   5   5   1    1.89    0.47
   6   5   1   32.48    1.63
   7   5   1   75.74    2.74
   8   5   1    9.56    1.21
   9   5   1    6.75    1.07
  10   5   1   49.38    1.93
  11   5   1   10.25    1.10
  12   5   1    4.41    1.05
  13   5   1    0.43    0.86
  14   5   1   18.94    3.29
  15   5   1   -0.54    0.86
  16   5   1   -1.25    1.05
 -16   6   1    6.47    1.51
 -15   6   1    0.60    0.75
 -14   6   1    0.17    0.61
 -13   6   1   46.95    3.07
 -12   6   1    7.32    1.31
 -11   6   1   76.37    3.36
 -10   6   1   15.56    1.70
  -9   6   1    0.63    0.42
  -8   6   1   38.51    2.00
  -7   6   1   13.39    1.40
  -6   6   1    2.78    0.44
  -5   6   1   14.59    0.95
  -4   6   1    0.39    0.19
  -3   6   1    2.28    0.36
  -2   6   1    2.70    0.52
  -1   6   1  231.04    4.49
   0   6   1   98.64    2.50
   1   6   1  228.55    4.33
   2   6   1    2.45    0.35
   3   6   1    2.85    0.35
   4   6   1    0.08    0.23
   5   6   1   12.09    1.20
   6   6   1    3.24    0.69
   7   6   1   12.30    1.33
   8   6   1   37.32    2.00
   9   6   1    0.64    0.42
  10   6   1   15.67    1.71
  11   6   1   86.23    3.42
  12   6   1    6.65    1.98
  13   6   1   53.26    4.37
  14   6   1   -0.07    0.83
  15   6   1    0.68    1.24
  16   6   1    6.35    2.31
 -16   7   1    1.40    1.38
 -15   7   1    7.48    1.56
 -14   7   1   -0.05    0.67
 -13   7   1   57.86    3.43
 -12   7   1    0.08    0.47
 -11   7   1    5.61    1.14
 -10   7   1    0.15    0.42
  -9   7   1    0.88    0.47
  -8   7   1   14.07    1.54
  -7   7   1   18.15    1.70
  -6   7   1   16.17    0.97
  -5   7   1  227.18    3.83
  -4   7   1    5.05    0.59
  -3   7   1   18.49    1.23
  -2   7   1    9.89    1.01
  -1   7   1    4.33    0.69
   0   7   1    0.30    0.24
   1   7   1    5.04    0.69
   2   7   1   11.54    0.72
   3   7   1   16.48    0.81
   4   7   1    5.12    0.52
   5   7   1  224.11    5.05
   6   7   1   12.85    1.34
   7   7   1   17.28    1.64
   8   7   1   13.03    1.52
   9   7   1    2.31    0.70
  10   7   1    0.33    0.47
  11   7   1    5.92    1.14
  12   7   1    0.72    0.61
  13   7   1   68.31    4.87
  14   7   1   -0.01    0.99
  15   7   1    6.28    2.00
 -15   8   1    6.95    2.19
 -14   8   1    1.60    0.92
 -13   8   1    2.05    0.85
 -12   8   1    3.52    0.98
 -11   8   1   17.02    1.98
 -10   8   1    0.40    0.49
  -9   8   1   19.13    1.91
  -8   8   1   46.66    2.33
  -7   8   1   19.84    1.74
  -6   8   1    0.17    0.25
  -5   8   1   23.87    1.13
  -4   8   1   27.33    1.13
  -3   8   1   29.81    1.54
  -2   8   1   61.09    2.23
  -1   8   1   27.65    1.44
   0   8   1   23.03    1.42
   1   8   1   23.69    1.38
   2   8   1   64.56    2.16
   3   8   1   29.96    1.19
   4   8   1   26.84    1.11
   5   8   1   21.81    1.46
   6   8   1    0.08    0.30
   7   8   1   18.26    1.69
   8   8   1   49.09    2.40
   9   8   1   20.99    2.01
  10   8   1    1.09    0.59
  11   8   1   16.38    1.89
  12   8   1    4.31    1.07
 -14   9   1    7.15    2.28
 -13   9   1   -0.56    0.67
 -12   9   1    2.06    0.84
 -11   9   1    1.10    0.71
 -10   9   1   22.95    2.22
  -9   9   1   54.48    2.67
  -8   9   1   25.92    2.18
  -7   9   1    3.08    0.73
  -6   9   1   17.44    1.60
  -5   9   1   68.55    1.99
  -4   9   1    0.41    0.26
  -3   9   1    0.09    0.26
  -2   9   1  121.44    3.48
  -1   9   1   33.73    1.69
   0   9   1   -0.02    0.28
   1   9   1   41.06    1.81
   2   9   1  128.11    3.46
   3   9   1    0.20    0.32
   4   9   1   -0.18    0.25
   5   9   1   67.26    2.57
   6   9   1   15.71    1.56
   7   9   1    1.75    0.57
   8   9   1   27.76    2.00
   9   9   1   43.50    4.57
  10   9   1   20.29    3.18
  11   9   1    0.51    0.89
  12   9   1    2.57    1.27
 -14  10   1    6.96    2.40
 -13  10   1   10.09    2.65
 -12  10   1    7.72    2.18
 -11  10   1   38.70    4.68
 -10  10   1    0.88    0.65
  -9  10   1    5.63    1.12
  -8  10   1    4.26    0.89
  -7  10   1    0.22    0.42
  -6  10   1   18.22    1.74
  -5  10   1    2.48    0.55
  -4  10   1   82.83    2.30
  -3  10   1    9.03    1.14
  -2  10   1    0.33    0.36
  -1  10   1   54.71    2.31
   0  10   1   21.44    1.77
   1  10   1   59.67    2.37
   2  10   1    0.32    0.34
   3  10   1   11.85    2.17
   4  10   1   81.15    4.88
   5  10   1    3.57    1.20
   6  10   1   20.78    3.22
   7  10   1    0.53    0.80
   8  10   1    2.91    1.27
   9  10   1    2.59    1.29
  10  10   1    2.06    1.30
  11  10   1   38.04    4.44
  12  10   1    5.36    1.76
  13  10   1   10.14    3.65
 -13  11   1    1.65    1.47
 -12  11   1   -0.26    0.93
 -11  11   1    0.42    0.99
 -10  11   1    1.36    1.31
  -9  11   1   29.69    4.10
  -8  11   1    0.11    0.45
  -7  11   1   79.32    3.24
  -6  11   1   25.57    2.12
  -5  11   1   13.51    1.53
  -4  11   1   10.98    1.05
  -3  11   1    0.18    0.40
  -2  11   1   14.08    1.50
  -1  11   1   50.12    2.31
   0  11   1   -0.12    0.34
   1  11   1   47.45    2.24
   2  11   1   13.72    2.31
   3  11   1    1.15    0.87
   4  11   1   11.33    2.30
   5  11   1   13.27    2.52
   6  11   1   20.17    3.15
   7  11   1   75.98    5.28
   8  11   1    0.28    0.80
   9  11   1   16.11    3.03
  10  11   1   -0.20    0.88
  11  11   1    0.35    0.97
  12  11   1    0.41    1.07
  13  11   1    1.31    1.26
 -12  12   1   -1.16    0.98
 -11  12   1    5.97    2.12
 -10  12   1   16.20    3.30
  -9  12   1    4.81    1.84
  -8  12   1    5.40    1.83
  -7  12   1   23.11    3.58
  -6  12   1   -0.13    0.54
  -5  12   1   13.76    2.44
  -4  12   1   30.36    2.04
  -3  12   1   20.26    1.92
  -2  12   1    2.94    0.78
  -1  12   1    1.34    0.58
   0  12   1   21.89    1.97
   1  12   1    2.40    1.09
   2  12   1    3.39    1.33
   3  12   1   18.02    2.92
   4  12   1   26.29    3.76
   5  12   1    8.70    2.19
   6  12   1    0.85    0.99
   7  12   1   13.82    2.82
   8  12   1    4.48    1.71
   9  12   1    4.41    1.74
  10  12   1   15.70    3.16
  11  12   1    6.19    2.07
  12  12   1    0.37    1.09
  13  12   1   -0.77    1.19
 -12  13   1    0.79    1.44
 -11  13   1   19.95    3.69
 -10  13   1   20.23    3.75
  -9  13   1    2.61    1.53
  -8  13   1   13.02    2.63
  -7  13   1    7.43    2.00
  -6  13   1    0.63    0.85
  -5  13   1    1.00    0.81
  -4  13   1    4.28    1.12
  -3  13   1   62.98    2.82
  -2  13   1   25.44    2.19
  -1  13   1    0.40    0.43
   0  13   1   -0.33    0.62
   1  13   1    0.83    0.94
   2  13   1   23.61    3.41
   3  13   1   55.81    4.43
   4  13   1    7.05    1.91
   5  13   1    0.71    0.82
   6  13   1   -0.02    0.86
   7  13   1    8.44    2.29
   8  13   1   10.81    2.53
   9  13   1    6.45    2.02
  10  13   1   21.20    3.79
  11  13   1   19.82    3.60
  12  13   1    2.17    1.55
 -11  14   1    3.58    1.72
 -10  14   1    1.11    1.37
  -9  14   1    9.05    2.57
  -8  14   1   33.77    4.61
  -7  14   1    0.20    0.86
  -6  14   1   -0.59    0.81
  -5  14   1    0.74    0.94
  -4  14   1   26.80    3.81
  -3  14   1    0.51    0.52
  -2  14   1    4.28    1.02
  -1  14   1   10.85    2.25
   0  14   1   53.62    4.04
   1  14   1    9.37    2.12
   2  14   1    1.27    1.07
   3  14   1    0.60    0.79
   4  14   1   21.62    3.54
   5  14   1   -0.70    0.84
   6  14   1    0.49    0.92
   7  14   1    0.24    1.14
   8  14   1   21.87    3.91
   9  14   1    7.08    2.30
  10  14   1    3.26    1.81
  11  14   1   -1.06    1.12
 -10  15   1   -0.56    1.24
  -9  15   1   -0.71    1.09
  -8  15   1   -0.20    1.10
  -7  15   1   -0.60    1.00
  -6  15   1   26.69    4.04
  -5  15   1   45.64    5.08
  -4  15   1   12.53    2.61
  -3  15   1    8.61    2.18
  -2  15   1    2.87    1.33
  -1  15   1    0.57    0.82
   0  15   1    0.59    0.82
   1  15   1   -0.04    0.73
   2  15   1    1.65    1.09
   3  15   1    5.18    1.96
   4  15   1   10.02    2.61
   5  15   1   43.51    5.27
   6  15   1   29.49    4.51
   7  15   1    1.00    1.26
   8  15   1    0.67    1.09
   9  15   1    0.25    1.21
  10  15   1   -1.23    2.16
  -9  16   1    0.96    1.99
  -8  16   1    1.20    1.33
  -7  16   1   12.39    2.98
  -6  16   1   -1.00    1.13
  -5  16   1    0.44    1.27
  -4  16   1    0.00    1.71
  -2  16   1   22.71    3.21
  -1  16   1    7.52    1.91
   0  16   1   28.30    3.87
   1  16   1    7.63    2.16
   2  16   1   24.69    3.88
   3  16   1   18.58    3.37
   4  16   1   -0.14    0.92
   5  16   1    2.28    1.55
   6  16   1    1.60    1.31
   7  16   1   10.81    2.95
   8  16   1    1.21    1.39
  -7  17   1    2.07    1.65
  -6  17   1   -0.68    1.29
  -1  17   1   26.23    3.68
   0  17   1    0.23    0.96
   1  17   1   25.44    3.93
   2  17   1    4.03    1.72
   3  17   1    3.11    1.65
   4  17   1    5.47    2.02
   5  17   1   -0.62    1.06
   6  17   1   -0.50    1.03
   0  18   1    1.53    1.33
   1  18   1    0.99    1.24
   2  18   1    2.27    1.61
   3  18   1    4.75    2.10
  -5 -17   2    4.92    1.42
  -4 -17   2    4.99    1.14
  -3 -17   2   -0.63    0.58
  -2 -17   2    2.59    0.82
  -1 -17   2    2.57    0.98
   0 -17   2   -0.49    0.64
   1 -17   2    5.31    1.31
   2 -17   2    2.86    1.11
   3 -17   2    0.62    0.80
   4 -17   2    3.74    1.74
  -6 -16   2   -0.15    0.60
  -5 -16   2    4.05    1.00
  -4 -16   2   19.60    1.93
  -3 -16   2    2.71    0.73
  -2 -16   2    2.90    0.90
  -1 -16   2    3.16    0.88
   0 -16   2   15.62    2.16
   1 -16   2    6.65    1.43
   2 -16   2    1.73    0.92
   3 -16   2    3.32    1.09
   4 -16   2   22.11    2.66
   5 -16   2    4.44    1.28
   6 -16   2    0.64    0.81
  -8 -15   2   10.08    1.79
  -7 -15   2    0.18    0.77
  -6 -15   2   -0.22    0.50
  -5 -15   2    0.22    0.57
  -4 -15   2    2.37    0.80
  -3 -15   2   13.05    1.64
  -2 -15   2   12.45    1.52
  -1 -15   2    0.23    0.50
   0 -15   2   -0.07    0.41
   1 -15   2   -0.24    0.46
   2 -15   2   11.60    1.77
   3 -15   2    8.61    1.48
   4 -15   2    1.75    0.94
   5 -15   2    1.49    0.82
   6 -15   2   -0.67    0.52
   7 -15   2   -0.53    0.54
   8 -15   2    8.08    1.35
   9 -15   2    2.77    1.88
  -9 -14   2    3.46    1.11
  -8 -14   2   35.52    3.30
  -7 -14   2   -0.13    0.65
  -6 -14   2    0.26    0.53
  -5 -14   2    0.75    0.54
  -4 -14   2    7.08    1.10
  -3 -14   2    0.55    0.46
  -2 -14   2    3.08    0.75
  -1 -14   2    6.95    1.09
   0 -14   2   70.82    2.86
   1 -14   2    8.17    1.42
   2 -14   2    3.24    1.01
   3 -14   2    0.94    0.67
   4 -14   2    6.79    1.37
   5 -14   2    1.37    0.65
   6 -14   2    1.15    0.65
   7 -14   2   -0.47    0.42
   8 -14   2   36.36    2.76
   9 -14   2    2.52    1.11
  10 -14   2   11.62    3.04
 -10 -13   2    0.47    0.76
  -9 -13   2    0.19    0.65
  -8 -13   2    2.29    0.91
  -7 -13   2    3.99    1.00
  -6 -13   2   32.39    2.36
  -5 -13   2   57.35    2.52
  -4 -13   2   17.81    1.73
  -3 -13   2    1.73    0.62
  -2 -13   2    2.53    0.69
  -1 -13   2    0.94    0.51
   0 -13   2   -0.06    0.36
   1 -13   2    1.11    0.52
   2 -13   2    2.62    0.87
   3 -13   2    0.89    0.57
   4 -13   2   14.28    1.57
   5 -13   2   57.69    2.61
   6 -13   2   29.43    2.28
   7 -13   2    5.16    1.03
   8 -13   2    0.67    0.62
   9 -13   2   -0.04    0.66
  10 -13   2    0.24    0.76
  11 -13   2    0.52    0.97
 -11 -12   2   11.71    1.88
 -10 -12   2    0.57    0.69
  -9 -12   2    0.11    0.62
  -8 -12   2    4.12    1.03
  -7 -12   2   19.74    1.73
  -6 -12   2    9.28    1.22
  -5 -12   2    0.51    0.39
  -4 -12   2    6.47    0.98
  -3 -12   2   12.90    1.36
  -2 -12   2   31.92    2.17
  -1 -12   2   22.88    1.84
   0 -12   2   20.86    1.78
   1 -12   2   23.15    1.84
   2 -12   2   31.90    2.18
   3 -12   2   11.30    1.29
   4 -12   2    6.38    1.02
   5 -12   2    1.17    0.51
   6 -12   2   10.20    1.32
   7 -12   2   19.80    1.90
   8 -12   2    6.84    1.13
   9 -12   2   -0.04    0.57
  10 -12   2    0.66    0.65
  11 -12   2   12.24    2.03
  12 -12   2   16.47    2.81
 -12 -11   2    0.80    0.84
 -11 -11   2   -0.01    0.63
 -10 -11   2   11.36    1.81
  -9 -11   2   38.16    3.20
  -8 -11   2    0.18    0.47
  -7 -11   2    2.10    0.61
  -6 -11   2    0.48    0.43
  -5 -11   2    1.55    0.53
  -4 -11   2    4.45    0.79
  -3 -11   2   14.28    1.38
  -2 -11   2   13.18    1.33
  -1 -11   2   53.52    2.20
   0 -11   2    0.14    0.31
   1 -11   2   59.84    2.30
   2 -11   2   12.79    1.15
   3 -11   2   16.41    1.48
   4 -11   2    6.94    0.97
   5 -11   2    1.06    0.47
   6 -11   2    0.44    0.39
   7 -11   2    2.81    0.72
   8 -11   2    0.42    0.45
   9 -11   2   38.48    3.28
  10 -11   2   12.73    1.99
  11 -11   2    0.02    0.63
  12 -11   2    0.07    0.65
 -13 -10   2   14.41    2.16
 -12 -10   2   34.35    3.22
 -11 -10   2    3.28    1.07
 -10 -10   2    0.09    0.56
  -9 -10   2    6.28    1.31
  -8 -10   2    5.41    1.14
  -7 -10   2    4.32    0.77
  -6 -10   2   11.61    1.23
  -5 -10   2    2.48    0.59
  -4 -10   2   42.45    1.90
  -3 -10   2   37.80    1.75
  -2 -10   2   15.10    1.32
  -1 -10   2   16.96    1.37
   0 -10   2    1.09    0.44
   1 -10   2   20.12    1.29
   2 -10   2   15.63    1.18
   3 -10   2   37.72    1.78
   4 -10   2   46.10    2.06
   5 -10   2    1.83    0.57
   6 -10   2   10.60    1.27
   7 -10   2    4.95    0.87
   8 -10   2    1.54    0.59
   9 -10   2    6.26    1.37
  10 -10   2    0.17    0.58
  11 -10   2    0.05    0.60
  12 -10   2   34.81    3.33
  13 -10   2   11.05    1.91
 -14  -9   2    9.71    1.72
 -13  -9   2   -0.47    0.65
 -12  -9   2    1.82    0.84
 -11  -9   2    8.30    1.52
 -10  -9   2   16.39    2.06
  -9  -9   2    0.46    0.60
  -8  -9   2    1.02    0.59
  -7  -9   2   27.81    1.69
  -6  -9   2   79.52    2.60
  -5  -9   2   11.59    1.15
  -4  -9   2    2.26    0.48
  -3  -9   2   30.99    1.68
  -2  -9   2   17.95    1.40
  -1  -9   2    1.13    0.39
   0  -9   2    0.33    0.26
   1  -9   2    0.69    0.31
   2  -9   2   18.43    1.24
   3  -9   2   32.97    1.46
   4  -9   2    3.28    0.66
   5  -9   2    9.69    1.10
   6  -9   2   81.32    2.79
   7  -9   2   28.14    1.97
   8  -9   2    0.41    0.50
   9  -9   2   -0.23    0.46
  10  -9   2   12.95    1.53
  11  -9   2    8.28    1.27
  12  -9   2    2.35    0.79
  13  -9   2   -0.12    0.59
  14  -9   2    5.88    1.36
 -15  -8   2    4.23    1.81
 -14  -8   2    2.15    1.04
 -13  -8   2    1.12    0.80
 -12  -8   2    8.10    1.51
 -11  -8   2    9.30    1.38
 -10  -8   2   36.16    2.92
  -9  -8   2    3.83    0.94
  -8  -8   2   25.23    2.33
  -7  -8   2   17.05    1.41
  -6  -8   2   15.47    1.33
  -5  -8   2   12.45    1.14
  -4  -8   2    4.85    0.71
  -3  -8   2   32.20    1.57
  -2  -8   2   -0.08    0.23
  -1  -8   2   34.21    1.49
   0  -8   2  132.03    2.60
   1  -8   2   34.17    1.28
   2  -8   2    0.08    0.20
   3  -8   2   35.53    1.39
   4  -8   2    4.99    0.62
   5  -8   2   15.32    1.09
   6  -8   2   13.80    1.10
   7  -8   2   18.67    1.35
   8  -8   2   25.63    1.88
   9  -8   2    6.05    0.96
  10  -8   2   33.72    2.37
  11  -8   2   10.50    1.41
  12  -8   2    8.94    1.32
  13  -8   2    1.28    0.73
  14  -8   2    2.42    0.86
  15  -8   2    2.80    1.84
 -15  -7   2    0.68    0.85
 -14  -7   2    0.08    0.69
 -13  -7   2   23.60    2.55
 -12  -7   2   -0.71    0.52
 -11  -7   2   10.02    1.56
 -10  -7   2    0.34    0.51
  -9  -7   2   44.86    2.56
  -8  -7   2    9.34    1.38
  -7  -7   2   33.85    1.87
  -6  -7   2    7.99    0.88
  -5  -7   2   15.05    1.19
  -4  -7   2    5.06    0.68
  -3  -7   2   91.77    2.44
  -2  -7   2    9.37    0.90
  -1  -7   2   22.98    0.96
   0  -7   2    0.31    0.21
   1  -7   2   23.49    0.83
   2  -7   2   10.38    0.69
   3  -7   2   96.56    1.89
   4  -7   2    5.45    0.62
   5  -7   2   13.68    1.01
   6  -7   2    6.81    0.75
   7  -7   2   33.98    1.69
   8  -7   2   12.09    1.30
   9  -7   2   46.80    2.17
  10  -7   2    0.53    0.43
  11  -7   2    9.36    1.29
  12  -7   2    0.10    0.44
  13  -7   2   19.57    1.98
  14  -7   2    0.64    0.67
  15  -7   2    0.43    0.95
 -15  -6   2   17.80    2.33
 -14  -6   2   -0.07    0.70
 -13  -6   2    5.84    1.30
 -12  -6   2    0.65    0.61
 -11  -6   2    1.03    0.63
 -10  -6   2   15.96    1.87
  -9  -6   2   23.50    2.16
  -8  -6   2   49.25    2.50
  -7  -6   2   48.38    2.41
  -6  -6   2    3.64    0.57
  -5  -6   2   39.51    1.51
  -4  -6   2    1.60    0.40
  -3  -6   2  175.05    3.44
  -2  -6   2   47.03    1.14
  -1  -6   2    1.40    0.26
   0  -6   2   77.54    1.71
   1  -6   2    1.01    0.23
   2  -6   2   47.32    1.19
   3  -6   2  178.23    2.68
   4  -6   2    1.40    0.32
   5  -6   2   40.97    1.41
   6  -6   2    5.46    0.64
   7  -6   2   48.53    1.97
   8  -6   2   46.30    2.04
   9  -6   2   21.33    1.74
  10  -6   2   15.89    1.57
  11  -6   2    0.57    0.47
  12  -6   2    2.12    0.72
  13  -6   2    4.74    1.02
  14  -6   2    0.28    0.64
  15  -6   2   20.67    2.67
 -16  -5   2    6.41    1.75
 -15  -5   2    2.38    1.08
 -14  -5   2    5.07    1.28
 -13  -5   2   -0.17    0.51
 -12  -5   2    2.34    0.93
 -11  -5   2    5.28    1.16
 -10  -5   2   22.44    2.18
  -9  -5   2   28.29    2.41
  -8  -5   2    0.16    0.36
  -7  -5   2    6.08    1.00
  -6  -5   2  104.75    2.52
  -5  -5   2   12.94    1.00
  -4  -5   2   14.23    1.02
  -3  -5   2    0.07    0.21
  -2  -5   2   70.73    1.38
  -1  -5   2   39.84    1.05
   0  -5   2    0.00    0.15
   1  -5   2   39.73    0.99
   2  -5   2   73.32    1.45
   3  -5   2    0.19    0.16
   4  -5   2   14.38    0.93
   5  -5   2   15.67    1.04
   6  -5   2  104.54    2.41
   7  -5   2    5.47    0.76
   8  -5   2    0.93    0.43
   9  -5   2   26.89    1.89
  10  -5   2   24.17    1.96
  11  -5   2    4.51    0.87
  12  -5   2    1.96    0.69
  13  -5   2    0.27    0.66
  14  -5   2    5.24    1.38
  15  -5   2    2.04    1.08
 -16  -4   2    0.03    0.82
 -15  -4   2   12.35    1.94
 -14  -4   2    2.24    0.90
 -13  -4   2   -0.15    0.53
 -12  -4   2  109.94    4.32
 -11  -4   2    2.18    0.72
 -10  -4   2    7.13    1.22
  -9  -4   2    2.45    0.70
  -8  -4   2    0.84    0.46
  -7  -4   2    1.15    0.54
  -6  -4   2   42.52    1.43
  -5  -4   2    6.43    0.66
  -4  -4   2   58.08    1.60
  -3  -4   2    3.52    0.46
  -2  -4   2  119.51    2.42
  -1  -4   2    1.53    0.23
   0  -4   2   85.40    1.50
   1  -4   2    1.76    0.25
   2  -4   2  123.65    1.77
   3  -4   2    3.34    0.34
   4  -4   2   58.30    1.31
   5  -4   2    5.82    0.53
   6  -4   2   43.10    1.29
   7  -4   2    1.82    0.52
   8  -4   2    0.48    0.36
   9  -4   2    3.36    0.73
  10  -4   2    9.41    1.19
  11  -4   2    2.11    0.67
  12  -4   2  104.26    4.59
  13  -4   2   -0.17    0.59
  14  -4   2    2.07    0.99
  15  -4   2   13.59    2.14
  16  -4   2    1.16    1.04
 -16  -3   2    4.06    1.23
 -15  -3   2    9.58    1.78
 -14  -3   2    2.16    0.86
 -13  -3   2    7.21    1.29
 -12  -3   2   -0.27    0.43
 -11  -3   2    8.77    1.35
 -10  -3   2    0.26    0.40
  -9  -3   2  120.76    3.95
  -8  -3   2   28.24    2.21
  -7  -3   2   12.59    1.35
  -6  -3   2  120.54    2.67
  -5  -3   2    6.85    0.60
  -4  -3   2   24.77    0.91
  -3  -3   2   50.33    1.20
  -2  -3   2    1.52    0.25
  -1  -3   2  119.42    1.73
   0  -3   2    0.11    0.10
   1  -3   2  117.32    1.63
   2  -3   2    1.83    0.25
   3  -3   2   48.32    1.02
   4  -3   2   23.63    0.82
   5  -3   2    6.74    0.55
   6  -3   2  117.12    2.26
   7  -3   2   10.44    1.06
   8  -3   2   24.09    1.67
   9  -3   2  116.01    3.38
  10  -3   2    0.47    0.42
  11  -3   2    8.41    1.44
  12  -3   2    0.11    0.58
  13  -3   2    9.44    1.74
  14  -3   2    1.41    0.88
  15  -3   2    7.98    1.63
  16  -3   2    3.46    1.39
 -16  -2   2    0.59    0.91
 -15  -2   2   32.82    3.08
 -14  -2   2    5.84    1.35
 -13  -2   2    1.91    0.84
 -12  -2   2    6.49    1.30
 -11  -2   2    5.03    1.07
 -10  -2   2   11.54    1.49
  -9  -2   2   34.88    2.01
  -8  -2   2    2.24    0.63
  -7  -2   2   51.66    2.23
  -6  -2   2   27.61    1.52
  -5  -2   2   37.46    0.92
  -4  -2   2  119.45    1.87
  -3  -2   2  108.22    1.92
  -2  -2   2   12.52    0.59
  -1  -2   2    0.92    0.20
   0  -2   2    1.82    0.21
   1  -2   2    0.55    0.15
   2  -2   2   13.10    0.60
   3  -2   2  105.04    1.57
   4  -2   2  120.14    1.92
   5  -2   2   34.98    1.10
   6  -2   2   28.85    1.06
   7  -2   2   51.43    1.43
   8  -2   2    1.79    0.51
   9  -2   2   37.17    2.48
  10  -2   2   12.96    1.70
  11  -2   2    5.27    1.20
  12  -2   2    5.99    1.27
  13  -2   2    1.25    0.75
  14  -2   2    4.60    1.25
  15  -2   2   35.33    3.40
  16  -2   2    0.83    0.97
 -16  -1   2   12.54    2.14
 -15  -1   2    0.64    0.74
 -14  -1   2    0.62    0.67
 -13  -1   2   33.58    2.90
 -12  -1   2   10.42    1.46
 -11  -1   2   13.26    1.67
 -10  -1   2   -0.13    0.39
  -9  -1   2    8.57    1.26
  -8  -1   2   -0.02    0.27
  -7  -1   2    4.68    0.79
  -6  -1   2  102.33    2.49
  -5  -1   2   18.36    1.06
  -4  -1   2   71.65    1.83
  -3  -1   2  105.36    2.22
  -2  -1   2   20.02    0.64
  -1  -1   2    3.03    0.29
   0  -1   2    0.16    0.10
   1  -1   2    3.27    0.29
   2  -1   2   21.23    0.60
   3  -1   2  106.65    1.55
   4  -1   2   71.87    1.58
   5  -1   2   16.37    0.84
   6  -1   2  102.29    2.10
   7  -1   2    4.50    0.58
   8  -1   2   -0.02    0.33
   9  -1   2   10.94    1.49
  10  -1   2   -0.35    0.36
  11  -1   2   13.00    1.85
  12  -1   2    9.95    1.66
  13  -1   2   23.66    2.63
  14  -1   2    1.62    0.85
  15  -1   2   -0.52    0.65
  16  -1   2    6.59    1.59
 -16   0   2    2.35    1.09
 -15   0   2    0.03    0.68
 -14   0   2   26.63    2.69
 -13   0   2   -0.13    0.43
 -12   0   2   38.18    2.96
 -11   0   2    0.06    0.41
 -10   0   2  113.42    3.91
  -9   0   2   -0.19    0.35
  -8   0   2   82.78    2.93
  -7   0   2    0.01    0.22
  -6   0   2    0.56    0.29
  -5   0   2    0.13    0.18
  -4   0   2    1.94    0.35
  -3   0   2    0.10    0.15
  -2   0   2    4.54    0.44
  -1   0   2   -0.07    0.11
   0   0   2  974.76    9.77
   1   0   2   -0.16    0.08
   2   0   2    3.38    0.32
   3   0   2    0.15    0.14
   4   0   2    2.13    0.38
   5   0   2   -0.16    0.14
   6   0   2    1.10    0.33
   7   0   2    0.02    0.19
   8   0   2   82.03    2.23
   9   0   2   -0.16    0.42
  10   0   2  115.70    4.24
  11   0   2   -0.01    0.42
  12   0   2   35.63    3.03
  13   0   2    0.11    0.49
  14   0   2   24.97    2.77
  15   0   2   -0.20    0.66
  16   0   2    2.29    1.17
 -16   1   2   11.30    1.98
 -15   1   2   -0.07    0.74
 -14   1   2    0.57    0.71
 -13   1   2   28.63    2.70
 -12   1   2   10.95    1.60
 -11   1   2   11.70    1.57
 -10   1   2   -0.01    0.38
  -9   1   2    8.14    1.09
  -8   1   2    0.10    0.25
  -7   1   2    3.86    0.56
  -6   1   2  106.03    2.42
  -5   1   2   16.87    0.95
  -4   1   2   73.42    1.74
  -3   1   2  107.72    2.07
  -2   1   2   20.97    0.74
  -1   1   2    2.82    0.30
   0   1   2   -0.03    0.09
   1   1   2    3.12    0.38
   2   1   2   20.36    0.78
   3   1   2  106.18    1.81
   4   1   2   73.04    1.89
   5   1   2   18.62    1.08
   6   1   2  109.57    2.53
   7   1   2    4.60    0.60
   8   1   2    0.10    0.23
   9   1   2    8.34    1.35
  10   1   2   -0.22    0.38
  11   1   2   16.89    1.99
  12   1   2    9.37    1.58
  13   1   2   29.25    2.88
  14   1   2    0.62    0.73
  15   1   2    0.53    0.78
  16   1   2   12.07    2.11
 -16   2   2    0.00    0.83
 -15   2   2   39.75    3.42
 -14   2   2    6.08    1.35
 -13   2   2    1.55    0.72
 -12   2   2    6.35    1.23
 -11   2   2    5.78    1.12
 -10   2   2   14.17    1.60
  -9   2   2   37.10    1.57
  -8   2   2    2.99    0.54
  -7   2   2   47.66    1.62
  -6   2   2   29.75    1.18
  -5   2   2   34.18    1.20
  -4   2   2  116.72    2.28
  -3   2   2  109.38    2.00
  -2   2   2   12.69    0.51
  -1   2   2    1.51    0.38
   0   2   2    1.73    0.37
   1   2   2    1.15    0.25
   2   2   2   11.89    0.60
   3   2   2  103.82    2.84
   4   2   2  115.84    2.56
   5   2   2   35.23    1.33
   6   2   2   28.52    1.25
   7   2   2   46.79    1.70
   8   2   2    3.91    0.61
   9   2   2   35.66    1.63
  10   2   2   13.70    1.69
  11   2   2    4.13    1.05
  12   2   2    7.72    1.49
  13   2   2    2.45    0.95
  14   2   2    5.46    1.40
  15   2   2   36.74    3.42
  16   2   2    1.83    0.99
 -16   3   2    4.82    2.04
 -15   3   2   11.37    2.87
 -14   3   2    2.20    0.86
 -13   3   2    9.70    1.58
 -12   3   2    1.56    0.71
 -11   3   2    7.42    1.23
 -10   3   2    0.60    0.48
  -9   3   2  119.98    2.97
  -8   3   2   27.48    1.33
  -7   3   2   11.64    0.98
  -6   3   2  121.64    2.60
  -5   3   2    6.17    0.62
  -4   3   2   24.71    0.92
  -3   3   2   50.53    1.18
  -2   3   2    1.37    0.39
  -1   3   2  116.95    2.80
   0   3   2    0.08    0.18
   1   3   2  117.64    2.17
   2   3   2    2.36    0.27
   3   3   2   50.57    1.92
   4   3   2   22.63    1.31
   5   3   2    6.55    0.90
   6   3   2  120.07    2.81
   7   3   2   11.05    1.03
   8   3   2   26.03    1.47
   9   3   2  123.34    3.11
  10   3   2    0.21    0.40
  11   3   2    7.48    1.34
  12   3   2    0.32    0.48
  13   3   2   10.23    1.66
  14   3   2    1.96    0.89
  15   3   2   13.08    2.09
  16   3   2    7.02    1.69
 -16   4   2    2.16    1.74
 -15   4   2   10.39    2.67
 -14   4   2    5.03    1.82
 -13   4   2    1.22    0.94
 -12   4   2  109.97    4.28
 -11   4   2    2.42    0.81
 -10   4   2    7.97    1.21
  -9   4   2    3.03    0.73
  -8   4   2    0.68    0.30
  -7   4   2    2.04    0.44
  -6   4   2   45.03    1.48
  -5   4   2    6.05    0.62
  -4   4   2   56.87    1.46
  -3   4   2    3.05    0.33
  -2   4   2  121.74    3.04
  -1   4   2    1.66    0.41
   0   4   2   86.17    2.21
   1   4   2    1.25    0.26
   2   4   2  126.23    3.27
   3   4   2    3.58    0.66
   4   4   2   57.39    2.19
   5   4   2    5.28    0.83
   6   4   2   41.03    1.95
   7   4   2    2.65    0.67
   8   4   2    0.28    0.35
   9   4   2    3.29    0.62
  10   4   2    8.42    1.02
  11   4   2    3.73    1.00
  12   4   2  111.12    4.41
  13   4   2    0.10    0.58
  14   4   2    3.95    1.16
  15   4   2   13.04    2.85
  16   4   2    2.88    1.47
 -15   5   2    0.41    1.24
 -14   5   2    6.02    2.09
 -13   5   2   -0.47    0.82
 -12   5   2    2.61    1.37
 -11   5   2    4.55    1.61
 -10   5   2   25.36    2.20
  -9   5   2   34.28    2.12
  -8   5   2    0.23    0.29
  -7   5   2    6.14    0.74
  -6   5   2  107.82    2.45
  -5   5   2   14.51    0.87
  -4   5   2   13.47    0.75
  -3   5   2    0.25    0.15
  -2   5   2   67.48    2.20
  -1   5   2   37.05    1.52
   0   5   2    0.43    0.26
   1   5   2   39.62    1.30
   2   5   2   64.76    2.33
   3   5   2    0.13    0.25
   4   5   2   10.82    1.14
   5   5   2   11.90    1.28
   6   5   2  105.87    3.37
   7   5   2    6.15    0.96
   8   5   2    0.06    0.37
   9   5   2   31.71    2.36
  10   5   2   24.62    2.16
  11   5   2   10.00    2.37
  12   5   2    3.17    1.49
  13   5   2    0.11    1.04
  14   5   2    9.97    2.68
  15   5   2    1.30    1.41
  16   5   2    5.40    2.46
 -15   6   2   19.07    3.67
 -14   6   2   -0.06    1.06
 -13   6   2    8.00    2.39
 -12   6   2    0.64    0.92
 -11   6   2    1.10    1.06
 -10   6   2   14.68    2.66
  -9   6   2   23.41    3.26
  -8   6   2   46.01    3.60
  -7   6   2   43.88    2.04
  -6   6   2    4.55    0.78
  -5   6   2   41.86    1.91
  -4   6   2    2.67    0.61
  -3   6   2  180.05    4.20
  -2   6   2   46.81    1.87
  -1   6   2    1.59    0.45
   0   6   2   81.32    2.27
   1   6   2    1.22    0.32
   2   6   2   48.71    2.05
   3   6   2  177.17    4.37
   4   6   2    1.41    0.47
   5   6   2   40.51    2.00
   6   6   2    4.05    0.82
   7   6   2   45.16    2.24
   8   6   2   50.22    2.43
   9   6   2   25.65    2.18
  10   6   2   16.05    1.73
  11   6   2    1.32    0.72
  12   6   2    0.42    0.87
  13   6   2    4.78    1.67
  14   6   2    0.30    1.17
  15   6   2   20.01    3.70
 -15   7   2   -0.05    1.35
 -14   7   2    2.05    1.51
 -13   7   2   22.94    3.79
 -12   7   2    0.45    0.80
 -11   7   2    9.03    2.18
 -10   7   2    0.39    0.65
  -9   7   2   45.86    3.87
  -8   7   2   11.18    2.21
  -7   7   2   32.20    1.89
  -6   7   2   10.89    1.30
  -5   7   2   16.10    1.54
  -4   7   2    5.14    0.83
  -3   7   2   95.51    2.95
  -2   7   2    9.08    0.98
  -1   7   2   21.93    1.36
   0   7   2    0.06    0.22
   1   7   2   23.88    1.29
   2   7   2    6.97    1.43
   3   7   2   93.07    3.10
   4   7   2    5.48    0.87
   5   7   2   15.21    1.56
   6   7   2    8.00    1.17
   7   7   2   26.46    2.14
   8   7   2    8.30    1.20
   9   7   2   46.12    2.50
  10   7   2    0.26    0.48
  11   7   2    5.99    1.11
  12   7   2    0.12    0.98
  13   7   2   21.73    3.55
  14   7   2    1.47    1.27
  15   7   2    0.35    1.29
 -14   8   2    3.28    1.69
 -13   8   2    1.71    1.32
 -12   8   2    7.03    2.16
 -11   8   2   10.12    2.43
 -10   8   2   37.63    4.65
  -9   8   2    5.29    1.77
  -8   8   2   29.05    3.71
  -7   8   2   23.33    3.19
  -6   8   2   13.09    1.42
  -5   8   2   16.77    1.58
  -4   8   2    5.23    0.88
  -3   8   2   36.55    1.85
  -2   8   2   -0.13    0.28
  -1   8   2   35.31    1.71
   0   8   2  130.17    3.41
   1   8   2   36.73    2.77
   2   8   2    0.04    0.46
   3   8   2   36.67    1.91
   4   8   2    2.76    0.64
   5   8   2   14.63    1.56
   6   8   2   12.55    1.50
   7   8   2   18.25    1.85
   8   8   2   26.95    2.30
   9   8   2    4.33    1.01
  10   8   2   34.97    2.81
  11   8   2   11.63    1.65
  12   8   2    6.86    1.97
  13   8   2    1.02    1.19
  14   8   2    2.53    1.56
  15   8   2    0.91    1.87
 -14   9   2   10.90    3.12
 -13   9   2   -0.07    1.02
 -12   9   2    0.85    1.13
 -11   9   2   12.27    2.71
 -10   9   2   12.26    2.74
  -9   9   2    0.91    0.87
  -8   9   2    0.62    0.91
  -7   9   2   34.72    4.00
  -6   9   2   81.88    3.08
  -5   9   2   10.86    1.35
  -4   9   2    2.51    0.70
  -3   9   2   36.51    1.89
  -2   9   2   20.73    1.75
  -1   9   2    1.57    0.51
   0   9   2    0.51    0.63
   1   9   2    0.92    0.67
   2   9   2   16.77    2.45
   3   9   2   24.84    3.02
   4   9   2    3.15    0.78
   5   9   2   10.51    1.35
   6   9   2   82.58    3.31
   7   9   2   31.50    2.56
   8   9   2    1.42    0.69
   9   9   2    0.75    0.60
  10   9   2   10.88    1.64
  11   9   2    8.38    1.41
  12   9   2    2.23    0.97
 -13  10   2   13.83    3.18
 -12  10   2   41.10    5.23
 -11  10   2    2.80    1.50
 -10  10   2    2.09    1.45
  -9  10   2    5.96    1.89
  -8  10   2    2.77    1.30
  -7  10   2    8.30    2.04
  -6  10   2   11.92    1.53
  -5  10   2    2.62    0.74
  -4  10   2   49.47    2.36
  -3  10   2   40.48    2.11
  -2  10   2   21.07    1.85
  -1  10   2   21.75    2.65
   0  10   2    0.68    0.68
   1  10   2   17.53    2.54
   2  10   2   16.23    2.51
   3  10   2   33.36    3.72
   4  10   2   53.41    4.03
   5  10   2    1.58    0.63
   6  10   2    8.51    1.36
   7  10   2    6.06    1.18
   8  10   2    2.08    0.77
   9  10   2    4.04    1.55
  10  10   2    0.04    0.85
  11  10   2    0.59    1.11
  12  10   2   33.74    4.43
 -12  11   2    0.29    1.08
 -11  11   2   -0.74    0.86
 -10  11   2    9.69    2.57
  -9  11   2   35.63    4.74
  -8  11   2   -0.25    0.73
  -7  11   2    4.96    1.78
  -6  11   2    0.07    1.01
  -5  11   2    2.33    0.74
  -4  11   2    4.49    0.94
  -3  11   2   18.10    1.80
  -2  11   2   14.79    2.26
  -1  11   2   58.53    3.74
   0  11   2    0.12    0.51
   1  11   2   55.01    3.94
   2  11   2   15.12    2.58
   3  11   2   15.35    2.75
   4  11   2    4.50    1.58
   5  11   2    0.29    0.78
   6  11   2    0.03    0.74
   7  11   2    2.17    1.23
   8  11   2    1.83    1.26
   9  11   2   30.94    4.29
  10  11   2   11.76    2.69
  11  11   2    0.44    1.12
  12  11   2    0.75    1.20
 -12  12   2   20.11    3.95
 -11  12   2   15.85    3.54
 -10  12   2    0.19    1.11
  -9  12   2   -0.62    1.01
  -8  12   2    6.33    1.95
  -7  12   2   29.52    4.09
  -6  12   2   15.27    2.93
  -5  12   2    1.34    0.70
  -4  12   2    8.45    1.31
  -3  12   2   12.61    2.12
  -2  12   2   26.59    3.18
  -1  12   2   27.51    3.33
   0  12   2   15.83    2.56
   1  12   2   26.59    3.59
   2  12   2   35.91    4.13
   3  12   2   15.26    2.90
   4  12   2    6.07    1.82
   5  12   2    0.94    0.91
   6  12   2    9.19    2.33
   7  12   2   17.21    3.37
   8  12   2    3.31    1.68
   9  12   2   -0.55    0.92
  10  12   2    1.05    1.25
  11  12   2   14.85    3.04
  12  12   2   24.97    4.01
 -11  13   2   -0.52    1.24
 -10  13   2    1.45    1.38
  -9  13   2    0.33    1.07
  -8  13   2    0.69    0.91
  -7  13   2    8.56    2.38
  -6  13   2   38.01    4.68
  -5  13   2   57.44    4.55
  -4  13   2   16.61    2.52
  -3  13   2    1.22    0.98
  -2  13   2    2.56    1.07
  -1  13   2    3.01    1.20
   0  13   2   -0.10    0.65
   1  13   2    0.41    0.78
   2  13   2    3.15    1.32
   3  13   2   -0.25    0.69
   4  13   2   16.45    3.13
   5  13   2   61.70    6.46
   6  13   2   35.00    4.78
   7  13   2    5.29    1.94
   8  13   2    1.11    1.18
   9  13   2   -0.66    1.04
  10  13   2    1.34    1.50
  11  13   2    0.72    1.25
 -10  14   2    8.77    2.84
  -9  14   2    2.30    1.61
  -8  14   2   46.90    5.61
  -7  14   2    0.77    1.29
  -6  14   2    0.70    1.42
  -3  14   2    0.42    0.76
  -2  14   2    1.27    1.05
  -1  14   2    7.30    1.81
   0  14   2   76.90    5.08
   1  14   2    8.16    2.12
   2  14   2    2.21    1.10
   3  14   2    0.30    0.85
   4  14   2    8.56    2.28
   5  14   2    1.47    1.24
   6  14   2   -0.59    1.00
   7  14   2   -0.64    1.00
   8  14   2   29.22    4.66
   9  14   2    6.79    2.42
  10  14   2    7.38    2.45
  -9  15   2    3.43    2.03
  -8  15   2    9.60    2.73
  -3  15   2   11.96    2.43
  -2  15   2   12.47    2.42
  -1  15   2    0.68    0.83
   0  15   2   -0.12    0.77
   1  15   2    0.12    0.88
   2  15   2   12.62    2.70
   3  15   2   11.61    2.65
   4  15   2    2.45    1.38
   5  15   2    0.90    1.25
   6  15   2   -0.49    1.00
   7  15   2   -0.55    1.00
   8  15   2    6.26    2.29
  -2  16   2    2.34    1.19
  -1  16   2    8.00    2.14
   0  16   2   24.38    3.75
   1  16   2    2.82    1.48
   2  16   2    0.81    1.16
   3  16   2    6.42    2.19
   4  16   2   28.78    4.37
   5  16   2    1.80    1.44
   6  16   2    0.15    1.13
  -2  17   2    1.54    1.42
  -1  17   2    4.15    1.82
   0  17   2   -0.48    1.11
   1  17   2    8.77    2.41
   2  17   2    1.88    1.50
   3  17   2    0.49    1.30
   4  17   2    2.80    2.70
  -2 -16   3   13.14    3.43
  -1 -16   3    3.54    1.09
   0 -16   3   20.10    2.24
   1 -16   3    4.96    1.65
   2 -16   3   12.37    2.96
   3 -16   3    8.08    2.58
  -6 -15   3   18.39    4.05
  -5 -15   3   20.15    2.56
  -4 -15   3    5.83    1.50
  -3 -15   3    4.06    1.35
  -2 -15   3    0.95    0.74
  -1 -15   3    1.02    0.68
   0 -15   3   -0.03    0.55
   1 -15   3   -0.17    0.71
   2 -15   3    1.48    0.87
   3 -15   3    5.49    1.44
   4 -15   3    9.15    1.66
   5 -15   3   20.71    2.55
  -8 -14   3   17.92    3.96
  -7 -14   3    0.70    0.85
  -6 -14   3    0.43    0.76
  -5 -14   3    0.75    0.79
  -4 -14   3   18.77    2.42
  -3 -14   3   -0.20    0.68
  -2 -14   3    2.03    0.83
  -1 -14   3    6.08    1.07
   0 -14   3   28.07    2.29
   1 -14   3    7.01    1.21
   2 -14   3    1.41    0.90
   3 -14   3    0.52    0.78
   4 -14   3   16.28    2.24
   5 -14   3    1.71    0.96
   6 -14   3    0.42    0.77
   7 -14   3   -0.05    0.87
  -9 -13   3    2.55    1.29
  -8 -13   3    8.80    1.71
  -7 -13   3    3.85    1.25
  -6 -13   3    0.13    0.73
  -5 -13   3    0.17    0.64
  -4 -13   3    1.35    0.74
  -3 -13   3   40.26    3.43
  -2 -13   3   16.44    1.76
  -1 -13   3   -0.22    0.40
   0 -13   3    0.01    0.45
   1 -13   3    0.27    0.50
   2 -13   3   15.26    1.66
   3 -13   3   38.28    3.23
   4 -13   3    1.51    0.85
   5 -13   3    0.95    0.79
   6 -13   3    0.30    0.69
   7 -13   3    3.73    1.13
   8 -13   3    9.31    1.44
   9 -13   3    4.91    2.05
 -10 -12   3   10.08    1.74
  -9 -12   3    2.92    1.12
  -8 -12   3    0.29    0.70
  -7 -12   3   12.58    1.99
  -6 -12   3   -0.35    0.51
  -5 -12   3    7.16    1.42
  -4 -12   3   17.56    2.23
  -3 -12   3   11.13    1.76
  -2 -12   3    2.23    0.67
  -1 -12   3    1.80    0.63
   0 -12   3   14.36    1.58
   1 -12   3    1.12    0.54
   2 -12   3    1.01    0.55
   3 -12   3    9.56    1.63
   4 -12   3   20.06    2.21
   5 -12   3    7.50    1.47
   6 -12   3    0.34    0.53
   7 -12   3    7.44    1.26
   8 -12   3    2.54    0.89
   9 -12   3    1.50    0.96
  10 -12   3    9.13    1.98
 -11 -11   3   -0.10    0.77
 -10 -11   3    1.40    0.93
  -9 -11   3   13.02    2.04
  -8 -11   3   -0.60    0.63
  -7 -11   3   54.91    3.62
  -6 -11   3   16.69    2.15
  -5 -11   3    7.90    1.48
  -4 -11   3    5.93    1.22
  -3 -11   3    0.05    0.46
  -2 -11   3    7.01    1.08
  -1 -11   3   31.12    2.23
   0 -11   3    0.29    0.40
   1 -11   3   30.19    2.22
   2 -11   3    7.50    1.09
   3 -11   3    0.02    0.38
   4 -11   3    5.65    1.33
   5 -11   3    7.70    1.19
   6 -11   3   18.66    1.84
   7 -11   3   49.31    3.08
   8 -11   3    0.09    0.59
   9 -11   3   14.91    2.14
  10 -11   3    1.38    0.85
  11 -11   3   -0.37    0.89
 -12 -10   3    6.40    1.52
 -11 -10   3   25.11    2.85
 -10 -10   3    0.09    0.70
  -9 -10   3    1.96    0.93
  -8 -10   3    2.62    0.97
  -7 -10   3    0.37    0.58
  -6 -10   3    9.53    1.59
  -5 -10   3    1.28    0.64
  -4 -10   3   46.10    2.72
  -3 -10   3    3.28    0.94
  -2 -10   3    0.22    0.35
  -1 -10   3   33.92    1.97
   0 -10   3   11.51    1.27
   1 -10   3   36.11    2.09
   2 -10   3    0.01    0.38
   3 -10   3    3.78    0.80
   4 -10   3   50.33    2.27
   5 -10   3    0.85    0.51
   6 -10   3   13.60    1.55
   7 -10   3    0.34    0.51
   8 -10   3    1.19    0.79
   9 -10   3    2.76    0.99
  10 -10   3    0.18    0.77
  11 -10   3   25.28    2.96
  12 -10   3    3.89    2.18
 -12  -9   3    1.13    0.95
 -11  -9   3    0.87    0.80
 -10  -9   3   18.35    2.40
  -9  -9   3   36.45    3.28
  -8  -9   3   15.78    2.09
  -7  -9   3    1.98    0.86
  -6  -9   3   11.52    1.70
  -5  -9   3   40.69    3.11
  -4  -9   3    0.30    0.48
  -3  -9   3    0.34    0.42
  -2  -9   3   77.52    2.58
  -1  -9   3   17.77    1.51
   0  -9   3   -0.04    0.28
   1  -9   3   16.19    1.47
   2  -9   3   72.29    2.58
   3  -9   3   -0.04    0.29
   4  -9   3    0.25    0.37
   5  -9   3   38.77    2.41
   6  -9   3   11.55    1.34
   7  -9   3    1.62    0.63
   8  -9   3   16.53    2.13
   9  -9   3   35.44    3.15
  10  -9   3   13.27    2.07
  11  -9   3    0.69    0.71
  12  -9   3    2.59    1.16
 -13  -8   3    0.39    0.86
 -12  -8   3    2.61    1.04
 -11  -8   3    8.88    1.58
 -10  -8   3    0.60    0.65
  -9  -8   3   11.63    1.77
  -8  -8   3   26.96    2.60
  -7  -8   3   11.87    1.77
  -6  -8   3    0.04    0.46
  -5  -8   3   16.51    1.90
  -4  -8   3   16.26    1.85
  -3  -8   3   16.48    1.80
  -2  -8   3   30.44    1.72
  -1  -8   3   15.01    1.34
   0  -8   3   12.96    1.23
   1  -8   3   14.78    1.32
   2  -8   3   35.07    1.44
   3  -8   3   16.38    1.27
   4  -8   3   15.87    1.26
   5  -8   3   15.34    1.45
   6  -8   3    0.10    0.38
   7  -8   3   12.99    1.47
   8  -8   3   29.06    2.75
   9  -8   3    8.52    1.58
  10  -8   3    0.96    0.73
  11  -8   3    7.13    1.53
  12  -8   3    4.00    1.26
  13  -8   3    1.39    1.06
 -14  -7   3    0.32    1.32
 -13  -7   3   39.20    3.62
 -12  -7   3    0.05    0.65
 -11  -7   3    3.04    1.07
 -10  -7   3    0.03    0.56
  -9  -7   3    0.64    0.62
  -8  -7   3    7.33    1.32
  -7  -7   3    7.14    1.28
  -6  -7   3    8.57    1.27
  -5  -7   3  127.34    4.34
  -4  -7   3    2.31    0.78
  -3  -7   3    9.07    1.29
  -2  -7   3    5.48    0.77
  -1  -7   3    2.05    0.48
   0  -7   3    0.40    0.28
   1  -7   3    1.68    0.39
   2  -7   3    6.55    0.70
   3  -7   3   10.71    0.98
   4  -7   3    1.61    0.38
   5  -7   3  130.86    2.94
   6  -7   3    6.69    0.80
   7  -7   3   10.01    1.04
   8  -7   3    8.25    1.15
   9  -7   3    0.01    0.42
  10  -7   3    0.51    0.47
  11  -7   3    4.05    0.97
  12  -7   3   -0.42    0.52
  13  -7   3   31.37    2.69
  14  -7   3   -1.03    1.46
 -14  -6   3   -0.67    0.74
 -13  -6   3   30.45    3.08
 -12  -6   3    2.71    0.99
 -11  -6   3   47.72    3.23
 -10  -6   3    8.19    1.49
  -9  -6   3   -0.24    0.45
  -8  -6   3   21.14    2.14
  -7  -6   3    7.89    1.31
  -6  -6   3    1.82    0.68
  -5  -6   3    5.59    1.02
  -4  -6   3   -0.26    0.30
  -3  -6   3    1.49    0.56
  -2  -6   3    1.50    0.36
  -1  -6   3  115.51    2.85
   0  -6   3   48.62    1.79
   1  -6   3  114.76    2.43
   2  -6   3    1.23    0.30
   3  -6   3    1.11    0.29
   4  -6   3    0.18    0.23
   5  -6   3    6.92    0.76
   6  -6   3    1.07    0.39
   7  -6   3    7.86    1.05
   8  -6   3   25.53    1.92
   9  -6   3    0.04    0.44
  10  -6   3    7.06    1.14
  11  -6   3   47.56    3.08
  12  -6   3    2.71    0.88
  13  -6   3   29.12    3.23
  14  -6   3   -0.69    1.08
 -14  -5   3   11.83    2.00
 -13  -5   3    0.61    0.83
 -12  -5   3    3.81    1.11
 -11  -5   3    4.79    1.22
 -10  -5   3   35.61    2.93
  -9  -5   3    4.35    1.04
  -8  -5   3    5.29    1.11
  -7  -5   3   41.62    2.35
  -6  -5   3   21.30    2.02
  -5  -5   3    0.90    0.51
  -4  -5   3    1.28    0.48
  -3  -5   3   39.38    2.06
  -2  -5   3   87.56    2.31
  -1  -5   3    3.72    0.52
   0  -5   3    0.13    0.18
   1  -5   3    4.24    0.47
   2  -5   3   88.16    1.67
   3  -5   3   45.35    1.19
   4  -5   3    1.45    0.31
   5  -5   3    0.38    0.26
   6  -5   3   20.27    1.36
   7  -5   3   40.59    2.02
   8  -5   3    5.51    0.93
   9  -5   3    2.83    0.73
  10  -5   3   23.98    2.05
  11  -5   3    6.41    1.15
  12  -5   3    2.52    1.13
  13  -5   3    0.60    0.95
  14  -5   3    8.38    1.83
 -15  -4   3   -0.63    1.28
 -14  -4   3   40.56    3.61
 -13  -4   3    0.33    0.65
 -12  -4   3    1.30    0.84
 -11  -4   3    2.84    0.88
 -10  -4   3    5.24    1.06
  -9  -4   3    1.81    0.69
  -8  -4   3   14.48    1.70
  -7  -4   3   11.45    1.49
  -6  -4   3   15.93    1.65
  -5  -4   3    0.47    0.33
  -4  -4   3  126.78    3.76
  -3  -4   3    4.80    0.71
  -2  -4   3   12.45    0.87
  -1  -4   3   13.40    0.90
   0  -4   3    4.93    0.49
   1  -4   3   12.47    0.71
   2  -4   3   11.99    0.72
   3  -4   3    4.35    0.43
   4  -4   3  126.39    2.10
   5  -4   3    0.10    0.20
   6  -4   3   19.64    1.54
   7  -4   3    9.71    1.37
   8  -4   3   19.79    1.70
   9  -4   3    2.57    0.73
  10  -4   3    5.62    1.01
  11  -4   3    4.86    1.26
  12  -4   3    2.48    1.11
  13  -4   3    0.60    0.81
  14  -4   3   28.44    3.28
 -14  -3   3    1.48    0.98
 -13  -3   3   -0.18    0.62
 -12  -3   3   -0.19    0.58
 -11  -3   3    4.45    1.08
 -10  -3   3   21.90    2.21
  -9  -3   3   27.24    2.37
  -8  -3   3   26.22    2.28
  -7  -3   3  100.23    4.73
  -6  -3   3    0.77    0.47
  -5  -3   3   52.33    1.93
  -4  -3   3   15.15    1.20
  -3  -3   3    5.50    0.73
  -2  -3   3   73.91    2.12
  -1  -3   3  112.78    2.18
   0  -3   3   -0.06    0.17
   1  -3   3  114.06    1.82
   2  -3   3   71.69    1.43
   3  -3   3    4.36    0.43
   4  -3   3   14.52    0.80
   5  -3   3   49.28    1.54
   6  -3   3    1.01    0.33
   7  -3   3  104.49    3.10
   8  -3   3   22.84    1.80
   9  -3   3   24.36    2.43
  10  -3   3   19.02    2.17
  11  -3   3    4.03    1.13
  12  -3   3    0.43    0.64
  13  -3   3    0.37    0.82
  14  -3   3    3.66    1.37
 -15  -2   3    0.64    1.43
 -14  -2   3    0.50    1.09
 -13  -2   3    5.50    1.41
 -12  -2   3   21.27    2.34
 -11  -2   3   49.55    2.94
 -10  -2   3    1.87    0.64
  -9  -2   3    0.27    0.42
  -8  -2   3   -0.13    0.37
  -7  -2   3   23.01    1.63
  -6  -2   3    0.79    0.36
  -5  -2   3    2.27    0.51
  -4  -2   3   20.35    1.25
  -3  -2   3   10.08    0.93
  -2  -2   3   23.81    1.15
  -1  -2   3  112.99    2.08
   0  -2   3    0.12    0.16
   1  -2   3  113.19    1.95
   2  -2   3   22.26    0.79
   3  -2   3   11.16    0.66
   4  -2   3   18.63    0.94
   5  -2   3    2.50    0.44
   6  -2   3    1.22    0.35
   7  -2   3   25.16    2.24
   8  -2   3    0.15    0.48
   9  -2   3    1.88    0.72
  10  -2   3    3.28    0.93
  11  -2   3   48.31    3.78
  12  -2   3   16.30    2.26
  13  -2   3    7.01    1.57
  14  -2   3   -0.14    0.76
  15  -2   3    1.45    1.17
 -15  -1   3    5.41    2.06
 -14  -1   3   11.06    2.68
 -13  -1   3   10.09    2.55
 -12  -1   3    2.04    1.14
 -11  -1   3    8.60    1.44
 -10  -1   3   35.95    2.41
  -9  -1   3    1.25    0.57
  -8  -1   3   22.95    1.65
  -7  -1   3    0.08    0.27
  -6  -1   3    0.08    0.27
  -5  -1   3  131.76    3.00
  -4  -1   3   12.93    1.04
  -3  -1   3   35.04    1.34
  -2  -1   3   32.38    1.25
  -1  -1   3    0.73    0.29
   0  -1   3    0.18    0.21
   1  -1   3    1.15    0.27
   2  -1   3   30.06    1.05
   3  -1   3   35.10    1.19
   4  -1   3   11.87    0.86
   5  -1   3  125.07    3.02
   6  -1   3    0.24    0.26
   7  -1   3   -0.01    0.26
   8  -1   3   19.75    2.08
   9  -1   3    0.34    0.56
  10  -1   3   37.16    3.09
  11  -1   3    6.55    1.38
  12  -1   3    1.18    0.72
  13  -1   3   13.39    2.11
  14  -1   3   11.71    2.05
  15  -1   3    6.41    1.62
 -15   0   3   -0.31    1.06
 -14   0   3   18.55    3.71
 -13   0   3   -0.62    0.78
 -12   0   3    0.09    0.85
 -11   0   3    0.15    0.74
 -10   0   3    2.19    1.28
  -9   0   3    0.40    0.47
  -8   0   3  151.06    3.65
  -7   0   3    0.10    0.26
  -6   0   3   13.41    1.11
  -5   0   3    0.23    0.23
  -4   0   3  104.38    2.44
  -3   0   3    0.17    0.20
  -2   0   3   95.49    2.16
  -1   0   3   -0.04    0.17
   0   0   3    9.71    0.76
   1   0   3    0.01    0.16
   2   0   3   92.94    2.27
   3   0   3   -0.25    0.18
   4   0   3  102.58    2.15
   5   0   3   -0.15    0.20
   6   0   3   13.33    1.16
   7   0   3   -0.02    0.23
   8   0   3  146.58    4.86
   9   0   3    0.09    0.44
  10   0   3    2.88    0.94
  11   0   3    0.22    0.64
  12   0   3    0.63    0.67
  13   0   3   -0.17    0.65
  14   0   3   15.94    2.48
  15   0   3    0.45    0.90
 -15   1   3    6.81    2.69
 -14   1   3   17.07    3.49
 -13   1   3   12.88    3.01
 -12   1   3    6.30    2.03
 -11   1   3    8.00    2.12
 -10   1   3   36.60    4.27
  -9   1   3    0.25    0.51
  -8   1   3   16.75    1.76
  -7   1   3    0.02    0.34
  -6   1   3    0.17    0.30
  -5   1   3  126.49    3.82
  -4   1   3   12.41    1.35
  -3   1   3   36.98    1.82
  -2   1   3   29.89    1.74
  -1   1   3    0.50    0.33
   0   1   3    0.08    0.16
   1   1   3    0.93    0.32
   2   1   3   33.86    1.27
   3   1   3   34.42    1.27
   4   1   3   14.02    1.36
   5   1   3  127.32    3.11
   6   1   3   -0.05    0.25
   7   1   3    0.23    0.32
   8   1   3   20.31    1.54
   9   1   3    1.06    0.57
  10   1   3   34.72    2.94
  11   1   3    7.87    1.55
  12   1   3    2.72    1.03
  13   1   3   14.15    2.01
  14   1   3   15.79    2.43
  15   1   3    6.96    1.75
 -14   2   3   -0.48    0.99
 -13   2   3    5.30    1.89
 -12   2   3   12.39    2.77
 -11   2   3   54.68    4.53
 -10   2   3    2.50    0.79
  -9   2   3    0.83    0.56
  -8   2   3    0.48    0.41
  -7   2   3   25.84    2.13
  -6   2   3    1.95    0.63
  -5   2   3    2.13    0.62
  -4   2   3   18.30    1.63
  -3   2   3   10.35    1.14
  -2   2   3   21.01    1.45
  -1   2   3  111.26    3.15
   0   2   3    0.58    0.33
   1   2   3  115.43    2.99
   2   2   3   23.71    1.11
   3   2   3   10.98    1.26
   4   2   3   20.01    1.71
   5   2   3    2.63    0.66
   6   2   3    1.82    0.56
   7   2   3   23.71    1.63
   8   2   3    0.21    0.32
   9   2   3    1.79    0.72
  10   2   3    3.78    1.02
  11   2   3   56.79    3.28
  12   2   3   17.61    2.33
  13   2   3    7.85    1.64
  14   2   3    0.12    0.77
  15   2   3    2.85    1.38
 -14   3   3    3.11    1.69
 -13   3   3   -0.18    0.91
 -12   3   3    0.31    1.03
 -11   3   3    4.01    1.64
 -10   3   3   23.75    3.52
  -9   3   3   28.64    2.33
  -8   3   3   27.11    2.23
  -7   3   3  103.00    3.56
  -6   3   3    0.23    0.37
  -5   3   3   50.12    2.29
  -4   3   3   14.28    1.43
  -3   3   3    4.78    0.83
  -2   3   3   75.01    2.55
  -1   3   3  114.50    3.17
   0   3   3   -0.05    0.21
   1   3   3  117.16    2.91
   2   3   3   69.05    2.69
   3   3   3    4.82    0.89
   4   3   3   13.19    1.41
   5   3   3   46.62    2.25
   6   3   3    0.73    0.47
   7   3   3  104.52    3.58
   8   3   3   22.97    2.01
   9   3   3   27.31    2.29
  10   3   3   14.36    2.78
  11   3   3    4.56    1.72
  12   3   3   -0.28    0.89
  13   3   3   -0.51    1.06
  14   3   3    2.40    1.70
 -14   4   3   24.93    4.16
 -13   4   3    0.68    1.09
 -12   4   3   -0.20    0.98
 -11   4   3    3.89    1.61
 -10   4   3    5.08    1.84
  -9   4   3    1.47    0.71
  -8   4   3   17.64    1.80
  -7   4   3    8.54    1.23
  -6   4   3   15.72    1.63
  -5   4   3    0.76    0.41
  -4   4   3  123.41    3.65
  -3   4   3    4.15    0.77
  -2   4   3   10.22    1.15
  -1   4   3   13.55    1.26
   0   4   3    4.57    0.72
   1   4   3    9.32    1.66
   2   4   3   12.53    1.36
   3   4   3    5.38    0.92
   4   4   3  119.07    3.77
   5   4   3    0.46    0.39
   6   4   3   15.28    1.60
   7   4   3    8.33    1.21
   8   4   3   14.67    1.66
   9   4   3    2.03    0.70
  10   4   3    3.10    1.50
  11   4   3    2.80    1.39
  12   4   3    1.24    1.06
  13   4   3   -0.30    1.10
  14   4   3   36.01    5.21
 -14   5   3   14.68    3.38
 -13   5   3    0.58    1.20
 -12   5   3    2.54    1.53
 -11   5   3    4.24    1.77
 -10   5   3   34.51    4.29
  -9   5   3    2.65    1.36
  -8   5   3    7.95    1.26
  -7   5   3   44.76    2.31
  -6   5   3   22.16    1.92
  -5   5   3    0.67    0.38
  -4   5   3    0.68    0.42
  -3   5   3   43.60    2.03
  -2   5   3   87.07    2.84
  -1   5   3    3.31    0.63
   0   5   3   -0.16    0.39
   1   5   3    6.09    1.41
   2   5   3   90.94    4.49
   3   5   3   43.32    2.18
   4   5   3    0.90    0.44
   5   5   3    0.70    0.42
   6   5   3   19.89    1.89
   7   5   3   43.71    2.39
   8   5   3    5.85    1.07
   9   5   3    2.47    0.79
  10   5   3   27.98    3.77
  11   5   3    3.27    1.50
  12   5   3    2.26    1.62
  13   5   3    0.42    1.18
  14   5   3   12.19    3.00
 -14   6   3   -0.04    1.32
 -13   6   3   28.93    4.30
 -12   6   3    2.32    1.37
 -11   6   3   55.35    4.68
 -10   6   3   10.43    2.46
  -9   6   3   -0.37    0.80
  -8   6   3   25.62    2.20
  -7   6   3    8.04    1.28
  -6   6   3    1.32    0.59
  -5   6   3    5.95    1.01
  -4   6   3    0.16    0.33
  -3   6   3    0.70    0.39
  -2   6   3    2.43    0.61
  -1   6   3  112.80    5.12
   0   6   3   44.31    3.11
   1   6   3  115.70    5.26
   2   6   3    1.05    0.64
   3   6   3    1.68    0.62
   4   6   3    0.42    0.39
   5   6   3    3.77    0.84
   6   6   3    0.69    0.46
   7   6   3    5.98    1.08
   8   6   3   20.54    2.07
   9   6   3   -0.07    0.49
  10   6   3    9.61    1.49
  11   6   3   40.84    4.96
  12   6   3    4.28    1.82
  13   6   3   36.82    5.02
  14   6   3    1.12    1.47
 -13   7   3   38.98    5.10
 -12   7   3   -0.26    0.88
 -11   7   3    3.36    1.61
 -10   7   3   -0.04    0.88
  -9   7   3    1.55    1.08
  -8   7   3    9.70    2.29
  -7   7   3   10.45    1.43
  -6   7   3    8.30    1.23
  -5   7   3  137.55    4.18
  -4   7   3    1.86    0.60
  -3   7   3    9.75    1.26
  -2   7   3    4.90    1.30
  -1   7   3    1.49    0.77
   0   7   3    0.11    0.52
   1   7   3    0.90    0.69
   2   7   3    5.33    1.39
   3   7   3   10.97    2.04
   4   7   3    3.48    0.80
   5   7   3  130.05    4.31
   6   7   3    6.06    1.16
   7   7   3    9.64    1.43
   8   7   3    8.16    1.37
   9   7   3    0.67    0.59
  10   7   3    0.98    0.75
  11   7   3    2.71    1.43
  12   7   3    0.55    1.12
  13   7   3   40.33    5.24
  14   7   3    0.47    1.65
 -13   8   3    1.89    1.49
 -12   8   3    4.43    1.85
 -11   8   3    9.58    2.68
 -10   8   3    0.38    1.15
  -9   8   3   12.44    2.76
  -8   8   3   30.33    4.10
  -7   8   3   15.33    1.65
  -6   8   3    0.19    0.43
  -5   8   3   12.46    1.57
  -4   8   3   16.09    1.69
  -3   8   3   21.21    2.67
  -2   8   3   37.57    2.98
  -1   8   3   16.28    2.41
   0   8   3   17.29    2.52
   1   8   3   15.05    2.49
   2   8   3   40.98    3.20
   3   8   3   11.71    2.08
   4   8   3   14.74    1.72
   5   8   3   12.65    1.62
   6   8   3   -0.27    0.44
   7   8   3   12.69    1.70
   8   8   3   23.71    2.34
   9   8   3   12.05    1.78
  10   8   3    0.59    0.69
  11   8   3    7.51    2.12
  12   8   3    2.41    1.59
  13   8   3    2.02    1.82
 -12   9   3    1.31    1.47
 -11   9   3    1.44    1.53
 -10   9   3   18.93    3.65
  -9   9   3   40.58    5.10
  -8   9   3   16.74    2.97
  -7   9   3    1.46    0.73
  -6   9   3    9.24    1.41
  -5   9   3   34.94    2.56
  -4   9   3   -0.33    0.45
  -3   9   3    0.50    0.59
  -2   9   3   76.22    4.39
  -1   9   3   16.56    2.47
   0   9   3   -0.19    0.50
   1   9   3   20.29    2.90
   2   9   3   70.48    4.51
   3   9   3    1.35    0.89
   4   9   3    0.63    0.69
   5   9   3   41.99    2.71
   6   9   3   10.32    1.53
   7   9   3    2.31    0.87
   8   9   3   12.34    1.73
   9   9   3   32.13    2.91
  10   9   3   15.81    2.11
  11   9   3    0.19    0.82
  12   9   3    2.39    1.72
  13   9   3    0.19    1.61
 -12  10   3    8.36    2.74
 -11  10   3   29.50    4.75
 -10  10   3    0.53    1.18
  -9  10   3    1.31    1.29
  -8  10   3    0.94    1.21
  -7  10   3    1.06    1.06
  -6  10   3   12.11    1.65
  -5  10   3    2.88    1.01
  -4  10   3   47.50    3.50
  -3  10   3    3.78    1.20
  -2  10   3    0.04    0.56
  -1  10   3   33.98    3.67
   0  10   3   11.65    2.26
   1  10   3   30.06    3.67
   2  10   3    0.03    0.60
   3  10   3    4.43    1.44
   4  10   3   39.45    4.46
   5  10   3    0.82    0.85
   6  10   3   12.00    1.74
   7  10   3    0.73    0.64
   8  10   3    2.55    0.93
   9  10   3    2.10    0.88
  10  10   3    0.80    0.79
  11  10   3   21.72    2.57
 -11  11   3    1.09    1.44
 -10  11   3   -0.15    1.31
  -9  11   3   17.72    3.55
  -8  11   3    0.25    1.18
  -7  11   3   49.09    5.27
  -6  11   3   16.19    3.46
  -5  11   3    7.28    1.72
  -4  11   3   11.52    2.18
  -3  11   3    0.96    0.82
  -2  11   3    4.22    1.45
  -1  11   3   24.18    3.34
   0  11   3   -0.18    0.54
   1  11   3   35.47    4.16
   2  11   3   10.78    2.30
   3  11   3   -0.18    0.60
   4  11   3    7.38    1.96
   5  11   3    9.78    2.25
   6  11   3   14.93    2.89
   7  11   3   43.83    2.96
   8  11   3    1.39    1.16
   9  11   3   13.01    2.82
  10  11   3    1.71    1.33
  11  11   3   -0.06    1.08
 -10  12   3    8.34    2.69
  -9  12   3    2.03    1.63
  -5  12   3    6.73    1.72
  -4  12   3   21.68    3.01
  -3  12   3   10.97    2.23
  -2  12   3    0.73    0.87
  -1  12   3    1.09    1.05
   0  12   3   10.31    2.24
   1  12   3    0.37    0.76
   2  12   3    1.01    0.99
   3  12   3    6.62    2.10
   4  12   3   21.07    3.47
   5  12   3    4.44    1.78
   6  12   3    0.29    1.03
   7  12   3    7.80    2.39
   8  12   3    2.93    1.66
   9  12   3    4.61    2.00
  10  12   3    8.48    2.37
  -4  13   3    3.08    1.26
  -3  13   3   35.31    4.11
  -2  13   3    9.07    2.11
  -1  13   3   -0.22    0.81
   0  13   3    0.00    0.86
   1  13   3    0.44    1.01
   2  13   3   16.25    3.01
   3  13   3   36.00    4.58
   4  13   3    3.11    1.62
   5  13   3   -0.33    0.92
   6  13   3   -0.33    0.94
   7  13   3    4.84    1.97
   8  13   3   12.50    3.18
   9  13   3    3.55    1.91
  -4  14   3   17.75    2.89
  -3  14   3   -0.54    0.82
  -2  14   3    1.65    1.17
  -1  14   3    5.46    1.64
   0  14   3   34.76    4.36
   1  14   3   10.30    2.49
   2  14   3    2.29    1.40
   3  14   3    0.70    0.96
   4  14   3   12.11    2.82
   5  14   3   -0.04    1.04
   6  14   3    0.53    1.24
   7  14   3    0.57    1.39
  -3  15   3    4.96    1.74
  -2  15   3    2.58    1.37
  -1  15   3   -0.59    0.89
   0  15   3    0.14    1.08
   1  15   3    0.37    1.14
   2  15   3    1.13    1.20
   3  15   3    4.44    1.90
   4  15   3    6.15    2.13
   5  15   3   30.18    4.69
  -2  16   3   10.83    2.62
  -1  16   3    5.05    2.05
   0  16   3   16.25    3.16
   1  16   3    5.28    2.09
   2  16   3   11.98    3.26
  -1 -14   4    4.11    2.04
   0 -14   4   60.08    7.51
   1 -14   4    3.86    2.66
   3 -14   4   -1.40    1.41
  -5 -13   4   41.60    5.51
  -4 -13   4    7.53    1.52
  -3 -13   4    1.19    0.92
  -2 -13   4    1.15    0.96
  -1 -13   4    1.02    0.95
   0 -13   4   -0.20    0.67
   1 -13   4    1.17    0.80
   2 -13   4    2.19    0.99
   3 -13   4    0.21    0.86
   4 -13   4    8.71    1.78
   5 -13   4   31.69    3.72
  -7 -12   4   11.89    2.83
  -6 -12   4    3.24    1.19
  -5 -12   4    1.36    0.91
  -4 -12   4    4.62    1.27
  -3 -12   4    8.07    1.64
  -2 -12   4   15.87    2.08
  -1 -12   4   13.73    1.96
   0 -12   4   10.17    1.77
   1 -12   4   11.41    1.84
   2 -12   4   21.67    2.63
   3 -12   4    7.16    1.57
   4 -12   4    4.98    1.34
   5 -12   4    0.57    0.87
   6 -12   4    2.28    1.08
   7 -12   4   12.16    2.79
  -8 -11   4    0.90    1.13
  -7 -11   4    0.56    0.82
  -6 -11   4    0.32    0.71
  -5 -11   4    0.03    0.65
  -4 -11   4    1.61    0.91
  -3 -11   4    9.73    1.69
  -2 -11   4    7.92    1.53
  -1 -11   4   31.13    3.02
   0 -11   4    0.16    0.67
   1 -11   4   38.68    3.38
   2 -11   4    7.26    1.52
   3 -11   4    7.80    1.24
   4 -11   4    3.23    1.12
   5 -11   4    0.93    0.84
   6 -11   4    1.10    0.90
   7 -11   4    1.41    1.01
   8 -11   4   -0.32    1.07
  -9 -10   4    3.05    1.24
  -8 -10   4    1.87    1.10
  -7 -10   4    2.78    1.10
  -6 -10   4    5.64    1.36
  -5 -10   4    0.98    0.82
  -4 -10   4   27.34    2.65
  -3 -10   4   23.58    2.52
  -2 -10   4    7.30    1.48
  -1 -10   4   10.49    1.68
   0 -10   4    0.76    0.70
   1 -10   4    9.96    1.68
   2 -10   4    8.26    1.26
   3 -10   4   21.11    1.96
   4 -10   4   25.43    2.63
   5 -10   4    0.05    0.71
   6 -10   4    5.88    1.40
   7 -10   4    3.47    1.27
   8 -10   4    1.50    0.89
   9 -10   4    1.28    1.01
 -10  -9   4   12.32    2.99
  -9  -9   4   -1.55    0.69
  -8  -9   4    1.43    0.94
  -7  -9   4   14.62    2.11
  -6  -9   4   41.07    3.41
  -5  -9   4    5.78    1.32
  -4  -9   4    2.15    0.85
  -3  -9   4   16.60    2.08
  -2  -9   4   10.75    1.67
  -1  -9   4    0.79    0.59
   0  -9   4    0.19    0.50
   1  -9   4    0.57    0.61
   2  -9   4    8.90    1.25
   3  -9   4   18.36    1.72
   4  -9   4    2.22    0.72
   5  -9   4    6.37    1.36
   6  -9   4   46.11    3.58
   7  -9   4   13.72    2.02
   8  -9   4    0.50    0.82
   9  -9   4   -0.05    0.81
  10  -9   4    9.75    1.93
 -11  -8   4    5.49    2.29
 -10  -8   4   18.97    2.55
  -9  -8   4    2.74    1.06
  -8  -8   4   15.62    2.23
  -7  -8   4    6.59    1.46
  -6  -8   4    4.05    1.10
  -5  -8   4    6.33    1.27
  -4  -8   4    1.70    0.78
  -3  -8   4   14.84    1.83
  -2  -8   4   -0.40    0.46
  -1  -8   4   17.75    2.02
   0  -8   4   62.14    3.09
   1  -8   4   19.62    2.15
   2  -8   4    0.68    0.51
   3  -8   4   20.14    1.77
   4  -8   4    1.70    0.65
   5  -8   4    8.13    1.47
   6  -8   4    5.73    1.08
   7  -8   4    9.73    1.66
   8  -8   4   12.06    1.97
   9  -8   4    3.08    1.20
  10  -8   4   15.79    2.27
  11  -8   4    5.10    2.54
 -11  -7   4    5.58    2.35
 -10  -7   4    0.21    1.09
  -9  -7   4   17.62    2.24
  -8  -7   4    7.00    1.50
  -7  -7   4   16.61    2.14
  -6  -7   4    4.11    1.09
  -5  -7   4    9.04    1.52
  -4  -7   4    2.22    0.79
  -3  -7   4   40.85    2.70
  -2  -7   4    3.79    0.90
  -1  -7   4    8.32    1.34
   0  -7   4   -0.58    0.37
   1  -7   4   10.03    1.52
   2  -7   4    4.35    0.83
   3  -7   4   43.27    2.02
   4  -7   4    1.70    0.59
   5  -7   4   10.15    1.26
   6  -7   4    3.07    0.80
   7  -7   4   13.95    2.01
   8  -7   4    3.50    1.22
   9  -7   4   28.68    3.03
  10  -7   4   -0.13    0.80
  11  -7   4    1.21    1.55
 -11  -6   4    0.99    1.31
 -10  -6   4    8.64    2.53
  -9  -6   4   16.34    3.21
  -8  -6   4   22.52    2.54
  -7  -6   4   25.42    2.57
  -6  -6   4    1.71    0.78
  -5  -6   4   21.99    2.21
  -4  -6   4    0.71    0.60
  -3  -6   4   78.75    3.37
  -2  -6   4   20.80    2.07
  -1  -6   4    0.30    0.49
   0  -6   4   39.40    2.28
   1  -6   4   -0.04    0.42
   2  -6   4   22.23    1.68
   3  -6   4   78.20    2.66
   4  -6   4    1.06    0.40
   5  -6   4   19.35    1.47
   6  -6   4    2.89    0.75
   7  -6   4   24.08    1.99
   8  -6   4   23.91    2.08
   9  -6   4   11.27    1.48
  10  -6   4    9.77    1.83
  11  -6   4    1.18    1.04
  12  -6   4    0.82    1.42
 -12  -5   4    3.87    1.86
 -11  -5   4    2.01    1.34
 -10  -5   4   10.14    2.53
  -9  -5   4   14.50    3.17
  -8  -5   4    0.14    0.76
  -7  -5   4    2.50    1.22
  -6  -5   4   56.59    3.76
  -5  -5   4    8.33    1.36
  -4  -5   4    5.02    0.98
  -3  -5   4   -0.27    0.43
  -2  -5   4   32.75    2.09
  -1  -5   4   15.36    1.36
   0  -5   4    0.04    0.30
   1  -5   4   17.93    1.49
   2  -5   4   32.20    1.59
   3  -5   4    0.01    0.23
   4  -5   4    6.24    0.64
   5  -5   4    7.28    0.90
   6  -5   4   55.19    2.36
   7  -5   4    2.55    0.72
   8  -5   4    0.16    0.49
   9  -5   4   14.29    2.05
  10  -5   4   11.78    1.91
  11  -5   4    3.42    1.27
  12  -5   4    2.52    1.18
 -12  -4   4   53.88    6.13
 -11  -4   4    1.87    1.40
 -10  -4   4    3.11    1.65
  -9  -4   4    0.96    1.04
  -8  -4   4   -0.04    0.81
  -7  -4   4    2.62    1.34
  -6  -4   4   20.81    3.16
  -5  -4   4    1.98    1.20
  -4  -4   4   28.36    2.65
  -3  -4   4    0.52    0.54
  -2  -4   4   47.71    1.98
  -1  -4   4    0.35    0.33
   0  -4   4   31.92    1.75
   1  -4   4    0.30    0.36
   2  -4   4   49.51    1.65
   3  -4   4    1.05    0.29
   4  -4   4   26.52    1.26
   5  -4   4    1.98    0.50
   6  -4   4   17.05    1.57
   7  -4   4    1.23    0.72
   8  -4   4   -0.51    0.51
   9  -4   4    1.72    0.90
  10  -4   4    1.76    1.02
  11  -4   4    1.11    0.90
  12  -4   4   65.20    4.43
  13  -4   4    0.84    2.62
 -12  -3   4    1.02    1.31
 -11  -3   4    5.15    1.91
 -10  -3   4    0.08    0.84
  -9  -3   4   65.48    5.05
  -8  -3   4   12.67    2.67
  -7  -3   4    5.46    1.98
  -6  -3   4   49.29    3.17
  -5  -3   4    1.83    0.74
  -4  -3   4    9.09    1.37
  -3  -3   4   21.55    2.10
  -2  -3   4    1.05    0.56
  -1  -3   4   48.27    2.46
   0  -3   4   -0.09    0.35
   1  -3   4   51.64    2.45
   2  -3   4    0.41    0.35
   3  -3   4   21.14    1.33
   4  -3   4    8.73    0.88
   5  -3   4    0.64    0.40
   6  -3   4   49.18    2.72
   7  -3   4    5.80    1.22
   8  -3   4   12.72    1.86
   9  -3   4   65.53    3.61
  10  -3   4    0.76    0.76
  11  -3   4    1.44    0.91
  12  -3   4    0.18    0.79
  13  -3   4    8.13    2.95
 -12  -2   4    2.27    1.16
 -11  -2   4    1.47    1.33
 -10  -2   4    7.38    2.22
  -9  -2   4   17.82    3.20
  -8  -2   4    1.29    1.08
  -7  -2   4   25.76    2.51
  -6  -2   4   12.69    1.76
  -5  -2   4   17.15    1.90
  -4  -2   4   52.16    2.69
  -3  -2   4   43.65    2.39
  -2  -2   4    2.89    0.80
  -1  -2   4    0.20    0.39
   0  -2   4   -0.11    0.34
   1  -2   4   -0.05    0.34
   2  -2   4    5.45    0.94
   3  -2   4   40.14    1.75
   4  -2   4   46.34    2.38
   5  -2   4   14.82    1.38
   6  -2   4   10.48    1.18
   7  -2   4   22.47    2.31
   8  -2   4    0.73    0.62
   9  -2   4   12.76    1.85
  10  -2   4    5.50    1.38
  11  -2   4    1.73    0.94
  12  -2   4    3.58    1.24
  13  -2   4    1.25    1.42
 -13  -1   4   19.72    5.99
 -12  -1   4    2.78    1.85
 -11  -1   4    6.92    2.23
 -10  -1   4   -0.65    0.85
  -9  -1   4    3.16    1.37
  -8  -1   4    0.45    0.42
  -7  -1   4    1.11    0.61
  -6  -1   4   46.86    2.66
  -5  -1   4   10.48    1.49
  -4  -1   4   27.78    2.37
  -3  -1   4   40.79    2.28
  -2  -1   4    8.86    1.27
  -1  -1   4    0.68    0.47
   0  -1   4   -0.20    0.28
   1  -1   4    1.28    0.53
   2  -1   4    7.60    1.14
   3  -1   4   40.66    2.25
   4  -1   4   29.81    2.32
   5  -1   4    9.08    1.28
   6  -1   4   46.11    2.04
   7  -1   4    1.49    0.71
   8  -1   4   -0.34    0.49
   9  -1   4    3.56    1.04
  10  -1   4    0.24    0.57
  11  -1   4    7.50    1.60
  12  -1   4    7.63    1.74
  13  -1   4   16.49    2.93
 -13   0   4    0.10    1.31
 -12   0   4   14.78    3.28
 -11   0   4   -0.40    0.96
 -10   0   4   61.94    5.02
  -9   0   4    0.83    0.66
  -8   0   4   43.19    3.28
  -7   0   4    0.14    0.46
  -6   0   4    1.09    0.52
  -5   0   4    0.31    0.44
  -4   0   4    1.84    0.67
  -3   0   4    0.09    0.37
  -2   0   4    0.95    0.48
  -1   0   4    0.52    0.40
   0   0   4  417.39    8.16
   1   0   4    0.31    0.48
   2   0   4    0.17    0.52
   3   0   4    0.49    0.44
   4   0   4    0.73    0.55
   5   0   4    0.26    0.42
   6   0   4   -0.09    0.37
   7   0   4   -0.27    0.46
   8   0   4   36.50    3.13
   9   0   4   -0.04    0.55
  10   0   4   46.59    3.73
  11   0   4    0.20    0.69
  12   0   4   21.40    2.77
  13   0   4   -0.30    0.94
 -13   1   4    8.73    2.97
 -12   1   4    4.73    2.03
 -11   1   4    9.34    2.54
 -10   1   4   -0.19    0.56
  -9   1   4    5.89    1.26
  -8   1   4   -0.41    0.43
  -7   1   4    2.23    0.83
  -6   1   4   46.65    2.62
  -5   1   4    8.80    1.34
  -4   1   4   29.32    2.36
  -3   1   4   41.11    2.25
  -2   1   4    9.47    1.33
  -1   1   4    1.12    0.50
   0   1   4    0.50    0.59
   1   1   4    0.23    0.53
   2   1   4   10.89    2.06
   3   1   4   41.00    2.46
   4   1   4   26.13    2.18
   5   1   4    9.20    1.29
   6   1   4   45.95    2.48
   7   1   4    1.91    0.71
   8   1   4    0.33    0.86
   9   1   4    4.40    1.69
  10   1   4    0.34    0.94
  11   1   4   11.80    2.92
  12   1   4    6.57    2.38
  13   1   4   20.40    6.36
 -13   2   4    2.72    2.51
 -12   2   4    1.09    1.30
 -11   2   4    0.64    1.05
 -10   2   4    5.96    1.31
  -9   2   4   18.33    2.17
  -8   2   4    1.29    0.70
  -7   2   4   26.45    2.44
  -6   2   4   11.03    1.53
  -5   2   4   14.06    1.64
  -4   2   4   53.49    2.62
  -3   2   4   41.43    2.25
  -2   2   4    5.11    0.96
  -1   2   4   -0.12    0.43
   0   2   4    0.14    0.48
   1   2   4   -0.31    0.40
   2   2   4    2.33    1.11
   3   2   4   38.82    2.45
   4   2   4   46.16    2.47
   5   2   4   12.54    1.58
   6   2   4   10.11    1.47
   7   2   4   21.75    2.15
   8   2   4    0.05    0.86
   9   2   4   17.95    3.24
  10   2   4    6.39    2.15
  11   2   4    0.96    1.26
  12   2   4    5.26    2.21
 -12   3   4    0.89    1.25
 -11   3   4    2.67    1.62
 -10   3   4    0.65    0.75
  -9   3   4   58.42    3.15
  -8   3   4   11.09    1.61
  -7   3   4    6.14    1.18
  -6   3   4   48.31    2.63
  -5   3   4    0.54    0.47
  -4   3   4    8.74    1.25
  -3   3   4   19.77    1.89
  -2   3   4    0.04    0.52
  -1   3   4   48.86    3.57
   0   3   4   -0.40    0.42
   1   3   4   48.08    3.52
   2   3   4    0.65    0.65
   3   3   4   22.63    2.10
   4   3   4   10.01    1.49
   5   3   4    2.09    0.74
   6   3   4   48.46    2.69
   7   3   4    4.65    1.02
   8   3   4   14.13    1.80
   9   3   4   64.31    5.15
  10   3   4   -0.86    0.75
  11   3   4    2.28    1.59
  12   3   4   -0.58    1.16
 -12   4   4   51.99    6.02
 -11   4   4    2.10    1.35
 -10   4   4    3.82    1.57
  -9   4   4    1.91    0.88
  -8   4   4   -0.20    0.48
  -7   4   4    1.20    0.64
  -6   4   4   22.93    2.21
  -5   4   4    1.82    0.70
  -4   4   4   26.33    2.24
  -3   4   4    2.26    1.04
  -2   4   4   51.51    3.67
  -1   4   4    0.91    0.64
   0   4   4   26.15    3.21
   1   4   4    0.20    0.57
   2   4   4   38.59    3.99
   3   4   4    2.83    1.15
   4   4   4   25.99    2.41
   5   4   4    1.98    0.68
   6   4   4   20.53    2.08
   7   4   4    1.15    0.60
   8   4   4    0.12    0.51
   9   4   4   -0.16    0.83
  10   4   4    3.07    1.55
  11   4   4    0.35    1.15
  12   4   4   62.45    6.86
 -12   5   4    2.87    1.72
 -11   5   4    3.30    1.61
 -10   5   4   10.58    2.63
  -9   5   4   16.23    2.02
  -8   5   4   -0.34    0.47
  -7   5   4    1.48    0.74
  -6   5   4   48.51    2.65
  -5   5   4    6.52    1.16
  -4   5   4    3.11    1.22
  -3   5   4    1.22    0.71
  -2   5   4   30.40    3.45
  -1   5   4   15.19    2.45
   0   5   4    0.33    0.54
   1   5   4   18.28    2.81
   2   5   4   33.04    3.62
   3   5   4    0.33    0.67
   4   5   4    5.49    1.12
   5   5   4    3.59    0.97
   6   5   4   50.16    2.83
   7   5   4    3.55    0.97
   8   5   4    0.90    0.62
   9   5   4   14.21    1.98
  10   5   4   10.25    2.73
  11   5   4    1.79    1.56
  12   5   4    2.11    1.66
 -12   6   4    0.43    1.36
 -11   6   4   -0.01    1.29
 -10   6   4    6.14    2.11
  -9   6   4   12.37    2.68
  -8   6   4   24.21    2.41
  -7   6   4   27.35    2.56
  -6   6   4    1.86    0.79
  -5   6   4   15.06    2.51
  -4   6   4    1.31    0.83
  -3   6   4   72.77    4.56
  -2   6   4   19.44    2.80
  -1   6   4    0.07    0.64
   0   6   4   33.27    3.82
   1   6   4    0.16    0.69
   2   6   4   21.00    2.97
   3   6   4   71.25    4.71
   4   6   4    0.37    0.76
   5   6   4   19.38    2.12
   6   6   4    1.43    0.73
   7   6   4   20.65    2.25
   8   6   4   25.88    2.53
   9   6   4   12.12    1.79
  10   6   4    6.50    2.17
  11   6   4    0.03    1.17
 -11   7   4    7.16    2.47
 -10   7   4    0.40    1.12
  -9   7   4   24.75    3.92
  -8   7   4    5.12    1.14
  -7   7   4   15.96    2.00
  -6   7   4    4.07    1.45
  -5   7   4    5.40    1.54
  -4   7   4    2.38    1.11
  -3   7   4   43.61    4.32
  -2   7   4    3.64    1.41
  -1   7   4    8.97    2.01
   0   7   4   -0.31    0.51
   1   7   4   10.46    2.20
   2   7   4    1.74    0.93
   3   7   4   37.59    4.20
   4   7   4    2.08    1.11
   5   7   4    6.86    1.32
   6   7   4    2.78    0.88
   7   7   4   13.03    1.76
   8   7   4    4.56    1.19
   9   7   4   23.03    2.50
  10   7   4    0.79    1.23
  11   7   4    5.37    2.12
 -11   8   4    4.94    2.12
 -10   8   4   18.63    3.67
  -9   8   4    3.41    1.79
  -7   8   4    6.60    1.71
  -6   8   4    5.60    1.61
  -5   8   4    5.32    1.61
  -4   8   4    0.42    0.68
  -3   8   4   15.56    2.68
  -2   8   4   -0.23    0.66
  -1   8   4   11.88    2.31
   0   8   4   60.23    4.40
   1   8   4   14.31    2.55
   2   8   4    0.21    0.63
   3   8   4   17.52    2.89
   4   8   4   -0.21    0.62
   5   8   4    3.26    1.42
   6   8   4    5.40    1.21
   7   8   4    8.29    1.54
   8   8   4   10.94    1.73
   9   8   4    3.35    1.12
  10   8   4   23.08    3.90
  11   8   4    6.56    2.19
  -7   9   4   16.20    2.74
  -6   9   4   47.37    3.83
  -5   9   4    6.46    1.77
  -4   9   4    0.81    0.90
  -3   9   4   14.52    2.64
  -2   9   4    9.55    2.15
  -1   9   4    0.38    0.78
   0   9   4    0.72    0.79
   1   9   4    0.52    0.92
   2   9   4    8.35    2.06
   3   9   4   19.62    3.26
   4   9   4    2.18    1.23
   5   9   4    6.09    1.95
   6   9   4   40.18    4.79
   7   9   4   15.87    2.11
   8   9   4    0.29    0.79
   9   9   4   -0.40    0.70
  10   9   4    9.66    1.74
  -6  10   4    4.06    1.59
  -5  10   4    1.88    1.21
  -4  10   4   23.16    3.31
  -3  10   4   19.65    3.00
  -2  10   4    5.01    1.64
  -1  10   4   10.04    2.38
   0  10   4    1.28    1.01
   1  10   4    5.74    1.74
   2  10   4    8.22    2.19
   3  10   4   15.06    2.86
   4  10   4   25.94    3.87
   5  10   4    0.72    1.06
   6  10   4    9.16    2.45
   7  10   4    1.53    1.37
   8  10   4    0.93    0.85
   9  10   4    2.95    1.15
  -6  11   4    0.64    0.90
  -5  11   4    0.21    0.89
  -4  11   4    1.58    1.21
  -3  11   4   12.34    2.46
  -2  11   4    7.21    2.04
  -1  11   4   32.12    4.11
   0  11   4   -0.01    0.81
   1  11   4   37.17    4.64
   2  11   4    6.39    1.95
   3  11   4   11.63    2.67
   4  11   4    3.22    1.65
   5  11   4    0.94    1.25
   6  11   4   -0.70    0.94
   7  11   4    0.61    1.29
   8  11   4    0.74    1.20
  -5  12   4    1.41    1.23
  -4  12   4    2.09    1.33
  -3  12   4    3.97    1.49
  -2  12   4   14.99    2.85
  -1  12   4   12.71    2.65
   0  12   4    9.65    2.36
   1  12   4   10.53    2.46
   2  12   4   20.14    3.55
   3  12   4    5.96    2.04
   4  12   4    4.99    1.96
   5  12   4    1.82    1.32
   6  12   4    5.59    2.13
  -5  13   4   37.51    6.02
  -4  13   4    9.34    2.32
  -3  13   4    1.71    1.13
  -2  13   4    2.55    1.42
  -1  13   4    1.45    1.48
   0  13   4   -0.75    0.95
   1  13   4    0.96    1.20
   2  13   4    2.00    1.51
   3  13   4    0.75    1.28
   4  13   4    8.04    2.44
  -3  14   4    2.88    1.44
  -2  14   4    1.47    1.38
  -1  14   4    4.11    1.77
   0  14   4   34.40    5.23
  -1 -11   5   16.15    4.78
   0 -11   5   -0.92    1.34
   1 -11   5   12.80    3.18
   2 -11   5    3.01    1.78
  -3 -10   5    2.76    2.05
  -2 -10   5   -0.79    1.03
  -1 -10   5   13.42    3.08
   0 -10   5    5.50    2.17
   1 -10   5    7.86    2.34
   2 -10   5   -0.33    0.78
   3 -10   5    2.76    1.18
   4 -10   5   26.83    4.29
  -5  -9   5   17.71    3.90
  -4  -9   5   -0.58    1.20
  -3  -9   5    0.15    1.03
  -2  -9   5   30.46    4.44
  -1  -9   5    6.61    2.18
   0  -9   5   -0.85    1.05
   1  -9   5    7.16    2.15
   2  -9   5   29.96    4.39
   3  -9   5    0.02    1.13
  -6  -8   5    0.19    1.10
  -5  -8   5    7.96    2.37
  -4  -8   5    3.86    1.88
  -3  -8   5    5.28    1.93
  -2  -8   5   16.30    3.17
  -1  -8   5    5.43    1.87
   0  -8   5    5.32    1.72
   1  -8   5    8.11    2.37
   2  -8   5   14.49    3.06
   3  -8   5    6.92    2.14
  -7  -7   5    3.41    1.82
  -6  -7   5    4.57    1.95
  -5  -7   5   61.88    5.27
  -4  -7   5    0.64    1.07
  -3  -7   5    2.13    1.40
  -2  -7   5    1.38    1.23
  -1  -7   5    1.00    1.03
   0  -7   5   -0.36    0.85
   1  -7   5   -0.26    0.89
   2  -7   5    2.08    1.31
   3  -7   5    4.24    1.75
  -8  -6   5    9.36    2.78
  -7  -6   5    2.71    1.84
  -6  -6   5    1.14    1.23
  -5  -6   5    4.90    2.00
  -4  -6   5    0.07    0.93
  -3  -6   5    0.42    1.09
  -2  -6   5    2.28    1.34
  -1  -6   5   40.37    4.70
   0  -6   5   22.11    3.49
   1  -6   5   45.67    4.96
   2  -6   5   -0.89    0.87
   8  -6   5   17.31    3.58
  -8  -5   5    1.82    1.61
  -7  -5   5   15.10    3.23
  -6  -5   5    8.64    2.41
  -5  -5   5   -0.08    0.96
  -4  -5   5    0.51    0.92
  -3  -5   5   14.16    2.75
  -2  -5   5   39.69    4.65
  -1  -5   5    1.50    0.82
   0  -5   5    0.31    0.62
   1  -5   5    2.97    0.96
   2  -5   5   30.76    4.00
   3  -5   5   15.08    2.77
   7  -5   5   14.85    3.20
   8  -5   5    3.22    1.70
   9  -5   5    1.98    1.72
  -9  -4   5   -1.01    0.97
  -8  -4   5    9.48    2.80
  -7  -4   5    2.86    1.68
  -6  -4   5    6.52    2.18
  -5  -4   5   -0.32    0.77
  -4  -4   5   44.59    3.63
  -3  -4   5    1.98    0.93
  -2  -4   5    3.53    1.03
  -1  -4   5    5.76    1.30
   0  -4   5   -0.13    0.60
   1  -4   5    6.26    1.88
   2  -4   5    3.63    1.43
   3  -4   5    3.99    1.51
   4  -4   5   49.00    3.99
   5  -4   5   -0.66    0.81
   6  -4   5    7.37    2.08
   7  -4   5    5.35    1.77
   8  -4   5    8.38    1.65
   9  -4   5    0.84    0.91
  -9  -3   5   14.70    3.30
  -8  -3   5   10.31    2.57
  -7  -3   5   44.70    5.34
  -6  -3   5    0.59    0.78
  -5  -3   5   23.18    2.73
  -4  -3   5    6.35    1.33
  -3  -3   5    0.91    0.75
  -2  -3   5   27.02    2.61
  -1  -3   5   43.63    2.92
   0  -3   5   -0.46    0.64
   1  -3   5   49.72    4.96
   2  -3   5   29.38    3.71
   3  -3   5    0.19    0.88
   4  -3   5    4.18    1.46
   5  -3   5   16.02    2.78
   6  -3   5   -0.16    0.90
   7  -3   5   42.01    4.92
   8  -3   5    7.66    2.18
   9  -3   5   12.39    2.85
  10  -3   5    4.94    2.11
  -9  -2   5    1.71    1.38
  -8  -2   5   -0.66    0.98
  -7  -2   5    9.66    1.76
  -6  -2   5    0.12    0.70
  -5  -2   5    0.44    0.67
  -4  -2   5    4.45    1.17
  -3  -2   5    3.24    1.08
  -2  -2   5    9.80    1.61
  -1  -2   5   52.43    5.31
   0  -2   5    0.56    0.90
   1  -2   5   42.36    4.63
   2  -2   5    5.96    1.76
   3  -2   5    2.66    1.26
   4  -2   5    6.64    1.74
   5  -2   5    0.90    0.68
   6  -2   5    0.27    0.97
   7  -2   5   15.68    3.05
   8  -2   5    0.29    0.97
   9  -2   5    1.20    1.18
  10  -2   5    1.57    1.59
 -10  -1   5   14.37    3.31
  -9  -1   5   -0.20    1.05
  -8  -1   5    8.36    1.70
  -7  -1   5    0.80    0.74
  -6  -1   5   -0.35    0.62
  -5  -1   5   50.74    3.33
  -4  -1   5    4.54    1.16
  -3  -1   5   15.15    2.02
  -2  -1   5   14.00    2.75
  -1  -1   5   -0.07    0.75
   0  -1   5   -0.08    0.55
   1  -1   5    0.95    0.80
   2  -1   5   12.45    2.39
   3  -1   5   11.89    2.31
   4  -1   5    6.99    1.84
   5  -1   5   46.11    3.02
   6  -1   5    0.01    0.94
   7  -1   5    1.27    1.14
   8  -1   5    8.46    2.35
   9  -1   5   -0.81    1.09
  10  -1   5   11.10    3.21
 -10   0   5    0.69    1.08
  -9   0   5   -0.22    0.78
  -8   0   5   57.06    3.78
  -7   0   5   -0.44    0.64
  -6   0   5    4.67    1.22
  -5   0   5   -0.19    0.57
  -4   0   5   40.57    3.16
  -3   0   5   -0.61    0.53
  -2   0   5   33.09    4.01
  -1   0   5    0.40    0.69
   0   0   5    3.82    1.47
   1   0   5    0.32    0.81
   2   0   5   29.54    3.69
   3   0   5    0.50    0.86
   4   0   5   26.21    3.49
   5   0   5    0.39    0.62
   6   0   5    5.49    1.24
   7   0   5   -0.38    0.88
   8   0   5   52.03    5.66
   9   0   5   -0.45    1.02
  10   0   5    1.88    2.26
 -10   1   5   22.00    2.63
  -9   1   5    0.56    0.85
  -8   1   5   10.87    1.80
  -7   1   5    0.24    0.73
  -6   1   5    0.06    0.62
  -5   1   5   56.59    3.48
  -4   1   5    1.98    1.10
  -3   1   5    5.76    1.76
  -2   1   5    9.13    2.17
  -1   1   5   -0.69    0.53
   0   1   5   -0.04    0.71
   1   1   5    0.63    0.78
   2   1   5    6.35    1.68
   3   1   5   13.10    2.58
   4   1   5    2.64    1.33
   5   1   5   53.09    3.32
   6   1   5    0.38    0.62
   7   1   5   -0.01    0.79
   8   1   5    6.17    2.10
   9   1   5   -0.30    1.08
 -10   2   5    1.11    0.95
  -9   2   5   -0.06    0.75
  -8   2   5   -0.53    0.67
  -7   2   5    9.05    1.61
  -6   2   5    0.17    0.71
  -5   2   5    0.73    0.79
  -4   2   5    8.58    2.12
  -3   2   5    2.99    1.38
  -2   2   5    8.72    2.17
  -1   2   5   42.96    4.65
   0   2   5    0.54    0.80
   1   2   5   46.23    4.82
   2   2   5    9.01    2.25
   3   2   5    3.93    1.53
   4   2   5    5.82    1.76
   5   2   5    1.28    0.72
   6   2   5    1.11    0.70
   7   2   5    6.99    2.19
   8   2   5   -0.04    0.95
   9   2   5    0.48    1.20
 -10   3   5   10.71    1.99
  -9   3   5    9.66    1.75
  -8   3   5    9.75    1.76
  -7   3   5   41.94    4.77
  -6   3   5   -0.22    0.68
  -5   3   5   17.11    3.08
  -4   3   5    3.94    1.59
  -3   3   5    1.72    1.07
  -2   3   5   24.48    3.54
  -1   3   5   39.01    4.43
   0   3   5   -0.52    0.73
   1   3   5   41.36    4.56
   2   3   5   25.89    3.51
   3   3   5    0.19    0.87
   4   3   5    4.95    1.58
   5   3   5   17.49    2.96
   6   3   5    0.49    0.67
   7   3   5   42.06    3.40
   8   3   5   10.91    2.68
   9   3   5   14.53    3.33
  -9   4   5    0.54    0.93
  -8   4   5    7.94    2.20
  -7   4   5    2.75    1.32
  -6   4   5    2.73    1.39
  -5   4   5   -0.24    0.73
  -4   4   5   43.47    4.72
  -3   4   5    1.93    1.15
  -2   4   5    3.49    1.41
  -1   4   5    5.22    1.87
   0   4   5    1.26    1.01
   1   4   5    6.83    1.90
   2   4   5    5.32    1.81
   3   4   5    1.76    1.03
   4   4   5   41.15    4.51
   5   4   5   -0.94    0.75
   6   4   5    6.83    1.42
   7   4   5    2.48    1.01
   8   4   5    2.32    1.43
   9   4   5   -0.60    2.18
  -9   5   5    2.83    1.55
  -8   5   5    2.79    1.43
  -7   5   5   14.89    2.81
  -6   5   5    5.70    1.84
  -5   5   5    0.92    0.98
  -4   5   5   -0.14    0.80
  -3   5   5   18.90    3.19
  -2   5   5   34.34    4.32
  -1   5   5    1.55    1.05
   0   5   5   -0.17    0.61
   1   5   5    3.20    1.31
   2   5   5   40.05    4.66
   3   5   5   14.38    2.62
   4   5   5    0.77    1.02
   5   5   5    0.35    1.01
   6   5   5    5.38    1.92
   7   5   5   19.29    2.47
   8   5   5    1.86    1.52
  -8   6   5    6.05    1.80
  -7   6   5    3.83    1.49
  -6   6   5   -0.30    1.00
  -5   6   5    1.19    1.19
  -4   6   5   -0.59    0.71
  -3   6   5   -0.14    0.73
  -2   6   5    0.49    0.82
  -1   6   5   36.26    4.42
   0   6   5   13.80    2.77
   1   6   5   45.49    4.84
   2   6   5   -0.26    0.93
   3   6   5    0.28    0.82
   4   6   5   -0.51    0.92
   5   6   5    3.10    1.55
   6   6   5   -0.13    0.98
   7   6   5    4.43    1.29
   8   6   5    9.35    1.94
  -8   7   5    4.43    1.74
  -7   7   5    4.62    1.82
  -6   7   5    2.49    1.28
  -5   7   5   62.73    4.90
  -4   7   5    2.21    1.22
  -3   7   5    5.77    1.87
  -2   7   5    2.01    1.18
  -1   7   5    0.80    1.03
   0   7   5    0.36    0.76
   1   7   5    1.90    1.28
   2   7   5    2.33    1.29
   3   7   5    4.26    1.70
   4   7   5   -0.59    0.96
   5   7   5   46.90    5.29
   6   7   5    3.76    1.71
   7   7   5    4.21    1.89
   8   7   5    3.93    1.93
  -7   8   5    6.75    2.06
  -6   8   5   -0.12    0.99
  -5   8   5    8.06    2.27
  -4   8   5    5.82    1.92
  -3   8   5    8.13    2.12
  -2   8   5    9.88    2.32
  -1   8   5    8.12    2.12
   0   8   5    5.25    1.96
   1   8   5    3.97    1.59
   2   8   5   12.94    2.80
   3   8   5   10.58    2.57
   4   8   5    6.31    2.11
   5   8   5    6.28    2.14
   6   8   5   -0.12    1.15
   7   8   5    8.04    2.40
  -6   9   5    4.31    1.61
  -5   9   5   17.70    3.28
  -4   9   5    0.07    0.94
  -3   9   5    1.71    1.25
  -2   9   5   29.34    4.06
  -1   9   5    8.18    2.29
   0   9   5    0.42    1.10
   1   9   5    4.84    1.85
   2   9   5   30.10    4.39
   3   9   5   -0.98    1.03
   4   9   5   -0.52    0.85
   5   9   5   13.43    3.05
  -4  10   5   25.59    4.80
  -3  10   5    3.22    1.57
  -2  10   5   -0.26    1.06
  -1  10   5   15.68    3.12
   0  10   5    2.14    1.32
   1  10   5   11.99    2.66
   2  10   5   -0.80    1.14
   0  -4   6   23.04    6.02
   1  -4   6   -1.54    1.11
   2  -4   6   24.96    4.06
  -1  -3   6   23.77    5.28
   0  -3   6   -0.21    1.27
   1  -3   6   17.47    3.34
   2  -3   6    0.68    1.43
   3  -3   6    6.95    2.42
  -1  -2   6    0.18    1.46
   0  -2   6    1.13    1.53
   1  -2   6    0.31    1.23
   2  -2   6    0.54    1.22
   3  -2   6   13.45    2.85
  -2  -1   6    4.95    2.64
  -1  -1   6   -0.20    1.31
   0  -1   6   -0.70    1.06
   1  -1   6    0.43    1.21
   2  -1   6    2.47    1.73
   3  -1   6   19.01    3.49
   4  -1   6   10.11    2.67
  -2   0   6    0.32    1.37
  -1   0   6    0.05    1.15
   1   0   6    0.30    0.98
   2   0   6    0.56    1.08
   3   0   6    1.13    1.11
   4   0   6    2.07    1.46
  -1   1   6    1.37    1.27
   0   1   6   -0.02    0.95
   1   1   6    0.53    1.03
   2   1   6    1.35    1.30
   3   1   6   10.17    2.48
   4   1   6   12.22    2.78
   0   2   6   -0.13    0.99
   1   2   6   -0.48    1.08
   2   2   6    2.35    1.60
   3   2   6   12.98    3.27
   0   0   0    0.00    0.00
;
_shelx_hkl_checksum              84732
loop_
_space_group_symop_operation_xyz
'x, y, z'
'-x, -y, z'
'-x+1/2, y+1/2, -z'
'x+1/2, -y+1/2, -z'
'-x, -y, -z'
'x, y, -z'
'x-1/2, -y-1/2, z'
'-x-1/2, y-1/2, z'
loop_
_atom_site_label
_atom_site_type_symbol
_atom_site_fract_x
_atom_site_fract_y
_atom_site_fract_z
_atom_site_U_iso_or_equiv
_atom_site_adp_type
_atom_site_occupancy
_atom_site_site_symmetry_order
_atom_site_calc_flag
_atom_site_refinement_flags_posn
_atom_site_refinement_flags_adp
_atom_site_refinement_flags_occupancy
Ba Ba 0.0000 0.5000 0.5000 0.01825(14) Uani 1 4 d S T P
Pr Pr 0.11859(3) 0.14280(3) 0.5000 0.01274(9) Uani 1 2 d S T P
In In 0.29017(4) 0.37587(4) 0.0000 0.01475(11) Uani 1 2 d S T P
S1 S 0.36144(16) 0.28313(14) 0.5000 0.0161(3) Uani 1 2 d S T P
S2 S 0.08519(15) 0.30338(13) 0.0000 0.0136(3) Uani 1 2 d S T P
S3 S 0.28456(14) 0.06234(13) 0.0000 0.0132(3) Uani 1 2 d S T P
S4 S 0.0000 0.0000 0.0000 0.0148(4) Uani 1 4 d S T P
loop_
_atom_site_aniso_label
_atom_site_aniso_U_11
_atom_site_aniso_U_22
_atom_site_aniso_U_33
_atom_site_aniso_U_23
_atom_site_aniso_U_13
_atom_site_aniso_U_12
Ba 0.0173(3) 0.0251(3) 0.0124(3) 0.000 0.000 0.0057(2)
Pr 0.01455(18) 0.01411(17) 0.00955(17) 0.000 0.000 0.00085(13)
In 0.0164(2) 0.0155(2) 0.0124(2) 0.000 0.000 0.00108(17)
S1 0.0193(8) 0.0181(8) 0.0109(7) 0.000 0.000 0.0025(6)
S2 0.0140(7) 0.0120(7) 0.0147(7) 0.000 0.000 -0.0003(6)
S3 0.0113(7) 0.0132(7) 0.0152(8) 0.000 0.000 -0.0006(5)
S4 0.0152(11) 0.0138(11) 0.0155(11) 0.000 0.000 -0.0027(8)
loop_
_atom_type_symbol
_atom_type_description
_atom_type_scat_dispersion_real
_atom_type_scat_dispersion_imag
_atom_type_scat_source
S S 0.1246 0.1234 'International Tables Vol C Tables 4.2.6.8 and 6.1.1.4'
In In -0.7276 1.3100 'International Tables Vol C Tables 4.2.6.8 and 6.1.1.4'
Ba Ba -0.3244 2.2819 'International Tables Vol C Tables 4.2.6.8 and 6.1.1.4'
Pr Pr -0.2180 2.8214 'International Tables Vol C Tables 4.2.6.8 and 6.1.1.4'
loop_
_geom_angle_atom_site_label_1
_geom_angle_atom_site_label_2
_geom_angle_atom_site_label_3
_geom_angle
_geom_angle_site_symmetry_1
_geom_angle_site_symmetry_3
S3 Ba S3 180.0 7_565 3_556
S3 Ba S3 75.15(3) 7_565 7_566
S3 Ba S3 104.85(3) 3_556 7_566
S3 Ba S3 104.85(3) 7_565 3
S3 Ba S3 75.15(3) 3_556 3
S3 Ba S3 180.0 7_566 3
S3 Ba S2 71.58(4) 7_565 .
S3 Ba S2 108.42(4) 3_556 .
S3 Ba S2 115.29(4) 7_566 .
S3 Ba S2 64.71(4) 3 .
S3 Ba S2 108.42(4) 7_565 5_566
S3 Ba S2 71.58(4) 3_556 5_566
S3 Ba S2 64.71(4) 7_566 5_566
S3 Ba S2 115.29(4) 3 5_566
S2 Ba S2 180.0 . 5_566
S3 Ba S2 64.71(4) 7_565 5_565
S3 Ba S2 115.29(4) 3_556 5_565
S3 Ba S2 108.42(4) 7_566 5_565
S3 Ba S2 71.58(4) 3 5_565
S2 Ba S2 104.92(3) . 5_565
S2 Ba S2 75.08(3) 5_566 5_565
S3 Ba S2 115.29(4) 7_565 1_556
S3 Ba S2 64.71(4) 3_556 1_556
S3 Ba S2 71.58(4) 7_566 1_556
S3 Ba S2 108.42(4) 3 1_556
S2 Ba S2 75.08(3) . 1_556
S2 Ba S2 104.92(3) 5_566 1_556
S2 Ba S2 180.0 5_565 1_556
S3 Ba Ba 127.577(17) 7_565 1_556
S3 Ba Ba 52.423(17) 3_556 1_556
S3 Ba Ba 52.423(17) 7_566 1_556
S3 Ba Ba 127.577(17) 3 1_556
S2 Ba Ba 127.538(17) . 1_556
S2 Ba Ba 52.462(17) 5_566 1_556
S2 Ba Ba 127.538(17) 5_565 1_556
S2 Ba Ba 52.462(17) 1_556 1_556
S3 Ba Ba 52.423(17) 7_565 1_554
S3 Ba Ba 127.577(17) 3_556 1_554
S3 Ba Ba 127.577(17) 7_566 1_554
S3 Ba Ba 52.423(17) 3 1_554
S2 Ba Ba 52.462(17) . 1_554
S2 Ba Ba 127.538(17) 5_566 1_554
S2 Ba Ba 52.462(17) 5_565 1_554
S2 Ba Ba 127.538(17) 1_556 1_554
Ba Ba Ba 180.0 1_556 1_554
S2 Pr S2 89.83(5) 1_556 .
S2 Pr S3 80.87(4) 1_556 1_556
S2 Pr S3 143.35(5) . 1_556
S2 Pr S3 143.35(5) 1_556 .
S2 Pr S3 80.87(4) . .
S3 Pr S3 85.78(4) 1_556 .
S2 Pr S4 144.81(4) 1_556 .
S2 Pr S4 82.67(3) . .
S3 Pr S4 123.83(3) 1_556 .
S3 Pr S4 69.27(3) . .
S2 Pr S4 82.67(3) 1_556 1_556
S2 Pr S4 144.81(4) . 1_556
S3 Pr S4 69.27(3) 1_556 1_556
S3 Pr S4 123.83(3) . 1_556
S4 Pr S4 83.997(10) . 1_556
S2 Pr S1 70.52(4) 1_556 7_565
S2 Pr S1 70.52(4) . 7_565
S3 Pr S1 136.14(2) 1_556 7_565
S3 Pr S1 136.14(2) . 7_565
S4 Pr S1 74.58(2) . 7_565
S4 Pr S1 74.58(2) 1_556 7_565
S2 Pr S1 75.65(4) 1_556 .
S2 Pr S1 75.65(4) . .
S3 Pr S1 67.71(4) 1_556 .
S3 Pr S1 67.71(4) . .
S4 Pr S1 134.136(13) . .
S4 Pr S1 134.136(13) 1_556 .
S1 Pr S1 131.411(15) 7_565 .
S2 Pr Pr 45.08(2) 1_556 1_556
S2 Pr Pr 134.92(2) . 1_556
S3 Pr Pr 47.11(2) 1_556 1_556
S3 Pr Pr 132.89(2) . 1_556
S4 Pr Pr 131.999(5) . 1_556
S4 Pr Pr 48.002(5) 1_556 1_556
S1 Pr Pr 90.0 7_565 1_556
S1 Pr Pr 90.0 . 1_556
S2 Pr Pr 134.92(2) 1_556 1_554
S2 Pr Pr 45.08(2) . 1_554
S3 Pr Pr 132.89(2) 1_556 1_554
S3 Pr Pr 47.11(2) . 1_554
S4 Pr Pr 48.002(5) . 1_554
S4 Pr Pr 131.999(5) 1_556 1_554
S1 Pr Pr 90.0 7_565 1_554
S1 Pr Pr 90.0 . 1_554
Pr Pr Pr 180.0 1_556 1_554
S3 In S1 123.65(4) 3 1_554
S3 In S1 123.65(4) 3 .
S1 In S1 109.91(7) 1_554 .
S3 In S2 89.95(5) 3 .
S1 In S2 98.69(5) 1_554 .
S1 In S2 98.69(5) . .
S3 In S4 78.49(4) 3 3
S1 In S4 87.88(4) 1_554 3
S1 In S4 87.88(4) . 3
S2 In S4 168.44(4) . 3
In S1 In 109.91(7) 1_556 .
In S1 Pr 100.68(5) 1_556 7_665
In S1 Pr 100.68(5) . 7_665
In S1 Pr 87.53(5) 1_556 .
In S1 Pr 87.53(5) . .
Pr S1 Pr 165.46(6) 7_665 .
In S2 Pr 96.74(5) . 1_554
In S2 Pr 96.74(5) . .
Pr S2 Pr 89.83(5) 1_554 .
In S2 Ba 91.24(4) . .
Pr S2 Ba 168.87(6) 1_554 .
Pr S2 Ba 96.938(10) . .
In S2 Ba 91.24(4) . 1_554
Pr S2 Ba 96.938(10) 1_554 1_554
Pr S2 Ba 168.87(6) . 1_554
Ba S2 Ba 75.08(3) . 1_554
In S3 Pr 94.84(4) 3_545 .
In S3 Pr 94.84(4) 3_545 1_554
Pr S3 Pr 85.78(4) . 1_554
In S3 Ba 92.82(4) 3_545 3_546
Pr S3 Ba 99.005(9) . 3_546
Pr S3 Ba 170.61(5) 1_554 3_546
In S3 Ba 92.82(4) 3_545 3_545
Pr S3 Ba 170.61(5) . 3_545
Pr S3 Ba 99.006(9) 1_554 3_545
Ba S3 Ba 75.15(3) 3_546 3_545
In S4 In 180.000(11) 7_565 3_545
In S4 Pr 94.330(10) 7_565 .
In S4 Pr 85.670(10) 3_545 .
In S4 Pr 85.671(10) 7_565 5
In S4 Pr 94.329(10) 3_545 5
Pr S4 Pr 180.0 . 5
In S4 Pr 85.671(10) 7_565 5_556
In S4 Pr 94.329(10) 3_545 5_556
Pr S4 Pr 96.003(10) . 5_556
Pr S4 Pr 83.997(10) 5 5_556
In S4 Pr 94.329(10) 7_565 1_554
In S4 Pr 85.671(10) 3_545 1_554
Pr S4 Pr 83.997(10) . 1_554
Pr S4 Pr 96.003(10) 5 1_554
Pr S4 Pr 180.000(17) 5_556 1_554
loop_
_geom_bond_atom_site_label_1
_geom_bond_atom_site_label_2
_geom_bond_distance
_geom_bond_site_symmetry_2
Ba S3 3.2968(13) 7_565
Ba S3 3.2968(13) 3_556
Ba S3 3.2968(13) 7_566
Ba S3 3.2968(13) 3
Ba S2 3.2997(13) .
Ba S2 3.2998(13) 5_566
Ba S2 3.2998(13) 5_565
Ba S2 3.2998(13) 1_556
Ba Ba 4.0210(2) 1_556
Ba Ba 4.0210(2) 1_554
Pr S2 2.8474(12) 1_556
Pr S2 2.8474(12) .
Pr S3 2.9541(12) 1_556
Pr S3 2.9541(12) .
Pr S4 3.0047(3) .
Pr S4 3.0047(3) 1_556
Pr S1 3.1175(19) 7_565
Pr S1 3.3039(19) .
Pr Pr 4.0210(2) 1_556
Pr Pr 4.0210(2) 1_554
In S3 2.4558(17) 3
In S1 2.4558(11) 1_554
In S1 2.4558(11) .
In S2 2.5385(17) .
In S4 2.8734(5) 3
S1 In 2.4558(11) 1_556
S1 Pr 3.1175(19) 7_665
S2 Pr 2.8474(12) 1_554
S2 Ba 3.2997(13) 1_554
S3 In 2.4557(17) 3_545
S3 Pr 2.9542(12) 1_554
S3 Ba 3.2968(13) 3_546
S3 Ba 3.2968(13) 3_545
S4 In 2.8734(5) 7_565
S4 In 2.8734(5) 3_545
S4 Pr 3.0047(3) 5
S4 Pr 3.0047(3) 5_556
S4 Pr 3.0047(3) 1_554
