#------------------------------------------------------------------------------
#$Date: 2016-08-07 12:09:56 +0300 (Sun, 07 Aug 2016) $
#$Revision: 185456 $
#$URL: file:///home/coder/svn-repositories/cod/cif/7/03/98/7039846.cif $
#------------------------------------------------------------------------------
#
# This file is available in the Crystallography Open Database (COD),
# http://www.crystallography.net/
#
# All data on this site have been placed in the public domain by the
# contributors.
#
data_7039846
loop_
_publ_author_name
'Yin, Wenlong'
'Iyer, Abishek K.'
'Lin, Xinsong'
'Li, Chao'
'Yao, Jiyong'
'Mar, Arthur'
_publ_section_title
;
 Quaternary chalcogenides BaRE2In2Ch7 (RE = La-Nd; Ch = S, Se) containing
 InCh5 trigonal bipyramids.
;
_journal_issue                   31
_journal_name_full
'Dalton transactions (Cambridge, England : 2003)'
_journal_page_first              12329
_journal_page_last               12337
_journal_paper_doi               10.1039/c6dt02385a
_journal_volume                  45
_journal_year                    2016
_chemical_formula_structural     'Ba La2 In2 Se7'
_chemical_formula_sum            'Ba In2 La2 Se7'
_chemical_formula_weight         1197.52
_chemical_name_common            'barium lanthanum indium selenide (1/2/2/7)'
_chemical_name_systematic        'barium lanthanum indium selenide (1/2/2/7)'
_space_group_crystal_system      orthorhombic
_space_group_IT_number           55
_space_group_name_Hall           '-P 2 2ab'
_space_group_name_H-M_alt        'P b a m'
_symmetry_space_group_name_Hall  '-P 2 2ab'
_symmetry_space_group_name_H-M   'P b a m'
_audit_creation_method           SHELXL-2014/7
_cell_angle_alpha                90
_cell_angle_beta                 90
_cell_angle_gamma                90
_cell_formula_units_Z            2
_cell_length_a                   12.1515(6)
_cell_length_b                   12.9367(7)
_cell_length_c                   4.1966(2)
_cell_measurement_reflns_used    3411
_cell_measurement_temperature    296(2)
_cell_measurement_theta_max      30.83
_cell_measurement_theta_min      3.35
_cell_volume                     659.71(6)
_computing_cell_refinement       'Bruker SAINT 8.34A (Bruker, 2013)'
_computing_data_collection       'Bruker APEX 2 (Bruker, 2008)'
_computing_data_reduction        'Bruker SAINT 8.34A'
_computing_molecular_graphics    'ATOMS 5.1 (Dowty, 1999)'
_computing_publication_material  'SHELXL-2014/7 (Sheldrick, 2014)'
_computing_structure_refinement  'SHELXL-2014/7 (Sheldrick, 2014)'
_computing_structure_solution    'SHELXS-97 (Sheldrick, 2008)'
_diffrn_ambient_temperature      296(2)
_diffrn_measured_fraction_theta_full 1.000
_diffrn_measured_fraction_theta_max 1.000
_diffrn_measurement_device_type  'Bruker PLATFORM/SMART APEX II CCD'
_diffrn_measurement_method       '\w and \f scans'
_diffrn_radiation_type           MoK\a
_diffrn_radiation_wavelength     0.71073
_diffrn_reflns_av_R_equivalents  0.0533
_diffrn_reflns_av_unetI/netI     0.0302
_diffrn_reflns_Laue_measured_fraction_full 1.000
_diffrn_reflns_Laue_measured_fraction_max 1.000
_diffrn_reflns_limit_h_max       18
_diffrn_reflns_limit_h_min       -18
_diffrn_reflns_limit_k_max       19
_diffrn_reflns_limit_k_min       -19
_diffrn_reflns_limit_l_max       6
_diffrn_reflns_limit_l_min       -6
_diffrn_reflns_number            9266
_diffrn_reflns_point_group_measured_fraction_full 1.000
_diffrn_reflns_point_group_measured_fraction_max 1.000
_diffrn_reflns_theta_full        25.242
_diffrn_reflns_theta_max         33.149
_diffrn_reflns_theta_min         2.299
_diffrn_source                   'fine-focus sealed tube'
_exptl_absorpt_coefficient_mu    31.978
_exptl_absorpt_correction_T_max  0.532
_exptl_absorpt_correction_T_min  0.113
_exptl_absorpt_correction_type   numerical
_exptl_absorpt_process_details   'SHELXL-2014/7 (Sheldrick, 2014)'
_exptl_crystal_colour            black
_exptl_crystal_density_diffrn    6.029
_exptl_crystal_description       needle
_exptl_crystal_F_000             1012
_exptl_crystal_size_max          0.094
_exptl_crystal_size_mid          0.039
_exptl_crystal_size_min          0.033
_refine_diff_density_max         1.719
_refine_diff_density_min         -1.990
_refine_diff_density_rms         0.358
_refine_ls_extinction_coef       0.00181(14)
_refine_ls_extinction_expression Fc^*^=kFc[1+0.001xFc^2^\l^3^/sin(2\q)]^-1/4^
_refine_ls_extinction_method     'SHELXL-2014/7 (Sheldrick 2014'
_refine_ls_goodness_of_fit_ref   1.144
_refine_ls_hydrogen_treatment    undef
_refine_ls_matrix_type           full
_refine_ls_number_parameters     40
_refine_ls_number_reflns         1407
_refine_ls_number_restraints     0
_refine_ls_restrained_S_all      1.144
_refine_ls_R_factor_all          0.0354
_refine_ls_R_factor_gt           0.0279
_refine_ls_shift/su_max          0.000
_refine_ls_shift/su_mean         0.000
_refine_ls_structure_factor_coef Fsqd
_refine_ls_weighting_details
'w=1/[\s^2^(Fo^2^)+(0.0222P)^2^+1.9943P] where P=(Fo^2^+2Fc^2^)/3'
_refine_ls_weighting_scheme      calc
_refine_ls_wR_factor_gt          0.0569
_refine_ls_wR_factor_ref         0.0597
_reflns_Friedel_coverage         0.000
_reflns_number_gt                1207
_reflns_number_total             1407
_reflns_threshold_expression     'I > 2\s(I)'
_cod_data_source_file            c6dt02385a4.cif
_cod_data_source_block           pbam
_cod_depositor_comments
'Adding full bibliography for 7039846--7039853.cif.'
_cod_database_code               7039846
_shelx_shelxl_version_number     2014/7
_shelx_space_group_comment
;
The symmetry employed for this shelxl refinement is uniquely defined
by the following loop, which should always be used as a source of
symmetry information in preference to the above space-group names.
They are only intended as comments.
;
_shelx_estimated_absorpt_t_min   0.153
_shelx_estimated_absorpt_t_max   0.418
_shelx_res_file
;

    pbam.res created by SHELXL-2014/7

TITL BaLa2In2Se7 Pbam lsf final refinement
CELL 0.71073  12.15150  12.93670   4.19660  90.0000  90.0000  90.0000
ZERR    2.00   0.00060   0.00070   0.00020   0.0000   0.0000   0.0000
LATT  1
SYMM -X, -Y, Z
SYMM 0.5-X, 0.5+Y, -Z
SYMM 0.5+X, 0.5-Y, -Z
SFAC SE IN BA LA
UNIT 14 4 2 4
TEMP 23
SIZE 0.033 0.039 0.094

L.S. 4
ACTA

WGHT    0.022200    1.994300
EXTI    0.001810
FVAR       0.05436
BA    3    0.000000    0.500000    0.500000    10.25000    0.01888    0.02503 =
         0.01223    0.00000    0.00000    0.00535
LA    4    0.117637    0.142341    0.500000    10.50000    0.01459    0.01343 =
         0.00972    0.00000    0.00000    0.00041
IN    2    0.283594    0.377916    0.000000    10.50000    0.01851    0.01490 =
         0.01228    0.00000    0.00000    0.00283
SE1   1    0.357416    0.283720    0.500000    10.50000    0.01580    0.01592 =
         0.01097    0.00000    0.00000    0.00266
SE2   1    0.077918    0.305645    0.000000    10.50000    0.01431    0.01226 =
         0.01320    0.00000    0.00000    0.00016
SE3   1    0.288588    0.064812    0.000000    10.50000    0.01273    0.01230 =
         0.01491    0.00000    0.00000    0.00038
SE4   1    0.000000    0.000000    0.000000    10.25000    0.01371    0.01325 =
         0.01324    0.00000    0.00000   -0.00239
HKLF 4

REM  BaLa2In2Se7 Pbam lsf final refinement
REM R1 =  0.0279 for    1207 Fo > 4sig(Fo)  and  0.0354 for all    1407 data
REM     40 parameters refined using      0 restraints

END

WGHT      0.0222      1.9856

REM Highest difference peak  1.719,  deepest hole -1.990,  1-sigma level  0.358
Q1    1  -0.0430  0.0616  0.0000  10.50000  0.05    1.72
Q2    1   0.3418  0.2479  0.0000  10.50000  0.05    1.59
Q3    1   0.3785  0.1458  0.0000  10.50000  0.05    1.55
Q4    1   0.0773  0.4129  0.0000  10.50000  0.05    1.45
Q5    1   0.3201  0.1458  0.5000  10.50000  0.05    1.43
Q6    1  -0.1362  0.5248  0.5000  10.50000  0.05    1.41
Q7    1   0.2989  0.1764  0.0000  10.50000  0.05    1.41
Q8    1  -0.0629  0.3079  0.0000  10.50000  0.05    1.27
Q9    1   0.1572  0.3012  0.0000  10.50000  0.05    1.25
Q10   1   0.3818  0.3332  0.5000  10.50000  0.05    1.24
Q11   1   0.0813 -0.0043  0.5000  10.50000  0.05    1.24
Q12   1   0.2279  0.1324  0.0000  10.50000  0.05    1.21
Q13   1   0.1443  0.3795  0.0000  10.50000  0.05    1.20
Q14   1   0.0351  0.0582  0.0000  10.50000  0.05    1.15
Q15   1   0.3143  0.2219  0.5000  10.50000  0.05    1.14
Q16   1   0.1438  0.1330  0.2918  11.00000  0.05    1.08
Q17   1   0.2395  0.2211  0.5000  10.50000  0.05    1.03
Q18   1   0.1277  0.0952  0.5000  10.50000  0.05    1.03
Q19   1   0.2139  0.0617  0.5000  10.50000  0.05    1.03
Q20   1   0.3447  0.4991  0.0000  10.50000  0.05    1.03
;
_shelx_res_checksum              8324
_shelx_hkl_file
;
  -2  -7  -6    2.58    1.49
  -1  -7  -6    6.19    2.06
  -4  -6  -6    0.46    1.21
  -3  -6  -6   62.75    4.98
  -2  -6  -6    9.07    2.22
  -1  -6  -6    0.23    0.88
   0  -6  -6    9.69    2.50
   1  -6  -6    1.32    1.26
  -5  -5  -6   -0.82    1.06
  -4  -5  -6   -0.25    0.66
  -3  -5  -6    0.36    0.70
  -2  -5  -6   14.62    1.93
  -1  -5  -6    3.74    1.08
   0  -5  -6   -0.10    0.61
   1  -5  -6    3.45    1.03
   2  -5  -6   21.30    2.51
   3  -5  -6    0.98    0.81
  -5  -4  -6    1.49    1.19
  -4  -4  -6    5.20    1.17
  -3  -4  -6   -0.01    0.65
  -2  -4  -6   16.93    2.11
  -1  -4  -6    4.70    1.09
   0  -4  -6    2.88    1.04
   1  -4  -6    2.71    0.88
   2  -4  -6   18.84    2.31
   3  -4  -6    0.09    0.65
   4  -4  -6    4.63    1.28
   5  -4  -6   -0.48    0.91
  -6  -3  -6   34.96    4.10
  -5  -3  -6    0.70    0.85
  -4  -3  -6    1.05    1.08
  -3  -3  -6    9.98    2.14
  -2  -3  -6    0.21    0.91
  -1  -3  -6    6.46    1.20
   0  -3  -6    0.34    0.64
   1  -3  -6    5.96    1.30
   2  -3  -6    0.35    0.68
   3  -3  -6   10.77    1.72
   4  -3  -6    1.41    0.80
   5  -3  -6    0.59    0.79
   6  -3  -6   35.21    6.44
  -6  -2  -6    4.36    1.60
  -5  -2  -6    6.39    1.85
  -4  -2  -6   30.69    3.83
  -3  -2  -6    4.77    1.53
  -2  -2  -6    0.96    0.87
  -1  -2  -6    0.14    0.77
   0  -2  -6    0.93    0.87
   1  -2  -6   -0.44    0.49
   2  -2  -6    0.66    0.67
   3  -2  -6    4.87    1.20
   4  -2  -6   23.43    2.58
   5  -2  -6    6.51    1.39
   6  -2  -6    5.52    1.89
  -6  -1  -6    7.52    1.89
  -5  -1  -6    1.56    1.09
  -4  -1  -6   19.88    3.08
  -3  -1  -6    6.28    1.85
  -2  -1  -6    2.80    1.19
  -1  -1  -6    0.75    0.88
   0  -1  -6   -0.49    0.65
   1  -1  -6    1.03    0.94
   2  -1  -6    0.59    0.63
   3  -1  -6    3.63    1.08
   4  -1  -6   16.47    2.13
   5  -1  -6    2.66    0.98
   6  -1  -6    8.12    2.15
  -6   0  -6    0.52    0.92
  -5   0  -6   -0.66    0.71
  -4   0  -6   -0.77    0.68
  -3   0  -6    0.31    0.82
  -2   0  -6   -0.21    0.73
  -1   0  -6   -0.03    0.62
   0   0  -6  198.90   10.19
   1   0  -6    0.01    0.59
   2   0  -6    0.37    0.88
   3   0  -6    0.60    0.84
   4   0  -6   -0.18    0.60
   5   0  -6    0.68    0.71
   6   0  -6   -0.32    0.70
  -6   1  -6   12.33    2.40
  -5   1  -6    3.94    1.36
  -4   1  -6   18.71    2.93
  -3   1  -6    4.45    1.59
  -2   1  -6    3.08    1.34
  -1   1  -6    0.63    0.88
   0   1  -6    0.54    0.79
   1   1  -6   -0.47    0.61
   2   1  -6    1.14    1.10
   3   1  -6    7.53    1.95
   4   1  -6   18.85    3.08
   5   1  -6    2.20    0.91
   6   1  -6   12.71    1.88
  -6   2  -6    5.62    1.72
  -5   2  -6    6.15    1.78
  -4   2  -6   30.28    3.72
  -3   2  -6    6.96    1.88
  -2   2  -6    0.24    0.80
  -1   2  -6   -0.60    0.54
   0   2  -6   -0.02    0.70
   1   2  -6   -0.11    0.66
   2   2  -6    1.23    1.03
   3   2  -6    4.55    1.57
   4   2  -6   28.67    3.90
   5   2  -6    4.53    1.19
   6   2  -6    5.96    1.48
  -6   3  -6   38.97    3.21
  -5   3  -6    0.47    0.84
  -4   3  -6    2.00    1.17
  -3   3  -6   12.14    2.39
  -2   3  -6    0.50    0.85
  -1   3  -6    7.80    2.05
   0   3  -6   -0.48    0.66
   1   3  -6    8.22    2.13
   2   3  -6   -0.15    0.73
   3   3  -6   13.24    2.60
   4   3  -6    0.84    0.93
   5   3  -6    1.48    1.13
   6   3  -6   34.59    4.39
  -5   4  -6    0.77    0.63
  -4   4  -6    3.95    1.05
  -3   4  -6   -0.15    0.81
  -2   4  -6   17.95    2.89
  -1   4  -6    6.39    1.92
   0   4  -6    4.47    1.60
   1   4  -6    4.53    1.63
   2   4  -6   13.71    2.76
   3   4  -6    0.33    0.90
   4   4  -6    4.72    1.72
   5   4  -6    0.41    1.43
  -5   5  -6    0.79    0.84
  -4   5  -6    0.59    0.64
  -3   5  -6    1.26    0.66
  -2   5  -6   14.02    2.64
  -1   5  -6    2.69    1.31
   0   5  -6   -0.33    0.70
   1   5  -6    5.35    1.81
   2   5  -6   15.85    2.89
   3   5  -6    1.22    1.05
  -4   6  -6    0.13    0.73
  -3   6  -6   45.34    3.52
  -2   6  -6   15.52    2.34
  -1   6  -6    0.38    0.67
  -2   7  -6    0.29    0.79
  -1   7  -6    6.69    1.64
   0   7  -6   -0.93    0.59
   1   7  -6    2.80    1.82
   0 -12  -5   -0.34    1.22
   1 -12  -5    2.06    1.41
   2 -12  -5   -1.22    1.07
  -5 -11  -5   -0.03    1.11
  -4 -11  -5    1.10    1.26
  -3 -11  -5    0.40    1.06
  -2 -11  -5    7.67    2.25
  -1 -11  -5   20.12    2.36
   0 -11  -5   -0.51    0.64
   1 -11  -5   16.55    2.24
   2 -11  -5    9.58    1.77
   3 -11  -5   -0.36    0.72
   4 -11  -5    0.35    0.87
   5 -11  -5    0.70    1.12
  -7 -10  -5    1.52    1.38
  -6 -10  -5    5.56    1.91
  -5 -10  -5    2.84    1.43
  -4 -10  -5   13.14    2.63
  -3 -10  -5    8.67    2.28
  -2 -10  -5    1.04    0.70
  -1 -10  -5   12.29    1.77
   0 -10  -5    7.01    1.35
   1 -10  -5    9.01    1.63
   2 -10  -5    1.03    0.80
   3 -10  -5   10.12    1.82
   4 -10  -5    9.25    1.68
   5 -10  -5    3.08    1.18
   6 -10  -5    7.19    1.33
   7 -10  -5    1.60    1.42
  -7  -9  -5    4.44    1.67
  -6  -9  -5    6.68    1.88
  -5  -9  -5   27.15    3.74
  -4  -9  -5    2.37    1.30
  -3  -9  -5    1.63    0.82
  -2  -9  -5   33.28    2.90
  -1  -9  -5    5.94    1.26
   0  -9  -5    0.02    0.51
   1  -9  -5    6.96    1.37
   2  -9  -5   32.07    3.03
   3  -9  -5    0.85    0.76
   4  -9  -5    3.77    1.16
   5  -9  -5   28.85    3.03
   6  -9  -5    8.62    1.64
   7  -9  -5    4.12    0.98
   8  -9  -5    4.67    1.86
  -7  -8  -5    3.01    1.36
  -6  -8  -5    1.60    1.11
  -5  -8  -5   16.72    2.85
  -4  -8  -5   12.23    2.56
  -3  -8  -5    7.17    1.27
  -2  -8  -5    7.22    1.30
  -1  -8  -5    9.18    1.50
   0  -8  -5   14.80    1.89
   1  -8  -5    7.52    1.35
   2  -8  -5    8.12    1.47
   3  -8  -5    5.08    1.19
   4  -8  -5    6.60    1.42
   5  -8  -5   11.98    1.93
   6  -8  -5    0.20    0.74
   7  -8  -5    3.77    0.98
   8  -8  -5    0.41    0.64
  -7  -7  -5    3.01    1.31
  -6  -7  -5    0.95    1.02
  -5  -7  -5   49.60    4.19
  -4  -7  -5   -0.26    0.45
  -3  -7  -5    0.86    0.62
  -2  -7  -5    3.89    0.96
  -1  -7  -5    5.54    1.12
   0  -7  -5   -0.15    0.41
   1  -7  -5    6.64    1.30
   2  -7  -5    4.93    1.15
   3  -7  -5    1.25    0.69
   4  -7  -5    0.29    0.55
   5  -7  -5   47.81    3.37
   6  -7  -5    2.89    1.01
   7  -7  -5    1.38    0.85
   8  -7  -5    4.63    1.02
   9  -7  -5    0.31    1.17
  -7  -6  -5    3.04    1.32
  -6  -6  -5    0.39    0.72
  -5  -6  -5    7.26    1.25
  -4  -6  -5    0.15    0.47
  -3  -6  -5    2.67    0.85
  -2  -6  -5    1.43    0.72
  -1  -6  -5   51.35    2.97
   0  -6  -5   11.71    1.58
   1  -6  -5   49.22    3.23
   2  -6  -5    2.84    0.89
   3  -6  -5    2.32    0.80
   4  -6  -5    0.39    0.53
   5  -6  -5    7.51    1.42
   6  -6  -5    0.23    0.63
   7  -6  -5    5.18    1.26
   8  -6  -5    3.45    0.84
   9  -6  -5    3.83    1.14
  -7  -5  -5   21.44    2.96
  -6  -5  -5   16.80    2.66
  -5  -5  -5    3.70    1.19
  -4  -5  -5   -0.66    0.52
  -3  -5  -5   18.53    1.96
  -2  -5  -5   22.82    2.15
  -1  -5  -5    0.01    0.44
   0  -5  -5   -0.40    0.41
   1  -5  -5   -0.20    0.41
   2  -5  -5   23.71    2.32
   3  -5  -5   16.72    1.93
   4  -5  -5   -0.06    0.49
   5  -5  -5    7.59    1.41
   6  -5  -5   17.22    2.10
   7  -5  -5   14.01    1.97
   8  -5  -5    0.17    0.48
   9  -5  -5    6.50    1.37
  10  -5  -5   12.56    2.00
  -7  -4  -5    3.30    1.16
  -6  -4  -5    5.10    1.36
  -5  -4  -5    3.80    1.21
  -4  -4  -5   27.30    3.34
  -3  -4  -5    0.29    0.70
  -2  -4  -5    6.25    1.51
  -1  -4  -5    7.12    1.65
   0  -4  -5    1.75    0.65
   1  -4  -5    6.38    1.14
   2  -4  -5    9.48    1.48
   3  -4  -5    1.61    0.67
   4  -4  -5   27.12    2.54
   5  -4  -5    6.76    1.27
   6  -4  -5    3.46    0.93
   7  -4  -5    1.88    0.81
   8  -4  -5    3.02    0.78
   9  -4  -5   11.47    1.81
  10  -4  -5    0.34    0.67
  11  -4  -5    0.97    1.29
 -11  -3  -5    5.08    1.63
  -7  -3  -5   45.60    3.51
  -6  -3  -5    0.73    0.75
  -5  -3  -5   19.90    2.71
  -4  -3  -5    5.93    1.52
  -3  -3  -5    1.90    0.94
  -2  -3  -5   42.98    3.48
  -1  -3  -5   61.32    4.39
   0  -3  -5    0.63    0.71
   1  -3  -5   63.62    3.26
   2  -3  -5   40.88    3.15
   3  -3  -5    1.50    0.67
   4  -3  -5    5.38    1.13
   5  -3  -5   20.28    2.19
   6  -3  -5    0.62    0.59
   7  -3  -5   39.76    3.18
   8  -3  -5   11.38    1.49
   9  -3  -5    3.67    1.06
  10  -3  -5   11.13    1.64
  11  -3  -5    5.75    1.29
 -11  -2  -5   10.25    2.01
 -10  -2  -5    1.00    0.82
  -9  -2  -5   -0.41    0.58
  -8  -2  -5    1.90    0.86
  -7  -2  -5   15.39    2.36
  -6  -2  -5    1.53    0.94
  -5  -2  -5   -0.06    0.56
  -4  -2  -5    2.91    1.07
  -3  -2  -5    8.54    1.79
  -2  -2  -5   11.78    2.04
  -1  -2  -5   20.53    2.71
   0  -2  -5    4.37    1.29
   1  -2  -5   19.90    2.69
   2  -2  -5   12.77    2.23
   3  -2  -5    6.86    1.21
   4  -2  -5    3.43    0.90
   5  -2  -5    0.11    0.43
   6  -2  -5    1.65    0.72
   7  -2  -5   13.52    1.80
   8  -2  -5    0.63    0.63
   9  -2  -5    1.15    0.69
  10  -2  -5    1.37    0.74
  11  -2  -5    7.46    1.48
 -11  -1  -5    3.18    1.17
 -10  -1  -5   22.65    2.81
  -9  -1  -5    0.49    0.69
  -8  -1  -5   15.23    2.22
  -7  -1  -5    2.67    0.69
  -6  -1  -5    0.29    0.44
  -5  -1  -5   39.73    3.22
  -4  -1  -5    5.67    1.45
  -3  -1  -5   24.49    2.99
  -2  -1  -5    0.42    0.57
  -1  -1  -5   -0.46    0.38
   0  -1  -5   -0.53    0.51
   1  -1  -5    0.25    0.64
   2  -1  -5    0.51    0.58
   3  -1  -5   25.78    3.23
   4  -1  -5    5.62    1.04
   5  -1  -5   39.21    2.71
   6  -1  -5    0.54    0.55
   7  -1  -5    2.49    0.85
   8  -1  -5   16.07    1.86
   9  -1  -5    1.88    0.80
  10  -1  -5   22.11    2.39
  11  -1  -5    3.93    1.08
 -11   0  -5    0.37    0.72
 -10   0  -5    5.75    1.40
  -9   0  -5   -0.20    0.52
  -8   0  -5   60.81    3.90
  -7   0  -5    0.20    0.39
  -6   0  -5   17.35    1.62
  -5   0  -5   -0.10    0.29
  -4   0  -5   62.33    2.83
  -3   0  -5   -0.35    0.49
  -2   0  -5   21.03    2.83
  -1   0  -5    0.55    0.64
   0   0  -5    0.18    0.59
   1   0  -5   -0.10    0.51
   2   0  -5   26.03    3.17
   3   0  -5   -0.73    0.38
   4   0  -5   63.28    4.53
   5   0  -5   -0.33    0.42
   6   0  -5   12.72    1.69
   7   0  -5    0.08    0.50
   8   0  -5   52.19    3.25
   9   0  -5    0.42    0.56
  10   0  -5    3.84    1.05
  11   0  -5   -0.07    0.55
 -11   1  -5    5.01    1.42
 -10   1  -5   24.03    2.86
  -9   1  -5    1.85    0.86
  -8   1  -5   10.68    1.81
  -7   1  -5    2.04    0.61
  -6   1  -5    0.55    0.41
  -5   1  -5   39.80    2.14
  -4   1  -5    6.87    0.99
  -3   1  -5   24.81    1.72
  -2   1  -5    0.18    0.31
  -1   1  -5    0.12    0.56
   0   1  -5   -0.34    0.50
   1   1  -5    0.36    0.60
   2   1  -5   -0.11    0.50
   3   1  -5   19.77    2.78
   4   1  -5    9.62    1.94
   5   1  -5   37.03    4.03
   6   1  -5    1.60    0.69
   7   1  -5    1.61    0.72
   8   1  -5   11.96    1.66
   9   1  -5    2.06    0.81
  10   1  -5   23.45    2.38
  11   1  -5    4.12    1.59
 -11   2  -5    8.26    1.83
 -10   2  -5    1.97    0.85
  -9   2  -5    0.83    0.74
  -8   2  -5    2.17    0.94
  -7   2  -5   14.01    1.49
  -6   2  -5    0.72    0.48
  -5   2  -5    0.08    0.31
  -4   2  -5    3.08    0.68
  -3   2  -5    7.75    1.05
  -2   2  -5   13.12    1.36
  -1   2  -5   20.36    1.71
   0   2  -5    4.71    0.81
   1   2  -5   23.46    2.95
   2   2  -5   12.50    2.19
   3   2  -5    7.31    1.67
   4   2  -5    3.67    1.21
   5   2  -5   -0.48    0.48
   6   2  -5    3.52    1.32
   7   2  -5   16.29    1.89
   8   2  -5    2.09    0.74
   9   2  -5   -0.07    0.48
 -11   3  -5    4.36    1.51
 -10   3  -5   10.67    1.97
  -9   3  -5    5.44    1.36
  -8   3  -5    9.86    1.79
  -7   3  -5   38.31    2.21
  -6   3  -5    0.69    0.49
  -5   3  -5   20.34    1.79
  -4   3  -5    6.47    1.00
  -3   3  -5    1.03    0.49
  -2   3  -5   42.42    2.23
  -1   3  -5   68.39    2.96
   0   3  -5    0.25    0.36
   1   3  -5   65.23    2.88
   2   3  -5   36.55    3.37
   3   3  -5    0.21    0.64
   4   3  -5    7.12    1.71
   5   3  -5   22.39    3.00
   6   3  -5    0.95    0.78
   7   3  -5   36.79    2.61
   8   3  -5   13.60    1.75
   9   3  -5    8.85    2.05
 -10   4  -5    1.16    0.86
  -9   4  -5    8.12    1.69
  -8   4  -5    2.01    0.88
  -7   4  -5    2.81    0.71
  -6   4  -5    3.86    0.79
  -5   4  -5    6.23    1.03
  -4   4  -5   30.20    2.01
  -3   4  -5    1.09    0.50
  -2   4  -5    9.69    1.24
  -1   4  -5    5.29    0.84
   0   4  -5    0.39    0.39
   1   4  -5    7.40    1.05
   2   4  -5   10.20    1.19
   3   4  -5    1.31    0.49
   4   4  -5   34.04    3.78
   5   4  -5    7.30    1.81
   6   4  -5    1.64    0.97
   7   4  -5    3.33    1.31
   8   4  -5    2.19    0.78
 -10   5  -5   10.74    1.99
  -9   5  -5    7.44    1.63
  -8   5  -5    0.36    0.64
  -7   5  -5   16.41    1.70
  -6   5  -5   17.77    1.75
  -5   5  -5    6.77    0.99
  -4   5  -5   -0.28    0.33
  -3   5  -5   17.66    1.69
  -2   5  -5   19.87    1.81
  -1   5  -5    0.09    0.35
   0   5  -5   -0.28    0.32
   1   5  -5    0.38    0.37
   2   5  -5   22.64    1.90
   3   5  -5   21.84    1.82
   4   5  -5    0.04    0.34
   5   5  -5    5.56    1.57
   6   5  -5   22.02    3.14
   7   5  -5   14.61    2.61
   8   5  -5    0.04    0.81
  -9   6  -5    3.79    1.24
  -8   6  -5    5.20    1.35
  -7   6  -5    3.92    0.87
  -6   6  -5    0.55    0.46
  -5   6  -5    7.82    1.08
  -4   6  -5    0.81    0.49
  -3   6  -5    3.00    0.96
  -2   6  -5    0.90    0.62
  -1   6  -5   54.38    3.56
   0   6  -5    6.77    1.39
   1   6  -5   50.33    3.41
   2   6  -5    0.69    0.59
   3   6  -5    2.93    0.94
   4   6  -5    0.40    0.61
   5   6  -5    5.99    0.98
   6   6  -5    0.14    0.43
   7   6  -5    3.39    1.35
   8   6  -5    3.89    1.39
  -9   7  -5    1.00    0.99
  -8   7  -5    6.78    1.59
  -7   7  -5    0.77    0.53
  -6   7  -5    3.00    0.66
  -5   7  -5   55.07    3.77
  -4   7  -5    0.29    0.55
  -3   7  -5    0.36    0.62
  -2   7  -5    6.02    1.40
  -1   7  -5   10.59    1.72
   0   7  -5    0.29    0.48
   1   7  -5    9.20    1.63
   2   7  -5    4.72    1.17
   3   7  -5    1.59    0.73
   4   7  -5    0.18    0.52
   5   7  -5   51.50    3.59
   6   7  -5    2.66    0.99
   7   7  -5    1.96    0.65
   8   7  -5    3.48    1.40
  -8   8  -5    0.12    0.66
  -7   8  -5    2.90    1.15
  -6   8  -5    1.10    0.73
  -5   8  -5   14.49    2.21
  -4   8  -5    7.06    1.58
  -3   8  -5    7.46    1.53
  -2   8  -5    7.20    1.55
  -1   8  -5    5.83    1.37
   0   8  -5   12.98    1.97
   1   8  -5   11.28    1.83
   2   8  -5    9.80    1.74
   3   8  -5    3.87    1.09
   4   8  -5    7.97    1.59
   5   8  -5   15.19    2.23
   6   8  -5    0.73    0.74
   7   8  -5    4.59    1.28
   8   8  -5   -0.29    0.54
  -7   9  -5    5.55    1.43
  -6   9  -5    6.73    1.57
  -5   9  -5   24.89    3.01
  -4   9  -5    3.89    1.24
  -3   9  -5    0.99    0.80
  -2   9  -5   35.99    3.65
  -1   9  -5    6.80    1.49
   0   9  -5    0.36    0.60
   1   9  -5    7.44    1.54
   2   9  -5   35.20    3.51
   3   9  -5    1.47    0.82
   4   9  -5    1.67    0.82
   5   9  -5   30.86    3.32
   6   9  -5    8.92    1.88
   7   9  -5    4.69    1.42
   8   9  -5    5.88    1.72
  -6  10  -5    5.15    2.00
  -5  10  -5    1.29    0.88
  -4  10  -5   11.12    2.08
  -3  10  -5    8.42    1.79
  -2  10  -5    2.58    1.06
  -1  10  -5    7.61    1.64
   0  10  -5    6.66    1.51
   1  10  -5   10.40    1.89
   2  10  -5    1.17    0.83
   3  10  -5    6.38    1.51
   4  10  -5    8.80    1.78
   5  10  -5    5.77    1.53
   6  10  -5    6.91    1.72
   7  10  -5    1.00    1.00
  -4  11  -5    1.10    1.00
  -3  11  -5    1.34    0.83
  -2  11  -5    6.65    1.60
  -1  11  -5   15.96    2.44
   0  11  -5   -0.14    0.60
   1  11  -5   13.49    2.23
   2  11  -5    7.84    1.79
   3  11  -5    0.00    0.66
   4  11  -5    1.56    0.87
   5  11  -5    0.15    0.93
  -1 -15  -4   -1.13    1.56
   0 -15  -4    0.63    2.04
   2 -15  -4    3.01    1.79
   3 -15  -4    3.91    1.98
  -6 -14  -4    5.82    2.32
  -5 -14  -4    3.05    1.78
  -4 -14  -4    1.15    1.50
  -3 -14  -4   -0.17    1.28
  -2 -14  -4   -0.08    1.13
  -1 -14  -4    3.05    1.55
   0 -14  -4   51.79    6.33
   1 -14  -4    1.85    0.97
   2 -14  -4    2.72    1.25
   3 -14  -4    0.68    0.94
   4 -14  -4    5.04    1.35
   5 -14  -4    2.49    0.99
   6 -14  -4    3.63    1.35
  -7 -13  -4    5.03    2.28
  -6 -13  -4    9.03    2.68
  -5 -13  -4   43.04    5.55
  -4 -13  -4   12.72    2.85
  -3 -13  -4    0.46    1.11
  -2 -13  -4    0.48    1.06
  -1 -13  -4    5.18    1.94
   0 -13  -4   -0.86    0.62
   1 -13  -4    3.59    1.25
   2 -13  -4   -0.14    0.70
   3 -13  -4    0.03    0.55
   4 -13  -4   12.24    1.56
   5 -13  -4   36.40    2.82
   6 -13  -4    9.69    1.55
   7 -13  -4    3.23    1.09
   8 -13  -4   -0.01    1.73
  -7 -12  -4    9.14    2.47
  -6 -12  -4    7.13    2.18
  -5 -12  -4   -0.48    0.90
  -4 -12  -4    8.23    2.44
  -3 -12  -4    5.55    1.83
  -2 -12  -4   12.01    2.76
  -1 -12  -4   18.90    2.29
   0 -12  -4   11.92    1.80
   1 -12  -4   21.87    2.55
   2 -12  -4   15.23    2.20
   3 -12  -4    6.28    1.43
   4 -12  -4    9.27    1.38
   5 -12  -4    0.54    0.56
   6 -12  -4    9.98    1.43
   7 -12  -4    6.28    1.26
   8 -12  -4    0.38    0.71
   9 -12  -4    3.39    2.62
  -8 -11  -4    0.82    1.88
  -7 -11  -4    0.62    1.03
  -6 -11  -4    3.89    1.74
  -5 -11  -4    6.79    1.94
  -4 -11  -4    0.85    1.08
  -3 -11  -4   11.30    2.41
  -2 -11  -4    1.79    0.80
  -1 -11  -4   31.60    2.82
   0 -11  -4   -0.29    0.51
   1 -11  -4   27.47    2.64
   2 -11  -4    3.05    0.99
   3 -11  -4    8.15    1.49
   4 -11  -4    2.04    0.88
   5 -11  -4    5.32    1.01
   6 -11  -4    2.86    0.82
   7 -11  -4    0.55    0.59
   8 -11  -4    0.82    0.64
   9 -11  -4    7.97    1.73
  -8 -10  -4    1.70    1.23
  -7 -10  -4    2.04    1.32
  -6 -10  -4    5.36    1.74
  -5 -10  -4    0.92    0.92
  -4 -10  -4   17.44    2.81
  -3 -10  -4   26.66    2.37
  -2 -10  -4   17.46    1.92
  -1 -10  -4   22.33    2.24
   0 -10  -4    2.10    0.78
   1 -10  -4   24.51    2.41
   2 -10  -4   16.13    2.00
   3 -10  -4   23.85    2.49
   4 -10  -4   13.48    1.90
   5 -10  -4    0.02    0.57
   6 -10  -4    4.73    1.01
   7 -10  -4    2.59    0.75
   8 -10  -4    1.10    0.62
   9 -10  -4    0.06    0.65
  10 -10  -4   -0.32    0.73
  -8  -9  -4    1.46    1.18
  -7  -9  -4   10.94    2.30
  -6  -9  -4   25.41    3.40
  -5  -9  -4    8.79    1.92
  -4  -9  -4    0.83    0.80
  -3  -9  -4   25.19    2.27
  -2  -9  -4    4.48    1.00
  -1  -9  -4    1.61    0.67
   0  -9  -4    0.41    0.46
   1  -9  -4    0.86    0.56
   2  -9  -4    6.60    1.25
   3  -9  -4   20.90    2.22
   4  -9  -4    1.14    0.67
   5  -9  -4   10.99    1.67
   6  -9  -4   27.76    2.17
   7  -9  -4    8.59    1.19
   8  -9  -4    0.82    0.58
   9  -9  -4    1.93    0.78
  10  -9  -4   14.67    2.17
  11  -9  -4   12.94    2.23
  -8  -8  -4   40.81    3.63
  -7  -8  -4    7.09    1.75
  -6  -8  -4    8.85    1.86
  -5  -8  -4   14.83    2.47
  -4  -8  -4    6.21    1.07
  -3  -8  -4   21.68    1.99
  -2  -8  -4    1.20    0.56
  -1  -8  -4   24.51    2.15
   0  -8  -4   23.16    2.19
   1  -8  -4   23.36    2.22
   2  -8  -4    0.75    0.52
   3  -8  -4   23.48    2.28
   4  -8  -4    4.59    1.09
   5  -8  -4    7.45    1.36
   6  -8  -4   11.60    1.73
   7  -8  -4    6.79    1.10
   8  -8  -4   37.20    2.64
   9  -8  -4    3.00    0.99
  10  -8  -4    8.53    1.67
  11  -8  -4    0.84    0.83
  12  -8  -4   -1.00    1.50
 -13  -7  -4    4.02    1.47
 -12  -7  -4    1.79    1.08
  -8  -7  -4    5.58    1.55
  -7  -7  -4   41.04    3.41
  -6  -7  -4    3.74    1.27
  -5  -7  -4    1.00    0.50
  -4  -7  -4   -0.30    0.37
  -3  -7  -4   14.84    1.59
  -2  -7  -4    8.35    1.17
  -1  -7  -4   16.07    1.73
   0  -7  -4   -0.11    0.37
   1  -7  -4   12.14    1.51
   2  -7  -4    5.43    1.00
   3  -7  -4   16.46    1.84
   4  -7  -4    0.60    0.47
   5  -7  -4    1.82    0.65
   6  -7  -4    3.62    0.97
   7  -7  -4   36.95    2.48
   8  -7  -4    6.17    1.00
   9  -7  -4   32.34    3.07
  10  -7  -4   -0.28    0.57
  11  -7  -4    1.21    0.76
  12  -7  -4    1.53    0.94
  13  -7  -4    6.46    2.53
 -13  -6  -4    0.97    1.08
 -12  -6  -4    3.78    1.32
 -11  -6  -4    5.76    1.56
 -10  -6  -4    6.07    1.47
  -9  -6  -4    6.00    1.49
  -8  -6  -4   25.43    3.01
  -7  -6  -4   13.23    2.15
  -6  -6  -4    1.19    0.79
  -5  -6  -4   25.01    2.03
  -4  -6  -4    0.36    0.40
  -3  -6  -4  112.28    4.39
  -2  -6  -4   46.58    2.50
  -1  -6  -4    0.53    0.40
   0  -6  -4   20.93    1.95
   1  -6  -4    0.69    0.47
   2  -6  -4   49.50    2.69
   3  -6  -4  120.63    4.69
   4  -6  -4    0.50    0.45
   5  -6  -4   24.53    2.32
   6  -6  -4    0.55    0.48
   7  -6  -4   13.78    1.73
   8  -6  -4   20.26    1.80
   9  -6  -4    6.77    1.38
  10  -6  -4    6.60    1.35
  11  -6  -4    3.31    1.20
  12  -6  -4    6.39    1.52
  13  -6  -4    1.14    1.14
 -13  -5  -4   -0.71    0.67
 -12  -5  -4    5.33    1.49
 -11  -5  -4    3.11    1.19
 -10  -5  -4    7.91    1.66
  -9  -5  -4    4.08    1.18
  -8  -5  -4    0.33    0.41
  -7  -5  -4   23.75    1.86
  -6  -5  -4   27.60    3.05
  -5  -5  -4    0.57    0.53
  -4  -5  -4    0.28    0.40
  -3  -5  -4    2.57    0.92
  -2  -5  -4   48.07    2.45
  -1  -5  -4   10.00    1.30
   0  -5  -4    0.10    0.31
   1  -5  -4    7.08    1.09
   2  -5  -4   44.89    2.50
   3  -5  -4    2.58    0.72
   4  -5  -4    0.02    0.30
   5  -5  -4   -0.07    0.37
   6  -5  -4   25.51    2.27
   7  -5  -4   19.78    2.03
   8  -5  -4   -0.01    0.31
   9  -5  -4    5.46    1.14
  10  -5  -4    6.55    1.31
  11  -5  -4    2.88    0.94
  12  -5  -4    1.49    0.86
  13  -5  -4    0.60    0.84
 -14  -4  -4    7.86    2.14
 -13  -4  -4    2.27    1.09
 -12  -4  -4   50.58    3.88
 -11  -4  -4    2.45    1.01
 -10  -4  -4    2.15    0.93
  -9  -4  -4    2.64    0.97
  -8  -4  -4    0.15    0.38
  -7  -4  -4    1.00    0.47
  -6  -4  -4   38.77    2.00
  -5  -4  -4    1.48    0.47
  -4  -4  -4   18.70    2.30
  -3  -4  -4    0.00    0.42
  -2  -4  -4   50.61    3.44
  -1  -4  -4   15.84    2.13
   0  -4  -4    7.69    1.53
   1  -4  -4   19.08    1.78
   2  -4  -4   50.17    2.57
   3  -4  -4    0.16    0.33
   4  -4  -4   13.76    1.55
   5  -4  -4    1.46    0.57
   6  -4  -4   36.86    2.52
   7  -4  -4    1.04    0.52
   8  -4  -4    0.49    0.37
   9  -4  -4    2.51    0.85
  10  -4  -4    1.94    0.77
  11  -4  -4    2.35    0.86
  12  -4  -4   52.22    3.97
  13  -4  -4    2.39    0.78
 -14  -3  -4    2.37    1.27
 -13  -3  -4    5.64    1.70
 -12  -3  -4    1.15    0.81
 -11  -3  -4   14.56    2.31
 -10  -3  -4   -0.18    0.47
  -9  -3  -4   51.86    3.54
  -8  -3  -4   35.62    1.97
  -7  -3  -4    9.34    1.12
  -6  -3  -4   87.97    3.26
  -5  -3  -4    2.12    0.53
  -4  -3  -4    6.11    0.80
  -3  -3  -4   37.58    1.76
  -2  -3  -4    0.38    0.54
  -1  -3  -4   16.97    2.25
   0  -3  -4   -0.03    0.31
   1  -3  -4   19.62    2.43
   2  -3  -4    0.99    0.48
   3  -3  -4   34.16    2.28
   4  -3  -4    4.65    0.92
   5  -3  -4    1.59    0.56
   6  -3  -4   80.67    3.64
   7  -3  -4    8.27    1.28
   8  -3  -4   35.15    2.01
   9  -3  -4   49.28    2.88
  10  -3  -4   -0.13    0.48
  11  -3  -4   14.42    1.97
  12  -3  -4    0.49    0.73
  13  -3  -4    4.77    1.10
  14  -3  -4    2.32    1.12
 -14  -2  -4    1.01    0.89
 -13  -2  -4    0.32    0.78
 -12  -2  -4    0.40    0.77
 -11  -2  -4   14.93    2.23
 -10  -2  -4   29.39    3.08
  -9  -2  -4    4.48    1.15
  -8  -2  -4    2.38    0.58
  -7  -2  -4   10.22    1.14
  -6  -2  -4   16.67    1.40
  -5  -2  -4   15.20    1.30
  -4  -2  -4   90.36    3.25
  -3  -2  -4   13.30    1.22
  -2  -2  -4    1.40    0.43
  -1  -2  -4    0.47    0.33
   0  -2  -4    0.20    0.39
   1  -2  -4    0.26    0.40
   2  -2  -4    1.64    0.74
   3  -2  -4   13.26    2.02
   4  -2  -4   93.14    3.77
   5  -2  -4   15.73    1.64
   6  -2  -4   18.58    1.68
   7  -2  -4    7.14    1.14
   8  -2  -4    2.07    0.55
   9  -2  -4    2.80    0.70
  10  -2  -4   26.33    2.39
  11  -2  -4   16.82    2.00
  12  -2  -4    0.96    0.52
  13  -2  -4    0.08    0.52
  14  -2  -4    1.32    0.77
 -14  -1  -4    0.67    0.91
 -13  -1  -4    1.87    1.08
 -12  -1  -4    9.56    1.95
 -11  -1  -4    8.00    1.68
 -10  -1  -4    3.74    1.12
  -9  -1  -4    3.42    1.09
  -8  -1  -4    3.57    0.65
  -7  -1  -4    3.29    0.65
  -6  -1  -4   22.10    1.62
  -5  -1  -4    9.72    1.03
  -4  -1  -4   55.32    2.37
  -3  -1  -4   17.64    1.35
  -2  -1  -4    3.61    0.60
  -1  -1  -4    1.08    0.35
   0  -1  -4   -0.10    0.18
   1  -1  -4    0.30    0.41
   2  -1  -4    2.12    0.80
   3  -1  -4   13.09    1.97
   4  -1  -4   60.34    3.87
   5  -1  -4    9.08    1.24
   6  -1  -4   21.77    1.88
   7  -1  -4    1.15    0.56
   8  -1  -4    2.75    0.75
   9  -1  -4    5.11    0.85
  10  -1  -4    5.52    1.11
  11  -1  -4    4.94    1.08
  12  -1  -4   13.32    1.68
  13  -1  -4    7.45    1.39
  14  -1  -4    0.71    0.69
 -14   0  -4   44.29    4.46
 -13   0  -4   -0.54    0.50
 -12   0  -4    8.75    1.69
 -11   0  -4   -0.32    0.51
 -10   0  -4   35.44    2.95
  -9   0  -4    0.84    0.59
  -8   0  -4   34.57    1.85
  -7   0  -4    0.15    0.29
  -6   0  -4    0.26    0.29
  -5   0  -4   -0.02    0.23
  -4   0  -4    0.45    0.30
  -3   0  -4    0.18    0.25
  -2   0  -4    0.44    0.27
  -1   0  -4    0.08    0.22
   0   0  -4  528.76   13.68
   1   0  -4   -0.23    0.21
   2   0  -4    0.87    0.32
   3   0  -4   -0.25    0.35
   4   0  -4    0.43    0.48
   5   0  -4    0.04    0.39
   6   0  -4    0.28    0.38
   7   0  -4    0.22    0.37
   8   0  -4   36.87    2.37
   9   0  -4    0.02    0.30
  10   0  -4   36.19    2.75
  11   0  -4    0.01    0.37
  12   0  -4    7.94    1.28
  13   0  -4    0.23    0.57
  14   0  -4   42.89    3.35
 -14   1  -4    1.14    0.88
 -13   1  -4    2.14    0.96
 -12   1  -4   11.42    2.01
 -11   1  -4    7.30    1.55
 -10   1  -4    6.24    1.34
  -9   1  -4    4.45    1.16
  -8   1  -4    1.58    0.52
  -7   1  -4    2.25    0.55
  -6   1  -4   22.83    1.51
  -5   1  -4    8.16    0.96
  -4   1  -4   56.41    2.39
  -3   1  -4   12.72    1.18
  -2   1  -4    4.08    0.63
  -1   1  -4    0.66    0.31
   0   1  -4   -0.09    0.21
   1   1  -4    0.66    0.32
   2   1  -4    3.52    0.55
   3   1  -4   15.23    1.25
   4   1  -4   57.55    2.34
   5   1  -4    8.65    1.59
   6   1  -4   20.70    2.60
   7   1  -4    1.91    0.60
   8   1  -4    2.63    0.71
   9   1  -4    5.92    0.84
  10   1  -4    6.58    0.90
  11   1  -4    6.82    1.16
  12   1  -4   11.77    1.57
  13   1  -4    4.63    0.88
  14   1  -4    1.66    0.73
 -14   2  -4    0.95    0.97
 -13   2  -4    0.36    0.72
 -12   2  -4    0.97    0.79
 -11   2  -4   15.31    2.30
 -10   2  -4   22.76    2.60
  -9   2  -4    0.73    0.60
  -8   2  -4    2.09    0.57
  -7   2  -4   10.83    1.14
  -6   2  -4   14.28    1.28
  -5   2  -4   14.06    1.28
  -4   2  -4   90.95    3.31
  -3   2  -4   14.11    1.34
  -2   2  -4    2.28    0.51
  -1   2  -4    0.30    0.27
   0   2  -4    0.02    0.26
   1   2  -4    0.10    0.24
   2   2  -4    1.57    0.46
   3   2  -4   12.38    1.16
   4   2  -4   91.51    3.30
   5   2  -4   15.25    1.30
   6   2  -4   14.86    2.17
   7   2  -4    6.98    1.07
   8   2  -4    2.30    0.69
   9   2  -4    3.55    0.56
  10   2  -4   26.86    1.62
  11   2  -4   16.80    1.42
  12   2  -4    0.46    0.47
  13   2  -4    0.92    0.61
  14   2  -4    1.79    0.73
 -13   3  -4    4.97    1.40
 -12   3  -4    0.90    0.74
 -11   3  -4   13.05    2.01
 -10   3  -4    0.37    0.47
  -9   3  -4   52.03    3.53
  -8   3  -4   36.30    1.91
  -7   3  -4    9.31    1.09
  -6   3  -4   81.60    3.22
  -5   3  -4    2.74    0.60
  -4   3  -4    4.23    0.70
  -3   3  -4   35.64    1.89
  -2   3  -4    0.10    0.33
  -1   3  -4   17.29    1.80
   0   3  -4    0.25    0.34
   1   3  -4   19.28    1.60
   2   3  -4    0.60    0.40
   3   3  -4   39.32    2.39
   4   3  -4    4.80    0.74
   5   3  -4    2.10    0.52
   6   3  -4   86.81    3.25
   7   3  -4   13.27    1.29
   8   3  -4   36.09    1.51
   9   3  -4   54.86    1.91
  10   3  -4   -0.02    0.56
  11   3  -4   19.01    1.84
  12   3  -4    1.14    0.58
  13   3  -4    4.59    1.48
  14   3  -4    2.96    1.26
 -13   4  -4    1.72    0.93
 -12   4  -4   47.60    3.75
 -11   4  -4    1.77    0.83
 -10   4  -4    2.21    0.91
  -9   4  -4    3.59    1.06
  -8   4  -4    0.36    0.39
  -7   4  -4    0.67    0.39
  -6   4  -4   38.26    1.99
  -5   4  -4    2.74    0.76
  -4   4  -4    9.71    1.46
  -3   4  -4   -0.18    0.24
  -2   4  -4   45.83    2.94
  -1   4  -4   16.75    1.83
   0   4  -4    8.11    1.22
   1   4  -4   15.41    1.78
   2   4  -4   47.82    2.89
   3   4  -4    0.34    0.38
   4   4  -4   13.73    1.65
   5   4  -4    1.57    0.63
   6   4  -4   35.83    2.58
   7   4  -4    2.00    0.57
   8   4  -4    0.03    0.28
   9   4  -4    4.86    1.12
  13   4  -4    1.47    1.36
  14   4  -4    6.40    1.76
 -13   5  -4    1.14    0.85
 -12   5  -4    1.94    0.87
 -11   5  -4    1.80    0.91
 -10   5  -4    7.33    1.51
  -9   5  -4    5.14    1.21
  -8   5  -4    0.72    0.42
  -7   5  -4   16.44    2.13
  -6   5  -4   27.32    2.21
  -5   5  -4   -0.39    0.34
  -4   5  -4    1.34    0.58
  -3   5  -4    3.04    0.81
  -2   5  -4   52.89    3.10
  -1   5  -4    8.70    1.33
   0   5  -4   -0.09    0.25
   1   5  -4    9.93    1.41
   2   5  -4   45.01    2.87
   3   5  -4    3.00    0.81
   4   5  -4    0.60    0.45
   5   5  -4   -0.24    0.30
   6   5  -4   24.27    2.47
   7   5  -4   25.07    2.54
   8   5  -4    0.23    0.52
   9   5  -4    5.84    1.04
  10   5  -4   12.88    2.10
 -12   6  -4    7.95    1.70
 -11   6  -4    3.96    1.22
 -10   6  -4    6.38    1.43
  -9   6  -4    7.65    1.53
  -8   6  -4   21.45    2.54
  -7   6  -4   10.27    1.64
  -6   6  -4    0.24    0.36
  -5   6  -4   28.53    2.32
  -4   6  -4    0.56    0.46
  -3   6  -4  122.31    5.78
  -2   6  -4   53.02    3.22
  -1   6  -4    0.24    0.41
   0   6  -4   20.53    2.17
   1   6  -4   -0.04    0.31
   2   6  -4   51.24    3.10
   3   6  -4  115.52    5.58
   4   6  -4    0.92    0.57
   5   6  -4   28.21    2.26
   6   6  -4    0.12    0.50
   7   6  -4   14.90    1.98
   8   6  -4   25.27    2.73
   9   6  -4    8.53    1.72
  10   6  -4    7.52    1.77
  11   6  -4    3.16    1.27
 -12   7  -4    2.16    0.97
 -11   7  -4    1.50    0.88
 -10   7  -4    0.33    0.61
  -9   7  -4   40.42    3.12
  -8   7  -4    8.24    1.59
  -7   7  -4   39.60    2.97
  -6   7  -4    3.89    1.04
  -5   7  -4    1.57    0.70
  -4   7  -4   -0.21    0.34
  -3   7  -4   17.00    2.09
  -2   7  -4    6.61    1.23
  -1   7  -4   13.05    1.78
   0   7  -4   -0.16    0.34
   1   7  -4   11.26    1.63
   2   7  -4    7.42    1.35
   3   7  -4   17.72    2.08
   4   7  -4   -0.16    0.39
   5   7  -4    1.87    0.76
   6   7  -4    2.32    0.91
   7   7  -4   41.85    3.12
   8   7  -4   11.09    1.93
   9   7  -4   36.19    3.69
  10   7  -4   -0.31    0.66
  11   7  -4    1.62    1.08
  12   7  -4    2.18    1.26
 -11   8  -4    1.97    0.98
 -10   8  -4    9.12    1.76
  -9   8  -4    5.54    1.33
  -8   8  -4   40.92    3.21
  -7   8  -4    6.20    1.41
  -6   8  -4    9.82    1.69
  -5   8  -4   11.29    1.79
  -4   8  -4    5.69    1.22
  -3   8  -4   18.90    2.21
  -2   8  -4    1.88    0.73
  -1   8  -4   25.15    2.60
   0   8  -4   16.97    2.09
   1   8  -4   22.88    2.44
   2   8  -4    0.80    0.57
   3   8  -4   19.23    2.28
   4   8  -4    4.56    1.11
   5   8  -4    9.85    1.68
   6   8  -4    7.34    1.49
   7   8  -4   10.33    1.91
   8   8  -4   37.23    3.73
   9   8  -4    3.71    1.16
  10   8  -4    6.98    1.92
  11   8  -4    3.71    1.44
  12   8  -4   -0.33    1.02
 -11   9  -4   12.16    2.21
 -10   9  -4   20.51    2.74
  -9   9  -4    2.54    0.97
  -8   9  -4    0.91    0.66
  -7   9  -4    6.16    1.39
  -6   9  -4   26.10    2.92
  -5   9  -4   12.73    1.97
  -4   9  -4    1.71    0.82
  -3   9  -4   30.06    2.96
  -2   9  -4    7.76    1.45
  -1   9  -4    0.23    0.40
   0   9  -4   -0.29    0.31
   1   9  -4    1.27    0.67
   2   9  -4    5.85    1.30
   3   9  -4   21.42    2.47
   4   9  -4    0.98    0.64
   5   9  -4   13.10    1.98
   6   9  -4   33.85    3.44
   7   9  -4    9.20    1.86
   8   9  -4    0.27    0.67
   9   9  -4    0.63    0.82
  10   9  -4   12.30    2.36
  11   9  -4   13.29    2.66
  12   9  -4    3.86    1.88
 -10  10  -4    0.10    0.62
  -9  10  -4    0.66    0.70
  -8  10  -4    1.45    0.82
  -7  10  -4    2.65    1.00
  -6  10  -4    3.65    1.08
  -5  10  -4    0.10    0.44
  -4  10  -4   17.70    2.34
  -3  10  -4   22.37    2.60
  -2  10  -4   20.62    2.41
  -1  10  -4   12.35    1.91
   0  10  -4    1.02    0.62
   1  10  -4   19.88    2.53
   2  10  -4   17.21    2.27
   3  10  -4   28.94    2.97
   4  10  -4   11.06    1.86
   5  10  -4    0.48    0.53
   6  10  -4    6.46    1.53
   7  10  -4    0.77    0.78
   8  10  -4    1.21    0.93
   9  10  -4    0.47    0.84
  10  10  -4    0.83    0.95
  11  10  -4    0.59    1.04
  -9  11  -4   12.96    2.21
  -8  11  -4    0.37    0.72
  -7  11  -4    0.67    0.72
  -6  11  -4    2.66    1.01
  -5  11  -4    6.80    1.44
  -4  11  -4    3.10    1.12
  -3  11  -4   11.01    1.81
  -2  11  -4    2.40    0.89
  -1  11  -4   27.01    2.91
   0  11  -4    0.06    0.50
   1  11  -4   28.10    2.99
   2  11  -4    4.18    1.20
   3  11  -4   15.10    2.22
   4  11  -4    1.63    0.83
   5  11  -4    7.23    1.63
   6  11  -4    3.88    1.26
   7  11  -4    0.68    0.74
   8  11  -4    0.16    0.83
   9  11  -4    8.90    2.08
  10  11  -4   12.76    2.90
  -8  12  -4    1.12    0.85
  -7  12  -4    8.88    1.80
  -6  12  -4    8.50    1.86
  -5  12  -4   -0.03    0.62
  -4  12  -4   10.18    1.88
  -3  12  -4    3.28    1.09
  -2  12  -4   14.40    2.11
  -1  12  -4   23.15    2.85
   0  12  -4    8.45    1.72
   1  12  -4   21.29    2.62
   2  12  -4   13.02    2.06
   3  12  -4    3.57    1.21
   4  12  -4    9.73    1.82
   5  12  -4    1.05    0.79
   6  12  -4    5.40    1.58
   7  12  -4    9.65    2.04
   8  12  -4    1.83    1.18
  -7  13  -4    6.16    1.55
  -6  13  -4    8.78    1.79
  -5  13  -4   35.61    3.63
  -4  13  -4   12.66    2.18
  -3  13  -4   -0.24    0.49
  -2  13  -4    1.07    0.68
  -1  13  -4    7.02    1.60
   0  13  -4    0.11    0.63
   1  13  -4    5.03    1.45
   2  13  -4   -0.22    0.51
   3  13  -4   -0.06    0.50
   4  13  -4   12.86    2.29
   5  13  -4   36.67    3.91
   6  13  -4   11.34    2.26
   7  13  -4    5.64    1.63
  -5  14  -4    5.03    1.50
  -4  14  -4    3.74    1.32
  -3  14  -4    0.77    0.72
  -2  14  -4    1.17    0.85
  -1  14  -4    1.91    0.99
   0  14  -4   49.32    3.93
   1  14  -4    1.72    0.88
   2  14  -4    1.09    0.81
   3  14  -4   -0.57    0.65
   4  14  -4    2.63    1.23
   5  14  -4    3.51    1.45
  -1  15  -4    0.71    0.77
   0  15  -4    0.27    0.80
   1  15  -4    0.69    1.19
  -2 -17  -3    4.26    3.09
  -1 -17  -3   14.84    4.10
   0 -17  -3   -0.18    1.33
   1 -17  -3   18.43    4.74
   2 -17  -3    1.96    2.69
   3 -17  -3    0.61    1.46
   4 -17  -3    7.34    2.63
  -6 -16  -3    1.41    1.61
  -5 -16  -3    0.30    1.40
  -4 -16  -3    0.16    1.28
  -3 -16  -3   13.06    3.36
  -2 -16  -3   12.96    3.20
  -1 -16  -3   -0.13    1.06
   0 -16  -3   58.01    7.11
   1 -16  -3    0.58    1.31
   2 -16  -3   13.18    2.19
   3 -16  -3   17.61    2.63
   4 -16  -3   -0.78    0.90
   5 -16  -3    0.65    1.08
   6 -16  -3    0.61    1.11
  -7 -15  -3    8.35    2.58
  -6 -15  -3   12.21    2.97
  -5 -15  -3   13.91    3.17
  -4 -15  -3    9.82    2.83
  -3 -15  -3   14.17    3.35
  -2 -15  -3    0.87    1.17
  -1 -15  -3    0.53    1.28
   0 -15  -3   -0.16    0.94
   1 -15  -3    2.28    1.10
   2 -15  -3    0.35    0.82
   3 -15  -3    9.81    1.95
   4 -15  -3   16.30    2.54
   5 -15  -3   18.16    2.70
   6 -15  -3   10.27    2.11
   7 -15  -3    4.76    1.59
  -8 -14  -3   17.96    3.52
  -7 -14  -3    0.44    1.28
  -6 -14  -3    0.97    1.22
  -5 -14  -3    4.62    2.10
  -4 -14  -3   34.72    4.89
  -3 -14  -3    0.41    1.04
  -2 -14  -3    0.86    1.06
  -1 -14  -3    5.46    2.07
   0 -14  -3   30.27    3.05
   1 -14  -3    7.96    1.73
   2 -14  -3    1.80    1.03
   3 -14  -3    0.73    0.75
   4 -14  -3   21.99    2.82
   5 -14  -3    2.92    0.87
   6 -14  -3    0.23    0.63
   7 -14  -3    0.69    0.75
   8 -14  -3   12.89    1.77
   9 -14  -3    3.54    1.40
  10 -14  -3   -0.13    1.22
  -8 -13  -3   19.71    3.67
  -7 -13  -3    5.54    1.98
  -6 -13  -3    3.25    1.54
  -5 -13  -3    0.21    0.97
  -4 -13  -3    1.99    1.40
  -3 -13  -3   46.51    5.73
  -2 -13  -3    6.27    2.22
  -1 -13  -3    1.76    0.82
   0 -13  -3    0.17    0.63
   1 -13  -3    2.19    1.00
   2 -13  -3    5.86    0.97
   3 -13  -3   51.76    2.95
   4 -13  -3    1.00    0.59
   5 -13  -3    0.27    0.54
   6 -13  -3    2.12    0.79
   7 -13  -3    3.19    0.97
   8 -13  -3   19.05    2.12
   9 -13  -3    6.18    1.64
  10 -13  -3   14.78    2.46
  -8 -12  -3    6.83    2.10
  -7 -12  -3   14.11    2.93
  -6 -12  -3    3.57    1.54
  -5 -12  -3   10.65    2.63
  -4 -12  -3   17.79    3.35
  -3 -12  -3    8.83    2.20
  -2 -12  -3    0.66    0.55
  -1 -12  -3    3.16    0.92
   0 -12  -3    2.32    0.86
   1 -12  -3    3.27    1.03
   2 -12  -3    0.88    0.68
   3 -12  -3    5.71    1.00
   4 -12  -3   20.04    1.88
   5 -12  -3    9.09    1.30
   6 -12  -3    4.27    1.01
   7 -12  -3    9.37    1.45
   8 -12  -3    3.40    0.92
   9 -12  -3    8.64    1.76
  10 -12  -3    2.87    1.20
  11 -12  -3    4.28    1.42
  -8 -11  -3    0.69    1.05
  -7 -11  -3   74.51    5.49
  -6 -11  -3   10.72    2.35
  -5 -11  -3    0.43    0.82
  -4 -11  -3    2.77    1.35
  -3 -11  -3    0.32    0.84
  -2 -11  -3   30.91    2.56
  -1 -11  -3   34.26    2.77
   0 -11  -3   -0.25    0.42
   1 -11  -3   29.83    2.73
   2 -11  -3   26.44    2.57
   3 -11  -3    0.44    0.55
   4 -11  -3    1.85    0.65
   5 -11  -3   -0.23    0.38
   6 -11  -3    6.07    1.04
   7 -11  -3   63.47    3.24
   8 -11  -3    0.42    0.58
   9 -11  -3   14.95    2.24
  10 -11  -3   -0.16    0.57
  11 -11  -3   -0.10    0.77
  12 -11  -3    0.15    0.97
 -13 -10  -3    5.23    1.52
 -12 -10  -3    0.03    0.67
 -11 -10  -3   38.24    4.03
  -8 -10  -3   -0.38    0.81
  -7 -10  -3    0.40    0.84
  -6 -10  -3   20.32    3.00
  -5 -10  -3    6.42    1.74
  -4 -10  -3   24.92    3.41
  -3 -10  -3   21.92    2.01
  -2 -10  -3    4.17    0.92
  -1 -10  -3   26.76    2.30
   0 -10  -3   16.56    1.82
   1 -10  -3   25.07    2.33
   2 -10  -3    5.85    1.12
   3 -10  -3   17.23    1.99
   4 -10  -3   25.61    2.55
   5 -10  -3    7.59    1.11
   6 -10  -3   19.21    1.80
   7 -10  -3    1.07    0.58
   8 -10  -3    0.13    0.49
   9 -10  -3    3.05    1.07
  10 -10  -3    1.02    0.88
  11 -10  -3   30.44    3.24
  12 -10  -3    0.20    0.81
  13 -10  -3    4.53    1.63
 -14  -9  -3    1.54    1.06
 -13  -9  -3    0.80    0.84
 -12  -9  -3    0.43    0.73
 -11  -9  -3    0.96    0.87
 -10  -9  -3    6.67    1.55
  -9  -9  -3   65.26    4.15
  -8  -9  -3   12.67    1.79
  -7  -9  -3   12.28    2.23
  -6  -9  -3   16.08    2.51
  -5  -9  -3   66.07    4.55
  -4  -9  -3    7.26    1.05
  -3  -9  -3    3.46    0.77
  -2  -9  -3   74.92    3.29
  -1  -9  -3   12.41    1.45
   0  -9  -3    0.65    0.40
   1  -9  -3   13.89    1.56
   2  -9  -3   77.88    3.55
   3  -9  -3    3.15    0.79
   4  -9  -3    6.88    1.24
   5  -9  -3   58.64    2.72
   6  -9  -3   14.36    1.46
   7  -9  -3   12.48    1.44
   8  -9  -3   10.43    1.36
   9  -9  -3   57.39    3.85
  10  -9  -3    3.60    1.21
  11  -9  -3    2.80    1.10
  12  -9  -3    0.11    0.70
  13  -9  -3    0.78    0.90
  14  -9  -3    0.98    1.77
 -14  -8  -3    0.29    0.82
 -13  -8  -3    1.17    0.90
 -12  -8  -3    0.48    0.68
 -11  -8  -3    7.40    1.61
 -10  -8  -3    6.50    1.53
  -9  -8  -3   17.58    2.39
  -8  -8  -3    0.35    0.45
  -7  -8  -3    7.46    1.08
  -6  -8  -3    3.20    0.71
  -5  -8  -3   30.91    3.30
  -4  -8  -3   19.35    1.65
  -3  -8  -3   11.59    1.22
  -2  -8  -3   15.73    1.53
  -1  -8  -3   17.47    1.65
   0  -8  -3   29.30    2.02
   1  -8  -3   18.48    1.79
   2  -8  -3   18.46    1.82
   3  -8  -3    8.56    1.24
   4  -8  -3   13.54    1.62
   5  -8  -3   27.74    2.47
   6  -8  -3    3.00    0.66
   7  -8  -3    5.94    0.94
   8  -8  -3    0.46    0.45
   9  -8  -3   14.31    1.97
  10  -8  -3    4.60    1.12
  11  -8  -3    3.58    1.23
  12  -8  -3    0.28    0.79
  13  -8  -3    1.42    1.04
  14  -8  -3    0.06    0.56
 -15  -7  -3   18.15    4.11
 -14  -7  -3    1.03    0.92
 -13  -7  -3   70.61    4.99
 -12  -7  -3    0.66    0.70
 -11  -7  -3   -0.29    0.49
 -10  -7  -3   -0.25    0.48
  -9  -7  -3    4.83    1.21
  -8  -7  -3   13.81    1.44
  -7  -7  -3    5.91    0.92
  -6  -7  -3    5.68    0.88
  -5  -7  -3  126.90    3.43
  -4  -7  -3    0.38    0.36
  -3  -7  -3    1.34    0.49
  -2  -7  -3    7.00    0.99
  -1  -7  -3   26.74    1.81
   0  -7  -3   -0.06    0.27
   1  -7  -3   25.79    2.06
   2  -7  -3    9.18    1.26
   3  -7  -3    1.14    0.52
   4  -7  -3    0.25    0.37
   5  -7  -3  117.29    4.71
   6  -7  -3    8.38    1.05
   7  -7  -3    5.17    0.86
   8  -7  -3   12.54    1.35
   9  -7  -3    1.39    0.75
  10  -7  -3   -0.12    0.49
  11  -7  -3   -0.01    0.57
  12  -7  -3    1.53    0.93
  13  -7  -3   74.91    4.42
  14  -7  -3    1.07    0.65
 -15  -6  -3   -0.36    0.87
 -14  -6  -3    0.07    0.77
 -13  -6  -3   35.94    3.81
 -12  -6  -3   12.01    2.16
 -11  -6  -3   47.05    3.55
 -10  -6  -3   15.84    2.34
  -9  -6  -3   13.48    1.99
  -8  -6  -3    8.89    1.09
  -7  -6  -3   10.38    1.16
  -6  -6  -3    0.27    0.24
  -5  -6  -3   19.22    1.21
  -4  -6  -3    0.39    0.25
  -3  -6  -3   10.06    0.82
  -2  -6  -3    4.47    0.75
  -1  -6  -3  129.22    4.45
   0  -6  -3   25.37    1.68
   1  -6  -3  131.82    4.56
   2  -6  -3    3.54    0.74
   3  -6  -3   10.10    1.22
   4  -6  -3    1.01    0.46
   5  -6  -3   16.83    1.73
   6  -6  -3    0.44    0.36
   7  -6  -3    9.74    1.08
   8  -6  -3    9.55    1.15
   9  -6  -3   10.14    1.56
  10  -6  -3   12.67    1.87
  11  -6  -3   45.06    3.51
  12  -6  -3   12.08    1.92
  13  -6  -3   33.42    2.48
  14  -6  -3   -0.04    0.47
  15  -6  -3   -0.24    0.62
 -15  -5  -3    0.50    0.82
 -14  -5  -3    2.39    1.14
 -13  -5  -3    4.52    1.37
 -12  -5  -3    1.15    0.83
 -11  -5  -3   13.30    2.14
 -10  -5  -3   23.80    2.70
  -9  -5  -3   20.97    2.42
  -8  -5  -3   -0.01    0.29
  -7  -5  -3   45.25    2.07
  -6  -5  -3   46.06    2.05
  -5  -5  -3   21.84    1.40
  -4  -5  -3    0.35    0.24
  -3  -5  -3   56.17    2.16
  -2  -5  -3   49.14    1.66
  -1  -5  -3    0.24    0.27
   0  -5  -3   -0.02    0.18
   1  -5  -3    0.02    0.25
   2  -5  -3   46.36    2.29
   3  -5  -3   55.13    2.54
   4  -5  -3   -0.07    0.26
   5  -5  -3   17.88    1.70
   6  -5  -3   41.50    2.31
   7  -5  -3   42.00    1.91
   8  -5  -3   -0.27    0.28
   9  -5  -3   16.10    1.87
  10  -5  -3   28.56    2.64
  11  -5  -3   20.92    2.34
  12  -5  -3    0.05    0.56
  13  -5  -3    3.31    0.80
  14  -5  -3    2.43    0.85
  15  -5  -3    0.44    0.70
 -15  -4  -3    0.25    0.88
 -14  -4  -3   27.55    3.42
 -13  -4  -3    0.78    0.69
 -12  -4  -3   -0.24    0.47
 -11  -4  -3    4.25    1.21
 -10  -4  -3    0.23    0.53
  -9  -4  -3   32.03    2.50
  -8  -4  -3    5.38    0.80
  -7  -4  -3    5.57    0.77
  -6  -4  -3    8.00    0.91
  -5  -4  -3   23.22    1.27
  -4  -4  -3   66.57    2.46
  -3  -4  -3    3.60    0.54
  -2  -4  -3   28.61    1.31
  -1  -4  -3   21.84    1.08
   0  -4  -3    6.64    0.62
   1  -4  -3   21.98    1.50
   2  -4  -3   25.28    1.54
   3  -4  -3    4.56    0.79
   4  -4  -3   64.72    2.80
   5  -4  -3   21.10    1.79
   6  -4  -3    8.53    1.13
   7  -4  -3    6.29    0.82
   8  -4  -3    5.19    0.76
   9  -4  -3   28.96    2.53
  10  -4  -3    0.54    0.47
  11  -4  -3    5.04    1.11
  12  -4  -3    0.99    0.66
  13  -4  -3    0.13    0.44
  14  -4  -3   29.16    2.71
  15  -4  -3    0.02    0.59
 -15  -3  -3   10.43    2.13
 -14  -3  -3    2.36    0.96
 -13  -3  -3    1.39    0.85
 -12  -3  -3   10.09    1.82
 -11  -3  -3   17.54    2.32
 -10  -3  -3   24.57    2.70
  -9  -3  -3   11.63    1.72
  -8  -3  -3   32.92    1.69
  -7  -3  -3   92.09    3.27
  -6  -3  -3    4.22    0.63
  -5  -3  -3   44.03    1.91
  -4  -3  -3   21.05    1.16
  -3  -3  -3    6.03    0.68
  -2  -3  -3  120.78    3.65
  -1  -3  -3  172.30    4.83
   0  -3  -3    0.01    0.14
   1  -3  -3  169.82    4.74
   2  -3  -3  118.63    4.04
   3  -3  -3    6.93    0.94
   4  -3  -3   19.94    1.45
   5  -3  -3   51.02    2.33
   6  -3  -3    4.42    0.82
   7  -3  -3   94.63    3.66
   8  -3  -3   31.21    1.62
   9  -3  -3   10.50    1.20
  10  -3  -3   22.94    2.20
  11  -3  -3   16.45    2.01
  12  -3  -3    6.89    0.92
  13  -3  -3    0.52    0.47
  14  -3  -3    0.92    0.63
  15  -3  -3    8.77    1.59
  16  -3  -3    6.75    2.36
 -15  -2  -3    1.19    0.93
 -14  -2  -3   -0.09    0.68
 -13  -2  -3    0.41    0.66
 -12  -2  -3   29.51    3.09
 -11  -2  -3   17.26    2.34
 -10  -2  -3    2.85    0.95
  -9  -2  -3    0.95    0.61
  -8  -2  -3    7.46    0.88
  -7  -2  -3   34.58    1.70
  -6  -2  -3    7.29    0.83
  -5  -2  -3    1.68    0.40
  -4  -2  -3    7.68    0.79
  -3  -2  -3   21.23    1.13
  -2  -2  -3   36.02    1.54
  -1  -2  -3   53.73    1.93
   0  -2  -3   13.42    0.81
   1  -2  -3   50.33    1.85
   2  -2  -3   40.71    1.50
   3  -2  -3   21.14    1.00
   4  -2  -3    9.74    1.10
   5  -2  -3    0.56    0.38
   6  -2  -3    6.51    0.94
   7  -2  -3   35.03    1.96
   8  -2  -3    7.29    0.84
   9  -2  -3    1.24    0.44
  10  -2  -3    0.94    0.60
  11  -2  -3   13.14    1.69
  12  -2  -3   20.60    1.73
  13  -2  -3    0.97    0.61
  14  -2  -3    0.85    0.64
  15  -2  -3    1.72    0.75
  16  -2  -3    0.71    0.80
 -16  -1  -3   16.28    3.12
 -15  -1  -3    0.66    0.68
 -14  -1  -3    7.16    1.66
 -13  -1  -3   22.65    2.90
 -12  -1  -3    9.91    1.87
 -11  -1  -3    5.22    1.28
 -10  -1  -3   50.86    3.47
  -9  -1  -3    1.98    0.70
  -8  -1  -3   33.00    1.62
  -7  -1  -3    8.82    0.91
  -6  -1  -3    4.11    0.61
  -5  -1  -3   86.35    2.98
  -4  -1  -3   22.71    1.19
  -3  -1  -3   67.98    2.41
  -2  -1  -3    0.30    0.22
  -1  -1  -3   -0.06    0.14
   0  -1  -3    0.11    0.15
   1  -1  -3    0.03    0.15
   2  -1  -3    0.39    0.20
   3  -1  -3   71.96    2.33
   4  -1  -3   22.92    1.09
   5  -1  -3   89.65    2.49
   6  -1  -3    3.76    0.73
   7  -1  -3    8.32    1.04
   8  -1  -3   34.55    1.56
   9  -1  -3    1.88    0.52
  10  -1  -3   56.70    2.85
  11  -1  -3   10.22    1.11
  12  -1  -3    7.63    1.24
  13  -1  -3   22.18    2.23
  14  -1  -3    7.49    1.34
  15  -1  -3    0.93    0.70
  16  -1  -3   15.14    2.11
 -16   0  -3   26.58    3.84
 -15   0  -3   -0.29    0.62
 -14   0  -3   34.36    3.79
 -13   0  -3    0.69    0.65
 -12   0  -3    1.19    0.75
 -11   0  -3    0.13    0.44
 -10   0  -3   12.72    1.82
  -9   0  -3   -0.12    0.36
  -8   0  -3  133.78    4.28
  -7   0  -3   -0.15    0.20
  -6   0  -3   46.31    1.90
  -5   0  -3    0.10    0.20
  -4   0  -3  159.41    4.74
  -3   0  -3   -0.03    0.18
  -2   0  -3   55.32    2.05
  -1   0  -3   -0.03    0.14
   0   0  -3    0.80    0.22
   1   0  -3   -0.05    0.14
   2   0  -3   57.50    2.04
   3   0  -3    0.15    0.16
   4   0  -3  165.34    4.70
   5   0  -3   -0.10    0.15
   6   0  -3   43.82    1.55
   7   0  -3    0.15    0.18
   8   0  -3  134.54    3.79
   9   0  -3    0.19    0.25
  10   0  -3   13.81    1.20
  11   0  -3    0.17    0.30
  12   0  -3    0.64    0.47
  13   0  -3   -0.20    0.48
  14   0  -3   33.16    2.85
  15   0  -3   -0.08    0.50
  16   0  -3   26.74    2.12
 -16   1  -3   13.04    2.85
 -15   1  -3    0.39    0.83
 -14   1  -3    5.88    1.59
 -13   1  -3   21.45    2.79
 -12   1  -3    7.59    1.55
 -11   1  -3    8.57    1.52
 -10   1  -3   47.88    3.34
  -9   1  -3    2.94    0.86
  -8   1  -3   30.96    1.58
  -7   1  -3    7.65    0.84
  -6   1  -3    3.39    0.57
  -5   1  -3   89.61    3.02
  -4   1  -3   21.64    1.17
  -3   1  -3   67.75    2.42
  -2   1  -3    0.27    0.21
  -1   1  -3    0.23    0.18
   0   1  -3   -0.12    0.14
   1   1  -3    0.20    0.18
   2   1  -3    0.57    0.24
   3   1  -3   70.36    2.42
   4   1  -3   23.50    1.18
   5   1  -3   88.85    2.96
   6   1  -3    4.50    0.49
   7   1  -3    8.07    0.76
   8   1  -3   32.60    1.48
   9   1  -3    2.95    0.46
  10   1  -3   54.91    2.14
  11   1  -3    7.43    1.14
  12   1  -3    8.59    1.30
  13   1  -3   24.72    2.30
  14   1  -3    5.85    1.17
  15   1  -3    0.46    0.45
  16   1  -3   13.74    1.78
 -15   2  -3    0.84    0.86
 -14   2  -3    0.59    0.66
 -13   2  -3   -0.05    0.59
 -12   2  -3   28.36    3.00
 -11   2  -3   10.16    1.74
 -10   2  -3    1.05    0.51
  -9   2  -3    0.74    0.47
  -8   2  -3    8.47    0.90
  -7   2  -3   38.62    1.75
  -6   2  -3    6.24    0.74
  -5   2  -3    1.10    0.34
  -4   2  -3    7.63    1.09
  -3   2  -3   22.79    1.59
  -2   2  -3   38.32    2.19
  -1   2  -3   48.18    2.58
   0   2  -3   13.73    1.13
   1   2  -3   47.91    2.56
   2   2  -3   40.90    2.15
   3   2  -3   21.94    1.49
   4   2  -3    7.41    1.02
   5   2  -3    1.47    0.48
   6   2  -3    7.02    0.81
   7   2  -3   36.18    1.87
   8   2  -3    7.53    0.66
   9   2  -3    1.26    0.33
  10   2  -3    1.35    0.47
  11   2  -3   16.72    1.60
  12   2  -3   24.33    1.75
  13   2  -3    0.15    0.36
  14   2  -3    1.70    0.63
  15   2  -3    2.13    0.71
  16   2  -3    1.35    0.72
 -15   3  -3   12.37    2.22
 -14   3  -3    0.25    0.59
 -13   3  -3    1.29    0.77
 -12   3  -3    6.39    1.44
 -11   3  -3   11.57    1.80
 -10   3  -3   22.26    2.47
  -9   3  -3   14.56    1.89
  -8   3  -3   30.63    1.58
  -7   3  -3   87.74    3.17
  -6   3  -3    2.48    0.73
  -5   3  -3   46.56    2.69
  -4   3  -3   21.95    1.65
  -3   3  -3    6.11    0.95
  -2   3  -3  109.80    5.03
  -1   3  -3  170.11    6.77
   0   3  -3    0.11    0.21
   1   3  -3  166.33    6.74
   2   3  -3  115.34    3.45
   3   3  -3    6.19    0.64
   4   3  -3   22.60    1.13
   5   3  -3   46.14    1.87
   6   3  -3    4.41    0.65
   7   3  -3   92.88    3.27
   8   3  -3   34.83    1.13
   9   3  -3   13.45    0.84
  10   3  -3   25.00    1.59
  11   3  -3   15.53    1.31
  12   3  -3    6.76    1.07
  13   3  -3    1.25    0.57
  14   3  -3    0.29    0.47
  15   3  -3   14.50    1.76
  16   3  -3    4.91    1.17
 -15   4  -3   -0.15    0.69
 -14   4  -3   29.50    3.42
 -13   4  -3    0.20    0.58
 -12   4  -3   -0.14    0.47
 -11   4  -3    3.03    0.99
 -10   4  -3    0.66    0.52
  -9   4  -3   23.71    2.45
  -8   4  -3    7.19    1.32
  -7   4  -3    7.08    1.18
  -6   4  -3    7.87    1.20
  -5   4  -3   20.79    1.66
  -4   4  -3   65.35    3.41
  -3   4  -3    3.36    0.79
  -2   4  -3   26.96    1.83
  -1   4  -3   21.38    1.59
   0   4  -3    5.83    0.94
   1   4  -3   19.84    1.53
   2   4  -3   30.26    1.92
   3   4  -3    4.09    0.56
   4   4  -3   68.31    2.39
   5   4  -3   18.84    1.20
   6   4  -3    7.71    0.70
   7   4  -3    6.42    0.59
   8   4  -3    6.54    0.63
   9   4  -3   29.36    1.39
  10   4  -3    1.03    0.43
  11   4  -3    5.34    0.94
  12   4  -3   -0.34    0.32
  13   4  -3    0.96    0.47
  14   4  -3   27.69    2.36
  15   4  -3    0.11    0.49
  16   4  -3   10.13    2.23
 -15   5  -3   -0.57    0.59
 -14   5  -3    2.73    1.07
 -13   5  -3    2.53    1.00
 -12   5  -3    0.14    0.44
 -11   5  -3   14.82    2.12
 -10   5  -3   23.85    2.58
  -9   5  -3   19.81    2.32
  -8   5  -3    0.49    0.50
  -7   5  -3   47.38    2.89
  -6   5  -3   44.91    2.74
  -5   5  -3   21.40    1.76
  -4   5  -3    0.17    0.28
  -3   5  -3   51.22    2.95
  -2   5  -3   50.59    2.81
  -1   5  -3    0.11    0.29
   0   5  -3    0.27    0.33
   1   5  -3    0.24    0.31
   2   5  -3   50.72    2.82
   3   5  -3   54.68    2.06
   4   5  -3    0.18    0.23
   5   5  -3   20.75    1.07
   6   5  -3   42.94    1.57
   7   5  -3   43.69    1.41
   8   5  -3    0.27    0.28
   9   5  -3   13.43    1.33
  10   5  -3   23.37    1.85
  11   5  -3   16.74    1.63
  12   5  -3   -0.14    0.38
  13   5  -3    2.92    0.73
  14   5  -3    1.95    0.77
  15   5  -3    0.57    0.60
 -15   6  -3   -0.36    0.70
 -14   6  -3   -0.28    0.61
 -13   6  -3   39.04    3.17
 -12   6  -3   15.07    2.15
 -11   6  -3   37.68    3.07
 -10   6  -3   17.52    2.23
  -9   6  -3   10.25    1.59
  -8   6  -3   10.11    1.52
  -7   6  -3   10.49    1.52
  -6   6  -3    0.14    0.33
  -5   6  -3   13.80    1.68
  -4   6  -3    0.68    0.48
  -3   6  -3   11.48    1.45
  -2   6  -3    3.97    0.86
  -1   6  -3  129.31    5.72
   0   6  -3   25.48    1.83
   1   6  -3  127.18    5.70
   2   6  -3    3.82    0.82
   3   6  -3    8.74    1.31
   4   6  -3    0.82    0.32
   5   6  -3   21.30    1.52
   6   6  -3    0.16    0.26
   7   6  -3    7.74    1.00
   8   6  -3   12.34    1.83
   9   6  -3   12.25    1.88
  10   6  -3   16.91    2.33
  11   6  -3   44.62    3.40
  12   6  -3   14.49    2.28
  13   6  -3   33.49    3.66
  14   6  -3   -0.09    0.67
  15   6  -3   -0.30    0.73
 -14   7  -3    2.75    1.19
 -13   7  -3   77.96    4.84
 -12   7  -3    1.74    0.81
 -11   7  -3    0.49    0.62
 -10   7  -3   -0.23    0.36
  -9   7  -3    2.95    0.95
  -8   7  -3   11.27    1.73
  -7   7  -3    7.38    1.31
  -6   7  -3    5.80    1.14
  -5   7  -3  124.03    5.73
  -4   7  -3    0.19    0.38
  -3   7  -3    0.57    0.37
  -2   7  -3    9.02    1.32
  -1   7  -3   25.63    1.97
   0   7  -3   -0.07    0.32
   1   7  -3   26.23    1.99
   2   7  -3    8.14    1.24
   3   7  -3    1.31    0.56
   4   7  -3    0.43    0.34
   5   7  -3  123.03    4.06
   6   7  -3    7.75    0.97
   7   7  -3    6.30    0.88
   8   7  -3   13.94    1.99
   9   7  -3    1.99    0.88
  10   7  -3    0.43    0.55
  11   7  -3   -0.46    0.44
  12   7  -3    0.80    0.70
  13   7  -3   74.79    4.99
  14   7  -3    0.56    0.75
  15   7  -3   12.13    2.37
 -14   8  -3   -0.32    0.62
 -13   8  -3    1.82    0.89
 -12   8  -3    0.19    0.64
 -11   8  -3    4.76    1.24
 -10   8  -3    4.70    1.24
  -9   8  -3   21.38    2.44
  -8   8  -3    1.14    0.63
  -7   8  -3    7.98    1.38
  -6   8  -3    2.53    0.81
  -5   8  -3   30.65    2.30
  -4   8  -3   17.42    2.01
  -3   8  -3   12.81    1.63
  -2   8  -3   15.86    1.86
  -1   8  -3   21.86    1.79
   0   8  -3   33.84    2.36
   1   8  -3   20.49    2.10
   2   8  -3   16.69    1.93
   3   8  -3   19.16    2.09
   4   8  -3   16.94    1.95
   5   8  -3   31.43    1.69
   6   8  -3    3.66    0.68
   7   8  -3    9.28    1.14
   8   8  -3    0.48    0.37
   9   8  -3   17.00    2.32
  10   8  -3    7.45    1.63
  11   8  -3    5.17    1.46
  12   8  -3    1.06    0.83
  13   8  -3    1.56    0.96
  14   8  -3    0.51    0.92
 -13   9  -3    0.94    0.84
 -12   9  -3    0.18    0.66
 -11   9  -3    2.18    0.95
 -10   9  -3    5.14    1.28
  -9   9  -3   63.16    3.96
  -8   9  -3   11.36    1.78
  -7   9  -3   15.44    1.97
  -6   9  -3   14.53    1.89
  -5   9  -3   67.62    3.84
  -4   9  -3    6.37    1.21
  -3   9  -3    1.85    0.70
  -2   9  -3   77.56    4.14
  -1   9  -3   16.29    1.91
   0   9  -3    0.11    0.33
   1   9  -3   14.70    1.78
   2   9  -3   80.10    4.25
   3   9  -3    3.44    0.98
   4   9  -3    6.68    1.36
   5   9  -3   62.78    3.91
   6   9  -3   18.04    1.54
   7   9  -3   12.42    1.32
   8   9  -3   11.17    1.32
   9   9  -3   61.00    2.96
  10   9  -3    2.53    1.04
  11   9  -3    1.69    0.89
  12   9  -3   -0.19    0.56
  13   9  -3    0.87    0.88
  14   9  -3    1.62    1.00
 -13  10  -3    3.05    1.15
 -12  10  -3   -0.25    0.61
 -11  10  -3   29.41    3.21
 -10  10  -3    4.20    1.24
  -9  10  -3    2.70    0.96
  -8  10  -3   -0.23    0.42
  -7  10  -3    3.44    1.03
  -6  10  -3   19.57    2.31
  -5  10  -3    7.68    1.40
  -4  10  -3   22.08    2.41
  -3  10  -3   20.66    2.26
  -2  10  -3    4.64    1.04
  -1  10  -3   25.67    2.12
   0  10  -3   13.17    1.78
   1  10  -3   24.99    2.55
   2  10  -3    3.97    1.07
   3  10  -3   17.85    2.16
   4  10  -3   24.38    2.65
   5  10  -3    8.73    1.61
   6  10  -3   20.27    2.46
   7  10  -3    2.30    0.73
   8  10  -3    0.48    0.42
   9  10  -3    3.57    0.87
  10  10  -3    2.28    0.75
  11  10  -3   37.91    3.83
  12  10  -3    0.46    0.71
  13  10  -3    4.46    1.45
 -12  11  -3    0.56    0.82
 -11  11  -3   -0.27    0.56
 -10  11  -3    0.40    0.64
  -9  11  -3   19.02    2.48
  -8  11  -3   -0.04    0.47
  -7  11  -3   67.16    4.11
  -6  11  -3    5.53    1.26
  -5  11  -3    0.12    0.49
  -4  11  -3    1.27    0.68
  -3  11  -3    0.35    0.49
  -2  11  -3   27.36    2.27
  -1  11  -3   32.25    2.50
   0  11  -3   -0.23    0.40
   1  11  -3   31.27    2.50
   2  11  -3   23.84    2.65
   3  11  -3    0.16    0.38
   4  11  -3    2.55    0.98
   5  11  -3    0.12    0.53
   6  11  -3    8.52    1.73
   7  11  -3   66.71    4.51
   8  11  -3   -0.13    0.58
   9  11  -3   21.05    2.04
  10  11  -3    0.03    0.50
  11  11  -3   -0.37    0.46
  12  11  -3   -0.13    0.72
 -12  12  -3   -0.10    1.07
 -11  12  -3    3.77    1.23
 -10  12  -3    2.86    1.08
  -9  12  -3    7.63    1.60
  -8  12  -3    5.78    1.38
  -7  12  -3    9.72    1.74
  -6  12  -3    2.27    0.94
  -5  12  -3    9.99    1.64
  -4  12  -3   22.83    2.50
  -3  12  -3    5.52    1.23
  -2  12  -3    0.79    0.53
  -1  12  -3    5.26    1.22
   0  12  -3    1.90    0.80
   1  12  -3    6.53    1.34
   2  12  -3    2.14    0.87
   3  12  -3    6.55    1.45
   4  12  -3   19.88    2.58
   5  12  -3   10.14    1.87
   6  12  -3    3.57    1.11
   7  12  -3    9.87    2.07
   8  12  -3    7.03    1.77
   9  12  -3    7.44    1.77
  10  12  -3    4.53    1.56
  11  12  -3    4.31    1.48
  12  12  -3    0.53    0.72
 -11  13  -3   26.71    3.49
 -10  13  -3   14.08    2.22
  -9  13  -3    5.27    1.43
  -8  13  -3   25.60    2.86
  -7  13  -3    4.64    1.21
  -6  13  -3    2.34    0.95
  -5  13  -3   -0.13    0.55
  -4  13  -3    1.70    0.81
  -3  13  -3   57.26    3.72
  -2  13  -3    8.51    1.59
  -1  13  -3    0.80    0.61
   0  13  -3   -0.63    0.31
   1  13  -3    0.54    0.61
   2  13  -3    5.09    1.30
   3  13  -3   52.47    3.76
   4  13  -3    0.97    0.72
   5  13  -3   -0.23    0.57
   6  13  -3    1.71    0.88
   7  13  -3    2.10    1.09
   8  13  -3   15.83    2.67
   9  13  -3    5.53    1.72
  10  13  -3   14.34    2.59
 -10  14  -3    0.06    0.89
  -9  14  -3    0.58    0.78
  -8  14  -3   14.35    2.14
  -7  14  -3    1.28    0.82
  -6  14  -3   -0.31    0.50
  -5  14  -3    3.29    1.12
  -4  14  -3   32.06    3.25
  -3  14  -3    1.20    0.76
  -2  14  -3    1.59    0.83
  -1  14  -3    6.75    1.45
   0  14  -3   30.06    3.21
   1  14  -3    8.07    1.60
   2  14  -3    1.63    0.70
   3  14  -3    0.61    0.69
   4  14  -3   32.04    3.42
   5  14  -3    0.93    0.81
   6  14  -3    0.08    0.70
   7  14  -3    1.95    1.11
   8  14  -3   12.03    2.30
   9  14  -3    0.57    1.01
  -8  15  -3   -0.17    0.66
  -7  15  -3    7.12    1.60
  -6  15  -3    8.13    1.70
  -5  15  -3   19.57    2.55
  -4  15  -3   17.29    2.45
  -3  15  -3   11.56    1.91
  -2  15  -3   -1.02    0.48
  -1  15  -3    1.42    0.77
   0  15  -3    0.11    0.56
   1  15  -3    1.11    0.79
   2  15  -3    0.91    0.70
   3  15  -3   14.70    2.36
   4  15  -3   14.25    2.33
   5  15  -3   15.10    2.52
   6  15  -3    9.07    2.07
   7  15  -3    6.34    1.71
  -6  16  -3    2.00    0.95
  -5  16  -3   -0.10    0.64
  -4  16  -3    0.47    0.72
  -3  16  -3   20.33    2.70
  -2  16  -3   10.38    1.99
  -1  16  -3    1.71    0.92
   0  16  -3   54.59    3.99
   1  16  -3    1.41    0.89
   2  16  -3    9.78    1.93
   3  16  -3   21.59    2.96
   4  16  -3    0.20    0.70
   5  16  -3    1.24    1.07
  -4  17  -3    6.41    1.87
  -3  17  -3   -0.39    0.70
  -2  17  -3    2.51    1.11
  -1  17  -3   20.84    2.87
   0  17  -3    1.33    0.89
   1  17  -3   17.96    2.65
   2  17  -3    4.47    1.43
  -4 -18  -2   23.91    3.77
  -3 -18  -2    0.81    1.07
  -2 -18  -2    3.13    1.55
  -1 -18  -2    0.23    0.85
   0 -18  -2   -0.07    0.98
   1 -18  -2    0.00    0.91
   2 -18  -2    1.57    1.36
   3 -18  -2    0.61    0.79
   4 -18  -2   17.69    2.45
   5 -18  -2    1.36    1.15
  -7 -17  -2    8.94    2.34
  -6 -17  -2   11.12    2.50
  -5 -17  -2    5.44    1.75
  -4 -17  -2    3.36    1.66
  -3 -17  -2    2.21    1.32
  -2 -17  -2   13.01    2.93
  -1 -17  -2    5.24    1.92
   0 -17  -2   -0.29    0.88
   1 -17  -2    3.54    1.81
   2 -17  -2   13.37    2.11
   3 -17  -2    2.94    1.17
   4 -17  -2    6.23    1.47
   5 -17  -2    5.10    1.42
   6 -17  -2   16.05    2.37
   7 -17  -2    5.56    1.58
  -8 -16  -2    1.29    1.19
  -7 -16  -2    2.40    1.36
  -6 -16  -2    1.70    1.25
  -5 -16  -2    5.61    1.94
  -4 -16  -2   33.89    4.54
  -3 -16  -2   -0.05    0.98
  -2 -16  -2   -0.59    0.94
  -1 -16  -2    6.17    2.17
   0 -16  -2   29.22    4.73
   1 -16  -2    7.74    1.60
   2 -16  -2    0.55    0.76
   3 -16  -2    0.12    0.80
   4 -16  -2   43.11    3.93
   5 -16  -2    1.85    0.99
   6 -16  -2    1.71    0.99
   7 -16  -2    5.21    1.51
   8 -16  -2    2.52    1.48
  -8 -15  -2   12.60    2.55
  -7 -15  -2    5.84    1.83
  -6 -15  -2    0.36    0.97
  -5 -15  -2    1.37    1.32
  -4 -15  -2    5.05    1.88
  -3 -15  -2   -0.44    1.06
  -2 -15  -2    1.35    1.21
  -1 -15  -2    0.66    1.03
   0 -15  -2    0.10    0.63
   1 -15  -2   -0.11    0.70
   2 -15  -2    0.95    0.84
   3 -15  -2    1.52    0.93
   4 -15  -2    3.59    1.18
   5 -15  -2    2.63    1.08
   6 -15  -2    0.92    0.90
   7 -15  -2    6.89    1.72
   8 -15  -2   16.45    2.49
   9 -15  -2    6.63    2.41
  10 -15  -2   11.94    2.26
  -8 -14  -2   46.82    5.00
  -7 -14  -2    0.48    0.99
  -6 -14  -2    8.36    2.32
  -5 -14  -2    8.26    2.22
  -4 -14  -2    5.15    1.85
  -3 -14  -2    1.22    1.25
  -2 -14  -2   -0.57    0.84
  -1 -14  -2    4.82    1.27
   0 -14  -2   97.30    4.77
   1 -14  -2    6.73    1.41
   2 -14  -2    0.97    0.87
   3 -14  -2   -0.46    0.61
   4 -14  -2    2.91    1.11
   5 -14  -2    6.27    1.54
   6 -14  -2    6.03    1.19
   7 -14  -2    0.39    0.64
   8 -14  -2   38.67    2.96
   9 -14  -2    3.32    1.24
  10 -14  -2    5.06    1.52
  11 -14  -2    0.03    0.86
 -12 -13  -2   15.91    2.41
 -11 -13  -2    1.02    1.11
  -8 -13  -2    0.33    0.89
  -7 -13  -2    8.40    2.17
  -6 -13  -2   17.40    3.07
  -5 -13  -2   66.30    5.42
  -4 -13  -2   19.74    3.44
  -3 -13  -2    0.30    0.91
  -2 -13  -2    0.53    0.88
  -1 -13  -2    9.98    1.58
   0 -13  -2   -0.14    0.49
   1 -13  -2   10.59    1.69
   2 -13  -2    0.07    0.58
   3 -13  -2    0.13    0.46
   4 -13  -2   25.20    2.17
   5 -13  -2   68.11    3.43
   6 -13  -2   20.85    2.11
   7 -13  -2    9.65    1.48
   8 -13  -2   -0.29    0.61
   9 -13  -2    2.36    1.18
  10 -13  -2   -0.25    0.73
  11 -13  -2    1.48    1.09
  12 -13  -2    9.58    1.96
 -13 -12  -2    2.28    1.02
 -12 -12  -2   16.23    2.39
 -11 -12  -2   22.69    2.69
 -10 -12  -2    4.89    1.22
  -9 -12  -2   11.76    1.81
  -8 -12  -2    2.16    0.77
  -7 -12  -2   14.64    2.78
  -6 -12  -2   16.73    2.93
  -5 -12  -2    1.19    1.07
  -4 -12  -2   19.20    3.27
  -3 -12  -2    6.54    1.93
  -2 -12  -2   35.61    2.82
  -1 -12  -2   46.42    3.05
   0 -12  -2   22.70    2.35
   1 -12  -2   49.03    2.43
   2 -12  -2   32.98    2.07
   3 -12  -2    7.17    1.05
   4 -12  -2   18.87    1.79
   5 -12  -2    1.81    0.69
   6 -12  -2   18.17    1.85
   7 -12  -2   14.45    1.78
   8 -12  -2    2.14    0.80
   9 -12  -2   10.37    1.89
  10 -12  -2    2.94    1.20
  11 -12  -2   16.33    2.55
  12 -12  -2   11.87    2.17
  13 -12  -2    4.58    1.03
 -14 -11  -2    0.21    0.75
 -13 -11  -2    0.06    0.59
 -12 -11  -2   -0.27    0.57
 -11 -11  -2    2.50    1.01
 -10 -11  -2   25.24    2.87
  -9 -11  -2   14.32    2.09
  -8 -11  -2    1.18    0.56
  -7 -11  -2    1.03    0.55
  -6 -11  -2   10.53    1.29
  -5 -11  -2   11.92    2.36
  -4 -11  -2    7.69    2.00
  -3 -11  -2   24.91    2.20
  -2 -11  -2    6.57    1.16
  -1 -11  -2   58.24    3.16
   0 -11  -2   -0.08    0.44
   1 -11  -2   50.95    3.12
   2 -11  -2    5.17    0.86
   3 -11  -2   25.07    1.92
   4 -11  -2    5.69    0.96
   5 -11  -2   13.15    1.47
   6 -11  -2    9.01    1.26
   7 -11  -2    1.04    0.58
   8 -11  -2    2.15    0.74
   9 -11  -2   17.31    2.29
  10 -11  -2   16.77    2.31
  11 -11  -2    3.53    1.28
  12 -11  -2   -0.34    0.71
  13 -11  -2    0.77    0.68
  14 -11  -2    0.28    0.65
 -14 -10  -2   19.07    2.77
 -13 -10  -2   19.28    2.65
 -12 -10  -2   45.08    3.59
 -11 -10  -2    0.26    0.66
 -10 -10  -2    0.23    0.58
  -9 -10  -2    0.52    0.59
  -8 -10  -2    1.17    0.49
  -7 -10  -2    4.40    0.84
  -6 -10  -2    9.36    1.21
  -5 -10  -2    0.55    0.38
  -4 -10  -2   28.87    2.50
  -3 -10  -2   58.01    2.77
  -2 -10  -2   33.73    2.23
  -1 -10  -2   45.50    2.52
   0 -10  -2    6.86    1.20
   1 -10  -2   44.52    2.61
   2 -10  -2   34.88    2.76
   3 -10  -2   57.11    2.42
   4 -10  -2   24.04    1.88
   5 -10  -2    0.42    0.38
   6 -10  -2    6.95    1.08
   7 -10  -2    4.04    0.88
   8 -10  -2    1.58    0.62
   9 -10  -2    0.02    0.53
  10 -10  -2    0.49    0.69
  11 -10  -2    0.34    0.76
  12 -10  -2   39.87    3.68
  13 -10  -2   24.10    2.11
  14 -10  -2   28.50    2.43
  15 -10  -2   19.77    4.05
 -15  -9  -2    0.67    0.85
 -14  -9  -2   12.78    2.30
 -13  -9  -2    4.08    1.22
 -12  -9  -2    8.13    1.76
 -11  -9  -2   16.64    2.33
 -10  -9  -2   26.78    2.91
  -9  -9  -2    5.36    1.23
  -8  -9  -2    1.23    0.53
  -7  -9  -2   17.67    1.64
  -6  -9  -2   52.62    2.50
  -5  -9  -2   25.94    1.70
  -4  -9  -2    3.63    0.54
  -3  -9  -2   52.76    1.85
  -2  -9  -2   15.04    1.51
  -1  -9  -2    3.41    0.77
   0  -9  -2   -0.24    0.32
   1  -9  -2    3.82    0.79
   2  -9  -2    9.65    1.33
   3  -9  -2   47.22    2.72
   4  -9  -2    3.84    0.72
   5  -9  -2   23.74    1.81
   6  -9  -2   52.54    2.54
   7  -9  -2   17.28    1.63
   8  -9  -2    2.34    0.72
   9  -9  -2    4.05    1.14
  10  -9  -2   35.30    3.33
  11  -9  -2   20.77    2.66
  12  -9  -2    4.35    1.21
  13  -9  -2    3.42    0.88
  14  -9  -2   21.69    2.03
  15  -9  -2    0.61    0.67
 -15  -8  -2   -0.38    0.68
 -14  -8  -2    0.85    0.73
 -13  -8  -2    2.62    1.09
 -12  -8  -2    0.66    0.65
 -11  -8  -2    2.31    0.93
 -10  -8  -2   15.24    2.23
  -9  -8  -2    8.66    1.62
  -8  -8  -2   73.30    3.23
  -7  -8  -2   14.02    1.42
  -6  -8  -2   23.82    1.65
  -5  -8  -2   21.27    1.46
  -4  -8  -2   13.42    0.97
  -3  -8  -2   41.06    1.51
  -2  -8  -2    3.49    0.47
  -1  -8  -2   48.46    2.37
   0  -8  -2   39.79    2.11
   1  -8  -2   49.58    2.50
   2  -8  -2    2.07    0.63
   3  -8  -2   37.22    2.23
   4  -8  -2   11.33    1.11
   5  -8  -2   19.24    1.53
   6  -8  -2   22.60    1.73
   7  -8  -2   15.86    1.49
   8  -8  -2   78.26    3.15
   9  -8  -2    8.33    1.45
  10  -8  -2   12.75    1.92
  11  -8  -2    2.41    0.94
  12  -8  -2    1.23    0.84
  13  -8  -2    3.35    0.78
  14  -8  -2    0.19    0.52
  15  -8  -2    0.05    0.56
 -16  -7  -2    1.91    1.03
 -15  -7  -2    0.11    0.73
 -14  -7  -2    0.68    0.86
 -13  -7  -2    9.60    1.91
 -12  -7  -2    4.61    1.34
 -11  -7  -2    0.84    0.73
 -10  -7  -2    0.31    0.53
  -9  -7  -2   66.51    4.15
  -8  -7  -2   17.23    1.59
  -7  -7  -2   88.58    3.33
  -6  -7  -2    6.91    0.88
  -5  -7  -2    1.56    0.34
  -4  -7  -2    0.06    0.18
  -3  -7  -2   30.90    1.25
  -2  -7  -2   15.94    0.90
  -1  -7  -2   29.15    1.13
   0  -7  -2    0.32    0.26
   1  -7  -2   28.95    1.70
   2  -7  -2   19.39    1.68
   3  -7  -2   26.85    1.85
   4  -7  -2    0.42    0.37
   5  -7  -2    1.35    0.39
   6  -7  -2    6.61    0.84
   7  -7  -2   88.02    3.10
   8  -7  -2   13.96    1.40
   9  -7  -2   65.83    3.77
  10  -7  -2    0.14    0.54
  11  -7  -2    2.05    0.84
  12  -7  -2    4.34    1.25
  13  -7  -2    9.93    1.31
  14  -7  -2    0.95    0.60
  15  -7  -2    0.89    0.62
  16  -7  -2    1.63    1.07
 -16  -6  -2   17.46    2.89
 -15  -6  -2   12.01    2.22
 -14  -6  -2   -0.60    0.58
 -13  -6  -2    3.90    1.29
 -12  -6  -2   16.69    2.43
 -11  -6  -2    6.20    1.40
 -10  -6  -2   11.78    1.83
  -9  -6  -2   10.44    1.73
  -8  -6  -2   44.17    2.09
  -7  -6  -2   25.43    1.63
  -6  -6  -2    2.05    0.37
  -5  -6  -2   58.99    1.83
  -4  -6  -2    0.71    0.23
  -3  -6  -2  254.57    5.70
  -2  -6  -2  115.33    2.92
  -1  -6  -2    1.56    0.20
   0  -6  -2   47.56    1.44
   1  -6  -2   -0.03    0.19
   2  -6  -2  111.36    3.91
   3  -6  -2  247.28    7.44
   4  -6  -2    0.73    0.41
   5  -6  -2   57.32    2.14
   6  -6  -2    1.07    0.40
   7  -6  -2   25.82    1.59
   8  -6  -2   43.42    2.11
   9  -6  -2   15.26    1.88
  10  -6  -2   14.56    1.97
  11  -6  -2    9.18    1.63
  12  -6  -2   17.42    1.68
  13  -6  -2    3.80    0.84
  14  -6  -2   -0.04    0.45
  15  -6  -2    8.50    1.47
  16  -6  -2   17.18    2.20
 -16  -5  -2   -0.51    0.57
 -15  -5  -2    0.41    0.72
 -14  -5  -2    6.68    1.70
 -13  -5  -2    0.57    0.67
 -12  -5  -2    2.47    0.93
 -11  -5  -2    8.50    1.66
 -10  -5  -2   12.25    1.87
  -9  -5  -2   10.57    1.64
  -8  -5  -2    0.69    0.32
  -7  -5  -2   49.78    2.10
  -6  -5  -2   48.43    2.01
  -5  -5  -2    0.34    0.23
  -4  -5  -2    0.89    0.24
  -3  -5  -2    5.51    0.50
  -2  -5  -2  106.06    2.69
  -1  -5  -2   20.92    0.87
   0  -5  -2    0.03    0.13
   1  -5  -2   21.12    1.25
   2  -5  -2  105.49    3.60
   3  -5  -2    6.13    0.83
   4  -5  -2    0.52    0.31
   5  -5  -2    0.06    0.30
   6  -5  -2   45.65    1.87
   7  -5  -2   48.80    1.98
   8  -5  -2    1.26    0.43
   9  -5  -2   12.05    1.58
  10  -5  -2   16.13    1.91
  11  -5  -2    9.49    1.62
  12  -5  -2    2.45    0.63
  13  -5  -2    1.32    0.54
  14  -5  -2   10.72    1.31
  15  -5  -2   -0.04    0.55
  16  -5  -2   -0.56    0.56
 -16  -4  -2    3.26    1.32
 -15  -4  -2   29.29    3.47
 -14  -4  -2   10.61    1.99
 -13  -4  -2    5.61    1.47
 -12  -4  -2   75.73    4.93
 -11  -4  -2    5.16    1.22
 -10  -4  -2    3.41    0.95
  -9  -4  -2    7.29    1.28
  -8  -4  -2    0.54    0.27
  -7  -4  -2    2.32    0.48
  -6  -4  -2   86.90    2.96
  -5  -4  -2    6.22    0.72
  -4  -4  -2   24.80    1.23
  -3  -4  -2    0.03    0.14
  -2  -4  -2  124.56    3.66
  -1  -4  -2   45.67    1.36
   0  -4  -2   18.16    0.75
   1  -4  -2   45.96    1.29
   2  -4  -2  120.90    3.97
   3  -4  -2   -0.31    0.15
   4  -4  -2   28.02    1.50
   5  -4  -2    6.90    0.90
   6  -4  -2   85.84    2.68
   7  -4  -2    3.50    0.58
   8  -4  -2    0.49    0.32
   9  -4  -2    8.86    1.28
  10  -4  -2    3.59    0.89
  11  -4  -2    5.77    0.88
  12  -4  -2   85.87    3.26
  13  -4  -2    6.42    1.02
  14  -4  -2   14.53    1.80
  15  -4  -2   26.78    2.60
  16  -4  -2    1.06    0.70
  17  -4  -2   -0.94    1.08
 -17  -3  -2    2.34    1.34
 -16  -3  -2    4.78    1.43
 -15  -3  -2    1.01    0.79
 -14  -3  -2    2.37    1.07
 -13  -3  -2    7.58    1.64
 -12  -3  -2    2.42    0.93
 -11  -3  -2   30.86    2.63
 -10  -3  -2   -0.04    0.37
  -9  -3  -2   95.68    4.99
  -8  -3  -2   80.72    2.85
  -7  -3  -2   17.53    1.12
  -6  -3  -2  187.04    5.32
  -5  -3  -2    7.56    0.74
  -4  -3  -2   15.35    0.86
  -3  -3  -2   87.15    2.68
  -2  -3  -2    1.75    0.28
  -1  -3  -2   40.96    1.45
   0  -3  -2    0.01    0.10
   1  -3  -2   42.34    1.21
   2  -3  -2    1.37    0.18
   3  -3  -2   86.04    2.13
   4  -3  -2   15.97    0.63
   5  -3  -2    5.63    0.76
   6  -3  -2  186.07    4.63
   7  -3  -2   19.91    1.19
   8  -3  -2   81.68    2.63
   9  -3  -2   96.52    4.00
  10  -3  -2   -0.16    0.31
  11  -3  -2   33.30    1.90
  12  -3  -2    1.58    0.52
  13  -3  -2   11.17    1.39
  14  -3  -2    1.95    0.76
  15  -3  -2    1.79    0.72
  16  -3  -2    2.95    0.99
  17  -3  -2    1.85    1.01
 -17  -2  -2    0.10    0.79
 -16  -2  -2    0.19    0.76
 -15  -2  -2   40.44    4.17
 -14  -2  -2    1.41    0.79
 -13  -2  -2    0.10    0.49
 -12  -2  -2    0.78    0.58
 -11  -2  -2   38.52    2.84
 -10  -2  -2   55.60    3.46
  -9  -2  -2    7.23    1.31
  -8  -2  -2    5.72    0.68
  -7  -2  -2   16.22    1.03
  -6  -2  -2   39.00    1.55
  -5  -2  -2   31.18    1.33
  -4  -2  -2  209.96    5.66
  -3  -2  -2   28.01    1.17
  -2  -2  -2    3.85    0.45
  -1  -2  -2    1.47    0.26
   0  -2  -2   -0.09    0.08
   1  -2  -2    1.27    0.22
   2  -2  -2    4.52    0.37
   3  -2  -2   28.81    0.93
   4  -2  -2  207.66    4.64
   5  -2  -2   31.75    1.53
   6  -2  -2   38.48    1.45
   7  -2  -2   16.83    1.04
   8  -2  -2    5.16    0.64
   9  -2  -2    6.45    1.06
  10  -2  -2   52.01    2.14
  11  -2  -2   36.75    1.89
  12  -2  -2    1.08    0.47
  13  -2  -2    1.21    0.64
  14  -2  -2    0.58    0.47
  15  -2  -2   41.39    2.91
  16  -2  -2    1.04    0.68
  17  -2  -2    0.95    0.76
 -17  -1  -2    2.22    1.32
 -16  -1  -2    5.66    1.66
 -15  -1  -2    1.61    0.86
 -14  -1  -2    1.77    0.90
 -13  -1  -2    4.67    1.22
 -12  -1  -2   24.92    2.78
 -11  -1  -2   14.04    2.01
 -10  -1  -2   13.59    1.80
  -9  -1  -2    7.52    1.32
  -8  -1  -2    5.63    0.64
  -7  -1  -2    5.95    0.65
  -6  -1  -2   45.53    1.73
  -5  -1  -2   17.48    0.92
  -4  -1  -2  144.67    4.05
  -3  -1  -2   33.36    1.28
  -2  -1  -2    7.06    0.59
  -1  -1  -2    1.75    0.28
   0  -1  -2    0.02    0.10
   1  -1  -2    1.95    0.28
   2  -1  -2    7.10    0.47
   3  -1  -2   32.04    1.18
   4  -1  -2  135.91    4.25
   5  -1  -2   17.87    1.14
   6  -1  -2   48.71    1.63
   7  -1  -2    5.65    0.62
   8  -1  -2    4.75    0.59
   9  -1  -2    7.71    1.05
  10  -1  -2   13.87    1.16
  11  -1  -2   10.24    1.04
  12  -1  -2   20.96    1.95
  13  -1  -2    8.12    1.29
  14  -1  -2    0.80    0.54
  15  -1  -2    1.41    0.64
  16  -1  -2    5.99    1.15
  17  -1  -2    3.34    1.04
 -17   0  -2    1.13    1.00
 -16   0  -2    0.02    0.66
 -15   0  -2    0.16    0.66
 -14   0  -2   84.83    5.27
 -13   0  -2   -0.03    0.49
 -12   0  -2   15.23    2.15
 -11   0  -2   -0.05    0.36
 -10   0  -2   77.19    4.23
  -9   0  -2    0.62    0.46
  -8   0  -2   71.59    2.42
  -7   0  -2    0.15    0.15
  -6   0  -2    0.00    0.16
  -5   0  -2    0.11    0.15
  -4   0  -2    0.53    0.21
  -3   0  -2   -0.08    0.10
  -2   0  -2    3.85    0.44
  -1   0  -2    0.00    0.11
   0   0  -2  927.70   22.74
   1   0  -2    0.02    0.11
   2   0  -2    3.37    0.38
   3   0  -2    0.07    0.11
   4   0  -2    0.00    0.16
   5   0  -2   -0.25    0.15
   6   0  -2    0.07    0.16
   7   0  -2    0.30    0.21
   8   0  -2   71.10    2.20
   9   0  -2    0.67    0.26
  10   0  -2   76.78    2.59
  11   0  -2   -0.20    0.22
  12   0  -2   15.14    1.67
  13   0  -2   -0.14    0.36
  14   0  -2   87.76    4.03
  15   0  -2   -0.24    0.41
  16   0  -2    0.67    0.57
  17   0  -2    0.25    0.48
 -17   1  -2    3.28    1.28
 -16   1  -2    7.41    1.72
 -15   1  -2    1.71    0.91
 -14   1  -2    1.48    0.85
 -13   1  -2    5.09    1.35
 -12   1  -2   20.96    2.48
 -11   1  -2   13.34    1.84
 -10   1  -2   17.27    2.01
  -9   1  -2    8.58    1.30
  -8   1  -2    5.09    0.58
  -7   1  -2    5.83    0.60
  -6   1  -2   46.17    1.73
  -5   1  -2   19.38    0.94
  -4   1  -2  141.81    5.69
  -3   1  -2   31.23    1.74
  -2   1  -2    5.69    0.74
  -1   1  -2    1.85    0.37
   0   1  -2    0.00    0.13
   1   1  -2    2.59    0.46
   2   1  -2    5.83    0.68
   3   1  -2   28.67    1.61
   6   1  -2   47.00    1.55
   7   1  -2    8.47    0.72
   8   1  -2    5.26    0.51
   9   1  -2   10.46    0.94
  10   1  -2   15.73    1.21
  11   1  -2    9.31    1.20
  12   1  -2   23.10    2.04
  13   1  -2    8.25    1.29
  14   1  -2    1.41    0.64
  15   1  -2    1.46    0.52
  16   1  -2    5.75    0.95
  17   1  -2    2.36    0.85
 -17   2  -2    0.09    0.72
 -16   2  -2    0.66    0.79
 -15   2  -2   40.74    4.00
 -14   2  -2    2.39    1.07
 -13   2  -2    0.39    0.51
 -12   2  -2    0.97    0.59
 -11   2  -2   35.66    2.64
 -10   2  -2   56.47    3.34
  -9   2  -2    7.42    0.78
  -8   2  -2    5.92    0.51
  -7   2  -2   17.29    1.00
  -6   2  -2   37.18    1.44
  -5   2  -2   33.69    1.22
  -4   2  -2  198.27    7.92
  -3   2  -2   30.36    1.68
  -2   2  -2    4.22    0.65
  -1   2  -2    1.13    0.35
   0   2  -2    0.08    0.10
   1   2  -2    1.20    0.23
   2   2  -2    4.50    0.64
   3   2  -2   32.53    1.67
   6   2  -2   38.18    2.35
   7   2  -2   16.85    1.05
   8   2  -2    5.30    0.51
   9   2  -2    7.40    0.77
  10   2  -2   54.73    2.52
  11   2  -2   36.84    2.08
  12   2  -2    1.19    0.55
  13   2  -2    0.92    0.43
  14   2  -2    2.36    0.63
  15   2  -2   37.17    2.25
  16   2  -2    1.05    0.58
  17   2  -2   -0.27    0.51
 -17   3  -2    4.37    1.42
 -16   3  -2    3.50    1.24
 -15   3  -2   -0.06    0.70
 -14   3  -2    3.80    1.12
 -13   3  -2    4.29    1.17
 -12   3  -2    1.70    0.78
 -11   3  -2   33.93    2.61
 -10   3  -2   -0.21    0.27
  -9   3  -2  104.91    4.95
  -8   3  -2   81.43    2.75
  -7   3  -2   19.94    1.06
  -6   3  -2  186.55    5.10
  -5   3  -2    8.81    0.55
  -4   3  -2   14.56    0.68
  -3   3  -2   83.60    3.73
  -2   3  -2    0.88    0.37
  -1   3  -2   42.67    2.12
   0   3  -2   -0.09    0.08
   1   3  -2   41.27    1.42
   2   3  -2    1.71    0.30
   3   3  -2   86.10    2.63
   4   3  -2   15.98    1.27
   5   3  -2    9.70    0.83
   6   3  -2  187.96    4.38
   7   3  -2   18.72    0.80
   8   3  -2   81.32    2.10
   9   3  -2  103.60    2.59
  10   3  -2    0.06    0.21
  11   3  -2   33.79    1.61
  12   3  -2    1.38    0.44
  13   3  -2    9.83    1.09
  14   3  -2    2.72    0.79
  15   3  -2    0.52    0.57
  16   3  -2    5.04    1.10
  17   3  -2    3.72    1.06
 -17   4  -2    0.82    0.94
 -16   4  -2    4.60    1.42
 -15   4  -2   26.58    3.17
 -14   4  -2   12.24    2.06
 -13   4  -2    5.60    1.31
 -12   4  -2   89.03    4.88
 -11   4  -2    4.12    1.07
 -10   4  -2    1.93    0.69
  -9   4  -2    9.46    1.38
  -8   4  -2    0.97    0.49
  -7   4  -2    3.12    0.48
  -6   4  -2   88.98    2.69
  -5   4  -2    6.40    0.47
  -4   4  -2   27.91    0.99
  -3   4  -2    0.28    0.12
  -2   4  -2  128.28    3.35
  -1   4  -2   46.46    1.40
   0   4  -2   18.78    0.77
   1   4  -2   46.42    1.56
   2   4  -2  123.57    3.60
   3   4  -2    0.23    0.14
   4   4  -2   26.12    1.18
   5   4  -2    6.13    0.68
   6   4  -2   86.70    2.38
   7   4  -2    3.11    0.44
   8   4  -2    1.23    0.28
   9   4  -2    9.10    0.86
  10   4  -2    5.03    0.67
  11   4  -2    4.96    0.65
  12   4  -2   84.16    3.54
  13   4  -2    8.40    1.20
  14   4  -2   10.14    1.37
  15   4  -2   27.47    2.38
  16   4  -2    3.24    0.89
  17   4  -2   -0.02    0.90
 -16   5  -2    0.38    0.75
 -15   5  -2   -0.27    0.60
 -14   5  -2    8.36    1.67
 -13   5  -2    1.15    0.64
 -12   5  -2    3.52    1.00
 -11   5  -2    9.06    1.52
 -10   5  -2   14.77    1.83
  -9   5  -2   11.71    1.58
  -8   5  -2    0.73    0.45
  -7   5  -2   48.73    2.82
  -6   5  -2   47.97    1.89
  -5   5  -2    0.03    0.13
  -4   5  -2    0.67    0.18
  -3   5  -2    6.59    0.42
  -2   5  -2  105.12    2.95
  -1   5  -2   22.05    0.87
   0   5  -2    0.02    0.11
   1   5  -2   22.64    0.72
   2   5  -2  104.63    2.50
   3   5  -2    6.16    0.48
   4   5  -2    0.74    0.25
   5   5  -2    0.43    0.24
   6   5  -2   48.90    1.57
   7   5  -2   50.15    1.68
   8   5  -2    0.29    0.23
   9   5  -2   10.46    1.14
  10   5  -2   14.06    1.38
  11   5  -2    6.38    0.98
  12   5  -2    1.75    0.60
  13   5  -2    1.13    0.54
  14   5  -2    7.99    1.27
  15   5  -2   -0.21    0.37
  16   5  -2    0.01    0.46
  17   5  -2    1.83    1.19
 -16   6  -2   20.26    2.84
 -15   6  -2   12.06    2.12
 -14   6  -2    0.16    0.62
 -13   6  -2    3.83    1.12
 -12   6  -2   13.99    2.03
 -11   6  -2   10.73    1.65
 -10   6  -2   17.33    2.06
  -9   6  -2   15.29    1.85
  -8   6  -2   42.48    2.70
  -7   6  -2   24.45    1.86
  -6   6  -2    1.52    0.55
  -5   6  -2   56.09    2.01
  -4   6  -2    0.56    0.18
  -3   6  -2  251.00    6.56
  -2   6  -2  116.76    3.20
  -1   6  -2    0.08    0.12
   0   6  -2   46.94    1.64
   1   6  -2    0.02    0.13
   2   6  -2  112.04    2.66
   3   6  -2  255.05    5.51
   4   6  -2    0.28    0.19
   5   6  -2   58.37    1.72
   6   6  -2    1.84    0.43
   7   6  -2   24.30    1.40
   8   6  -2   46.08    2.08
   9   6  -2   16.11    1.42
  10   6  -2   14.81    1.43
  11   6  -2    9.71    1.24
  12   6  -2   18.91    1.79
  13   6  -2    4.24    0.87
  14   6  -2    0.16    0.48
  15   6  -2    8.77    1.38
  16   6  -2   19.74    2.09
 -16   7  -2    1.52    1.02
 -15   7  -2   -0.18    0.63
 -14   7  -2    2.07    0.93
 -13   7  -2   11.23    1.87
 -12   7  -2    5.02    1.20
 -11   7  -2    0.94    0.59
 -10   7  -2    0.60    0.50
  -9   7  -2   75.46    3.96
  -8   7  -2   13.29    1.71
  -7   7  -2   81.93    4.18
  -6   7  -2    9.09    1.29
  -5   7  -2    1.74    0.58
  -4   7  -2   -0.11    0.13
  -3   7  -2   34.99    1.29
  -2   7  -2   14.81    0.83
  -1   7  -2   29.07    1.20
   0   7  -2    0.03    0.14
   1   7  -2   29.73    1.29
   2   7  -2   15.14    0.97
   3   7  -2   30.95    1.46
   4   7  -2    0.03    0.15
   5   7  -2    1.99    0.42
   6   7  -2    9.45    0.96
   7   7  -2   83.05    3.11
   8   7  -2   15.49    1.38
   9   7  -2   71.57    2.94
  10   7  -2    0.17    0.33
  11   7  -2    1.39    0.55
  12   7  -2    5.12    0.94
  13   7  -2   11.36    1.49
  14   7  -2    1.20    0.56
  15   7  -2   -0.05    0.47
  16   7  -2    0.33    0.66
 -16   8  -2    5.80    1.57
 -15   8  -2   -0.25    0.65
 -14   8  -2    0.60    0.65
 -13   8  -2    2.72    0.94
 -12   8  -2    1.04    0.67
 -11   8  -2    2.34    0.83
 -10   8  -2   16.34    2.04
  -9   8  -2    9.32    1.46
  -8   8  -2   74.61    4.11
  -7   8  -2   15.63    1.74
  -6   8  -2   24.40    1.88
  -5   8  -2   21.29    1.71
  -4   8  -2   11.97    1.38
  -3   8  -2   39.47    1.52
  -2   8  -2    3.83    0.49
  -1   8  -2   52.49    1.87
   0   8  -2   39.53    1.59
   1   8  -2   53.45    1.97
   2   8  -2    3.44    0.50
   3   8  -2   42.17    1.76
   4   8  -2   11.91    1.07
   5   8  -2   16.90    1.98
   6   8  -2   26.15    2.13
   7   8  -2   13.28    1.83
   8   8  -2   86.81    4.62
   9   8  -2   10.19    1.20
  10   8  -2   14.75    1.50
  11   8  -2    2.36    0.69
  12   8  -2    0.94    0.51
  13   8  -2    2.12    0.71
  14   8  -2   -0.06    0.41
  15   8  -2   -0.71    0.62
 -15   9  -2    0.32    0.82
 -14   9  -2   21.59    2.77
 -13   9  -2    6.03    1.46
 -12   9  -2    5.76    1.29
 -11   9  -2   18.26    2.30
 -10   9  -2   26.46    2.69
  -9   9  -2    5.30    1.16
  -8   9  -2    1.57    0.67
  -7   9  -2   15.54    1.87
  -6   9  -2   56.54    3.18
  -5   9  -2   27.77    2.04
  -4   9  -2    3.88    0.82
  -3   9  -2   51.66    1.99
  -2   9  -2   13.37    0.87
  -1   9  -2    4.16    0.55
   0   9  -2   -0.05    0.15
   1   9  -2    3.49    0.54
   2   9  -2   13.20    1.08
   3   9  -2   52.15    2.13
   4   9  -2    3.87    0.64
   5   9  -2   25.83    2.11
   6   9  -2   50.79    3.33
   7   9  -2   18.02    2.19
   8   9  -2    2.05    0.77
   9   9  -2    4.66    1.21
  10   9  -2   25.86    2.89
  11   9  -2   21.01    2.75
  12   9  -2    7.98    1.71
  13   9  -2    3.95    1.34
  14   9  -2   17.67    2.69
  15   9  -2    0.97    0.81
 -15  10  -2   23.33    3.03
 -14  10  -2   26.85    3.14
 -13  10  -2   18.97    2.47
 -12  10  -2   49.46    3.49
 -11  10  -2    1.77    0.80
 -10  10  -2   -0.22    0.37
  -9  10  -2   -0.06    0.33
  -8  10  -2    0.97    0.55
  -7  10  -2    3.09    0.86
  -6  10  -2    6.71    1.19
  -5  10  -2    0.53    0.46
  -4  10  -2   25.67    1.97
  -3  10  -2   53.70    3.17
  -2  10  -2   36.68    1.56
  -1  10  -2   45.97    1.85
   0  10  -2    7.18    0.79
   1  10  -2   45.01    1.92
   2  10  -2   34.23    1.65
   3  10  -2   60.40    2.38
   4  10  -2   28.13    1.54
   5  10  -2    0.46    0.34
   6  10  -2    6.95    1.34
   7  10  -2    2.77    0.92
   8  10  -2    0.65    0.60
   9  10  -2    0.49    0.59
  10  10  -2    0.17    0.64
  11  10  -2    1.97    0.93
  12  10  -2   50.78    3.82
  13  10  -2   18.26    2.74
  14  10  -2   22.60    3.07
 -14  11  -2    0.86    0.89
 -13  11  -2    0.51    0.73
 -12  11  -2   -0.20    0.56
 -11  11  -2    1.85    0.84
 -10  11  -2   24.82    2.61
  -9  11  -2   16.66    2.12
  -8  11  -2    2.18    0.85
  -7  11  -2    0.82    0.52
  -6  11  -2   10.97    1.58
  -5  11  -2   10.38    1.52
  -4  11  -2    7.48    1.25
  -3  11  -2   20.75    2.10
  -2  11  -2    4.67    1.00
  -1  11  -2   60.33    2.31
   0  11  -2    0.01    0.20
   1  11  -2   64.02    2.41
   2  11  -2    4.08    0.65
   3  11  -2   21.76    1.61
   4  11  -2    5.43    0.82
   5  11  -2   18.30    1.54
   6  11  -2    9.79    1.21
   7  11  -2    0.11    0.58
   8  11  -2    2.34    0.96
   9  11  -2   19.48    2.62
  10  11  -2   23.18    2.93
  11  11  -2    2.12    0.99
  12  11  -2   -0.50    0.53
  13  11  -2   -0.24    0.52
  14  11  -2    1.32    0.93
 -13  12  -2    2.59    1.11
 -12  12  -2    9.44    1.77
 -11  12  -2   16.18    2.27
 -10  12  -2    3.48    1.03
  -9  12  -2   12.27    1.87
  -8  12  -2    1.70    0.76
  -7  12  -2   15.93    2.01
  -6  12  -2   19.48    2.19
  -5  12  -2    3.08    0.89
  -4  12  -2   19.34    2.11
  -3  12  -2    6.72    1.19
  -2  12  -2   33.59    2.45
  -1  12  -2   41.41    2.88
   0  12  -2   24.67    1.50
   1  12  -2   43.92    2.04
   2  12  -2   33.44    1.77
   3  12  -2    6.75    0.91
   4  12  -2   19.82    1.62
   5  12  -2    1.10    0.44
   6  12  -2   17.22    1.66
   7  12  -2   17.96    1.72
   8  12  -2    1.79    0.87
   9  12  -2   12.94    2.15
  10  12  -2    5.28    1.48
  11  12  -2   21.96    2.98
  12  12  -2    8.55    1.92
  13  12  -2    2.46    1.10
 -11  13  -2    1.94    0.94
 -10  13  -2    1.38    0.76
  -9  13  -2    5.36    1.30
  -8  13  -2    0.83    0.67
  -7  13  -2    8.49    1.60
  -6  13  -2   17.35    2.19
  -5  13  -2   65.49    3.85
  -4  13  -2   25.23    2.11
  -3  13  -2   -0.20    0.30
  -2  13  -2    0.12    0.43
  -1  13  -2   12.18    1.74
   0  13  -2    0.15    0.43
   1  13  -2   10.75    1.14
   2  13  -2    0.13    0.27
   3  13  -2    0.05    0.29
   4  13  -2   23.12    1.83
   5  13  -2   64.93    2.93
   6  13  -2   20.67    1.86
   7  13  -2   10.18    1.30
   8  13  -2   -0.05    0.38
   9  13  -2    3.79    1.28
  10  13  -2    0.63    0.63
  11  13  -2    1.01    0.81
  12  13  -2   11.64    2.17
 -10  14  -2    4.29    1.20
  -9  14  -2    3.48    1.12
  -8  14  -2   40.07    3.03
  -7  14  -2    0.63    0.61
  -6  14  -2    8.21    1.46
  -5  14  -2    7.20    1.39
  -4  14  -2    6.03    1.27
  -3  14  -2    0.30    0.45
  -2  14  -2    1.97    0.77
  -1  14  -2    5.81    1.23
   0  14  -2  104.91    5.28
   1  14  -2    5.98    1.26
   2  14  -2    1.58    0.52
   3  14  -2    0.65    0.40
   4  14  -2    5.19    0.89
   5  14  -2    8.85    1.11
   6  14  -2    8.55    1.23
   7  14  -2   -0.04    0.41
   8  14  -2   35.05    2.66
   9  14  -2    4.41    0.99
  10  14  -2    5.12    1.45
  11  14  -2    0.12    0.70
  -8  15  -2   14.17    2.10
  -7  15  -2    8.99    1.61
  -6  15  -2   -0.24    0.51
  -5  15  -2    4.78    1.27
  -4  15  -2    1.75    0.84
  -3  15  -2    1.82    0.76
  -2  15  -2    2.56    0.97
  -1  15  -2    0.42    0.49
   0  15  -2   -0.15    0.46
   1  15  -2   -0.56    0.38
   2  15  -2    0.19    0.50
   3  15  -2    2.29    0.62
   4  15  -2    3.78    0.81
   5  15  -2    1.84    0.64
   6  15  -2    0.96    0.59
   7  15  -2    8.80    1.28
   8  15  -2   17.43    1.91
   9  15  -2    3.94    0.94
  10  15  -2   14.87    1.91
  -6  16  -2    2.46    0.99
  -5  16  -2    1.34    0.82
  -4  16  -2   36.42    2.99
  -3  16  -2    0.46    0.60
  -2  16  -2    0.45    0.59
  -1  16  -2    4.78    1.23
   0  16  -2   35.24    2.89
   1  16  -2    4.42    1.19
   2  16  -2    1.21    0.78
   3  16  -2   -0.67    0.44
   4  16  -2   41.71    3.44
   5  16  -2    1.66    0.69
   6  16  -2    0.84    0.55
   7  16  -2    2.95    0.88
   8  16  -2    1.27    0.65
   9  16  -2    1.23    0.99
  -4  17  -2    4.67    1.25
  -3  17  -2    3.98    1.22
  -2  17  -2    9.94    1.78
  -1  17  -2    5.73    1.39
   0  17  -2    0.23    0.63
   1  17  -2    4.47    1.33
   2  17  -2   15.26    2.31
   3  17  -2    1.99    1.08
   4  17  -2    6.36    1.58
   5  17  -2    5.78    1.58
   6  17  -2   18.22    2.74
   7  17  -2    5.92    1.15
  -2  18  -2    1.28    0.84
  -1  18  -2   -0.18    0.69
   0  18  -2    0.21    0.71
   1  18  -2    0.36    0.76
   2  18  -2    1.12    0.86
   3  18  -2    0.66    0.79
   4  18  -2   19.50    2.84
   5  18  -2    1.70    1.08
  -3 -19  -1    9.79    3.33
  -2 -19  -1    0.50    0.92
  -1 -19  -1    0.86    1.20
   0 -19  -1    0.28    1.01
   1 -19  -1    2.83    1.62
   2 -19  -1   -0.44    0.92
   3 -19  -1    7.74    1.97
   4 -19  -1    3.05    1.62
  -7 -18  -1    0.60    0.98
  -6 -18  -1   -0.03    0.96
  -5 -18  -1    0.67    0.91
  -4 -18  -1    0.29    0.87
  -3 -18  -1    0.03    0.83
  -2 -18  -1    6.38    2.08
  -1 -18  -1    0.74    0.92
   0 -18  -1    1.37    1.15
   1 -18  -1   -0.19    0.84
   2 -18  -1    5.45    1.47
   3 -18  -1    1.45    0.82
   4 -18  -1    0.47    0.78
   5 -18  -1   -0.08    0.77
   6 -18  -1    1.05    0.91
   7 -18  -1    1.45    1.60
  -8 -17  -1   -0.42    0.83
  -7 -17  -1    6.34    1.84
  -6 -17  -1    0.47    0.88
  -5 -17  -1    0.48    0.84
  -4 -17  -1   17.21    3.03
  -3 -17  -1    0.48    0.80
  -2 -17  -1    3.41    1.46
  -1 -17  -1   26.06    3.85
   0 -17  -1   -0.07    0.77
   1 -17  -1   28.22    4.08
   2 -17  -1    4.91    1.20
   3 -17  -1    0.72    0.69
   4 -17  -1   14.05    2.04
   5 -17  -1    0.09    0.70
   6 -17  -1   -0.15    0.68
   7 -17  -1    5.56    1.44
   8 -17  -1   -0.51    1.11
  -8 -16  -1   -0.56    0.72
  -7 -16  -1    7.19    1.82
  -6 -16  -1    1.06    0.98
  -5 -16  -1    0.50    0.93
  -4 -16  -1    0.13    0.80
  -3 -16  -1   32.58    4.18
  -2 -16  -1    9.09    2.18
  -1 -16  -1    2.83    1.41
   0 -16  -1   80.51    6.12
   1 -16  -1    1.79    0.82
   2 -16  -1   16.01    2.04
   3 -16  -1   22.95    2.51
   4 -16  -1   -0.11    0.50
   5 -16  -1    1.01    0.75
   6 -16  -1    1.01    0.77
   7 -16  -1   11.22    1.93
   8 -16  -1    0.11    1.08
   9 -16  -1    0.17    1.14
 -11 -15  -1    0.59    0.85
 -10 -15  -1    2.41    1.09
  -9 -15  -1    0.02    0.65
  -8 -15  -1    0.08    0.71
  -7 -15  -1   11.96    2.31
  -6 -15  -1   17.01    2.79
  -5 -15  -1   26.27    3.46
  -4 -15  -1   28.32    3.77
  -3 -15  -1   13.89    2.65
  -2 -15  -1    0.16    0.82
  -1 -15  -1    2.21    1.23
   0 -15  -1   -0.16    0.47
   1 -15  -1    2.54    0.88
   2 -15  -1    0.81    0.61
   3 -15  -1   21.82    2.47
   4 -15  -1   24.48    2.64
   5 -15  -1   24.38    2.70
   6 -15  -1   15.75    2.11
   7 -15  -1    7.24    1.47
   8 -15  -1   -0.64    0.61
   9 -15  -1    0.39    1.12
  10 -15  -1    0.47    1.30
  11 -15  -1   -0.13    1.12
 -12 -14  -1    2.14    1.01
 -11 -14  -1    0.98    0.81
 -10 -14  -1   -0.15    0.59
  -9 -14  -1    2.68    1.03
  -8 -14  -1   22.99    2.01
  -7 -14  -1    1.07    0.55
  -6 -14  -1    0.13    0.40
  -5 -14  -1    3.92    1.36
  -4 -14  -1   38.66    4.41
  -3 -14  -1   -0.08    0.56
  -2 -14  -1    2.57    1.19
  -1 -14  -1   11.48    1.54
   0 -14  -1   40.97    2.77
   1 -14  -1   10.57    1.58
   2 -14  -1    3.82    1.06
   3 -14  -1    2.12    0.92
   4 -14  -1   46.56    3.73
   5 -14  -1    3.13    0.96
   6 -14  -1    0.07    0.59
   7 -14  -1    1.07    0.71
   8 -14  -1   23.78    2.65
   9 -14  -1    3.22    1.19
  10 -14  -1   -0.09    0.55
  11 -14  -1    0.12    0.86
  12 -14  -1    2.14    1.15
 -13 -13  -1   14.44    2.43
 -12 -13  -1    3.66    1.22
 -11 -13  -1   36.64    3.68
 -10 -13  -1   17.92    2.48
  -9 -13  -1   12.65    1.95
  -8 -13  -1   32.70    2.12
  -7 -13  -1    6.26    1.01
  -6 -13  -1    3.09    0.75
  -5 -13  -1    0.40    0.40
  -4 -13  -1    2.20    0.57
  -3 -13  -1   83.93    5.72
  -2 -13  -1    9.71    1.41
  -1 -13  -1    2.46    0.74
   0 -13  -1   -0.15    0.42
   1 -13  -1    3.69    0.96
   2 -13  -1    7.68    1.45
   3 -13  -1   82.50    4.26
   4 -13  -1    2.08    0.92
   5 -13  -1    0.30    0.47
   6 -13  -1    3.61    0.91
   7 -13  -1    5.10    1.03
   8 -13  -1   30.42    2.47
   9 -13  -1    8.00    1.66
  10 -13  -1   19.77    2.57
  11 -13  -1   57.11    6.49
  12 -13  -1    0.96    0.95
  13 -13  -1   16.25    2.30
 -14 -12  -1    2.13    1.02
 -13 -12  -1    1.90    0.99
 -12 -12  -1   -0.16    0.63
 -11 -12  -1    4.34    1.26
 -10 -12  -1    3.73    1.10
  -9 -12  -1   12.01    1.87
  -8 -12  -1    6.71    1.03
  -7 -12  -1   15.27    1.52
  -6 -12  -1    5.09    0.86
  -5 -12  -1   14.57    1.48
  -4 -12  -1   35.91    2.08
  -3 -12  -1   11.23    1.25
  -2 -12  -1    1.80    0.46
  -1 -12  -1    9.33    1.36
   0 -12  -1    5.03    1.09
   1 -12  -1   10.00    1.57
   2 -12  -1    2.58    0.93
   3 -12  -1   13.28    1.45
   4 -12  -1   33.40    2.87
   5 -12  -1   20.10    1.90
   6 -12  -1    6.81    1.10
   7 -12  -1   14.23    1.59
   8 -12  -1    8.36    1.29
   9 -12  -1   14.06    2.09
  10 -12  -1    3.68    1.13
  11 -12  -1    5.58    1.04
  12 -12  -1    0.24    0.56
  13 -12  -1    4.16    1.15
  14 -12  -1    1.65    1.06
 -14 -11  -1    0.83    0.76
 -13 -11  -1    3.41    1.12
 -12 -11  -1    0.13    0.53
 -11 -11  -1    0.24    0.52
 -10 -11  -1    0.21    0.53
  -9 -11  -1   31.46    3.08
  -8 -11  -1    0.30    0.35
  -7 -11  -1  106.63    4.02
  -6 -11  -1    8.06    1.05
  -5 -11  -1   -0.19    0.28
  -4 -11  -1    4.08    0.76
  -3 -11  -1    0.32    0.29
  -2 -11  -1   45.92    1.78
  -1 -11  -1   49.38    1.93
   0 -11  -1    0.22    0.42
   1 -11  -1   53.56    2.23
   2 -11  -1   49.46    2.28
   3 -11  -1    0.34    0.39
   4 -11  -1    5.63    0.96
   5 -11  -1    0.60    0.48
   6 -11  -1   10.41    1.36
   7 -11  -1  102.59    3.96
   8 -11  -1    0.09    0.46
   9 -11  -1   25.06    2.75
  10 -11  -1   -0.41    0.54
  11 -11  -1    0.55    0.48
  12 -11  -1   -0.11    0.40
  13 -11  -1    2.30    0.77
  14 -11  -1    0.10    0.57
  15 -11  -1    5.47    1.28
 -15 -10  -1    1.04    0.84
 -14 -10  -1    3.77    1.25
 -13 -10  -1    3.55    1.17
 -12 -10  -1   -0.33    0.50
 -11 -10  -1   52.46    3.70
 -10 -10  -1    3.68    1.09
  -9 -10  -1    4.59    1.16
  -8 -10  -1    0.49    0.37
  -7 -10  -1    3.78    0.75
  -6 -10  -1   32.60    1.98
  -5 -10  -1   16.08    1.47
  -4 -10  -1   37.30    1.98
  -3 -10  -1   39.14    1.63
  -2 -10  -1    9.99    0.87
  -1 -10  -1   46.54    1.74
   0 -10  -1   26.47    1.06
   1 -10  -1   48.63    2.11
   2 -10  -1   11.49    1.21
   3 -10  -1   40.93    2.17
   4 -10  -1   40.55    2.28
   5 -10  -1   13.08    1.39
   6 -10  -1   31.07    2.30
   7 -10  -1    2.19    0.67
   8 -10  -1    0.46    0.46
   9 -10  -1    4.60    1.23
  10 -10  -1    2.47    0.96
  11 -10  -1   51.76    2.71
  12 -10  -1    0.08    0.44
  13 -10  -1    6.27    1.07
  14 -10  -1    4.42    0.97
  15 -10  -1    0.32    0.59
 -15  -9  -1    2.99    1.22
 -14  -9  -1    0.97    0.69
 -13  -9  -1    1.65    0.82
 -12  -9  -1    0.33    0.59
 -11  -9  -1    3.01    0.97
 -10  -9  -1    4.53    1.14
  -9  -9  -1   89.05    4.96
  -8  -9  -1   16.84    1.51
  -7  -9  -1   21.58    1.78
  -6  -9  -1   26.09    1.75
  -5  -9  -1  111.09    3.99
  -4  -9  -1   10.04    0.88
  -3  -9  -1    5.41    0.64
  -2  -9  -1  132.18    3.51
  -1  -9  -1   28.99    1.29
   0  -9  -1    0.10    0.15
   1  -9  -1   32.70    1.68
   2  -9  -1  128.52    3.86
   3  -9  -1    4.59    0.76
   4  -9  -1   12.61    1.28
   5  -9  -1  109.58    3.78
   6  -9  -1   23.44    1.92
   7  -9  -1   23.50    1.91
   8  -9  -1   16.36    1.66
   9  -9  -1   87.29    4.44
  10  -9  -1    7.57    1.35
  11  -9  -1    3.24    0.74
  12  -9  -1   -0.43    0.35
  13  -9  -1    1.55    0.62
  14  -9  -1    1.28    0.67
  15  -9  -1    3.49    0.89
  16  -9  -1    1.06    1.01
 -16  -8  -1    5.73    1.54
 -15  -8  -1    1.35    0.93
 -14  -8  -1   -0.26    0.54
 -13  -8  -1    3.33    1.19
 -12  -8  -1    0.74    0.63
 -11  -8  -1    9.90    1.80
 -10  -8  -1    7.81    1.48
  -9  -8  -1   31.51    2.55
  -8  -8  -1    0.46    0.31
  -7  -8  -1   13.24    1.33
  -6  -8  -1    6.06    0.90
  -5  -8  -1   48.66    2.27
  -4  -8  -1   32.19    1.37
  -3  -8  -1   25.25    1.19
  -2  -8  -1   29.27    1.29
  -1  -8  -1   35.61    1.37
   0  -8  -1   58.94    1.89
   1  -8  -1   38.26    2.23
   2  -8  -1   26.63    1.53
   3  -8  -1   25.38    1.56
   4  -8  -1   29.53    1.80
   5  -8  -1   49.18    2.32
   6  -8  -1    6.52    0.92
   7  -8  -1   12.39    1.38
   8  -8  -1    0.52    0.43
   9  -8  -1   32.10    2.94
  10  -8  -1    7.43    1.35
  11  -8  -1    8.43    1.12
  12  -8  -1    1.21    0.53
  13  -8  -1    1.64    0.55
  14  -8  -1    0.28    0.52
  15  -8  -1    2.74    0.80
  16  -8  -1    3.97    1.08
 -16  -7  -1    1.32    0.89
 -15  -7  -1   14.05    2.35
 -14  -7  -1    0.71    0.69
 -13  -7  -1   87.58    5.47
 -12  -7  -1    0.80    0.58
 -11  -7  -1   -0.06    0.41
 -10  -7  -1    0.25    0.50
  -9  -7  -1    6.42    1.29
  -8  -7  -1   21.97    1.71
  -7  -7  -1   12.03    1.25
  -6  -7  -1   13.70    1.34
  -5  -7  -1  202.44    4.73
  -4  -7  -1    0.83    0.27
  -3  -7  -1    2.14    0.38
  -2  -7  -1   18.17    0.97
  -1  -7  -1   55.91    1.75
   0  -7  -1    0.02    0.12
   1  -7  -1   58.31    2.65
   2  -7  -1   17.39    1.11
   3  -7  -1    2.92    0.52
   4  -7  -1    0.61    0.34
   5  -7  -1  203.05    5.44
   6  -7  -1   12.53    1.18
   7  -7  -1    9.42    1.15
   8  -7  -1   23.47    1.87
   9  -7  -1    3.22    0.93
  10  -7  -1    0.19    0.43
  11  -7  -1    0.05    0.34
  12  -7  -1    1.63    0.57
  13  -7  -1   99.34    3.65
  14  -7  -1    0.98    0.53
  15  -7  -1   18.41    1.87
  16  -7  -1    0.41    0.68
  17  -7  -1   14.99    2.97
 -17  -6  -1    8.72    1.93
 -16  -6  -1    1.10    0.82
 -15  -6  -1    0.43    0.58
 -14  -6  -1   -0.34    0.46
 -13  -6  -1   43.28    3.47
 -12  -6  -1   27.15    3.05
 -11  -6  -1   64.45    4.26
 -10  -6  -1   21.73    2.54
  -9  -6  -1   18.06    2.22
  -8  -6  -1   15.72    1.37
  -7  -6  -1   17.50    1.48
  -6  -6  -1    0.47    0.31
  -5  -6  -1   31.51    1.14
  -4  -6  -1    1.44    0.29
  -3  -6  -1   22.63    0.96
  -2  -6  -1    9.39    0.69
  -1  -6  -1  245.60    5.46
   0  -6  -1   50.52    1.52
   1  -6  -1  247.20    5.46
   2  -6  -1    8.99    1.07
   3  -6  -1   19.93    1.19
   4  -6  -1    1.06    0.36
   5  -6  -1   30.12    1.59
   6  -6  -1    0.55    0.35
   7  -6  -1   16.37    1.42
   8  -6  -1   15.55    1.36
   9  -6  -1   17.64    1.98
  10  -6  -1   21.32    1.62
  11  -6  -1   69.97    2.77
  12  -6  -1   23.94    1.84
  13  -6  -1   47.32    2.35
  14  -6  -1    0.59    0.44
  15  -6  -1    0.11    0.43
  16  -6  -1    0.36    0.68
  17  -6  -1    8.23    1.55
 -17  -5  -1   15.11    2.46
 -16  -5  -1    5.14    1.54
 -15  -5  -1    1.06    0.85
 -14  -5  -1    4.43    1.30
 -13  -5  -1    1.86    0.80
 -12  -5  -1   -0.04    0.43
 -11  -5  -1   26.41    2.86
 -10  -5  -1   40.20    2.97
  -9  -5  -1   20.71    2.35
  -8  -5  -1    0.27    0.29
  -7  -5  -1   69.22    2.75
  -6  -5  -1   73.97    1.96
  -5  -5  -1   38.51    1.23
  -4  -5  -1    0.24    0.15
  -3  -5  -1  105.50    2.67
  -2  -5  -1   94.78    2.43
  -1  -5  -1    0.19    0.14
   0  -5  -1    0.06    0.11
   1  -5  -1    0.03    0.08
   2  -5  -1   96.33    3.36
   3  -5  -1  107.52    2.95
   4  -5  -1    0.26    0.21
   5  -5  -1   38.12    1.62
   6  -5  -1   71.43    2.50
   7  -5  -1   73.95    2.62
   8  -5  -1    0.31    0.34
   9  -5  -1   29.12    2.53
  10  -5  -1   40.73    2.08
  11  -5  -1   28.69    1.91
  12  -5  -1    0.18    0.33
  13  -5  -1    4.06    0.76
  14  -5  -1    4.21    0.87
  15  -5  -1    0.30    0.55
  16  -5  -1    6.83    1.37
  17  -5  -1   21.16    2.39
 -17  -4  -1   -0.21    0.65
 -16  -4  -1   24.51    3.16
 -15  -4  -1    0.52    0.70
 -14  -4  -1   46.09    3.59
 -13  -4  -1    1.02    0.72
 -12  -4  -1    0.19    0.49
 -11  -4  -1    6.63    1.39
 -10  -4  -1    1.38    0.65
  -9  -4  -1   46.20    3.04
  -8  -4  -1    9.00    0.96
  -7  -4  -1   10.60    0.99
  -6  -4  -1   14.55    1.00
  -5  -4  -1   36.88    1.11
  -4  -4  -1  128.60    2.92
  -3  -4  -1    7.66    0.53
  -2  -4  -1   61.68    1.66
  -1  -4  -1   47.71    1.35
   0  -4  -1   18.78    0.67
   1  -4  -1   45.62    1.83
   2  -4  -1   61.18    2.30
   3  -4  -1    6.51    0.77
   4  -4  -1  120.72    3.22
   5  -4  -1   35.27    1.41
   6  -4  -1   14.82    1.08
   7  -4  -1   11.37    1.01
   8  -4  -1   10.08    1.02
   9  -4  -1   45.71    2.57
  10  -4  -1    0.66    0.37
  11  -4  -1    6.85    0.91
  12  -4  -1    0.23    0.35
  13  -4  -1    0.49    0.42
  14  -4  -1   42.74    2.82
  15  -4  -1    0.35    0.56
  16  -4  -1   18.05    2.09
  17  -4  -1    0.33    0.64
 -17  -3  -1   18.52    2.84
 -16  -3  -1    7.37    1.77
 -15  -3  -1   14.14    2.31
 -14  -3  -1    1.13    0.72
 -13  -3  -1    2.20    0.88
 -12  -3  -1   12.03    1.83
 -11  -3  -1   24.82    2.64
 -10  -3  -1   44.89    3.02
  -9  -3  -1   19.66    2.15
  -8  -3  -1   53.33    2.12
  -7  -3  -1  157.75    4.63
  -6  -3  -1    9.16    0.79
  -5  -3  -1   85.35    2.72
  -4  -3  -1   48.28    1.71
  -3  -3  -1   17.44    0.83
  -2  -3  -1  243.90    6.27
  -1  -3  -1  337.73    6.85
   0  -3  -1   -0.07    0.10
   1  -3  -1  325.54    8.58
   2  -3  -1  237.76    9.03
   3  -3  -1   16.35    1.01
   4  -3  -1   48.57    1.92
   5  -3  -1   91.65    2.49
   6  -3  -1   10.05    0.80
   7  -3  -1  158.61    4.11
   8  -3  -1   61.32    2.08
   9  -3  -1   18.85    1.37
  10  -3  -1   40.97    1.93
  11  -3  -1   22.68    1.63
  12  -3  -1   12.60    1.21
  13  -3  -1    1.39    0.57
  14  -3  -1    0.92    0.50
  15  -3  -1   20.36    2.21
  16  -3  -1    5.49    1.20
  17  -3  -1   18.72    2.30
  18  -3  -1    1.69    1.56
 -18  -2  -1    0.52    0.84
 -17  -2  -1    0.56    0.74
 -16  -2  -1    0.93    0.83
 -15  -2  -1    1.84    0.99
 -14  -2  -1    1.55    0.81
 -13  -2  -1    0.76    0.69
 -12  -2  -1   39.21    3.00
 -11  -2  -1   19.03    2.23
 -10  -2  -1    2.58    0.86
  -9  -2  -1    0.37    0.44
  -8  -2  -1   12.28    0.82
  -7  -2  -1   62.49    2.17
  -6  -2  -1   14.33    0.81
  -5  -2  -1    4.04    0.45
  -4  -2  -1   18.16    0.81
  -3  -2  -1   45.58    1.48
  -2  -2  -1   89.23    2.48
  -1  -2  -1  120.14    3.14
   0  -2  -1   36.13    1.11
   1  -2  -1  112.00    4.74
   2  -2  -1   87.13    2.65
   3  -2  -1   40.63    1.57
   4  -2  -1   17.37    0.75
   5  -2  -1    3.75    0.43
   6  -2  -1   16.49    0.87
   7  -2  -1   68.62    2.06
   8  -2  -1   13.85    0.78
   9  -2  -1    2.85    0.51
  10  -2  -1    1.73    0.46
  11  -2  -1   22.69    1.57
  12  -2  -1   39.26    1.84
  13  -2  -1    0.51    0.42
  14  -2  -1    1.24    0.60
  15  -2  -1    2.10    0.73
  16  -2  -1    0.94    0.61
  17  -2  -1   -0.07    0.59
  18  -2  -1    0.25    0.61
 -18  -1  -1    1.43    1.04
 -17  -1  -1    0.43    0.89
 -16  -1  -1   13.71    2.33
 -15  -1  -1   -0.05    0.53
 -14  -1  -1   11.56    1.95
 -13  -1  -1   30.58    1.98
 -12  -1  -1   15.08    1.38
 -11  -1  -1   18.17    1.49
 -10  -1  -1   82.04    3.11
  -9  -1  -1    4.36    0.64
  -8  -1  -1   58.72    1.65
  -7  -1  -1   14.74    0.66
  -6  -1  -1    8.64    0.48
  -5  -1  -1  164.02    4.42
  -4  -1  -1   50.09    1.59
  -3  -1  -1  148.53    3.90
  -2  -1  -1    0.71    0.17
  -1  -1  -1    0.44    0.14
   0  -1  -1    0.15    0.09
   1  -1  -1    0.68    0.12
   2  -1  -1    1.12    0.24
   3  -1  -1  143.47    4.04
   4  -1  -1   51.39    1.43
   5  -1  -1  162.38    3.80
   6  -1  -1    9.45    0.58
   7  -1  -1   14.98    0.72
   8  -1  -1   60.86    1.62
   9  -1  -1    4.48    0.64
  10  -1  -1   88.13    2.81
  11  -1  -1   15.77    1.29
  12  -1  -1   14.29    1.57
  13  -1  -1   30.42    2.44
  14  -1  -1    7.78    1.29
  15  -1  -1    0.75    0.51
  16  -1  -1   14.82    1.87
  17  -1  -1    0.72    0.56
  18  -1  -1    0.94    0.66
 -18   0  -1    0.33    0.86
 -17   0  -1   -0.04    0.65
 -16   0  -1   40.75    4.08
 -15   0  -1    0.15    0.38
 -14   0  -1   43.76    2.34
 -13   0  -1   -0.10    0.26
 -12   0  -1    0.35    0.32
 -11   0  -1    0.01    0.25
 -10   0  -1   24.29    1.40
  -9   0  -1    0.24    0.21
  -8   0  -1  218.71    4.93
  -7   0  -1    0.11    0.10
  -6   0  -1   86.07    2.10
  -5   0  -1    0.11    0.09
  -4   0  -1  317.74    6.46
  -3   0  -1    0.04    0.08
  -2   0  -1  135.59    3.51
  -1   0  -1   -0.05    0.09
   0   0  -1    8.80    0.53
   1   0  -1    0.03    0.10
   3   0  -1   -0.02    0.11
   4   0  -1  320.55    6.61
   5   0  -1    0.06    0.10
   6   0  -1   86.68    1.96
   7   0  -1   -0.02    0.11
   8   0  -1  225.96    4.49
   9   0  -1    0.14    0.23
  10   0  -1   22.01    1.42
  11   0  -1   -0.20    0.29
  12   0  -1    0.66    0.43
  13   0  -1   -0.21    0.34
  14   0  -1   44.92    2.64
  15   0  -1   -0.23    0.38
  16   0  -1   39.50    2.31
  17   0  -1    0.49    0.49
  18   0  -1    0.18    0.53
 -18   1  -1    0.84    0.85
 -17   1  -1    1.62    0.67
 -16   1  -1   22.48    2.03
 -15   1  -1    0.01    0.36
 -14   1  -1   10.48    1.25
 -13   1  -1   32.78    1.99
 -12   1  -1   15.44    1.40
 -11   1  -1   20.01    1.55
 -10   1  -1   87.57    3.09
  -9   1  -1    4.60    0.64
  -8   1  -1   59.60    1.58
  -7   1  -1   15.75    0.60
  -6   1  -1    9.01    0.45
  -5   1  -1  166.34    4.47
  -4   1  -1   50.45    1.57
  -3   1  -1  145.24    3.83
  -2   1  -1    1.24    0.14
  -1   1  -1    0.50    0.19
   0   1  -1    0.03    0.12
   1   1  -1    0.51    0.18
   4   1  -1   49.39    1.70
   5   1  -1  167.09    3.78
   6   1  -1    9.82    0.70
   7   1  -1   15.55    0.65
   8   1  -1   57.91    1.52
   9   1  -1    4.60    0.61
  10   1  -1   83.39    2.74
  11   1  -1   16.80    1.62
  12   1  -1   13.77    1.49
  13   1  -1   29.91    2.40
  14   1  -1   11.14    1.14
  15   1  -1    0.47    0.39
  16   1  -1   17.51    1.60
  17   1  -1    0.86    0.54
  18   1  -1    0.34    0.76
 -18   2  -1    1.09    0.96
 -17   2  -1    0.79    0.89
 -16   2  -1    2.45    0.72
 -15   2  -1    3.42    0.79
 -14   2  -1    0.99    0.49
 -13   2  -1    0.76    0.38
 -12   2  -1   40.18    1.98
 -11   2  -1   19.90    1.34
 -10   2  -1    2.90    0.53
  -9   2  -1    2.10    0.43
  -8   2  -1   13.50    0.58
  -7   2  -1   61.83    2.18
  -6   2  -1   15.25    0.78
  -5   2  -1    3.27    0.38
  -4   2  -1   18.23    0.74
  -3   2  -1   45.59    1.35
  -2   2  -1   88.79    2.34
  -1   2  -1  119.38    3.00
   0   2  -1   35.66    1.08
   1   2  -1  115.46    3.11
   2   2  -1   92.07    3.57
   3   2  -1   45.39    2.06
   4   2  -1   17.32    0.81
   5   2  -1    4.14    0.40
   6   2  -1   15.09    0.75
   7   2  -1   65.57    1.94
   8   2  -1   13.36    0.92
   9   2  -1    2.59    0.43
  10   2  -1    1.40    0.50
  11   2  -1   20.54    1.40
  12   2  -1   36.79    2.17
  13   2  -1    0.56    0.33
  14   2  -1    0.40    0.34
  15   2  -1    2.61    0.62
  16   2  -1    2.14    0.61
  17   2  -1   -0.30    0.50
 -18   3  -1    1.50    1.03
 -17   3  -1   16.32    2.60
 -16   3  -1    8.05    1.18
 -15   3  -1   20.10    1.79
 -14   3  -1    0.58    0.40
 -13   3  -1    1.80    0.51
 -12   3  -1   11.52    1.16
 -11   3  -1   24.97    1.43
 -10   3  -1   42.81    1.85
  -9   3  -1   18.16    1.13
  -8   3  -1   59.08    2.09
  -7   3  -1  161.27    4.52
  -6   3  -1   10.36    0.76
  -5   3  -1   89.33    2.58
  -4   3  -1   47.61    1.53
  -3   3  -1   17.04    0.67
  -2   3  -1  244.90    6.06
  -1   3  -1  334.38    8.19
   0   3  -1    0.01    0.09
   1   3  -1  335.96    6.72
   2   3  -1  239.44    6.16
   3   3  -1   16.38    0.78
   4   3  -1   50.79    1.38
   5   3  -1   85.21    2.23
   6   3  -1   10.79    0.56
   7   3  -1  158.87    3.31
   8   3  -1   56.13    1.55
   9   3  -1   17.53    1.19
  10   3  -1   40.74    1.68
  11   3  -1   21.85    1.45
  12   3  -1   13.71    1.19
  13   3  -1    1.72    0.49
  14   3  -1    1.36    0.46
  15   3  -1   20.93    1.99
  16   3  -1    7.05    1.28
  17   3  -1   21.36    2.18
 -18   4  -1    1.19    0.98
 -17   4  -1    0.09    0.68
 -16   4  -1   12.78    2.12
 -15   4  -1    0.05    0.36
 -14   4  -1   39.93    2.14
 -13   4  -1    0.75    0.42
 -12   4  -1    0.33    0.29
 -11   4  -1    6.37    0.79
 -10   4  -1    0.64    0.31
  -9   4  -1   47.02    1.88
  -8   4  -1    8.62    0.81
  -7   4  -1   11.44    0.86
  -6   4  -1   12.94    0.79
  -5   4  -1   34.35    1.27
  -4   4  -1  124.41    3.40
  -3   4  -1    7.19    0.45
  -2   4  -1   63.66    1.83
  -1   4  -1   46.81    1.44
   0   4  -1   17.41    0.73
   1   4  -1   48.39    1.43
   2   4  -1   63.71    1.92
   3   4  -1    8.23    0.58
   4   4  -1  122.63    2.89
   5   4  -1   36.57    1.19
   6   4  -1   14.06    0.81
   7   4  -1   11.92    0.62
   8   4  -1    9.62    0.83
   9   4  -1   46.00    1.72
  10   4  -1    1.50    0.41
  11   4  -1    8.52    0.92
  12   4  -1    0.20    0.24
  13   4  -1    1.43    0.55
  14   4  -1   42.40    2.60
  15   4  -1    0.27    0.49
  16   4  -1   19.48    2.04
  17   4  -1    0.14    0.56
 -17   5  -1   20.49    2.81
 -16   5  -1    5.13    1.40
 -15   5  -1    0.81    0.47
 -14   5  -1    4.88    0.84
 -13   5  -1    5.33    0.84
 -12   5  -1    0.54    0.33
 -11   5  -1   26.43    1.47
 -10   5  -1   40.05    1.79
  -9   5  -1   26.18    1.32
  -8   5  -1    0.15    0.18
  -7   5  -1   74.73    2.45
  -6   5  -1   71.62    2.32
  -5   5  -1   38.84    1.41
  -4   5  -1   -0.06    0.10
  -3   5  -1  104.99    2.98
  -2   5  -1   96.61    2.70
  -1   5  -1    0.23    0.13
   0   5  -1    0.14    0.11
   1   5  -1   -0.02    0.07
   2   5  -1   94.66    2.76
   3   5  -1  108.39    2.48
   4   5  -1   -0.04    0.11
   5   5  -1   39.72    1.29
   6   5  -1   72.90    2.09
   7   5  -1   73.16    2.20
   8   5  -1    0.19    0.21
   9   5  -1   25.35    1.23
  10   5  -1   41.71    1.68
  11   5  -1   25.94    1.98
  12   5  -1    0.19    0.38
  13   5  -1    4.86    0.91
  14   5  -1    3.57    0.86
  15   5  -1    0.62    0.55
  16   5  -1    4.44    0.97
  17   5  -1   20.09    2.15
 -17   6  -1    6.93    1.65
 -16   6  -1    1.08    0.78
 -15   6  -1    0.59    0.66
 -14   6  -1   -0.24    0.34
 -13   6  -1   50.63    2.32
 -12   6  -1   24.12    1.58
 -11   6  -1   74.09    2.75
 -10   6  -1   23.07    1.28
  -9   6  -1   19.67    1.21
  -8   6  -1   13.18    1.04
  -7   6  -1   16.70    0.92
  -6   6  -1    0.36    0.20
  -5   6  -1   30.67    1.23
  -4   6  -1    0.97    0.23
  -3   6  -1   22.51    0.95
  -2   6  -1   10.21    0.62
  -1   6  -1  239.64    6.30
   0   6  -1   50.01    1.68
   1   6  -1  243.53    5.10
   2   6  -1    8.83    0.59
   3   6  -1   22.44    1.05
   4   6  -1    1.60    0.23
   5   6  -1   29.75    1.06
   6   6  -1    0.75    0.23
   7   6  -1   16.20    0.94
   8   6  -1   13.22    1.25
   9   6  -1   17.71    1.56
  10   6  -1   22.53    1.80
  11   6  -1   70.48    3.07
  12   6  -1   25.10    2.05
  13   6  -1   48.05    2.57
  14   6  -1    0.17    0.44
  15   6  -1   -0.09    0.37
  16   6  -1    0.44    0.54
  17   6  -1    8.89    1.44
 -16   7  -1    0.61    0.84
 -15   7  -1   17.47    2.37
 -14   7  -1    0.35    0.54
 -13   7  -1  100.44    3.69
 -12   7  -1    2.65    0.53
 -11   7  -1   -0.23    0.23
 -10   7  -1    0.30    0.25
  -9   7  -1    6.79    0.76
  -8   7  -1   23.44    1.19
  -7   7  -1   12.93    1.00
  -6   7  -1   13.08    0.85
  -5   7  -1  203.08    5.44
  -4   7  -1    0.53    0.20
  -3   7  -1    1.81    0.23
  -2   7  -1   19.09    0.64
  -1   7  -1   53.61    1.84
   0   7  -1    0.02    0.07
   1   7  -1   54.68    1.43
   2   7  -1   19.21    0.85
   3   7  -1    2.08    0.37
   4   7  -1    0.61    0.26
   5   7  -1  199.17    5.72
   6   7  -1   11.77    1.09
   7   7  -1   12.35    1.15
   8   7  -1   22.98    1.54
   9   7  -1    4.99    0.79
  10   7  -1    0.09    0.31
  11   7  -1    0.03    0.32
  12   7  -1    0.47    0.41
  13   7  -1   97.85    4.05
  14   7  -1    1.63    0.63
  15   7  -1   19.86    2.01
  16   7  -1    2.13    0.73
  17   7  -1   15.69    2.62
 -15   8  -1    2.12    1.03
 -14   8  -1   -0.02    0.48
 -13   8  -1    2.07    0.84
 -12   8  -1    0.32    0.35
 -11   8  -1    8.78    0.99
 -10   8  -1    7.49    0.86
  -9   8  -1   32.73    1.57
  -8   8  -1    0.52    0.25
  -7   8  -1   12.25    0.97
  -6   8  -1    6.99    0.70
  -5   8  -1   48.43    1.80
  -4   8  -1   30.78    1.04
  -3   8  -1   26.64    0.88
  -2   8  -1   31.02    0.94
  -1   8  -1   35.94    1.00
   0   8  -1   59.68    1.53
   1   8  -1   35.46    1.06
   2   8  -1   30.23    1.01
   3   8  -1   24.92    1.15
   4   8  -1   32.15    1.43
   5   8  -1   48.37    1.99
   6   8  -1    7.90    0.87
   7   8  -1   12.26    1.18
   8   8  -1    0.29    0.34
   9   8  -1   32.07    1.96
  10   8  -1    8.75    1.10
  11   8  -1    7.59    1.07
  12   8  -1    0.67    0.42
  13   8  -1    2.80    0.76
  14   8  -1    0.59    0.46
  15   8  -1    2.53    0.79
  16   8  -1    7.23    1.24
 -14   9  -1    0.70    0.85
 -13   9  -1    2.43    0.84
 -12   9  -1   -0.16    0.31
 -11   9  -1    2.89    0.60
 -10   9  -1    7.40    0.88
  -9   9  -1   94.47    3.21
  -8   9  -1   18.85    1.34
  -7   9  -1   20.65    1.15
  -6   9  -1   24.21    1.22
  -5   9  -1  105.54    3.37
  -4   9  -1   11.87    0.92
  -3   9  -1    5.14    0.60
  -2   9  -1  125.70    3.76
  -1   9  -1   28.16    1.29
   0   9  -1    0.10    0.18
   1   9  -1   30.51    1.38
   2   9  -1  127.41    3.10
   3   9  -1    5.57    0.60
   4   9  -1   12.66    0.90
   5   9  -1  112.23    3.60
   6   9  -1   24.39    1.39
   7   9  -1   19.97    1.39
   8   9  -1   18.92    1.56
   9   9  -1   90.27    3.52
  10   9  -1    5.34    0.84
  11   9  -1    3.80    0.81
  12   9  -1    0.31    0.37
  13   9  -1    1.41    0.60
  14   9  -1    0.51    0.47
  15   9  -1    1.52    0.66
  16   9  -1    0.09    0.79
 -12  10  -1    0.27    0.50
 -11  10  -1   47.17    2.21
 -10  10  -1    3.87    0.67
  -9  10  -1    6.14    0.80
  -8  10  -1    1.20    0.37
  -7  10  -1    2.28    0.47
  -6  10  -1   29.88    1.45
  -5  10  -1   13.79    1.06
  -4  10  -1   37.29    1.59
  -3  10  -1   38.31    1.61
  -2  10  -1   10.33    0.92
  -1  10  -1   44.66    1.81
   0  10  -1   28.00    1.33
   1  10  -1   43.31    1.85
   2  10  -1    9.09    0.92
   3  10  -1   36.70    2.52
   4  10  -1   35.99    2.56
   5  10  -1   12.37    1.71
   6  10  -1   33.08    1.68
   7  10  -1    2.59    0.58
   8  10  -1    1.05    0.43
   9  10  -1    5.76    0.90
  10  10  -1    2.85    0.65
  11  10  -1   50.11    2.51
  12  10  -1   -0.10    0.33
  13  10  -1    7.43    1.17
  14  10  -1    3.65    0.90
  15  10  -1    0.05    0.55
 -11  11  -1   -0.55    0.48
 -10  11  -1    0.27    0.28
  -9  11  -1   29.76    1.58
  -8  11  -1    0.16    0.25
  -7  11  -1  110.50    3.58
  -6  11  -1    9.47    0.92
  -5  11  -1    0.54    0.29
  -4  11  -1    3.07    0.51
  -3  11  -1    0.66    0.28
  -2  11  -1   44.19    1.84
  -1  11  -1   51.55    2.02
   0  11  -1    0.09    0.21
   1  11  -1   49.49    2.05
   2  11  -1   46.01    1.98
   3  11  -1   -0.13    0.19
   4  11  -1    3.85    1.00
   5  11  -1    0.11    0.40
   6  11  -1    9.03    1.58
   7  11  -1  110.97    5.70
   8  11  -1    0.27    0.48
   9  11  -1   25.83    3.01
  10  11  -1   -0.44    0.44
  11  11  -1   -0.62    0.31
  12  11  -1   -0.23    0.49
  13  11  -1    2.40    1.10
  14  11  -1    0.61    0.83
  -9  12  -1   15.40    1.33
  -8  12  -1    7.23    0.88
  -7  12  -1   15.64    1.28
  -6  12  -1    8.92    0.94
  -5  12  -1   16.76    1.27
  -4  12  -1   34.17    1.60
  -3  12  -1   15.07    1.18
  -2  12  -1    1.12    0.36
  -1  12  -1    7.90    0.86
   0  12  -1    3.34    0.57
   1  12  -1    9.73    0.99
   2  12  -1    1.16    0.40
   3  12  -1   10.96    1.14
   4  12  -1   34.18    1.83
   5  12  -1   19.05    2.25
   6  12  -1    6.51    1.39
   7  12  -1   16.09    2.23
   8  12  -1    4.13    1.24
   9  12  -1   12.64    2.07
  10  12  -1    6.24    1.47
  11  12  -1    3.76    1.24
  12  12  -1    0.38    0.70
  13  12  -1    3.52    1.34
  14  12  -1    2.96    1.27
  -8  13  -1   33.13    2.45
  -7  13  -1    5.16    0.77
  -6  13  -1    4.04    0.68
  -5  13  -1    0.43    0.30
  -4  13  -1    3.17    0.57
  -3  13  -1   82.86    3.00
  -2  13  -1    8.81    0.94
  -1  13  -1    3.96    0.64
   0  13  -1    0.24    0.28
   1  13  -1    5.02    0.76
   2  13  -1    9.19    1.02
   3  13  -1   82.78    3.21
   4  13  -1    3.13    0.68
   5  13  -1    0.15    0.52
   6  13  -1    3.53    1.12
   7  13  -1    5.03    1.31
   8  13  -1   32.78    3.45
   9  13  -1   11.08    2.01
  10  13  -1   19.88    2.76
  11  13  -1   38.64    3.99
  12  13  -1    3.30    1.21
  13  13  -1   17.63    2.69
  -7  14  -1    0.88    0.53
  -6  14  -1   -0.34    0.27
  -5  14  -1    2.75    0.57
  -4  14  -1   47.82    2.11
  -3  14  -1    0.63    0.33
  -2  14  -1    2.48    0.55
  -1  14  -1   12.22    1.19
   0  14  -1   46.68    2.13
   1  14  -1   11.82    1.17
   2  14  -1    2.83    0.64
   3  14  -1    1.22    0.45
   4  14  -1   47.57    2.34
   5  14  -1    3.62    0.78
   6  14  -1    0.13    0.57
   7  14  -1    0.28    0.51
   8  14  -1   24.14    3.03
   9  14  -1    3.43    1.20
  10  14  -1   -0.18    0.52
  11  14  -1    1.63    0.86
  12  14  -1    2.37    1.15
  -6  15  -1   14.04    1.94
  -5  15  -1   29.90    2.41
  -4  15  -1   26.07    1.82
  -3  15  -1   22.90    1.52
  -2  15  -1    0.18    0.31
  -1  15  -1    3.35    0.65
   0  15  -1   -0.12    0.27
   1  15  -1    2.42    0.58
   2  15  -1    0.78    0.42
   3  15  -1   22.05    1.82
   4  15  -1   19.41    1.79
   5  15  -1   26.94    2.12
   6  15  -1   11.65    1.39
   7  15  -1   11.16    1.96
   8  15  -1    1.04    0.81
   9  15  -1   -0.77    0.51
  10  15  -1    1.84    1.05
  11  15  -1    2.49    1.15
  -5  16  -1    0.06    0.47
  -4  16  -1   -0.26    0.43
  -3  16  -1   24.24    2.72
  -2  16  -1   17.62    1.54
  -1  16  -1    2.01    0.58
   0  16  -1   81.14    3.30
   1  16  -1    1.33    0.54
   2  16  -1   18.35    1.65
   3  16  -1   30.06    2.20
   4  16  -1    0.25    0.39
   5  16  -1    0.81    0.49
   6  16  -1    2.44    0.74
   7  16  -1    7.85    1.23
   8  16  -1    0.31    0.44
   9  16  -1    0.60    0.76
  10  16  -1    0.34    0.85
  -4  17  -1   17.31    3.41
  -3  17  -1    0.14    0.62
  -2  17  -1    7.05    1.58
  -1  17  -1   31.94    3.29
   0  17  -1    0.09    0.39
   1  17  -1   31.19    2.05
   2  17  -1    7.21    1.09
   3  17  -1    0.47    0.49
   4  17  -1   14.90    1.61
   5  17  -1    0.47    0.50
   6  17  -1    1.11    0.58
   7  17  -1    6.25    1.12
   8  17  -1    0.08    0.52
   9  17  -1   19.29    4.05
  -2  18  -1    3.96    1.22
  -1  18  -1    0.37    0.63
   0  18  -1    1.38    0.88
   1  18  -1    0.27    0.60
   2  18  -1    1.43    0.86
   3  18  -1    1.32    0.64
   4  18  -1   -0.16    0.46
   5  18  -1    0.15    0.51
   6  18  -1    0.10    0.51
   7  18  -1    0.28    0.58
   0  19  -1   -0.15    0.69
   1  19  -1    2.91    1.20
   2  19  -1    2.02    1.05
   3  19  -1    8.66    1.98
   4  19  -1    1.72    1.06
  -4 -19   0   -0.19    0.86
  -3 -19   0    0.85    1.00
  -2 -19   0   37.50    4.64
  -1 -19   0   -0.09    0.87
   0 -19   0    0.60    0.94
   1 -19   0    0.66    0.98
   2 -19   0   46.66    5.70
   3 -19   0    0.26    0.73
   4 -19   0    0.79    0.88
   5 -19   0   -0.12    0.92
  -7 -18   0    3.65    1.37
  -6 -18   0   15.46    2.75
  -5 -18   0    0.48    0.90
  -4 -18   0   25.88    3.71
  -3 -18   0   -0.31    0.73
  -2 -18   0    1.09    0.91
  -1 -18   0    0.66    1.02
   0 -18   0   -0.01    0.78
   1 -18   0    1.25    1.13
   2 -18   0    0.29    0.72
   3 -18   0   -0.31    0.63
   4 -18   0   27.82    2.84
   5 -18   0   -0.07    0.69
   6 -18   0   30.72    3.22
   7 -18   0    0.69    0.95
  -9 -17   0    5.52    1.50
  -8 -17   0    1.31    0.69
  -7 -17   0   13.13    1.88
  -6 -17   0   17.85    2.82
  -5 -17   0    6.75    1.69
  -4 -17   0    4.77    1.57
  -3 -17   0    3.33    1.32
  -2 -17   0   15.49    2.94
  -1 -17   0    4.29    1.56
   0 -17   0   -0.16    0.62
   1 -17   0    3.05    0.89
   2 -17   0   14.13    1.88
   3 -17   0    3.39    1.05
   4 -17   0    7.60    1.53
   5 -17   0    4.82    1.31
   6 -17   0   18.41    2.42
   7 -17   0    9.26    1.74
   8 -17   0   -0.44    1.13
 -11 -16   0   20.08    2.85
 -10 -16   0   23.54    3.02
  -9 -16   0    0.77    0.85
  -8 -16   0    1.44    0.71
  -7 -16   0    4.20    0.90
  -6 -16   0    2.42    0.71
  -5 -16   0    2.24    0.70
  -4 -16   0   44.69    4.01
  -3 -16   0    0.15    0.71
  -2 -16   0    0.27    0.79
  -1 -16   0    2.10    1.12
   0 -16   0   54.25    3.93
   1 -16   0   11.35    2.18
   2 -16   0    0.83    0.69
   3 -16   0   -0.17    0.54
   4 -16   0   51.45    3.81
   5 -16   0    1.88    0.90
   6 -16   0    2.11    0.94
   7 -16   0    5.12    1.35
   8 -16   0    0.07    1.05
   9 -16   0    1.42    1.58
  10 -16   0   20.81    3.92
 -12 -15   0    1.11    1.14
 -11 -15   0    3.53    1.20
 -10 -15   0   12.70    2.18
  -9 -15   0    2.70    1.01
  -8 -15   0   20.27    1.91
  -7 -15   0   10.60    1.37
  -6 -15   0    1.56    0.59
  -5 -15   0    3.35    0.79
  -4 -15   0    2.91    0.75
  -3 -15   0    1.09    0.45
  -2 -15   0    2.59    1.20
  -1 -15   0   -0.65    0.55
   0 -15   0   -0.30    0.39
   1 -15   0    0.00    0.45
   2 -15   0    1.80    0.67
   3 -15   0    1.75    0.85
   4 -15   0    2.83    0.84
   5 -15   0    3.96    1.13
   6 -15   0    0.91    0.70
   7 -15   0   10.31    1.71
   8 -15   0   15.14    2.16
   9 -15   0    1.01    1.37
  10 -15   0   13.19    3.11
  11 -15   0    8.12    2.45
 -12 -14   0    2.81    1.17
 -11 -14   0   -0.07    0.60
 -10 -14   0   10.57    1.98
  -9 -14   0    2.97    1.08
  -8 -14   0   45.99    2.50
  -7 -14   0    1.38    0.55
  -6 -14   0   10.48    1.36
  -5 -14   0    8.89    1.22
  -4 -14   0    6.40    1.01
  -3 -14   0    0.79    0.46
  -2 -14   0    1.23    0.52
  -1 -14   0    8.53    1.27
   0 -14   0  122.66    4.88
   1 -14   0    6.99    1.25
   2 -14   0    1.62    0.72
   3 -14   0    0.25    0.51
   4 -14   0    4.56    1.15
   5 -14   0   15.64    2.07
   6 -14   0    6.95    1.40
   7 -14   0    0.86    0.68
   8 -14   0   47.46    3.24
   9 -14   0    4.02    1.80
  10 -14   0    7.56    1.67
  11 -14   0    0.69    0.79
  12 -14   0    5.31    1.48
  13 -14   0    1.97    1.63
 -13 -13   0   -0.39    0.74
 -12 -13   0   19.14    2.78
 -11 -13   0    1.40    0.89
 -10 -13   0    0.54    0.65
  -9 -13   0    5.02    1.08
  -8 -13   0    0.26    0.39
  -7 -13   0   10.48    1.32
  -6 -13   0   24.75    2.01
  -5 -13   0   77.83    3.38
  -4 -13   0   30.53    1.98
  -3 -13   0    0.13    0.31
  -2 -13   0    0.17    0.25
  -1 -13   0   12.31    1.45
   0 -13   0   -0.04    0.32
   1 -13   0   15.49    1.79
   2 -13   0    0.18    0.49
   3 -13   0    0.61    0.55
   4 -13   0   29.87    2.74
   5 -13   0   80.10    4.08
   6 -13   0   29.62    2.81
   7 -13   0    9.02    1.28
   8 -13   0    0.28    0.47
   9 -13   0    3.91    1.20
  10 -13   0   -0.08    0.68
  11 -13   0    1.95    0.99
  12 -13   0   13.92    2.17
  13 -13   0   -0.12    0.87
  14 -13   0    0.26    1.38
 -14 -12   0    0.74    0.87
 -13 -12   0    3.73    1.26
 -12 -12   0   17.28    2.48
 -11 -12   0   17.33    2.45
 -10 -12   0    4.28    1.19
  -9 -12   0   11.70    1.37
  -8 -12   0    3.25    0.74
  -7 -12   0   17.97    1.64
  -6 -12   0   22.71    1.86
  -5 -12   0    2.49    0.67
  -4 -12   0   25.87    1.79
  -3 -12   0   10.21    1.17
  -2 -12   0   45.66    1.75
  -1 -12   0   55.61    2.05
   0 -12   0   34.76    2.27
   1 -12   0   54.78    2.93
   2 -12   0   42.34    2.77
   3 -12   0    7.88    1.25
   4 -12   0   27.78    2.03
   5 -12   0    4.95    0.89
   6 -12   0   21.80    1.88
   7 -12   0   16.93    2.15
   8 -12   0    3.45    0.79
   9 -12   0   13.04    2.02
  10 -12   0    3.31    1.06
  11 -12   0   16.66    2.31
  12 -12   0   17.72    2.43
  13 -12   0    4.74    1.29
  14 -12   0    1.26    0.97
 -15 -11   0    1.03    0.95
 -14 -11   0    0.33    0.64
 -13 -11   0   -0.17    0.48
 -12 -11   0    0.52    0.65
 -11 -11   0    3.05    1.09
 -10 -11   0   19.18    2.56
  -9 -11   0   22.70    1.88
  -8 -11   0    3.88    0.79
  -7 -11   0    1.00    0.44
  -6 -11   0   10.74    1.27
  -5 -11   0   17.08    1.59
  -4 -11   0    9.00    1.07
  -3 -11   0   28.46    1.31
  -2 -11   0    5.21    0.63
  -1 -11   0   75.08    2.42
   0 -11   0   -0.19    0.29
   1 -11   0   76.97    3.50
   2 -11   0    6.87    0.92
   3 -11   0   28.95    1.81
   4 -11   0    7.02    0.95
   5 -11   0   19.98    1.74
   6 -11   0   10.58    1.28
   7 -11   0    0.50    0.45
   8 -11   0    2.69    0.66
   9 -11   0   21.53    2.52
  10 -11   0   22.95    2.71
  11 -11   0    2.05    0.91
  12 -11   0    0.34    0.65
  13 -11   0    0.73    0.81
  14 -11   0   -0.08    0.68
  15 -11   0    1.90    1.13
 -15 -10   0   25.66    3.18
 -14 -10   0   29.40    3.46
 -13 -10   0   23.86    2.95
 -12 -10   0   51.41    3.91
 -11 -10   0    3.89    1.26
 -10 -10   0    0.21    0.55
  -9 -10   0   -0.27    0.26
  -8 -10   0    1.63    0.52
  -7 -10   0    5.58    0.86
  -6 -10   0    8.34    1.07
  -5 -10   0    0.49    0.34
  -4 -10   0   32.14    1.78
  -3 -10   0   77.29    2.32
  -2 -10   0   47.58    1.71
  -1 -10   0   65.69    2.14
   0 -10   0    9.82    0.85
   1 -10   0   66.86    2.35
   2 -10   0   50.80    2.08
   3 -10   0   71.55    2.75
   4 -10   0   33.18    1.99
   5 -10   0    0.66    0.42
   6 -10   0   11.23    1.24
   7 -10   0    4.51    0.82
   8 -10   0    1.55    0.53
   9 -10   0   -0.01    0.32
  10 -10   0    0.21    0.37
  11 -10   0    1.67    0.65
  12 -10   0   59.72    2.95
  13 -10   0   25.49    2.30
  14 -10   0   33.02    3.16
  15 -10   0   22.96    2.70
  16 -10   0    1.81    1.28
 -16  -9   0    4.00    1.36
 -15  -9   0    1.55    0.80
 -14  -9   0   14.05    2.33
 -13  -9   0    5.93    1.39
 -12  -9   0    3.68    1.12
 -11  -9   0   30.90    3.18
 -10  -9   0   29.56    3.13
  -9  -9   0    7.47    1.00
  -8  -9   0    2.04    0.57
  -7  -9   0   22.84    1.73
  -6  -9   0   68.44    2.81
  -5  -9   0   35.97    1.88
  -4  -9   0    6.05    0.59
  -3  -9   0   73.65    2.21
  -2  -9   0   17.26    0.94
  -1  -9   0    5.99    0.47
   0  -9   0    0.02    0.15
   1  -9   0    4.60    0.68
   2  -9   0   17.09    1.38
   3  -9   0   74.31    2.74
   4  -9   0    6.43    0.90
   5  -9   0   36.92    2.01
   6  -9   0   63.25    2.67
   7  -9   0   19.72    1.65
   8  -9   0    2.03    0.41
   9  -9   0    9.62    1.07
  10  -9   0   35.67    2.04
  11  -9   0   27.14    1.96
  12  -9   0    7.39    1.03
  13  -9   0    4.09    0.88
  14  -9   0   26.06    2.09
  15  -9   0    2.30    0.75
  16  -9   0    9.51    2.74
 -16  -8   0    6.00    1.62
 -15  -8   0    0.36    0.67
 -14  -8   0    0.51    0.61
 -13  -8   0    3.65    1.22
 -12  -8   0    0.18    0.58
 -11  -8   0    2.27    0.88
 -10  -8   0   18.17    2.30
  -9  -8   0   10.62    1.19
  -8  -8   0   99.90    3.59
  -7  -8   0   20.92    1.60
  -6  -8   0   32.00    1.71
  -5  -8   0   29.95    1.61
  -4  -8   0   18.42    0.91
  -3  -8   0   54.74    1.73
  -2  -8   0    3.87    0.48
  -1  -8   0   74.43    1.80
   0  -8   0   56.30    1.55
   1  -8   0   73.11    2.45
   2  -8   0    4.10    0.69
   3  -8   0   49.70    2.17
   4  -8   0   18.66    1.57
   5  -8   0   26.93    1.89
   6  -8   0   32.60    1.90
   7  -8   0   18.19    1.51
   8  -8   0   95.88    2.72
   9  -8   0    9.59    1.05
  10  -8   0   18.80    1.53
  11  -8   0    2.60    0.66
  12  -8   0    1.28    0.54
  13  -8   0    4.73    0.86
  14  -8   0    0.20    0.43
  15  -8   0    0.48    0.54
  16  -8   0    5.58    1.31
  17  -8   0    0.33    1.01
 -17  -7   0    0.91    1.08
 -16  -7   0    1.43    0.85
 -15  -7   0    0.14    0.51
 -14  -7   0    0.26    0.67
 -13  -7   0   12.81    2.08
 -12  -7   0    6.98    1.51
 -11  -7   0    1.93    0.82
 -10  -7   0    0.25    0.44
  -9  -7   0   90.30    4.88
  -8  -7   0   21.60    1.41
  -7  -7   0  117.80    3.92
  -6  -7   0   11.60    1.16
  -5  -7   0    2.04    0.25
  -4  -7   0    0.15    0.16
  -3  -7   0   45.31    1.47
  -2  -7   0   21.07    0.96
  -1  -7   0   42.92    1.19
   0  -7   0   -0.02    0.12
   1  -7   0   42.46    1.72
   2  -7   0   21.68    1.49
   3  -7   0   43.53    1.92
   4  -7   0   -0.07    0.28
   5  -7   0    1.56    0.44
   6  -7   0   10.39    1.12
   7  -7   0  114.64    3.57
   8  -7   0   20.41    1.31
   9  -7   0   87.12    3.03
  10  -7   0    0.01    0.28
  11  -7   0    2.01    0.58
  12  -7   0    5.65    0.88
  13  -7   0   11.12    1.27
  14  -7   0    1.08    0.48
  15  -7   0    0.42    0.54
  16  -7   0    0.24    0.68
  17  -7   0    0.39    0.87
 -17  -6   0   14.34    2.40
 -16  -6   0   25.75    3.21
 -15  -6   0    9.88    1.90
 -14  -6   0    0.78    0.65
 -13  -6   0    3.67    1.13
 -12  -6   0   18.63    2.47
 -11  -6   0   14.39    2.07
 -10  -6   0   20.84    2.42
  -9  -6   0   19.56    2.33
  -8  -6   0   57.81    2.27
  -7  -6   0   33.70    1.64
  -6  -6   0    4.23    0.67
  -5  -6   0   79.61    2.84
  -4  -6   0    0.93    0.20
  -3  -6   0  338.57    7.20
  -2  -6   0  165.84    3.88
  -1  -6   0    0.05    0.10
   0  -6   0   70.37    1.71
   1  -6   0    0.09    0.25
   2  -6   0  156.98    4.32
   3  -6   0  310.86    7.82
   4  -6   0    0.71    0.37
   5  -6   0   75.88    2.67
   6  -6   0    2.31    0.51
   7  -6   0   32.54    1.32
   8  -6   0   52.91    1.70
   9  -6   0   22.58    1.44
  10  -6   0   16.57    1.39
  11  -6   0   13.64    1.27
  12  -6   0   22.76    1.69
  13  -6   0    3.09    0.66
  14  -6   0   -0.14    0.35
  15  -6   0   13.56    1.78
  16  -6   0   23.55    2.49
  17  -6   0   13.93    1.96
 -17  -5   0    1.57    0.96
 -16  -5   0    0.18    0.61
 -15  -5   0    0.22    0.70
 -14  -5   0   10.99    1.91
 -13  -5   0    2.06    0.90
 -12  -5   0    1.80    0.85
 -11  -5   0   10.64    1.78
 -10  -5   0   26.06    2.68
  -9  -5   0   19.08    2.28
  -8  -5   0    1.11    0.36
  -7  -5   0   67.91    2.44
  -6  -5   0   65.31    2.41
  -5  -5   0    0.62    0.28
  -4  -5   0    1.20    0.18
  -3  -5   0    9.85    0.56
  -2  -5   0  153.60    3.61
  -1  -5   0   36.11    0.94
   0  -5   0    0.17    0.11
   1  -5   0   33.60    1.40
   2  -5   0  148.81    4.07
   3  -5   0    8.48    0.90
   4  -5   0    0.88    0.36
   5  -5   0    0.27    0.25
   6  -5   0   63.92    2.23
   7  -5   0   64.62    1.83
   8  -5   0    1.18    0.29
   9  -5   0   14.60    1.22
  10  -5   0   18.12    1.41
  11  -5   0    8.16    0.94
  12  -5   0    1.04    0.43
  13  -5   0    1.92    0.53
  14  -5   0   10.33    1.47
  15  -5   0   -0.04    0.45
  16  -5   0   -0.35    0.49
  17  -5   0    1.78    0.85
 -18  -4   0    6.70    1.96
 -17  -4   0    1.30    0.98
 -16  -4   0    4.38    1.31
 -15  -4   0   38.17    3.22
 -14  -4   0   17.92    2.49
 -13  -4   0   10.30    1.75
 -12  -4   0  104.15    5.61
 -11  -4   0    7.22    1.43
 -10  -4   0    3.79    1.07
  -9  -4   0   10.96    1.75
  -8  -4   0    2.34    0.43
  -7  -4   0    4.39    0.59
  -6  -4   0  119.61    3.63
  -5  -4   0    9.94    0.89
  -4  -4   0   38.93    1.62
  -3  -4   0    0.60    0.15
  -2  -4   0  194.16    4.29
  -1  -4   0   79.07    2.07
   0  -4   0   29.37    0.83
   1  -4   0   80.49    2.32
   2  -4   0  178.95    4.71
   3  -4   0    0.42    0.30
   4  -4   0   37.89    1.57
   5  -4   0    9.11    0.86
   6  -4   0  116.18    2.71
   7  -4   0    3.63    0.41
   8  -4   0    1.66    0.28
   9  -4   0   13.51    1.14
  10  -4   0    5.28    0.70
  11  -4   0    6.82    0.84
  12  -4   0  102.82    3.37
  13  -4   0    9.69    1.09
  14  -4   0   13.15    1.67
  15  -4   0   38.87    2.96
  16  -4   0    3.14    0.92
  17  -4   0    1.30    0.79
  18  -4   0    6.14    1.95
 -18  -3   0    3.18    1.33
 -17  -3   0    1.42    0.79
 -16  -3   0    4.83    1.40
 -15  -3   0    0.67    0.57
 -14  -3   0    3.04    1.02
 -13  -3   0   13.77    2.16
 -12  -3   0    2.09    0.57
 -11  -3   0   38.82    2.03
 -10  -3   0   -0.09    0.21
  -9  -3   0  122.39    4.12
  -8  -3   0  108.81    2.75
  -7  -3   0   24.00    0.93
  -6  -3   0  245.03    6.64
  -5  -3   0   13.79    0.87
  -4  -3   0   25.13    1.16
  -3  -3   0  133.48    5.66
  -2  -3   0    1.75    0.22
  -1  -3   0   71.30    1.80
   0  -3   0    0.28    0.09
   1  -3   0   68.42    2.00
   2  -3   0    1.59    0.39
   3  -3   0  131.80    3.52
   4  -3   0   24.33    1.14
   5  -3   0   13.73    0.65
   6  -3   0  247.11    4.89
   7  -3   0   24.71    0.89
   8  -3   0  108.10    3.18
   9  -3   0  120.83    3.52
  10  -3   0    0.13    0.25
  11  -3   0   38.66    1.75
  12  -3   0    2.23    0.52
  13  -3   0   13.59    1.62
  14  -3   0    2.87    0.80
  15  -3   0    0.39    0.51
  16  -3   0    3.82    1.00
  17  -3   0    2.14    0.87
  18  -3   0    3.87    0.89
 -18  -2   0   10.47    2.01
 -17  -2   0    0.11    0.66
 -16  -2   0    0.73    0.67
 -15  -2   0   41.07    2.39
 -14  -2   0    4.00    0.80
 -13  -2   0    1.48    0.53
 -12  -2   0    0.93    0.44
 -11  -2   0   41.34    2.05
 -10  -2   0   70.13    2.75
  -9  -2   0    9.86    1.05
  -8  -2   0    6.37    0.77
  -7  -2   0   22.99    0.79
  -6  -2   0   54.81    1.73
  -5  -2   0   49.58    1.39
  -4  -2   0  293.15    6.26
  -3  -2   0   43.21    2.18
  -2  -2   0    5.75    0.53
  -1  -2   0    2.85    0.25
   0  -2   0    0.14    0.08
   1  -2   0    2.44    0.33
   2  -2   0    7.67    0.66
   3  -2   0   45.87    1.52
   4  -2   0  298.29    5.60
   5  -2   0   49.45    1.30
   6  -2   0   55.20    1.39
   7  -2   0   21.90    1.74
   8  -2   0    7.21    0.74
   9  -2   0    8.90    0.86
  10  -2   0   67.80    2.34
  11  -2   0   42.34    1.77
  12  -2   0    1.44    0.55
  13  -2   0    0.43    0.36
  14  -2   0    1.78    0.63
  15  -2   0   43.37    2.92
  16  -2   0    0.25    0.61
  17  -2   0   -0.27    0.40
  18  -2   0   15.09    1.59
 -18  -1   0   18.89    2.74
 -17  -1   0    3.54    0.90
 -16  -1   0    6.84    1.15
 -15  -1   0    1.46    0.56
 -14  -1   0    1.98    0.62
 -13  -1   0   13.15    1.40
 -12  -1   0   28.15    1.77
 -11  -1   0   13.89    1.29
 -10  -1   0   20.21    1.52
  -9  -1   0   11.98    1.12
  -8  -1   0    4.52    0.65
  -7  -1   0    8.71    0.83
  -6  -1   0   62.52    2.23
  -5  -1   0   29.35    1.76
  -4  -1   0  214.04    4.50
  -3  -1   0   54.76    1.35
  -2  -1   0   13.13    0.60
  -1  -1   0    3.88    0.33
   0  -1   0   -0.01    0.20
   1  -1   0    4.93    0.38
   2  -1   0   14.87    0.67
   3  -1   0   56.03    1.30
   4  -1   0  213.78    4.85
   5  -1   0   25.84    1.07
   6  -1   0   66.48    2.03
   7  -1   0    8.81    0.76
   8  -1   0    4.76    0.59
   9  -1   0   11.08    0.96
  10  -1   0   16.99    1.19
  11  -1   0   15.52    1.18
  12  -1   0   26.42    2.16
  13  -1   0   10.15    1.33
  14  -1   0    1.88    0.69
  15  -1   0    0.67    0.58
  16  -1   0    6.62    1.02
  17  -1   0    4.44    0.85
  18  -1   0   16.67    1.63
 -18   0   0   12.70    1.62
 -17   0   0    0.00    0.48
 -16   0   0    0.12    0.40
 -15   0   0   -0.17    0.33
 -14   0   0  112.08    4.16
 -13   0   0    0.30    0.32
 -12   0   0   20.26    1.62
 -11   0   0    0.15    0.24
 -10   0   0   98.20    3.39
  -9   0   0    0.14    0.20
  -8   0   0   86.68    2.92
  -7   0   0   -0.01    0.16
  -6   0   0    0.02    0.14
  -5   0   0    0.01    0.13
  -4   0   0    0.28    0.16
  -3   0   0    0.06    0.10
  -2   0   0    6.87    0.34
  -1   0   0    0.10    0.05
   1   0   0    0.03    0.06
   2   0   0    7.25    0.40
   3   0   0    0.17    0.15
   4   0   0    0.64    0.22
   5   0   0    0.02    0.16
   6   0   0    0.09    0.15
   7   0   0   -0.05    0.16
   8   0   0   88.02    2.53
   9   0   0    0.13    0.21
  10   0   0   95.28    2.83
  11   0   0    0.32    0.32
  12   0   0   21.87    1.91
  13   0   0   -0.14    0.33
  14   0   0  104.55    3.50
  15   0   0    0.27    0.35
  16   0   0    0.33    0.40
  17   0   0    0.28    0.42
  18   0   0   11.91    1.35
 -18   1   0   14.05    1.67
 -17   1   0    4.75    0.99
 -16   1   0    7.07    1.13
 -15   1   0    1.63    0.52
 -14   1   0    2.87    0.70
 -13   1   0   10.65    1.22
 -12   1   0   27.77    1.60
 -11   1   0   12.06    1.16
 -10   1   0   21.02    1.48
  -9   1   0   13.32    1.10
  -8   1   0    5.12    0.62
  -7   1   0    8.76    0.78
  -6   1   0   65.25    2.14
  -5   1   0   26.13    1.05
  -4   1   0  211.86    4.51
  -3   1   0   53.11    1.32
  -2   1   0   13.47    0.41
  -1   1   0    4.44    0.16
   0   1   0   -0.02    0.04
   1   1   0    4.46    0.26
   2   1   0   13.70    0.61
   3   1   0   57.20    1.45
   4   1   0  214.90    4.68
   5   1   0   28.38    1.01
   6   1   0   68.04    1.90
   7   1   0    8.47    0.69
   8   1   0    6.20    0.61
   9   1   0   12.18    0.89
  10   1   0   14.95    1.44
  11   1   0   13.11    1.07
  12   1   0   28.27    1.59
  13   1   0    9.36    1.01
  14   1   0    1.89    0.54
  15   1   0    0.83    0.40
  16   1   0    6.92    0.99
  17   1   0    3.15    0.71
  18   1   0   16.05    1.58
 -18   2   0   16.50    1.81
 -17   2   0    0.23    0.55
 -16   2   0    1.00    0.55
 -15   2   0   45.44    2.40
 -14   2   0    2.48    0.62
 -13   2   0    1.35    0.49
 -12   2   0    0.79    0.37
 -11   2   0   43.45    1.95
 -10   2   0   67.81    2.55
  -9   2   0    9.63    0.90
  -8   2   0    7.92    0.75
  -7   2   0   21.79    1.05
  -6   2   0   53.48    1.52
  -5   2   0   49.69    1.35
  -4   2   0  298.75    6.13
  -3   2   0   44.72    1.11
  -2   2   0    6.90    0.27
  -1   2   0    2.55    0.16
   0   2   0    0.08    0.06
   1   2   0    2.55    0.34
   2   2   0    6.81    0.37
   3   2   0   46.04    1.26
   4   2   0  296.74    6.34
   5   2   0   50.29    1.37
   6   2   0   54.17    1.36
   7   2   0   22.28    0.90
   8   2   0    8.31    0.57
   9   2   0    9.24    0.85
  10   2   0   66.39    2.28
  11   2   0   39.93    1.72
  12   2   0    0.83    0.34
  13   2   0    1.00    0.41
  14   2   0    2.92    0.62
  15   2   0   44.70    2.08
  16   2   0    1.11    0.47
  17   2   0    0.34    0.42
  18   2   0   12.89    1.73
 -18   3   0    3.52    1.47
 -17   3   0    3.13    0.84
 -16   3   0    6.65    1.03
 -15   3   0    0.60    0.42
 -14   3   0    3.64    0.75
 -13   3   0   13.56    1.37
 -12   3   0    2.02    0.52
 -11   3   0   40.29    1.85
 -10   3   0    0.03    0.22
  -9   3   0  121.73    3.82
  -8   3   0  111.56    3.39
  -7   3   0   24.61    0.93
  -6   3   0  244.77    5.32
  -5   3   0   12.49    0.54
  -4   3   0   23.69    0.75
  -3   3   0  136.71    2.91
  -2   3   0    1.73    0.17
  -1   3   0   69.42    1.54
   0   3   0    0.10    0.09
   1   3   0   71.26    1.97
   2   3   0    1.69    0.18
   3   3   0  136.82    3.05
   4   3   0   26.10    0.92
   5   3   0   12.94    0.70
   6   3   0  247.20    5.57
   7   3   0   23.06    1.05
   8   3   0  108.57    3.01
   9   3   0  125.77    3.40
  10   3   0   -0.12    0.18
  11   3   0   40.19    1.71
  12   3   0    2.81    0.53
  13   3   0   14.59    1.25
  14   3   0    3.47    0.66
  15   3   0    0.61    0.40
  16   3   0    4.16    0.93
  17   3   0    3.62    0.92
  18   3   0    3.71    1.04
 -18   4   0    7.50    1.89
 -17   4   0    0.89    0.78
 -16   4   0    3.44    0.80
 -15   4   0   39.11    2.18
 -14   4   0   17.12    1.58
 -13   4   0   10.23    1.15
 -12   4   0  102.00    3.63
 -11   4   0    5.83    0.77
 -10   4   0    5.98    0.75
  -9   4   0   10.44    0.91
  -8   4   0    1.73    0.29
  -7   4   0    3.68    0.39
  -6   4   0  110.86    2.74
  -5   4   0   10.05    0.50
  -4   4   0   37.32    1.05
  -3   4   0    0.46    0.12
  -2   4   0  195.49    4.00
  -1   4   0   79.04    1.78
   0   4   0   29.08    0.97
   1   4   0   80.10    2.26
   2   4   0  196.17    4.88
   3   4   0    0.35    0.13
   4   4   0   37.93    1.17
   5   4   0    9.42    0.60
   6   4   0  119.76    2.98
   7   4   0    3.79    0.50
   8   4   0    1.35    0.33
   9   4   0   13.21    1.01
  10   4   0    4.64    0.63
  11   4   0    7.02    0.78
  12   4   0  105.08    3.23
  13   4   0    9.65    1.03
  14   4   0   15.63    1.35
  15   4   0   38.63    2.80
  16   4   0    3.07    0.81
  17   4   0    0.65    0.57
  18   4   0    7.42    2.10
 -18   5   0    0.86    0.89
 -17   5   0    2.16    0.98
 -16   5   0   -0.09    0.51
 -15   5   0   -0.13    0.36
 -14   5   0   13.09    1.40
 -13   5   0    1.25    0.42
 -12   5   0    2.30    0.53
 -11   5   0   10.67    1.05
 -10   5   0   21.47    1.21
  -9   5   0   14.10    0.90
  -8   5   0    1.16    0.26
  -7   5   0   63.32    1.80
  -6   5   0   62.26    1.71
  -5   5   0    0.34    0.13
  -4   5   0    1.22    0.18
  -3   5   0    9.71    0.42
  -2   5   0  154.51    3.29
  -1   5   0   34.18    0.93
   0   5   0   -0.02    0.09
   1   5   0   34.50    1.21
   2   5   0  154.57    4.20
   3   5   0    8.71    0.42
   4   5   0    1.03    0.20
   5   5   0    0.52    0.19
   6   5   0   64.38    1.88
   7   5   0   64.08    1.98
   8   5   0    0.82    0.26
   9   5   0   14.20    1.04
  10   5   0   20.73    1.20
  11   5   0    9.38    0.93
  12   5   0    3.40    0.60
  13   5   0    1.86    0.57
  14   5   0   11.91    1.50
  15   5   0    0.32    0.45
  16   5   0   -0.09    0.48
  17   5   0    2.46    0.91
 -16   6   0   22.52    2.84
 -15   6   0   13.10    2.10
 -14   6   0    0.11    0.32
 -13   6   0    3.18    0.63
 -12   6   0   19.51    1.52
 -11   6   0   12.26    1.13
 -10   6   0   18.58    1.35
  -9   6   0   21.95    0.99
  -8   6   0   54.55    1.67
  -7   6   0   33.47    1.15
  -6   6   0    2.77    0.32
  -5   6   0   76.14    1.94
  -4   6   0    0.78    0.17
  -3   6   0  342.30    6.87
  -2   6   0  161.06    3.50
  -1   6   0    0.08    0.09
   0   6   0   67.70    1.68
   1   6   0   -0.04    0.11
   2   6   0  162.30    4.47
   3   6   0  330.10    6.89
   4   6   0    0.59    0.16
   5   6   0   76.33    2.04
   6   6   0    2.83    0.39
   7   6   0   31.72    1.23
   8   6   0   54.93    1.84
   9   6   0   20.51    1.17
  10   6   0   16.70    1.54
  11   6   0   10.49    1.23
  12   6   0   26.26    2.14
  13   6   0    2.60    0.70
  14   6   0    0.30    0.42
  15   6   0   12.69    1.57
  16   6   0   28.14    2.44
  17   6   0   14.70    1.83
 -17   7   0    1.52    1.03
 -16   7   0    1.36    0.86
 -15   7   0    0.17    0.52
 -14   7   0    0.71    0.61
 -13   7   0   11.90    1.82
 -12   7   0    4.57    0.69
 -11   7   0    2.23    0.47
 -10   7   0    0.39    0.22
  -9   7   0   87.93    2.48
  -8   7   0   19.68    0.89
  -7   7   0  113.27    2.86
  -6   7   0   11.72    0.66
  -5   7   0    1.77    0.26
  -4   7   0   -0.05    0.10
  -3   7   0   44.96    1.25
  -2   7   0   22.87    0.76
  -1   7   0   42.18    1.19
   0   7   0    0.06    0.10
   1   7   0   42.67    1.53
   2   7   0   20.90    1.01
   3   7   0   42.97    1.70
   4   7   0    0.13    0.10
   5   7   0    1.59    0.25
   6   7   0   11.23    0.70
   7   7   0  114.30    3.87
   8   7   0   19.91    1.57
   9   7   0   92.41    3.44
  10   7   0    0.62    0.34
  11   7   0    2.29    0.63
  12   7   0    5.12    0.89
  13   7   0   12.64    1.47
  14   7   0    1.33    0.59
  15   7   0    0.03    0.44
  16   7   0    1.82    0.77
  17   7   0    1.93    0.75
 -17   8   0    1.80    1.06
 -16   8   0    8.90    1.80
 -15   8   0   -0.04    0.54
 -14   8   0    0.12    0.43
 -13   8   0    6.09    1.31
 -12   8   0    0.75    0.56
 -11   8   0    2.95    0.57
 -10   8   0   16.19    1.05
  -9   8   0    9.63    0.76
  -8   8   0  103.21    2.69
  -7   8   0   17.80    0.82
  -6   8   0   31.74    1.11
  -5   8   0   27.75    0.99
  -4   8   0   16.36    0.70
  -3   8   0   53.96    1.49
  -2   8   0    4.03    0.37
  -1   8   0   70.96    1.85
   0   8   0   54.55    1.51
   1   8   0   72.66    2.36
   2   8   0    4.63    0.56
   3   8   0   56.89    2.04
   4   8   0   16.86    1.10
   5   8   0   28.05    1.45
   6   8   0   30.16    1.59
   7   8   0   19.21    1.53
   8   8   0  103.67    3.68
   9   8   0   10.35    1.18
  10   8   0   16.46    1.55
  11   8   0    3.94    0.80
  12   8   0    2.13    0.61
  13   8   0    4.32    0.89
  14   8   0    0.35    0.44
  15   8   0   -0.16    0.37
  16   8   0    7.41    1.25
 -15   9   0    2.75    1.01
 -14   9   0   22.58    2.66
 -13   9   0    5.32    1.33
 -12   9   0    7.44    1.42
 -11   9   0   21.20    2.32
 -10   9   0   33.68    1.78
  -9   9   0    8.39    0.74
  -8   9   0    2.82    0.40
  -7   9   0   21.88    0.94
  -6   9   0   70.06    1.93
  -5   9   0   37.62    1.23
  -4   9   0    5.36    0.46
  -3   9   0   72.93    1.93
  -2   9   0   17.13    0.71
  -1   9   0    4.96    0.43
   0   9   0   -0.09    0.11
   1   9   0    6.15    0.64
   2   9   0   17.61    0.98
   3   9   0   72.49    2.56
   4   9   0    6.56    0.81
   5   9   0   36.98    1.76
   6   9   0   69.66    2.70
   7   9   0   24.60    1.60
   8   9   0    2.38    0.55
   9   9   0    7.34    1.02
  10   9   0   36.27    2.04
  11   9   0   22.77    1.94
  12   9   0   10.29    1.36
  13   9   0    3.20    0.77
  14   9   0   22.96    2.07
  15   9   0    0.91    0.63
  16   9   0    6.23    1.14
 -16  10   0    0.18    0.83
 -15  10   0   27.00    3.10
 -14  10   0   33.16    2.84
 -13  10   0   24.72    2.77
 -12  10   0   56.80    3.70
 -11  10   0    4.14    1.11
 -10  10   0    0.02    0.28
  -9  10   0    0.21    0.25
  -8  10   0    1.56    0.42
  -7  10   0    5.42    0.54
  -6  10   0   10.11    0.71
  -5  10   0    0.96    0.24
  -4  10   0   34.68    1.17
  -3  10   0   73.70    2.01
  -2  10   0   48.73    1.45
  -1  10   0   63.30    1.79
   0  10   0   10.70    0.70
   1  10   0   64.48    1.84
   2  10   0   45.97    1.88
   3  10   0   76.20    2.69
   4  10   0   33.36    1.61
   5  10   0    0.92    0.39
   6  10   0   10.29    1.15
   7  10   0    4.78    0.78
   8  10   0    1.06    0.46
   9  10   0    0.60    0.35
  10  10   0    0.06    0.34
  11  10   0    1.12    0.52
  12  10   0   58.67    2.89
  13  10   0   23.44    2.05
  14  10   0   33.45    2.61
  15  10   0   25.07    2.27
  16  10   0    0.37    0.78
 -15  11   0    0.84    0.90
 -14  11   0    0.22    0.68
 -13  11   0   -0.01    0.47
 -12  11   0    0.25    0.53
 -11  11   0    4.27    1.10
 -10  11   0   27.21    2.28
  -9  11   0   18.62    2.18
  -8  11   0    3.82    0.95
  -7  11   0    0.83    0.49
  -6  11   0   13.12    1.11
  -5  11   0   18.95    1.04
  -4  11   0    7.53    0.60
  -3  11   0   27.88    1.07
  -2  11   0    6.75    0.56
  -1  11   0   76.11    2.09
   0  11   0   -0.12    0.13
   1  11   0   76.82    2.14
   2  11   0    5.21    0.68
   3  11   0   30.43    1.49
   4  11   0    6.99    0.81
   5  11   0   19.16    1.51
   6  11   0   12.39    1.23
   7  11   0    1.08    0.47
   8  11   0    3.75    0.70
   9  11   0   20.70    1.78
  10  11   0   26.19    2.07
  11  11   0    2.37    0.67
  12  11   0    0.33    0.44
  13  11   0   -0.43    0.34
  14  11   0    0.46    0.52
  15  11   0    0.98    0.71
 -14  12   0    0.75    0.76
 -13  12   0    3.23    1.12
 -12  12   0   16.88    2.38
 -11  12   0   25.35    2.72
 -10  12   0    6.57    1.32
  -9  12   0   14.42    1.97
  -8  12   0    2.62    0.84
  -7  12   0   18.75    2.07
  -6  12   0   22.45    1.92
  -5  12   0    1.13    0.56
  -4  12   0   29.29    1.39
  -3  12   0    9.10    0.87
  -2  12   0   43.88    1.85
  -1  12   0   61.01    2.28
   0  12   0   30.03    1.50
   1  12   0   61.42    2.34
   2  12   0   46.88    2.02
   3  12   0    8.64    0.95
   4  12   0   27.35    1.54
   5  12   0    2.17    0.54
   6  12   0   21.23    1.70
   7  12   0   17.36    1.57
   8  12   0    1.97    0.58
   9  12   0   13.15    1.45
  10  12   0    4.62    0.86
  11  12   0   21.81    1.97
  12  12   0   16.15    1.73
  13  12   0    2.90    0.79
  14  12   0    1.64    0.68
 -14  13   0    1.39    1.02
 -13  13   0    0.62    0.74
 -12  13   0   15.83    2.27
 -11  13   0    2.34    0.84
 -10  13   0    0.30    0.56
  -9  13   0    7.58    1.47
  -8  13   0    0.25    0.39
  -7  13   0   11.31    1.67
  -6  13   0   31.17    2.37
  -5  13   0   89.41    4.51
  -4  13   0   37.10    2.55
  -3  13   0   -0.08    0.35
  -2  13   0   -0.29    0.18
  -1  13   0   16.95    1.28
   0  13   0    0.16    0.26
   1  13   0   15.42    1.27
   2  13   0    0.07    0.25
   3  13   0    0.25    0.26
   4  13   0   33.51    2.71
   5  13   0   79.05    4.74
   6  13   0   25.47    2.95
   7  13   0   11.43    1.97
   8  13   0   -0.27    0.46
   9  13   0    2.76    1.03
  10  13   0    0.85    0.66
  11  13   0    2.23    1.06
  12  13   0   20.30    2.90
  13  13   0   -0.37    0.63
 -13  14   0   -0.11    0.72
 -12  14   0    2.22    0.99
 -11  14   0    1.06    0.72
 -10  14   0    7.96    1.58
  -9  14   0    4.34    1.13
  -8  14   0   47.28    3.28
  -7  14   0    1.17    0.65
  -6  14   0   12.50    1.80
  -5  14   0    9.44    1.54
  -4  14   0    6.25    1.23
  -3  14   0    0.99    0.60
  -2  14   0    1.48    0.70
  -1  14   0    6.33    1.25
   0  14   0  125.95    4.16
   1  14   0    7.60    0.91
   2  14   0    1.28    0.44
   3  14   0   -0.08    0.28
   4  14   0    5.91    1.39
   5  14   0    7.96    1.60
   6  14   0   10.20    1.92
   7  14   0    0.65    0.67
   8  14   0   44.67    3.63
   9  14   0    3.43    1.13
  10  14   0    5.42    1.50
  11  14   0   -0.08    0.66
  12  14   0    4.29    1.36
 -12  15   0    1.26    0.88
 -11  15   0    4.28    1.32
 -10  15   0   15.75    2.31
  -9  15   0    5.57    1.37
  -8  15   0   20.83    2.55
  -7  15   0   10.34    1.77
  -6  15   0    1.24    0.74
  -5  15   0    4.16    1.15
  -4  15   0    2.90    0.94
  -3  15   0    2.54    0.92
  -2  15   0    1.37    0.76
  -1  15   0    0.23    0.35
   0  15   0    0.83    0.62
   1  15   0    0.15    0.31
   2  15   0    0.64    0.39
   3  15   0    1.37    0.49
   4  15   0    4.89    0.86
   5  15   0    4.48    1.32
   6  15   0    0.32    0.52
   7  15   0    9.58    1.94
   8  15   0   17.25    2.61
   9  15   0    3.51    1.32
  10  15   0   14.49    2.47
  11  15   0    4.05    1.40
 -11  16   0   17.69    2.58
 -10  16   0   25.40    3.03
  -9  16   0    0.99    0.81
  -8  16   0    2.61    0.96
  -7  16   0    1.82    0.84
  -6  16   0    0.86    0.67
  -5  16   0    3.65    1.05
  -4  16   0   48.74    3.50
  -3  16   0   -0.63    0.38
  -2  16   0    0.08    0.45
  -1  16   0    7.67    1.52
   0  16   0   47.44    3.53
   1  16   0    5.65    1.34
   2  16   0    0.31    0.57
   3  16   0   -0.43    0.43
   4  16   0   49.32    2.49
   5  16   0    3.59    0.77
   6  16   0    0.30    0.72
   7  16   0    2.09    1.07
   8  16   0    1.70    0.93
   9  16   0    0.99    0.92
  10  16   0   26.69    3.39
  -9  17   0    2.35    1.05
  -8  17   0    1.28    0.77
  -7  17   0   11.34    2.03
  -6  17   0   19.48    2.60
  -5  17   0    8.82    1.78
  -4  17   0    9.83    1.84
  -3  17   0    4.46    1.19
  -2  17   0   13.53    2.18
  -1  17   0    4.70    1.34
   0  17   0    0.68    0.60
   1  17   0    5.96    1.49
   2  17   0   14.86    2.37
   3  17   0    2.61    1.05
   4  17   0    9.45    1.92
   5  17   0    6.55    1.74
   6  17   0   21.18    2.00
   7  17   0   11.71    1.52
   8  17   0    1.80    1.04
  -7  18   0    1.02    0.81
  -6  18   0   19.36    2.64
  -5  18   0   -0.25    0.54
  -4  18   0   26.12    3.16
  -3  18   0    0.13    0.63
  -2  18   0    1.93    0.92
  -1  18   0    0.72    0.78
   0  18   0   -0.26    0.52
   1  18   0    0.53    0.64
   2  18   0   -0.06    0.59
   3  18   0   -0.05    0.64
   4  18   0   24.72    3.23
   5  18   0   -0.39    0.65
   6  18   0   21.95    3.05
   7  18   0    2.53    1.22
  -5  19   0    1.93    1.10
  -4  19   0    0.38    0.75
  -3  19   0    0.54    0.74
  -2  19   0   47.00    3.83
  -1  19   0   -0.45    0.63
   0  19   0   -0.44    0.60
   1  19   0    0.77    0.73
   2  19   0   44.10    3.80
   3  19   0    1.06    0.93
   4  19   0    0.06    0.86
  -2 -19   1    2.71    1.46
  -1 -19   1    4.62    1.92
   0 -19   1    0.70    1.19
   1 -19   1    1.78    1.38
   2 -19   1    0.22    1.11
   3 -19   1    7.52    1.56
   4 -19   1    3.96    1.67
  -7 -18   1    0.52    0.66
  -6 -18   1   -0.09    0.56
  -5 -18   1   -0.05    0.81
  -4 -18   1    0.52    0.90
  -3 -18   1    1.51    1.07
  -2 -18   1    2.05    1.25
  -1 -18   1   -0.92    0.79
   0 -18   1    0.95    1.16
   1 -18   1    0.01    0.88
   2 -18   1    3.32    1.05
   3 -18   1    0.41    0.76
   4 -18   1    0.33    0.71
   5 -18   1    0.22    0.73
   6 -18   1   -0.23    0.72
   7 -18   1   -0.84    1.11
  -9 -17   1   10.86    2.38
  -8 -17   1    0.48    0.58
  -7 -17   1    4.81    1.08
  -6 -17   1    0.33    0.59
  -5 -17   1    0.61    0.56
  -4 -17   1   11.43    2.52
  -3 -17   1    1.36    1.13
  -2 -17   1    6.27    1.95
  -1 -17   1   27.01    4.10
   0 -17   1   -0.28    0.73
   1 -17   1   29.24    2.69
   2 -17   1    5.24    1.21
   3 -17   1   -0.14    0.59
   4 -17   1   13.32    2.00
   5 -17   1    0.68    0.74
   6 -17   1    0.80    0.76
   7 -17   1    4.74    1.33
   8 -17   1    0.83    1.41
 -10 -16   1    0.23    0.93
  -9 -16   1    0.15    0.66
  -8 -16   1   -0.25    0.47
  -7 -16   1    8.27    1.35
  -6 -16   1    2.75    0.77
  -5 -16   1    0.94    0.55
  -4 -16   1    0.34    0.46
  -3 -16   1   27.49    3.83
  -2 -16   1   16.10    2.99
  -1 -16   1    3.91    1.61
   0 -16   1   82.57    3.91
   1 -16   1    2.84    0.91
   2 -16   1   16.33    1.97
   3 -16   1   30.08    2.87
   4 -16   1   -0.63    0.55
   5 -16   1   -0.06    0.65
   6 -16   1    3.12    0.98
   7 -16   1   12.02    1.91
   8 -16   1   -0.20    1.19
   9 -16   1    0.10    1.40
  10 -16   1   -1.34    1.58
 -11 -15   1    1.03    0.96
 -10 -15   1    1.41    0.94
  -9 -15   1   -0.03    0.58
  -8 -15   1   -0.16    0.45
  -7 -15   1   11.09    1.46
  -6 -15   1   14.69    1.68
  -5 -15   1   29.73    2.39
  -4 -15   1   19.81    1.93
  -3 -15   1   20.91    3.28
  -2 -15   1    1.66    1.04
  -1 -15   1    2.76    0.78
   0 -15   1   -0.03    0.46
   1 -15   1    1.79    0.72
   2 -15   1    0.75    0.66
   3 -15   1   26.66    2.64
   4 -15   1   23.05    2.49
   5 -15   1   27.00    2.74
   6 -15   1   13.87    1.94
   7 -15   1   13.11    1.95
   8 -15   1    0.20    0.91
   9 -15   1    0.37    1.00
  10 -15   1    2.33    1.55
  11 -15   1    1.35    1.49
 -12 -14   1    1.46    1.01
 -11 -14   1    1.34    0.98
 -10 -14   1    0.68    0.76
  -9 -14   1    4.88    1.43
  -8 -14   1   22.36    2.07
  -7 -14   1    1.29    0.60
  -6 -14   1    0.50    0.45
  -5 -14   1    3.76    0.83
  -4 -14   1   42.12    2.44
  -3 -14   1    1.18    0.49
  -2 -14   1    1.39    1.02
  -1 -14   1   13.24    1.55
   0 -14   1   49.40    2.89
   1 -14   1   12.45    1.70
   2 -14   1    2.37    0.84
   3 -14   1    1.10    0.67
   4 -14   1   47.44    3.24
   5 -14   1    3.80    1.03
   6 -14   1    0.44    0.58
   7 -14   1    1.46    0.71
   8 -14   1   21.68    2.60
   9 -14   1    4.24    1.85
  10 -14   1    0.89    1.30
  11 -14   1    0.22    1.11
  12 -14   1    1.18    1.35
 -13 -13   1   18.80    2.79
 -12 -13   1    1.63    1.05
 -11 -13   1   35.69    3.80
 -10 -13   1   24.76    3.12
  -9 -13   1    9.43    1.30
  -8 -13   1   27.58    2.28
  -7 -13   1    5.75    1.03
  -6 -13   1    3.72    0.85
  -5 -13   1   -0.08    0.32
  -4 -13   1    3.44    0.77
  -3 -13   1   84.52    3.53
  -2 -13   1    8.23    1.13
  -1 -13   1    3.50    0.82
   0 -13   1    0.22    0.39
   1 -13   1    5.27    1.09
   2 -13   1    7.70    1.36
   3 -13   1   84.13    4.04
   4 -13   1    2.52    0.84
   5 -13   1    0.13    0.49
   6 -13   1    3.36    0.97
   7 -13   1    4.25    1.11
   8 -13   1   26.01    2.53
   9 -13   1   12.32    1.89
  10 -13   1   18.72    2.44
  11 -13   1   42.19    3.85
  12 -13   1    2.62    1.05
  13 -13   1   12.17    2.02
 -14 -12   1    1.81    1.16
 -13 -12   1    3.34    1.33
 -12 -12   1    0.57    0.78
 -11 -12   1    5.00    1.48
 -10 -12   1    4.62    1.43
  -9 -12   1   10.57    1.35
  -8 -12   1    7.70    1.14
  -7 -12   1   17.42    1.72
  -6 -12   1    8.33    1.16
  -5 -12   1   15.03    1.53
  -4 -12   1   34.72    2.16
  -3 -12   1   12.14    1.03
  -2 -12   1    1.96    0.44
  -1 -12   1   12.00    1.43
   0 -12   1    3.70    0.85
   1 -12   1    8.93    1.40
   2 -12   1    2.44    0.80
   3 -12   1   10.60    1.59
   4 -12   1   30.20    2.72
   5 -12   1   14.95    1.87
   6 -12   1    6.44    0.96
   7 -12   1   16.21    1.56
   8 -12   1    7.75    1.10
   9 -12   1   11.38    1.84
  10 -12   1    7.63    1.68
  11 -12   1    4.86    1.35
  12 -12   1    0.20    0.76
  13 -12   1    3.10    1.19
  14 -12   1    3.70    1.35
 -14 -11   1    0.40    0.83
 -13 -11   1    3.48    1.28
 -12 -11   1    0.04    0.58
 -11 -11   1    0.33    0.59
 -10 -11   1   -0.31    0.45
  -9 -11   1   34.00    2.18
  -8 -11   1   -0.25    0.36
  -7 -11   1  111.35    4.17
  -6 -11   1   10.89    1.27
  -5 -11   1   -0.02    0.30
  -4 -11   1    3.12    0.68
  -3 -11   1    0.02    0.22
  -2 -11   1   44.28    1.74
  -1 -11   1   49.44    2.53
   0 -11   1    0.03    0.34
   1 -11   1   49.77    2.89
   2 -11   1   45.05    2.82
   3 -11   1    0.34    0.51
   4 -11   1    4.99    0.77
   5 -11   1    0.48    0.41
   6 -11   1   11.51    1.25
   7 -11   1  101.98    3.68
   8 -11   1    0.19    0.37
   9 -11   1   27.15    2.84
  10 -11   1    0.15    0.65
  11 -11   1    0.10    0.70
  12 -11   1    0.27    0.71
  13 -11   1    1.97    0.99
  14 -11   1    0.20    0.81
  15 -11   1    3.15    1.30
 -15 -10   1    1.05    0.86
 -14 -10   1    2.55    1.10
 -13 -10   1    4.03    1.35
 -12 -10   1    0.57    0.66
 -11 -10   1   43.38    3.62
 -10 -10   1    2.84    1.00
  -9 -10   1    7.25    1.07
  -8 -10   1    0.86    0.45
  -7 -10   1    2.50    0.65
  -6 -10   1   30.04    1.98
  -5 -10   1   13.08    1.36
  -4 -10   1   38.00    1.49
  -3 -10   1   36.74    1.55
  -2 -10   1    9.29    0.84
  -1 -10   1   46.67    1.76
   0 -10   1   25.84    1.86
   1 -10   1   50.85    2.78
   2 -10   1   10.60    0.92
   3 -10   1   38.30    1.78
   4 -10   1   40.40    1.93
   5 -10   1   14.58    1.34
   6 -10   1   33.48    1.83
   7 -10   1    3.29    0.65
   8 -10   1    0.85    0.45
   9 -10   1    5.14    1.28
  10 -10   1    2.09    0.91
  11 -10   1   56.17    3.84
  12 -10   1   -0.24    0.64
  13 -10   1    6.31    1.34
  14 -10   1    1.77    0.93
  15 -10   1    0.54    0.76
 -15  -9   1    3.87    1.36
 -14  -9   1    0.97    0.79
 -13  -9   1    0.82    0.79
 -12  -9   1    0.07    0.52
 -11  -9   1    2.06    0.93
 -10  -9   1    4.85    1.31
  -9  -9   1   93.74    3.59
  -8  -9   1   18.58    1.65
  -7  -9   1   20.51    1.74
  -6  -9   1   26.34    1.74
  -5  -9   1  108.72    3.93
  -4  -9   1   13.20    0.84
  -3  -9   1    4.44    0.54
  -2  -9   1  126.02    3.42
  -1  -9   1   27.86    1.30
   0  -9   1   -0.09    0.14
   1  -9   1   29.12    1.26
   2  -9   1  127.77    3.56
   3  -9   1    5.04    0.70
   4  -9   1   11.51    1.08
   5  -9   1  107.28    3.49
   6  -9   1   27.04    1.70
   7  -9   1   21.96    1.53
   8  -9   1   21.92    1.50
   9  -9   1   91.09    4.63
  10  -9   1    5.14    1.33
  11  -9   1    2.78    1.03
  12  -9   1    0.05    0.56
  13  -9   1    0.72    0.71
  14  -9   1    1.91    0.91
  15  -9   1    3.81    1.12
  16  -9   1    0.76    1.85
 -16  -8   1    3.95    1.29
 -15  -8   1    3.05    1.19
 -14  -8   1    0.13    0.56
 -13  -8   1    2.61    1.10
 -12  -8   1    0.82    0.64
 -11  -8   1    8.93    1.73
 -10  -8   1    8.84    1.74
  -9  -8   1   35.27    1.87
  -8  -8   1    0.20    0.32
  -7  -8   1   11.22    1.22
  -6  -8   1    7.37    1.00
  -5  -8   1   49.93    1.64
  -4  -8   1   33.87    1.27
  -3  -8   1   23.54    1.10
  -2  -8   1   29.93    1.27
  -1  -8   1   35.10    1.38
   0  -8   1   60.14    1.80
   1  -8   1   35.05    1.34
   2  -8   1   32.85    1.36
   3  -8   1   25.68    0.94
   4  -8   1   33.09    1.19
   5  -8   1   49.30    1.65
   6  -8   1    7.71    0.73
   7  -8   1   11.38    0.90
   8  -8   1    0.46    0.27
   9  -8   1   33.16    1.94
  10  -8   1    8.70    1.10
  11  -8   1    8.85    1.12
  12  -8   1   -0.14    0.45
  13  -8   1    1.89    0.85
  14  -8   1    0.02    0.60
  15  -8   1    2.27    0.87
  16  -8   1    5.21    1.95
 -16  -7   1    1.32    0.95
 -15  -7   1   18.64    2.65
 -14  -7   1    2.62    1.08
 -13  -7   1   92.29    5.69
 -12  -7   1    0.92    0.72
 -11  -7   1   -0.38    0.34
 -10  -7   1    0.20    0.47
  -9  -7   1    8.76    1.02
  -8  -7   1   23.68    1.52
  -7  -7   1   10.85    1.13
  -6  -7   1   12.71    1.23
  -5  -7   1  204.13    4.67
  -4  -7   1    0.54    0.19
  -3  -7   1    1.81    0.32
  -2  -7   1   16.50    0.88
  -1  -7   1   55.80    1.35
   0  -7   1    0.10    0.12
   1  -7   1   52.53    1.73
   2  -7   1   19.37    0.71
   3  -7   1    1.74    0.27
   4  -7   1    0.84    0.25
   5  -7   1  194.16    4.31
   6  -7   1   13.26    0.91
   7  -7   1   12.50    0.92
   8  -7   1   23.71    1.14
   9  -7   1    4.95    0.80
  10  -7   1    0.19    0.33
  11  -7   1    0.60    0.39
  12  -7   1    0.95    0.50
  13  -7   1   99.30    3.59
  14  -7   1    1.15    0.55
  15  -7   1   18.59    2.20
  16  -7   1    1.01    1.04
 -17  -6   1   10.43    2.15
 -16  -6   1    1.24    0.90
 -15  -6   1   -0.15    0.62
 -14  -6   1   -0.28    0.45
 -13  -6   1   42.24    3.46
 -12  -6   1   25.33    2.98
 -11  -6   1   68.88    4.42
 -10  -6   1   28.45    2.99
  -9  -6   1   21.91    1.40
  -8  -6   1   13.81    1.22
  -7  -6   1   19.61    1.32
  -6  -6   1    0.40    0.18
  -5  -6   1   30.88    1.11
  -4  -6   1    1.35    0.26
  -3  -6   1   24.44    1.17
  -2  -6   1   10.92    0.42
  -1  -6   1  241.24    4.57
   0  -6   1   51.14    1.50
   1  -6   1  239.49    5.47
   2  -6   1   10.47    0.50
   3  -6   1   24.02    0.86
   4  -6   1    1.13    0.24
   5  -6   1   30.28    1.15
   6  -6   1    0.50    0.23
   7  -6   1   16.04    0.94
   8  -6   1   14.56    0.89
   9  -6   1   18.03    1.46
  10  -6   1   21.71    1.64
  11  -6   1   72.72    2.80
  12  -6   1   26.26    1.89
  13  -6   1   46.12    2.31
  14  -6   1    0.35    0.40
  15  -6   1    0.31    0.63
  16  -6   1    0.43    0.64
  17  -6   1   10.37    1.74
 -17  -5   1   16.71    2.53
 -16  -5   1    2.92    1.09
 -15  -5   1    1.05    0.81
 -14  -5   1    3.33    1.10
 -13  -5   1    5.04    1.31
 -12  -5   1    0.23    0.60
 -11  -5   1   26.52    2.96
 -10  -5   1   40.09    3.04
  -9  -5   1   20.36    2.39
  -8  -5   1    0.01    0.21
  -7  -5   1   76.30    2.05
  -6  -5   1   76.00    2.01
  -5  -5   1   41.83    1.28
  -4  -5   1   -0.05    0.10
  -3  -5   1  106.65    2.20
  -2  -5   1   95.33    1.98
  -1  -5   1    0.16    0.09
   0  -5   1   -0.01    0.11
   1  -5   1    0.48    0.16
   2  -5   1   95.92    2.08
   3  -5   1  106.87    2.37
   4  -5   1    0.08    0.13
   5  -5   1   37.77    1.25
   6  -5   1   72.46    1.98
   7  -5   1   78.80    2.09
   8  -5   1    0.22    0.19
   9  -5   1   31.94    1.75
  10  -5   1   38.53    1.94
  11  -5   1   28.21    1.90
  12  -5   1    0.52    0.38
  13  -5   1    4.79    0.80
  14  -5   1    4.97    1.10
  15  -5   1    0.53    0.57
  16  -5   1    5.39    1.21
  17  -5   1   21.81    2.39
 -18  -4   1    1.24    1.25
 -17  -4   1   -0.07    0.64
 -16  -4   1   15.31    2.39
 -15  -4   1   -0.16    0.51
 -14  -4   1   38.75    3.89
 -13  -4   1   -0.11    0.46
 -12  -4   1    0.36    0.37
 -11  -4   1    7.39    1.05
 -10  -4   1    0.38    0.32
  -9  -4   1   42.20    2.12
  -8  -4   1    9.23    0.74
  -7  -4   1   11.18    0.74
  -6  -4   1   15.09    0.69
  -5  -4   1   35.49    1.14
  -4  -4   1  123.94    2.92
  -3  -4   1    7.26    0.38
  -2  -4   1   62.61    1.38
  -1  -4   1   47.98    1.11
   0  -4   1   18.68    0.70
   1  -4   1   46.83    1.39
   2  -4   1   61.37    1.44
   3  -4   1    8.20    0.51
   4  -4   1  121.07    2.70
   5  -4   1   34.71    1.13
   6  -4   1   15.34    0.78
   7  -4   1   11.20    0.67
   8  -4   1    9.13    0.61
   9  -4   1   49.09    2.01
  10  -4   1    0.79    0.38
  11  -4   1    7.13    0.89
  12  -4   1    0.28    0.33
  13  -4   1    0.91    0.50
  14  -4   1   45.21    2.95
  15  -4   1    1.12    0.63
  16  -4   1   16.71    2.03
  17  -4   1   -0.19    0.56
  18  -4   1    0.71    0.98
 -18  -3   1    4.29    1.43
 -17  -3   1   16.87    2.53
 -16  -3   1    8.26    1.81
 -15  -3   1   10.93    1.40
 -14  -3   1    0.42    0.45
 -13  -3   1    1.84    0.56
 -12  -3   1   11.28    1.30
 -11  -3   1   27.08    1.91
 -10  -3   1   44.52    2.14
  -9  -3   1   16.11    1.41
  -8  -3   1   55.29    1.74
  -7  -3   1  157.73    3.84
  -6  -3   1    9.32    0.51
  -5  -3   1   89.68    1.93
  -4  -3   1   47.92    1.06
  -3  -3   1   16.51    0.54
  -2  -3   1  240.13    4.39
  -1  -3   1  326.97    5.86
   0  -3   1   -0.03    0.10
   1  -3   1  324.01    6.92
   2  -3   1  238.58    4.46
   3  -3   1   16.47    0.64
   4  -3   1   49.26    1.31
   5  -3   1   87.49    2.08
   6  -3   1    9.61    0.56
   7  -3   1  163.67    3.48
   8  -3   1   55.77    1.63
   9  -3   1   16.68    1.28
  10  -3   1   42.72    1.92
  11  -3   1   26.62    1.58
  12  -3   1   11.76    1.17
  13  -3   1    1.98    0.68
  14  -3   1    1.06    0.55
  15  -3   1   14.27    1.81
  16  -3   1    7.74    1.06
  17  -3   1   20.17    1.84
  18  -3   1    2.54    1.39
 -18  -2   1    0.41    0.80
 -17  -2   1    0.43    0.52
 -16  -2   1    0.71    0.57
 -15  -2   1    1.86    0.59
 -14  -2   1    1.43    0.58
 -13  -2   1    0.87    0.47
 -12  -2   1   39.09    2.11
 -11  -2   1   20.34    1.72
 -10  -2   1    1.90    0.51
  -9  -2   1    1.92    0.50
  -8  -2   1   12.86    0.71
  -7  -2   1   66.88    1.87
  -6  -2   1   14.81    0.73
  -5  -2   1    4.25    0.31
  -4  -2   1   16.71    0.47
  -3  -2   1   44.07    0.85
  -2  -2   1   89.72    1.43
  -1  -2   1  118.94    1.99
   0  -2   1   36.34    0.82
   1  -2   1  115.66    2.24
   2  -2   1   86.21    1.80
   3  -2   1   45.28    1.13
   4  -2   1   16.58    0.64
   5  -2   1    3.74    0.35
   6  -2   1   15.35    0.68
   7  -2   1   66.48    1.69
   8  -2   1   12.17    1.01
   9  -2   1    1.63    0.42
  10  -2   1    2.47    0.52
  11  -2   1   21.43    1.35
  12  -2   1   38.62    2.50
  13  -2   1    1.27    0.57
  14  -2   1    1.51    0.49
  15  -2   1    3.03    0.66
  16  -2   1    1.34    0.56
  17  -2   1    0.39    0.48
  18  -2   1    0.03    0.65
 -18  -1   1   -0.06    0.58
 -17  -1   1    1.14    0.59
 -16  -1   1   17.66    1.79
 -15  -1   1    0.40    0.45
 -14  -1   1   13.74    1.50
 -13  -1   1   31.31    2.03
 -12  -1   1   14.96    1.49
 -11  -1   1   15.89    1.45
 -10  -1   1   89.10    3.26
  -9  -1   1    4.49    0.69
  -8  -1   1   57.19    2.31
  -7  -1   1   15.38    0.65
  -6  -1   1    8.40    0.47
  -5  -1   1  163.81    3.23
  -4  -1   1   49.31    0.96
  -3  -1   1  151.04    2.28
  -2  -1   1    0.89    0.10
  -1  -1   1    0.42    0.07
   0  -1   1    0.18    0.06
   1  -1   1    0.45    0.10
   2  -1   1    1.00    0.15
   3  -1   1  147.79    2.87
   4  -1   1   49.85    1.23
   5  -1   1  167.49    3.33
   6  -1   1    9.31    0.48
   7  -1   1   13.18    0.98
   8  -1   1   60.18    2.05
   9  -1   1    4.64    0.62
  10  -1   1   88.63    2.76
  11  -1   1   14.87    1.27
  12  -1   1   17.43    1.34
  13  -1   1   31.31    1.79
  14  -1   1    9.76    1.09
  15  -1   1    0.38    0.38
  16  -1   1   17.95    1.58
  17  -1   1    1.50    0.59
  18  -1   1    0.92    0.57
 -18   0   1    0.21    0.70
 -17   0   1    0.41    0.50
 -16   0   1   40.46    2.41
 -15   0   1   -0.22    0.34
 -14   0   1   42.75    2.33
 -13   0   1    0.13    0.31
 -12   0   1    0.47    0.37
 -11   0   1    0.04    0.25
 -10   0   1   25.46    1.48
  -9   0   1   -0.15    0.20
  -8   0   1  229.50    5.26
  -7   0   1    0.18    0.17
  -6   0   1   86.43    2.30
  -5   0   1    0.04    0.09
  -4   0   1  311.34    4.65
  -3   0   1    0.06    0.07
  -2   0   1  133.54    2.04
  -1   0   1    0.00    0.05
   0   0   1    9.58    0.27
   1   0   1   -0.06    0.07
   2   0   1  132.98    2.25
   3   0   1   -0.01    0.07
   4   0   1  310.91    5.11
   5   0   1   -0.08    0.10
   6   0   1   91.15    2.06
   7   0   1    0.02    0.17
   8   0   1  224.88    4.59
   9   0   1    0.14    0.14
  10   0   1   27.67    1.14
  11   0   1    0.04    0.23
  12   0   1    0.49    0.35
  13   0   1   -0.31    0.23
  14   0   1   47.94    2.08
  15   0   1   -0.02    0.30
  16   0   1   41.78    2.07
  17   0   1    0.11    0.43
  18   0   1    0.40    0.52
 -18   1   1   -0.43    0.76
 -17   1   1    0.96    0.91
 -16   1   1   19.49    1.90
 -15   1   1    0.88    0.47
 -14   1   1   12.56    1.39
 -13   1   1   32.84    2.05
 -12   1   1   13.41    1.34
 -11   1   1   15.71    1.44
 -10   1   1   88.46    3.22
  -9   1   1    4.82    0.59
  -8   1   1   58.89    1.87
  -7   1   1   14.96    0.85
  -6   1   1    8.00    0.60
  -5   1   1  165.03    3.28
  -4   1   1   49.99    1.20
  -3   1   1  145.33    2.51
  -2   1   1    0.86    0.10
  -1   1   1    0.49    0.10
   0   1   1    0.04    0.07
   1   1   1    0.46    0.10
   2   1   1    0.98    0.14
   3   1   1  145.75    2.83
   4   1   1   49.51    1.22
   5   1   1  166.23    3.31
   6   1   1    8.32    0.54
   7   1   1   15.72    0.71
   8   1   1   59.32    1.61
   9   1   1    5.64    0.52
  10   1   1   89.97    2.79
  11   1   1   15.03    1.21
  12   1   1   12.12    1.11
  13   1   1   35.73    1.77
  14   1   1   12.33    1.21
  15   1   1    0.58    0.40
  16   1   1   17.54    1.55
  17   1   1    1.57    0.58
  18   1   1    0.78    0.53
 -18   2   1   -0.17    0.77
 -17   2   1    0.09    0.68
 -16   2   1    1.54    0.77
 -15   2   1    2.24    0.58
 -14   2   1    1.15    0.46
 -13   2   1    0.96    0.44
 -12   2   1   38.95    2.01
 -11   2   1   19.00    1.51
 -10   2   1    2.15    0.40
  -9   2   1    2.04    0.39
  -8   2   1   11.21    0.82
  -7   2   1   66.83    1.94
  -6   2   1   13.72    0.72
  -5   2   1    3.49    0.37
  -4   2   1   17.16    0.59
  -3   2   1   43.75    1.02
  -2   2   1   87.77    1.71
  -1   2   1  115.01    2.26
   0   2   1   36.86    0.85
   1   2   1  119.04    2.25
   2   2   1   86.02    1.77
   3   2   1   46.04    1.08
   4   2   1   17.28    0.59
   5   2   1    4.33    0.35
   6   2   1   14.99    0.65
   7   2   1   66.98    1.67
   8   2   1   13.24    0.68
   9   2   1    2.65    0.48
  10   2   1    2.56    0.47
  11   2   1   22.02    1.46
  12   2   1   39.41    1.77
  13   2   1    0.59    0.33
  14   2   1    0.89    0.39
  15   2   1    2.18    0.56
  16   2   1    1.68    0.57
  17   2   1    0.56    0.49
  18   2   1    1.31    0.75
 -17   3   1   18.37    2.67
 -16   3   1    6.27    1.49
 -15   3   1   16.09    2.32
 -14   3   1    1.04    0.51
 -13   3   1    1.77    0.53
 -12   3   1   14.59    1.34
 -11   3   1   24.67    1.36
 -10   3   1   44.25    1.64
  -9   3   1   19.56    1.17
  -8   3   1   56.21    1.79
  -7   3   1  163.94    3.83
  -6   3   1    9.43    0.64
  -5   3   1   84.16    2.18
  -4   3   1   48.97    1.19
  -3   3   1   17.60    0.60
  -2   3   1  240.31    5.10
  -1   3   1  329.62    6.81
   0   3   1   -0.09    0.07
   1   3   1  332.81    5.91
   2   3   1  242.92    4.41
   3   3   1   16.63    0.56
   4   3   1   48.23    1.19
   5   3   1   89.03    1.94
   6   3   1    8.78    0.47
   7   3   1  156.39    3.29
   8   3   1   60.03    1.98
   9   3   1   17.59    1.20
  10   3   1   43.86    1.77
  11   3   1   25.20    1.37
  12   3   1   13.65    1.19
  13   3   1    1.21    0.40
  14   3   1    0.43    0.38
  15   3   1   17.91    1.52
  16   3   1    5.35    0.86
  17   3   1   18.60    2.01
  18   3   1    3.50    1.43
 -17   4   1    0.24    0.63
 -16   4   1   18.66    2.61
 -15   4   1    0.21    0.50
 -14   4   1   38.52    3.08
 -13   4   1    0.78    0.53
 -12   4   1   -0.12    0.30
 -11   4   1    7.17    0.74
 -10   4   1    0.35    0.23
  -9   4   1   46.77    1.63
  -8   4   1    9.78    0.75
  -7   4   1   11.35    0.75
  -6   4   1   14.85    0.72
  -5   4   1   34.82    1.11
  -4   4   1  124.15    2.50
  -3   4   1    7.63    0.35
  -2   4   1   61.51    1.62
  -1   4   1   45.61    1.27
   0   4   1   17.79    0.64
   1   4   1   46.30    1.27
   2   4   1   63.32    1.63
   3   4   1    8.61    0.45
   4   4   1  123.28    2.52
   5   4   1   34.93    0.98
   6   4   1   14.75    0.59
   7   4   1   10.75    0.83
   8   4   1   11.54    0.95
   9   4   1   47.51    1.79
  10   4   1    1.16    0.37
  11   4   1    8.47    0.89
  12   4   1    0.27    0.29
  13   4   1    1.99    0.52
  14   4   1   44.65    2.01
  15   4   1    0.15    0.38
  16   4   1   16.97    1.87
  17   4   1    0.13    0.48
  18   4   1   -0.33    1.01
 -17   5   1   19.07    2.74
 -16   5   1    3.86    1.20
 -15   5   1    0.30    0.55
 -14   5   1    2.72    0.96
 -13   5   1    4.00    1.06
 -12   5   1    0.01    0.30
 -11   5   1   27.21    1.40
 -10   5   1   39.54    1.55
  -9   5   1   25.57    1.14
  -8   5   1    0.11    0.17
  -7   5   1   72.84    2.06
  -6   5   1   71.64    1.95
  -5   5   1   38.78    1.18
  -4   5   1    0.02    0.09
  -3   5   1  106.08    2.15
  -2   5   1   95.00    1.92
  -1   5   1    0.08    0.07
   0   5   1   -0.02    0.09
   1   5   1    0.19    0.12
   2   5   1   95.45    2.32
   3   5   1  106.24    2.61
   4   5   1    0.09    0.13
   5   5   1   38.63    1.34
   6   5   1   72.35    2.14
   7   5   1   72.13    2.23
   8   5   1    0.24    0.22
   9   5   1   27.79    1.28
  10   5   1   41.17    1.68
  11   5   1   29.85    1.51
  12   5   1    0.08    0.25
  13   5   1    5.24    0.77
  14   5   1    4.87    0.98
  15   5   1    0.11    0.45
  16   5   1    4.75    1.04
  17   5   1   22.33    2.18
 -17   6   1    9.61    1.99
 -16   6   1   -0.49    0.51
 -15   6   1    0.00    0.49
 -14   6   1    0.43    0.48
 -13   6   1   48.43    3.35
 -12   6   1   24.61    1.88
 -11   6   1   70.13    2.89
 -10   6   1   21.11    1.60
  -9   6   1   20.03    1.21
  -8   6   1   14.67    0.92
  -7   6   1   15.86    0.84
  -6   6   1    0.53    0.19
  -5   6   1   31.36    1.00
  -4   6   1    1.20    0.18
  -3   6   1   22.33    0.73
  -2   6   1    9.66    0.40
  -1   6   1  239.65    4.46
   0   6   1   49.06    1.41
   1   6   1  239.04    5.23
   2   6   1   10.01    0.57
   3   6   1   22.25    0.87
   4   6   1    1.45    0.28
   5   6   1   30.09    1.16
   6   6   1    0.52    0.22
   7   6   1   16.52    0.99
   8   6   1   15.72    1.09
   9   6   1   20.55    1.21
  10   6   1   22.51    1.31
  11   6   1   69.37    2.42
  12   6   1   27.63    2.13
  13   6   1   44.29    2.46
  14   6   1   -0.26    0.38
  15   6   1    0.10    0.46
  16   6   1   -0.19    0.46
  17   6   1   10.76    1.53
 -17   7   1   15.40    3.61
 -16   7   1    1.47    0.81
 -15   7   1   17.22    2.45
 -14   7   1    1.09    0.71
 -13   7   1  100.36    3.92
 -12   7   1    2.27    0.59
 -11   7   1    0.31    0.33
 -10   7   1   -0.01    0.23
  -9   7   1    5.45    0.75
  -8   7   1   16.92    1.33
  -7   7   1   11.62    1.04
  -6   7   1   12.66    0.69
  -5   7   1  195.58    4.41
  -4   7   1    0.84    0.18
  -3   7   1    2.10    0.21
  -2   7   1   17.98    0.59
  -1   7   1   55.50    1.30
   0   7   1    0.05    0.11
   1   7   1   53.71    1.57
   2   7   1   17.31    0.90
   3   7   1    1.91    0.30
   4   7   1    0.76    0.21
   5   7   1  195.67    4.65
   6   7   1   14.56    0.87
   7   7   1   12.08    0.92
   8   7   1   22.36    1.20
   9   7   1    6.81    0.95
  10   7   1   -0.13    0.26
  11   7   1    0.07    0.33
  12   7   1    1.86    0.59
  13   7   1  102.32    4.09
  14   7   1    1.75    0.62
  15   7   1   24.49    2.22
  16   7   1    1.93    0.77
  17   7   1   17.85    2.78
 -16   8   1    5.54    1.52
 -15   8   1    4.14    1.29
 -14   8   1    0.04    0.42
 -13   8   1    2.11    0.59
 -12   8   1    0.52    0.38
 -11   8   1    7.46    1.02
 -10   8   1   10.27    1.12
  -9   8   1   28.68    1.63
  -8   8   1    0.36    0.25
  -7   8   1   10.35    0.98
  -6   8   1    7.02    0.79
  -5   8   1   48.99    1.93
  -4   8   1   30.38    0.99
  -3   8   1   24.19    0.77
  -2   8   1   30.30    0.88
  -1   8   1   34.41    0.97
   0   8   1   60.20    1.74
   1   8   1   34.41    1.19
   2   8   1   30.20    1.10
   3   8   1   24.04    0.96
   4   8   1   31.97    1.17
   5   8   1   47.47    1.59
   6   8   1    7.26    0.72
   7   8   1   10.01    1.11
   8   8   1    0.44    0.34
   9   8   1   32.84    1.89
  10   8   1   10.57    1.26
  11   8   1    6.19    0.94
  12   8   1    0.39    0.41
  13   8   1    2.96    0.72
  14   8   1    0.06    0.41
  15   8   1    2.63    0.77
  16   8   1    6.10    1.23
 -16   9   1    0.51    0.76
 -15   9   1    5.80    1.48
 -14   9   1    0.39    0.65
 -13   9   1    1.53    0.57
 -12   9   1    0.30    0.35
 -11   9   1    3.01    0.67
 -10   9   1    6.86    0.94
  -9   9   1   91.04    3.39
  -8   9   1   18.83    1.44
  -7   9   1   23.38    1.33
  -6   9   1   24.17    1.33
  -5   9   1  109.61    3.54
  -4   9   1   10.15    0.94
  -3   9   1    4.60    0.62
  -2   9   1  125.58    2.67
  -1   9   1   29.70    0.91
   0   9   1    0.10    0.11
   1   9   1   29.07    1.11
   2   9   1  122.77    3.15
   3   9   1    5.65    0.53
   4   9   1   10.91    1.06
   5   9   1  108.38    3.75
   6   9   1   24.07    1.61
   7   9   1   25.54    1.64
   8   9   1   18.19    1.62
   9   9   1   95.50    3.67
  10   9   1    5.87    0.98
  11   9   1    2.97    0.75
  12   9   1    0.24    0.40
  13   9   1    0.87    0.58
  14   9   1    1.40    0.69
  15   9   1    3.05    0.91
  16   9   1   -0.33    0.57
 -15  10   1    0.92    0.85
 -14  10   1    1.01    0.76
 -13  10   1    3.92    0.87
 -12  10   1   -0.56    0.25
 -11  10   1   52.88    2.51
 -10  10   1    4.20    0.75
  -9  10   1    4.14    0.73
  -8  10   1    0.77    0.33
  -7  10   1    2.67    0.53
  -6  10   1   33.04    1.63
  -5  10   1   14.80    1.22
  -4  10   1   37.59    1.70
  -3  10   1   39.09    1.70
  -2  10   1    9.66    0.91
  -1  10   1   43.86    1.25
   0  10   1   24.93    0.87
   1  10   1   47.32    1.53
   2  10   1   11.35    1.04
   3  10   1   37.98    1.81
   4  10   1   35.95    1.82
   5  10   1   12.58    1.22
   6  10   1   32.21    1.78
   7  10   1    2.07    0.60
   8  10   1    0.71    0.44
   9  10   1    6.60    1.02
  10  10   1    2.73    0.67
  11  10   1   49.73    2.62
  12  10   1    0.11    0.41
  13  10   1    5.01    0.93
  14  10   1    3.48    0.87
  15  10   1   -0.18    0.48
 -15  11   1    4.24    1.47
 -14  11   1    0.45    0.67
 -13  11   1    2.80    0.80
 -12  11   1    0.26    0.37
 -11  11   1    0.24    0.36
 -10  11   1    0.23    0.33
  -9  11   1   28.49    1.70
  -8  11   1    0.21    0.27
  -7  11   1  105.65    3.74
  -6  11   1    9.55    1.01
  -5  11   1    0.23    0.26
  -4  11   1    3.59    0.58
  -3  11   1    0.21    0.25
  -2  11   1   42.86    1.90
  -1  11   1   52.40    2.09
   0  11   1    0.20    0.17
   1  11   1   48.48    2.07
   2  11   1   43.55    1.97
   3  11   1    0.19    0.25
   4  11   1    4.13    0.71
   5  11   1    0.40    0.34
   6  11   1    9.92    1.15
   7  11   1  110.49    4.04
   8  11   1    0.29    0.35
   9  11   1   26.57    2.12
  10  11   1    0.12    0.37
  11  11   1   -0.10    0.37
  12  11   1    0.14    0.46
  13  11   1    1.63    0.64
  14  11   1    0.57    0.60
  15  11   1    4.77    1.50
 -14  12   1    3.53    1.27
 -13  12   1    3.31    1.19
 -12  12   1    0.69    0.65
 -11  12   1    6.72    1.04
 -10  12   1    5.90    0.92
  -9  12   1   11.54    1.28
  -8  12   1    7.91    1.01
  -7  12   1   13.14    1.28
  -6  12   1    8.31    0.99
  -5  12   1   15.13    1.31
  -4  12   1   30.37    1.63
  -3  12   1   11.09    1.09
  -2  12   1    2.20    0.49
  -1  12   1   10.13    1.02
   0  12   1    2.80    0.55
   1  12   1   10.42    1.01
   2  12   1    1.11    0.41
   3  12   1   11.47    1.14
   4  12   1   30.98    1.78
   5  12   1   15.51    1.42
   6  12   1    8.58    1.13
   7  12   1   17.70    1.67
   8  12   1    6.48    1.05
   9  12   1   11.50    1.43
  10  12   1    5.62    1.03
  11  12   1    6.64    1.11
  12  12   1    0.59    0.50
  13  12   1    2.65    0.81
  14  12   1    4.37    1.05
 -13  13   1   19.67    2.77
 -12  13   1    2.46    1.02
 -11  13   1   42.00    3.27
 -10  13   1   20.70    2.56
  -9  13   1    7.58    1.51
  -8  13   1   29.17    2.51
  -7  13   1    8.47    1.09
  -6  13   1    2.52    0.60
  -5  13   1    0.21    0.28
  -4  13   1    4.82    0.77
  -3  13   1   82.26    3.10
  -2  13   1   10.14    1.08
  -1  13   1    3.33    0.62
   0  13   1   -0.27    0.22
   1  13   1    3.15    0.61
   2  13   1    7.26    0.90
   3  13   1   82.83    3.24
   4  13   1    3.36    0.71
   5  13   1    0.05    0.27
   6  13   1    3.42    0.76
   7  13   1    8.08    1.15
   8  13   1   28.22    2.23
   9  13   1    9.17    1.30
  10  13   1   17.93    1.83
  11  13   1   37.93    2.55
  12  13   1    2.14    0.75
  13  13   1   16.18    1.86
 -12  14   1    2.59    1.09
 -11  14   1    0.00    0.59
 -10  14   1    0.74    0.61
  -9  14   1    3.45    1.09
  -8  14   1   27.88    2.96
  -7  14   1    1.56    0.79
  -6  14   1   -0.35    0.24
  -5  14   1    4.86    1.21
  -4  14   1   44.47    3.21
  -3  14   1    0.36    0.50
  -2  14   1    1.93    0.81
  -1  14   1   11.75    1.82
   0  14   1   40.33    2.06
   1  14   1   13.41    1.29
   2  14   1    2.83    0.65
   3  14   1    1.22    0.46
   4  14   1   47.36    2.34
   5  14   1    3.85    0.79
   6  14   1    0.13    0.40
   7  14   1    2.19    0.66
   8  14   1   24.88    2.16
   9  14   1    2.37    0.80
  10  14   1    0.86    0.54
  11  14   1    1.79    0.71
  12  14   1    1.79    0.72
 -11  15   1    0.88    0.89
 -10  15   1    3.17    1.14
  -9  15   1    0.35    0.63
  -8  15   1    0.25    0.56
  -7  15   1   11.92    1.88
  -6  15   1   13.78    2.06
  -5  15   1   25.26    2.81
  -4  15   1   23.78    2.71
  -3  15   1   20.86    2.53
  -2  15   1    0.29    0.56
  -1  15   1    1.97    0.80
   0  15   1   -0.10    0.36
   1  15   1    0.67    0.63
   2  15   1   -0.01    0.53
   3  15   1   24.58    2.80
   4  15   1   26.44    3.16
   5  15   1   22.43    2.86
   6  15   1   14.32    2.34
   7  15   1   11.35    2.11
   8  15   1   -0.20    0.67
   9  15   1   -0.17    0.80
  10  15   1    0.22    0.77
  11  15   1    1.54    1.01
 -10  16   1    1.54    0.88
  -9  16   1    0.36    0.64
  -8  16   1   -0.09    0.56
  -7  16   1   10.14    1.93
  -6  16   1    2.43    0.97
  -5  16   1   -0.28    0.40
  -4  16   1   -0.21    0.45
  -3  16   1   23.10    2.81
  -2  16   1   15.92    2.28
  -1  16   1    3.89    1.22
   0  16   1   88.33    5.13
   1  16   1    0.47    0.62
   2  16   1   18.80    2.57
   3  16   1   20.95    2.72
   4  16   1   -0.63    0.47
   5  16   1   -0.20    0.52
   6  16   1    1.59    1.02
   7  16   1   12.10    2.23
   8  16   1    0.99    0.97
   9  16   1    0.02    0.80
  10  16   1    0.03    1.13
  -8  17   1    0.29    0.70
  -7  17   1    6.76    1.67
  -6  17   1   -0.08    0.50
  -5  17   1    0.32    0.62
  -4  17   1   10.26    1.93
  -3  17   1    0.93    0.71
  -2  17   1    6.58    1.49
  -1  17   1   28.89    3.22
   0  17   1    0.38    0.67
   1  17   1   28.50    3.27
   2  17   1    4.72    1.43
   3  17   1    0.38    0.68
   4  17   1   10.65    2.07
   5  17   1    0.56    0.75
   6  17   1    1.76    1.03
   7  17   1    6.36    1.66
   8  17   1    0.90    0.85
  -6  18   1    0.29    0.71
  -5  18   1    0.89    0.77
  -4  18   1    0.68    0.81
  -3  18   1   -0.14    0.67
  -2  18   1    2.48    1.15
  -1  18   1    1.55    0.92
   0  18   1    2.49    1.16
   1  18   1   -0.14    0.64
   2  18   1    7.05    1.71
   3  18   1    0.37    0.81
   4  18   1    0.34    0.75
   5  18   1   -0.24    0.74
   6  18   1   -0.23    0.91
  -3  19   1    9.73    2.29
  -2  19   1    0.37    0.72
  -1  19   1    3.86    1.27
   0  19   1    0.32    0.75
   1  19   1    3.51    1.34
   2  19   1    1.26    0.92
  -4 -18   2   22.89    4.20
  -3 -18   2    0.31    1.00
  -2 -18   2    1.55    1.29
  -1 -18   2    2.00    1.44
   0 -18   2    0.03    1.03
   1 -18   2    0.56    1.36
   2 -18   2    1.66    0.85
   3 -18   2    0.38    0.77
   4 -18   2   23.87    2.73
   5 -18   2   -0.27    0.95
  -7 -17   2    9.22    2.11
  -6 -17   2   15.61    2.95
  -5 -17   2    1.98    1.36
  -4 -17   2    5.59    1.81
  -3 -17   2    2.67    1.44
  -2 -17   2   15.75    3.27
  -1 -17   2    4.21    1.77
   0 -17   2   -0.31    0.89
   1 -17   2    1.68    0.82
   2 -17   2    8.01    1.55
   3 -17   2    1.85    1.07
   4 -17   2    8.58    1.57
   5 -17   2    5.95    1.38
   6 -17   2   17.97    2.42
   7 -17   2   15.54    3.02
  -8 -16   2    1.87    0.80
  -7 -16   2    4.73    1.08
  -6 -16   2    0.93    1.03
  -5 -16   2    0.44    0.85
  -4 -16   2   33.18    4.32
  -3 -16   2    0.16    0.88
  -2 -16   2   -0.07    0.79
  -1 -16   2    7.59    2.38
   0 -16   2   32.79    2.83
   1 -16   2    5.95    1.12
   2 -16   2    0.32    0.66
   3 -16   2    0.14    0.65
   4 -16   2   38.36    3.36
   5 -16   2    1.26    0.79
   6 -16   2    1.14    0.83
   7 -16   2    2.58    1.02
   8 -16   2    0.53    1.30
 -10 -15   2   14.13    2.83
  -9 -15   2    4.43    1.47
  -8 -15   2   13.18    1.71
  -7 -15   2    9.06    1.34
  -6 -15   2    0.99    0.61
  -5 -15   2    1.53    1.05
  -4 -15   2    1.36    1.07
  -3 -15   2    1.07    1.04
  -2 -15   2    0.99    1.00
  -1 -15   2   -0.09    0.46
   0 -15   2   -0.21    0.50
   1 -15   2    0.40    0.54
   2 -15   2    1.27    0.72
   3 -15   2    0.73    0.71
   4 -15   2    1.68    0.81
   5 -15   2    2.20    0.87
   6 -15   2    0.80    0.68
   7 -15   2    7.98    1.49
   8 -15   2   12.26    3.16
   9 -15   2    0.62    1.37
  10 -15   2   17.47    4.43
 -11 -14   2    0.09    0.85
 -10 -14   2    5.04    1.53
  -9 -14   2    1.73    1.09
  -8 -14   2   39.83    2.97
  -7 -14   2    0.12    0.46
  -6 -14   2    9.18    1.37
  -5 -14   2    7.48    1.22
  -4 -14   2    4.73    1.56
  -3 -14   2    0.95    1.05
  -2 -14   2    3.76    1.12
  -1 -14   2    7.49    1.25
   0 -14   2   91.38    4.31
   1 -14   2    4.92    1.20
   2 -14   2    1.21    0.74
   3 -14   2    0.73    0.56
   4 -14   2    5.78    1.27
   5 -14   2    9.07    1.52
   6 -14   2    5.10    1.20
   7 -14   2    0.22    0.63
   8 -14   2   35.45    5.14
   9 -14   2    0.64    1.55
  10 -14   2    5.49    2.20
  11 -14   2    0.31    1.27
 -12 -13   2   13.43    2.47
 -11 -13   2    1.73    0.96
 -10 -13   2    0.77    0.85
  -9 -13   2    4.26    0.97
  -8 -13   2    0.10    0.48
  -7 -13   2    9.30    1.37
  -6 -13   2   17.74    1.88
  -5 -13   2   58.80    3.10
  -4 -13   2   28.51    2.35
  -3 -13   2   -0.05    0.68
  -2 -13   2    0.05    0.36
  -1 -13   2    9.04    1.28
   0 -13   2    0.42    0.50
   1 -13   2    9.08    1.49
   2 -13   2    0.53    0.55
   3 -13   2    0.88    0.60
   4 -13   2   25.68    2.53
   5 -13   2   68.91    3.58
   6 -13   2   21.57    2.30
   7 -13   2    8.52    1.54
   8 -13   2   -1.33    0.74
   9 -13   2    6.06    2.56
  10 -13   2    0.38    1.36
  11 -13   2    1.39    1.53
  12 -13   2   14.77    2.35
 -13 -12   2    3.52    1.46
 -12 -12   2   18.86    2.97
 -11 -12   2   13.74    2.46
 -10 -12   2    4.71    1.56
  -9 -12   2   11.04    1.49
  -8 -12   2    1.55    0.63
  -7 -12   2   13.64    1.62
  -6 -12   2   17.81    1.82
  -5 -12   2    1.57    0.66
  -4 -12   2   20.91    1.94
  -3 -12   2    8.11    1.13
  -2 -12   2   34.10    2.24
  -1 -12   2   44.34    2.66
   0 -12   2   23.91    2.16
   1 -12   2   43.91    2.86
   2 -12   2   40.34    3.05
   3 -12   2    6.74    1.27
   4 -12   2   23.32    2.22
   5 -12   2    2.35    0.75
   6 -12   2   17.66    2.05
   7 -12   2   16.35    1.93
   8 -12   2    1.88    0.64
   9 -12   2   10.17    1.77
  10 -12   2    4.10    1.29
  11 -12   2   17.66    3.52
  12 -12   2   16.02    2.37
  13 -12   2    3.72    1.36
 -13 -11   2   -0.67    0.68
 -12 -11   2   -0.41    0.73
 -11 -11   2    2.53    1.06
 -10 -11   2   21.80    2.93
  -9 -11   2   17.68    1.79
  -8 -11   2    2.73    0.73
  -7 -11   2    0.63    0.47
  -6 -11   2    7.69    1.17
  -5 -11   2   12.81    1.47
  -4 -11   2    5.81    0.73
  -3 -11   2   23.01    1.52
  -2 -11   2    4.81    0.89
  -1 -11   2   57.61    2.85
   0 -11   2   -0.05    0.33
   1 -11   2   56.71    2.99
   2 -11   2    4.60    1.03
   3 -11   2   18.99    1.97
   4 -11   2    6.30    1.10
   5 -11   2   16.94    1.40
   6 -11   2    9.16    1.09
   7 -11   2    0.83    0.37
   8 -11   2    2.45    0.64
   9 -11   2   19.17    2.43
  10 -11   2   20.63    2.70
  11 -11   2    1.97    1.02
  12 -11   2    0.60    0.82
  13 -11   2   -0.43    0.77
  14 -11   2    0.78    0.92
 -14 -10   2   25.31    3.34
 -13 -10   2   20.77    3.01
 -12 -10   2   37.29    4.13
 -11 -10   2    1.54    0.88
 -10 -10   2   -0.20    0.49
  -9 -10   2   -0.10    0.32
  -8 -10   2    0.26    0.34
  -7 -10   2    4.30    0.88
  -6 -10   2    7.00    1.05
  -5 -10   2    0.29    0.33
  -4 -10   2   27.68    1.37
  -3 -10   2   59.47    2.11
  -2 -10   2   35.94    2.00
  -1 -10   2   43.10    2.32
   0 -10   2    8.23    1.18
   1 -10   2   48.06    2.54
   2 -10   2   30.43    2.41
   3 -10   2   58.14    2.11
   4 -10   2   25.66    1.46
   5 -10   2    0.24    0.29
   6 -10   2    8.35    1.00
   7 -10   2    2.52    0.62
   8 -10   2    1.39    0.48
   9 -10   2   -0.27    0.57
  10 -10   2   -0.10    0.61
  11 -10   2    2.67    1.04
  12 -10   2   50.82    4.20
  13 -10   2   20.94    2.65
  14 -10   2   21.75    2.73
  15 -10   2   21.86    3.56
 -15  -9   2    0.43    0.98
 -14  -9   2   23.31    3.27
 -13  -9   2    3.75    1.35
 -12  -9   2    4.44    1.38
 -11  -9   2   20.29    2.83
 -10  -9   2   26.34    3.18
  -9  -9   2    6.37    0.99
  -8  -9   2    1.28    0.53
  -7  -9   2   16.48    1.62
  -6  -9   2   54.73    2.58
  -5  -9   2   28.22    1.41
  -4  -9   2    3.56    0.52
  -3  -9   2   50.93    1.88
  -2  -9   2   13.43    1.38
  -1  -9   2    2.87    0.64
   0  -9   2   -0.13    0.29
   1  -9   2    3.89    0.52
   2  -9   2   13.29    0.92
   3  -9   2   52.47    1.95
   4  -9   2    3.66    0.59
   5  -9   2   28.59    1.49
   6  -9   2   52.76    2.27
   7  -9   2   21.21    1.61
   8  -9   2    1.50    0.50
   9  -9   2    8.45    1.70
  10  -9   2   28.49    3.01
  11  -9   2   20.06    2.50
  12  -9   2    5.44    1.36
  13  -9   2    3.60    1.14
  14  -9   2   17.77    2.38
  15  -9   2    1.74    0.98
 -15  -8   2   -0.06    0.71
 -14  -8   2   -0.20    0.72
 -13  -8   2    2.99    1.20
 -12  -8   2    2.08    1.10
 -11  -8   2    3.73    1.30
 -10  -8   2   15.14    2.37
  -9  -8   2    7.76    1.08
  -8  -8   2   81.43    3.29
  -7  -8   2   13.37    1.36
  -6  -8   2   25.71    1.59
  -5  -8   2   20.98    1.17
  -4  -8   2   13.30    0.97
  -3  -8   2   39.60    1.53
  -2  -8   2    2.67    0.60
  -1  -8   2   52.80    1.68
   0  -8   2   41.69    1.47
   1  -8   2   52.80    1.79
   2  -8   2    2.90    0.46
   3  -8   2   35.01    1.53
   4  -8   2   10.20    0.95
   5  -8   2   21.79    1.35
   6  -8   2   26.18    1.55
   7  -8   2   12.97    1.20
   8  -8   2   77.76    2.82
   9  -8   2    6.42    1.39
  10  -8   2   17.36    2.27
  11  -8   2    3.26    1.08
  12  -8   2    1.36    0.81
  13  -8   2    2.63    0.99
  14  -8   2    0.69    0.74
  15  -8   2   -0.42    1.07
 -16  -7   2    1.25    1.04
 -15  -7   2    0.05    0.77
 -14  -7   2    0.01    0.70
 -13  -7   2   12.81    2.26
 -12  -7   2    4.28    1.38
 -11  -7   2    0.94    0.72
 -10  -7   2    0.04    0.51
  -9  -7   2   71.91    3.00
  -8  -7   2   18.31    1.62
  -7  -7   2   86.94    3.30
  -6  -7   2    9.96    0.83
  -5  -7   2    1.70    0.34
  -4  -7   2    0.37    0.19
  -3  -7   2   33.17    1.02
  -2  -7   2   14.90    0.70
  -1  -7   2   28.44    1.12
   0  -7   2   -0.07    0.13
   1  -7   2   30.55    1.23
   2  -7   2   14.94    0.95
   3  -7   2   31.85    1.36
   4  -7   2   -0.08    0.18
   5  -7   2    1.24    0.36
   6  -7   2    6.80    0.70
   7  -7   2   80.50    2.79
   8  -7   2   14.02    1.21
   9  -7   2   66.86    3.62
  10  -7   2   -0.04    0.46
  11  -7   2    0.85    0.74
  12  -7   2    6.38    1.41
  13  -7   2    9.62    1.63
  14  -7   2    0.82    0.71
  15  -7   2   -0.52    1.04
  16  -7   2    2.05    1.69
 -16  -6   2   19.26    3.00
 -15  -6   2    9.84    2.08
 -14  -6   2   -0.58    0.59
 -13  -6   2    2.33    1.21
 -12  -6   2   14.52    2.44
 -11  -6   2    7.60    1.73
 -10  -6   2   14.25    2.23
  -9  -6   2   17.60    1.52
  -8  -6   2   42.03    2.05
  -7  -6   2   26.50    1.21
  -6  -6   2    1.62    0.34
  -5  -6   2   60.43    1.56
  -4  -6   2    0.57    0.17
  -3  -6   2  251.62    4.87
  -2  -6   2  111.66    2.47
  -1  -6   2    0.35    0.17
   0  -6   2   48.91    1.57
   1  -6   2   -0.04    0.15
   2  -6   2  108.97    3.00
   3  -6   2  242.61    5.85
   4  -6   2    0.84    0.29
   5  -6   2   57.64    1.62
   6  -6   2    1.43    0.31
   7  -6   2   25.50    1.17
   8  -6   2   40.87    1.58
   9  -6   2   18.50    1.63
  10  -6   2   13.94    1.80
  11  -6   2    7.64    1.45
  12  -6   2   17.95    2.13
  13  -6   2    2.82    0.94
  14  -6   2   -0.68    0.89
  15  -6   2    9.44    2.41
  16  -6   2   20.22    3.52
 -17  -5   2    1.59    1.10
 -16  -5   2    0.14    0.75
 -15  -5   2    0.01    0.68
 -14  -5   2   12.27    2.21
 -13  -5   2    2.18    1.08
 -12  -5   2    3.66    1.22
 -11  -5   2    9.65    1.82
 -10  -5   2   13.36    2.16
  -9  -5   2   10.99    1.14
  -8  -5   2    1.15    0.42
  -7  -5   2   48.47    1.67
  -6  -5   2   49.39    1.38
  -5  -5   2    0.18    0.14
  -4  -5   2    1.06    0.21
  -3  -5   2    5.36    0.43
  -2  -5   2  105.87    2.33
  -1  -5   2   21.83    0.69
   0  -5   2    0.00    0.11
   1  -5   2   21.66    1.00
   2  -5   2  106.13    2.25
   3  -5   2    6.41    0.38
   4  -5   2    0.52    0.17
   5  -5   2   -0.04    0.13
   6  -5   2   48.07    1.49
   7  -5   2   47.72    1.57
   8  -5   2    0.69    0.26
   9  -5   2   11.07    1.19
  10  -5   2   14.27    1.41
  11  -5   2    7.65    1.04
  12  -5   2    4.87    0.88
  13  -5   2    1.40    0.55
  14  -5   2   10.93    1.77
  15  -5   2    0.53    0.86
  16  -5   2    0.25    1.04
 -17  -4   2    1.32    1.08
 -16  -4   2    5.43    1.66
 -15  -4   2   35.92    3.77
 -14  -4   2   11.52    1.51
 -13  -4   2    6.46    1.10
 -12  -4   2   87.79    3.67
 -11  -4   2    4.59    0.83
 -10  -4   2    3.20    0.70
  -9  -4   2    8.80    0.80
  -8  -4   2    0.78    0.24
  -7  -4   2    3.38    0.39
  -6  -4   2   88.36    1.88
  -5  -4   2    6.72    0.42
  -4  -4   2   27.15    0.77
  -3  -4   2    0.10    0.09
  -2  -4   2  125.70    2.31
  -1  -4   2   45.23    1.14
   0  -4   2   18.50    0.61
   1  -4   2   44.91    1.13
   2  -4   2  127.83    2.61
   3  -4   2    0.25    0.11
   4  -4   2   26.86    0.90
   5  -4   2    6.20    0.52
   6  -4   2   86.76    2.21
   7  -4   2    3.30    0.45
   8  -4   2    1.36    0.31
   9  -4   2   10.92    1.12
  10  -4   2    4.74    0.76
  11  -4   2    6.72    0.98
  12  -4   2   91.73    3.29
  13  -4   2    8.50    1.39
  14  -4   2   12.74    1.86
  15  -4   2   33.08    2.98
  16  -4   2    1.84    0.89
 -17  -3   2    1.93    1.14
 -16  -3   2    2.58    0.86
 -15  -3   2    0.16    0.51
 -14  -3   2    2.53    0.72
 -13  -3   2    9.76    1.29
 -12  -3   2    1.52    0.59
 -11  -3   2   39.06    2.26
 -10  -3   2    0.28    0.31
  -9  -3   2   98.65    2.85
  -8  -3   2   84.58    2.10
  -7  -3   2   19.71    0.68
  -6  -3   2  189.47    3.10
  -5  -3   2    8.10    0.45
  -4  -3   2   14.93    0.51
  -3  -3   2   85.37    1.54
  -2  -3   2    1.71    0.20
  -1  -3   2   41.59    1.07
   0  -3   2   -0.02    0.08
   1  -3   2   42.04    1.08
   2  -3   2    1.23    0.20
   3  -3   2   83.77    1.93
   4  -3   2   15.29    0.68
   5  -3   2    8.37    0.59
   6  -3   2  184.81    3.92
   7  -3   2   19.81    0.96
   8  -3   2   81.85    2.19
   9  -3   2  102.46    3.26
  10  -3   2    0.19    0.29
  11  -3   2   32.88    1.90
  12  -3   2    2.19    0.58
  13  -3   2   11.83    1.72
  14  -3   2    3.01    0.96
  15  -3   2    2.03    0.81
  16  -3   2    5.87    1.31
  17  -3   2    2.64    0.99
 -17  -2   2   -0.64    0.72
 -16  -2   2    0.62    0.57
 -15  -2   2   38.58    2.51
 -14  -2   2    2.48    0.77
 -13  -2   2    1.64    0.58
 -12  -2   2    1.35    0.52
 -11  -2   2   30.29    2.02
 -10  -2   2   51.51    2.45
  -9  -2   2    8.10    0.61
  -8  -2   2    6.02    0.54
  -7  -2   2   17.77    0.71
  -6  -2   2   38.20    0.93
  -5  -2   2   31.79    0.80
  -4  -2   2  206.78    3.28
  -3  -2   2   28.02    0.68
  -2  -2   2    4.75    0.32
  -1  -2   2    1.07    0.15
   0  -2   2    0.07    0.09
   1  -2   2    1.86    0.21
   2  -2   2    5.08    0.38
   3  -2   2   28.56    0.88
   4  -2   2  209.54    3.59
   5  -2   2   32.02    0.86
   6  -2   2   38.33    1.02
   7  -2   2   16.36    0.69
   8  -2   2    5.51    0.44
   9  -2   2    7.86    0.69
  10  -2   2   53.81    1.76
  11  -2   2   40.48    1.90
  12  -2   2    1.42    0.64
  13  -2   2    0.25    0.52
  14  -2   2    1.77    0.80
  15  -2   2   36.18    3.00
  16  -2   2    0.50    0.60
  17  -2   2   -0.74    0.62
 -17  -1   2    3.35    1.26
 -16  -1   2    3.73    1.31
 -15  -1   2    0.79    0.56
 -14  -1   2    1.69    0.63
 -13  -1   2    9.97    1.28
 -12  -1   2   21.86    1.87
 -11  -1   2   12.73    1.35
 -10  -1   2   13.24    1.06
  -9  -1   2   10.23    0.87
  -8  -1   2    5.26    0.49
  -7  -1   2    5.77    0.44
  -6  -1   2   45.94    1.06
  -5  -1   2   17.66    0.56
  -4  -1   2  141.17    2.35
  -3  -1   2   33.74    0.74
  -2  -1   2    7.05    0.39
  -1  -1   2    2.16    0.20
   0  -1   2    0.05    0.07
   1  -1   2    1.87    0.23
   2  -1   2    7.44    0.47
   3  -1   2   32.04    0.95
   4  -1   2  143.40    2.57
   5  -1   2   19.44    0.64
   6  -1   2   48.65    1.18
   7  -1   2    5.52    0.43
   8  -1   2    4.47    0.49
   9  -1   2    9.73    0.76
  10  -1   2   14.07    0.96
  11  -1   2   14.07    1.21
  12  -1   2   23.49    2.26
  13  -1   2    9.96    1.51
  14  -1   2    1.38    0.70
  15  -1   2    1.69    0.74
  16  -1   2    4.90    1.16
  17  -1   2    3.43    0.97
 -17   0   2    0.20    0.69
 -16   0   2    0.45    0.65
 -15   0   2   -0.31    0.51
 -14   0   2   89.52    4.34
 -13   0   2   -0.10    0.38
 -12   0   2   16.00    1.57
 -11   0   2    0.01    0.24
 -10   0   2   75.07    2.46
  -9   0   2   -0.10    0.19
  -8   0   2   70.10    2.14
  -7   0   2   -0.20    0.12
  -6   0   2    0.05    0.11
  -5   0   2   -0.03    0.08
  -4   0   2    0.40    0.11
  -3   0   2    0.04    0.06
  -2   0   2    3.08    0.24
  -1   0   2   -0.08    0.07
   0   0   2  929.97   14.40
   1   0   2   -0.06    0.06
   2   0   2    3.30    0.20
   3   0   2    0.07    0.07
   4   0   2    0.24    0.11
   5   0   2    0.09    0.10
   6   0   2    0.26    0.14
   7   0   2    0.11    0.15
   8   0   2   69.92    1.93
   9   0   2    0.14    0.20
  10   0   2   76.31    2.15
  11   0   2   -0.34    0.24
  12   0   2   16.35    1.35
  13   0   2   -0.07    0.39
  14   0   2   89.54    4.11
  15   0   2   -0.61    0.33
  16   0   2    0.56    0.62
  17   0   2    0.21    0.63
 -17   1   2    4.20    1.31
 -16   1   2    4.65    1.42
 -15   1   2    0.92    0.71
 -14   1   2    3.21    1.01
 -13   1   2    7.84    1.57
 -12   1   2   22.64    1.54
 -11   1   2   12.12    1.04
 -10   1   2   13.94    1.07
  -9   1   2    7.77    0.73
  -8   1   2    5.34    0.57
  -7   1   2    6.08    0.50
  -6   1   2   43.43    1.26
  -5   1   2   17.39    0.61
  -4   1   2  142.64    2.58
  -3   1   2   31.24    0.93
  -2   1   2    7.16    0.45
  -1   1   2    2.29    0.24
   0   1   2    0.03    0.07
   1   1   2    2.57    0.22
   2   1   2    7.72    0.38
   3   1   2   31.52    0.88
   4   1   2  142.07    2.90
   5   1   2   17.95    0.72
   6   1   2   47.73    1.35
   7   1   2    5.31    0.51
   8   1   2    4.60    0.50
   9   1   2    9.52    0.74
  10   1   2   15.21    1.23
  11   1   2   12.21    1.11
  12   1   2   25.07    1.69
  13   1   2    8.26    1.01
  14   1   2    0.89    0.59
  15   1   2    0.91    0.63
  16   1   2    6.57    1.16
  17   1   2    2.93    0.93
 -17   2   2    0.24    0.57
 -16   2   2    0.10    0.69
 -15   2   2   28.49    3.30
 -14   2   2    0.71    0.65
 -13   2   2    0.88    0.56
 -12   2   2    0.34    0.40
 -11   2   2   34.31    1.88
 -10   2   2   55.81    1.98
  -9   2   2    8.26    0.77
  -8   2   2    4.90    0.55
  -7   2   2   15.68    0.75
  -6   2   2   36.73    1.09
  -5   2   2   30.59    0.91
  -4   2   2  204.81    3.59
  -3   2   2   28.16    0.89
  -2   2   2    3.88    0.34
  -1   2   2    0.78    0.16
   0   2   2    0.11    0.09
   1   2   2    1.01    0.16
   2   2   2    3.51    0.30
   3   2   2   27.68    0.84
   4   2   2  211.60    4.06
   5   2   2   30.70    0.99
   6   2   2   37.22    1.18
   7   2   2   16.52    0.80
   8   2   2    4.77    0.49
   9   2   2    8.25    0.84
  10   2   2   54.88    2.10
  11   2   2   33.87    1.73
  12   2   2    0.45    0.31
  13   2   2    0.63    0.36
  14   2   2    2.04    0.69
  15   2   2   40.77    3.08
  16   2   2    1.32    0.72
  17   2   2   -0.54    0.51
 -17   3   2    3.59    1.40
 -16   3   2    4.19    1.35
 -15   3   2    0.40    0.61
 -14   3   2    2.06    0.83
 -13   3   2    8.29    1.16
 -12   3   2    0.93    0.48
 -11   3   2   35.26    1.91
 -10   3   2    0.04    0.25
  -9   3   2   97.61    3.49
  -8   3   2   81.44    2.33
  -7   3   2   19.89    0.80
  -6   3   2  181.30    4.20
  -5   3   2    8.10    0.42
  -4   3   2   15.80    0.77
  -3   3   2   85.29    2.22
  -2   3   2    1.15    0.21
  -1   3   2   41.10    1.11
   0   3   2    0.02    0.08
   1   3   2   41.39    1.10
   2   3   2    1.28    0.20
   3   3   2   85.76    1.92
   4   3   2   16.29    0.66
   5   3   2    8.02    0.56
   6   3   2  186.07    3.84
   7   3   2   19.05    0.86
   8   3   2   80.05    2.56
   9   3   2   99.73    3.04
  10   3   2    0.08    0.25
  11   3   2   33.86    1.79
  12   3   2    1.10    0.41
  13   3   2   11.52    1.16
  14   3   2    2.30    0.59
  15   3   2    0.81    0.61
  16   3   2    4.57    1.05
  17   3   2    1.97    0.81
 -16   4   2    2.76    1.07
 -15   4   2   31.78    3.37
 -14   4   2   14.11    1.55
 -13   4   2    5.79    0.96
 -12   4   2   85.14    3.48
 -11   4   2    7.35    1.00
 -10   4   2    4.61    0.77
  -9   4   2    8.15    0.94
  -8   4   2    0.75    0.33
  -7   4   2    1.88    0.39
  -6   4   2   83.52    3.04
  -5   4   2    6.28    0.33
  -4   4   2   25.74    1.03
  -3   4   2    0.21    0.15
  -2   4   2  125.07    3.03
  -1   4   2   43.44    1.20
   0   4   2   18.27    0.70
   1   4   2   43.38    1.18
   2   4   2  123.44    2.62
   3   4   2    0.10    0.11
   4   4   2   26.29    0.90
   5   4   2    6.88    0.50
   6   4   2   88.21    2.12
   7   4   2    2.89    0.36
   8   4   2    1.24    0.37
   9   4   2    9.64    0.93
  10   4   2    3.04    0.56
  11   4   2    7.71    0.88
  12   4   2   87.31    2.96
  13   4   2    8.71    1.04
  14   4   2   10.76    1.17
  15   4   2   27.13    2.44
  16   4   2    3.32    0.98
 -16   5   2    0.13    0.71
 -15   5   2    0.67    0.67
 -14   5   2   10.06    1.37
 -13   5   2    1.83    0.60
 -12   5   2    4.45    0.78
 -11   5   2    6.01    0.92
 -10   5   2   16.90    1.45
  -9   5   2   11.62    1.12
  -8   5   2    1.48    0.40
  -7   5   2   50.64    1.78
  -6   5   2   45.86    1.64
  -5   5   2    0.23    0.17
  -4   5   2    0.56    0.21
  -3   5   2    6.39    0.56
  -2   5   2  104.37    2.68
  -1   5   2   21.11    0.87
   0   5   2   -0.02    0.11
   1   5   2   21.35    0.77
   2   5   2  105.30    2.33
   3   5   2    5.95    0.48
   4   5   2    1.05    0.22
   5   5   2    0.11    0.14
   6   5   2   47.35    1.38
   7   5   2   48.37    1.79
   8   5   2    0.27    0.25
   9   5   2   11.56    1.02
  10   5   2   16.67    1.31
  11   5   2    9.69    1.03
  12   5   2    2.64    0.58
  13   5   2    1.79    0.53
  14   5   2   10.06    1.15
  15   5   2   -0.35    0.48
  16   5   2    0.60    0.76
 -16   6   2   18.67    2.79
 -15   6   2   14.27    2.37
 -14   6   2    0.38    0.43
 -13   6   2    2.82    0.76
 -12   6   2   17.59    1.67
 -11   6   2    7.84    1.06
 -10   6   2   13.43    1.32
  -9   6   2   20.47    1.55
  -8   6   2   40.50    1.94
  -7   6   2   26.91    1.44
  -6   6   2    2.30    0.40
  -5   6   2   54.80    1.85
  -4   6   2    0.55    0.22
  -3   6   2  252.24    5.68
  -2   6   2  106.78    2.84
  -1   6   2    0.02    0.13
   0   6   2   43.99    1.45
   1   6   2   -0.07    0.13
   2   6   2  111.18    2.85
   3   6   2  250.31    5.66
   4   6   2    0.34    0.17
   5   6   2   60.53    1.61
   6   6   2    1.67    0.37
   7   6   2   24.14    1.20
   8   6   2   45.18    1.76
   9   6   2   13.82    1.14
  10   6   2   13.74    1.17
  11   6   2   10.34    1.04
  12   6   2   17.62    1.43
  13   6   2    1.51    0.63
  14   6   2   -0.28    0.44
  15   6   2   12.00    1.53
  16   6   2   16.00    2.74
 -16   7   2    1.22    1.04
 -15   7   2   -0.19    0.42
 -14   7   2    1.34    0.57
 -13   7   2    7.90    1.19
 -12   7   2    5.07    0.92
 -11   7   2    0.83    0.43
 -10   7   2   -0.12    0.26
  -9   7   2   69.85    2.83
  -8   7   2   14.43    1.30
  -7   7   2   89.01    3.13
  -6   7   2    5.72    0.64
  -5   7   2    1.42    0.30
  -4   7   2    0.07    0.17
  -3   7   2   29.83    1.21
  -2   7   2   15.02    0.87
  -1   7   2   28.79    1.13
   0   7   2   -0.04    0.13
   1   7   2   29.48    1.13
   2   7   2   15.11    0.88
   3   7   2   33.09    1.25
   4   7   2    0.19    0.19
   5   7   2    1.26    0.32
   6   7   2    7.36    0.74
   7   7   2   84.23    2.65
   8   7   2   16.32    1.23
   9   7   2   69.02    2.43
  10   7   2    0.58    0.31
  11   7   2    0.78    0.49
  12   7   2    4.66    0.94
  13   7   2    9.70    1.35
  14   7   2    1.19    0.59
  15   7   2    0.16    0.48
  16   7   2    2.06    1.20
 -15   8   2   -0.31    0.38
 -14   8   2    0.25    0.44
 -13   8   2    3.55    0.85
 -12   8   2    1.33    0.53
 -11   8   2    2.81    0.66
 -10   8   2   14.25    1.43
  -9   8   2   11.56    1.21
  -8   8   2   79.77    3.07
  -7   8   2   11.24    1.15
  -6   8   2   24.86    1.26
  -5   8   2   21.64    1.12
  -4   8   2   10.77    0.85
  -3   8   2   38.36    1.45
  -2   8   2    1.80    0.35
  -1   8   2   52.16    1.70
   0   8   2   38.89    1.40
   1   8   2   51.08    1.68
   2   8   2    2.38    0.38
   3   8   2   41.07    1.47
   4   8   2   11.80    0.89
   5   8   2   21.56    1.13
   6   8   2   25.18    1.33
   7   8   2   12.87    1.03
   8   8   2   78.88    2.59
   9   8   2    9.06    1.19
  10   8   2   14.40    1.56
  11   8   2    2.29    0.69
  12   8   2    1.87    0.66
  13   8   2    3.46    0.86
  14   8   2    0.68    0.52
  15   8   2   -0.53    0.49
  16   8   2    3.84    1.37
 -15   9   2    1.11    0.67
 -14   9   2   20.84    2.05
 -13   9   2    3.47    0.85
 -12   9   2    7.20    1.09
 -11   9   2   17.69    1.69
 -10   9   2   24.44    1.89
  -9   9   2    6.73    0.98
  -8   9   2    1.95    0.51
  -7   9   2   16.13    1.38
  -6   9   2   56.44    2.33
  -5   9   2   26.93    1.32
  -4   9   2    4.11    0.57
  -3   9   2   51.62    1.79
  -2   9   2   11.50    0.89
  -1   9   2    3.63    0.49
   0   9   2    0.07    0.17
   1   9   2    2.74    0.44
   2   9   2   13.04    0.92
   3   9   2   52.13    1.78
   4   9   2    3.82    0.53
   5   9   2   24.99    1.21
   6   9   2   51.35    2.44
   7   9   2   18.15    1.62
   8   9   2    2.72    0.67
   9   9   2    7.03    1.12
  10   9   2   24.69    2.00
  11   9   2   20.17    1.88
  12   9   2    7.33    1.20
  13   9   2    5.41    1.05
  14   9   2   19.83    2.07
  15   9   2    0.98    0.69
 -14  10   2   23.53    2.22
 -13  10   2   19.21    1.87
 -12  10   2   51.02    2.68
 -11  10   2    1.75    0.59
 -10  10   2    0.37    0.35
  -9  10   2   -0.16    0.24
  -8  10   2    1.37    0.45
  -7  10   2    2.15    0.54
  -6  10   2    7.99    0.98
  -5  10   2    0.15    0.22
  -4  10   2   26.29    1.32
  -3  10   2   55.54    1.97
  -2  10   2   34.74    1.43
  -1  10   2   43.89    1.64
   0  10   2    6.63    0.65
   1  10   2   46.46    1.66
   2  10   2   34.70    1.40
   3  10   2   54.59    1.91
   4  10   2   28.47    1.62
   5  10   2    0.63    0.39
   6  10   2    7.07    1.01
   7  10   2    3.61    0.75
   8  10   2    0.97    0.49
   9  10   2   -0.09    0.34
  10  10   2   -0.10    0.33
  11  10   2    1.31    0.57
  12  10   2   48.48    2.71
  13  10   2   20.14    1.97
  14  10   2   26.27    2.31
  15  10   2   22.13    2.91
 -14  11   2   -0.02    0.86
 -13  11   2   -0.30    0.43
 -12  11   2    0.08    0.45
 -11  11   2    3.07    0.74
 -10  11   2   20.49    1.85
  -9  11   2   15.02    1.53
  -8  11   2    2.34    0.58
  -7  11   2    1.74    0.51
  -6  11   2    8.38    1.02
  -5  11   2   16.08    1.39
  -4  11   2    4.35    0.61
  -3  11   2   19.80    1.30
  -2  11   2    6.61    0.73
  -1  11   2   61.60    2.06
   0  11   2    0.10    0.19
   1  11   2   59.62    2.09
   2  11   2    4.24    0.74
   3  11   2   19.77    1.63
   4  11   2    6.13    0.92
   5  11   2   11.75    1.31
   6  11   2   11.75    1.36
   7  11   2    1.04    0.46
   8  11   2    2.01    0.66
   9  11   2   18.33    1.81
  10  11   2   19.90    1.96
  11  11   2    3.82    0.88
  12  11   2    0.74    0.54
  13  11   2   -0.21    0.53
  14  11   2    0.27    0.54
 -13  12   2    4.61    1.06
 -12  12   2   13.49    1.61
 -11  12   2   14.72    1.65
 -10  12   2    4.05    0.85
  -9  12   2    8.86    1.11
  -8  12   2    1.88    0.56
  -7  12   2   14.19    1.42
  -6  12   2   14.54    1.38
  -5  12   2    1.65    0.50
  -4  12   2   21.50    1.49
  -3  12   2    7.23    0.80
  -2  12   2   35.03    1.53
  -1  12   2   45.67    2.14
   0  12   2   23.51    1.74
   1  12   2   47.02    2.19
   2  12   2   33.45    1.83
   3  12   2    5.97    0.90
   4  12   2   19.18    1.68
   5  12   2    2.14    0.60
   6  12   2   19.80    1.80
   7  12   2   14.96    1.60
   8  12   2    1.93    0.72
   9  12   2    7.43    1.23
  10  12   2    3.53    0.89
  11  12   2   20.20    2.03
  12  12   2   13.57    1.69
  13  12   2    5.50    1.15
 -12  13   2   12.55    1.54
 -11  13   2    2.56    0.73
 -10  13   2    0.32    0.41
  -9  13   2    3.38    0.78
  -8  13   2    0.63    0.45
  -7  13   2    8.95    1.15
  -6  13   2   22.38    1.80
  -5  13   2   61.94    2.79
  -4  13   2   22.94    1.77
  -3  13   2    0.36    0.32
  -2  13   2   -0.31    0.23
  -1  13   2   12.56    1.24
   0  13   2    0.09    0.31
   1  13   2   11.24    1.24
   2  13   2    0.09    0.30
   3  13   2    0.01    0.28
   4  13   2   26.09    2.07
   5  13   2   65.14    3.02
   6  13   2   25.19    2.10
   7  13   2    7.73    1.22
   8  13   2    0.39    0.51
   9  13   2    3.58    0.87
  10  13   2   -0.01    0.45
  11  13   2    1.69    0.73
  12  13   2   12.13    1.58
 -11  14   2   -0.01    0.57
 -10  14   2    5.45    1.05
  -9  14   2    4.24    0.86
  -8  14   2   44.31    2.39
  -7  14   2    0.35    0.39
  -6  14   2    6.95    1.04
  -5  14   2    8.45    1.12
  -4  14   2    4.79    0.83
  -3  14   2    0.13    0.30
  -2  14   2    1.25    0.50
  -1  14   2    5.83    0.92
   0  14   2   98.91    3.76
   1  14   2    6.71    1.03
   2  14   2    1.62    0.54
   3  14   2   -0.21    0.34
   4  14   2    4.25    0.83
   5  14   2    7.17    1.10
   6  14   2    6.14    1.11
   7  14   2    1.03    0.51
   8  14   2   42.49    2.55
   9  14   2    3.44    0.90
  10  14   2    4.87    1.08
  11  14   2   -0.08    0.53
 -10  15   2   16.03    2.79
  -9  15   2    1.30    0.84
  -8  15   2   14.62    2.21
  -7  15   2   10.43    1.87
  -6  15   2    1.57    0.52
  -5  15   2    2.15    0.64
  -4  15   2    3.71    0.78
  -3  15   2    0.89    0.51
  -2  15   2    1.17    0.51
  -1  15   2    0.30    0.37
   0  15   2    0.01    0.32
   1  15   2    0.31    0.36
   2  15   2    1.26    0.52
   3  15   2    0.87    0.54
   4  15   2    3.56    0.81
   5  15   2    2.05    0.69
   6  15   2    0.18    0.51
   7  15   2    6.08    1.10
   8  15   2   15.21    1.74
   9  15   2    0.43    0.54
  10  15   2    9.56    1.47
  -8  16   2    1.80    0.91
  -7  16   2    4.19    1.28
  -6  16   2    1.85    0.92
  -5  16   2    0.90    0.76
  -4  16   2   37.44    3.21
  -3  16   2   -0.06    0.48
  -2  16   2    0.62    0.60
  -1  16   2    6.85    1.51
   0  16   2   35.89    2.63
   1  16   2    6.34    1.04
   2  16   2    0.33    0.46
   3  16   2    0.24    0.43
   4  16   2   44.69    2.69
   5  16   2    2.96    0.80
   6  16   2    0.82    0.62
   7  16   2    3.79    0.91
   8  16   2    0.85    0.63
   9  16   2    1.89    1.05
  -6  17   2   14.14    2.40
  -5  17   2    5.02    1.36
  -4  17   2    6.63    1.53
  -3  17   2    2.68    1.11
  -2  17   2    9.84    1.90
  -1  17   2    3.79    1.19
   0  17   2    0.21    0.62
   1  17   2    5.31    1.46
   2  17   2   14.12    2.43
   3  17   2    2.80    1.18
   4  17   2    2.44    1.18
   5  17   2    2.90    1.27
   6  17   2   17.74    2.82
  -3  18   2    0.18    0.73
  -2  18   2    0.76    0.75
  -1  18   2    0.04    0.70
   0  18   2    0.46    0.70
   1  18   2    0.85    0.72
   2  18   2    1.12    1.02
   3  18   2    0.83    0.97
  -1 -17   3   17.33    4.30
   0 -17   3    0.99    1.67
   1 -17   3   20.51    2.46
   2 -17   3    3.71    1.22
   3 -17   3    0.74    0.97
  -6 -16   3    3.15    1.64
  -5 -16   3    1.48    1.26
  -4 -16   3    0.52    1.13
  -3 -16   3   20.67    3.88
  -2 -16   3    9.44    2.80
  -1 -16   3    0.43    1.38
   0 -16   3   47.07    3.37
   1 -16   3    1.57    0.95
   2 -16   3    5.60    1.38
   3 -16   3   17.24    2.27
   4 -16   3    0.79    0.83
   5 -16   3    0.02    0.80
   6 -16   3    2.53    1.20
  -8 -15   3   -0.40    0.97
  -7 -15   3    5.46    1.79
  -6 -15   3    9.70    2.41
  -5 -15   3   15.61    3.05
  -4 -15   3   15.47    3.22
  -3 -15   3   10.32    2.69
  -2 -15   3    0.81    1.10
  -1 -15   3   -0.04    0.59
   0 -15   3    0.73    0.64
   1 -15   3    1.50    0.81
   2 -15   3   -0.08    0.65
   3 -15   3   12.24    1.84
   4 -15   3   19.00    2.28
   5 -15   3   20.43    2.49
   6 -15   3   12.82    1.94
   7 -15   3    7.91    1.58
  -9 -14   3    3.26    1.53
  -8 -14   3   16.47    2.00
  -7 -14   3    0.87    1.08
  -6 -14   3   -0.22    0.73
  -5 -14   3    0.42    1.00
  -4 -14   3   23.25    3.83
  -3 -14   3    0.57    0.95
  -2 -14   3    0.28    0.60
  -1 -14   3    7.33    1.37
   0 -14   3   31.67    2.83
   1 -14   3    8.34    1.46
   2 -14   3    0.60    0.69
   3 -14   3    0.50    0.61
   4 -14   3   24.05    2.57
   5 -14   3    1.14    0.72
   6 -14   3   -0.37    0.56
   7 -14   3    1.01    0.77
   8 -14   3   15.67    3.74
   9 -14   3    1.64    1.95
 -10 -13   3   10.69    2.46
  -9 -13   3    8.26    2.02
  -8 -13   3   20.65    2.23
  -7 -13   3    3.54    0.93
  -6 -13   3    0.70    0.96
  -5 -13   3    0.39    0.78
  -4 -13   3    2.08    1.40
  -3 -13   3   49.87    5.58
  -2 -13   3    5.48    1.12
  -1 -13   3    2.11    0.71
   0 -13   3   -0.14    0.47
   1 -13   3    1.18    0.68
   2 -13   3    5.63    1.20
   3 -13   3   54.45    3.23
   4 -13   3    2.34    0.87
   5 -13   3    0.09    0.50
   6 -13   3    1.47    0.71
   7 -13   3    4.74    1.18
   8 -13   3   18.45    4.11
   9 -13   3    4.05    2.06
  10 -13   3   11.84    3.51
 -11 -12   3    6.90    1.88
 -10 -12   3    4.43    1.53
  -9 -12   3    7.33    1.28
  -8 -12   3    4.28    1.01
  -7 -12   3   10.47    1.53
  -6 -12   3    4.47    1.61
  -5 -12   3   12.79    2.61
  -4 -12   3   21.37    3.39
  -3 -12   3    7.64    1.20
  -2 -12   3    2.29    0.79
  -1 -12   3    4.77    1.02
   0 -12   3    2.05    0.80
   1 -12   3    4.07    1.01
   2 -12   3    1.58    0.74
   3 -12   3    6.55    1.20
   4 -12   3   18.86    2.09
   5 -12   3   11.49    1.62
   6 -12   3    3.63    0.92
   7 -12   3   10.31    1.57
   8 -12   3    5.45    2.33
   9 -12   3    7.29    2.42
  10 -12   3    3.41    2.03
  11 -12   3    5.25    1.51
  12 -12   3    0.03    1.20
 -12 -11   3    0.85    1.03
 -11 -11   3    0.55    0.83
 -10 -11   3    0.47    0.87
  -9 -11   3   16.94    1.90
  -8 -11   3    0.38    0.50
  -7 -11   3   69.11    3.39
  -6 -11   3    7.41    1.22
  -5 -11   3    0.10    0.67
  -4 -11   3    2.53    0.75
  -3 -11   3    0.00    0.36
  -2 -11   3   22.11    2.08
  -1 -11   3   33.90    2.36
   0 -11   3    0.52    0.43
   1 -11   3   31.95    2.65
   2 -11   3   27.53    2.46
   3 -11   3    0.53    0.46
   4 -11   3    2.39    0.82
   5 -11   3    1.13    0.59
   6 -11   3    5.04    1.04
   7 -11   3   65.82    2.83
   8 -11   3   -0.34    0.53
   9 -11   3   17.41    2.30
  10 -11   3    0.27    0.71
  11 -11   3    0.73    0.89
  12 -11   3    0.51    0.89
 -13 -10   3    2.51    1.43
 -12 -10   3    0.42    0.95
 -11 -10   3   33.24    3.90
 -10 -10   3    1.36    0.97
  -9 -10   3    3.57    0.90
  -8 -10   3    0.18    0.47
  -7 -10   3    2.03    0.66
  -6 -10   3   16.96    1.73
  -5 -10   3    8.66    1.39
  -4 -10   3   21.71    1.94
  -3 -10   3   21.43    1.91
  -2 -10   3    4.93    0.90
  -1 -10   3   25.80    2.20
   0 -10   3   13.86    1.56
   1 -10   3   26.98    2.33
   2 -10   3    4.09    0.87
   3 -10   3   20.37    2.00
   4 -10   3   22.17    1.64
   5 -10   3    9.83    1.06
   6 -10   3   22.11    1.68
   7 -10   3    1.91    0.56
   8 -10   3   -0.35    0.52
   9 -10   3    1.51    0.80
  10 -10   3    2.15    0.96
  11 -10   3   33.88    3.35
  12 -10   3    0.79    0.90
  13 -10   3    7.44    1.70
 -14  -9   3    0.07    1.04
 -13  -9   3    1.18    0.98
 -12  -9   3    0.71    1.08
 -11  -9   3    1.34    0.90
 -10  -9   3    4.12    1.34
  -9  -9   3   59.82    3.04
  -8  -9   3   11.58    1.42
  -7  -9   3   12.71    1.50
  -6  -9   3   11.14    1.34
  -5  -9   3   67.37    2.39
  -4  -9   3    7.59    1.07
  -3  -9   3    3.84    0.81
  -2  -9   3   76.24    3.30
  -1  -9   3   16.98    1.69
   0  -9   3    0.00    0.32
   1  -9   3   14.84    2.27
   2  -9   3   77.11    2.58
   3  -9   3    3.11    0.56
   4  -9   3    5.31    0.76
   5  -9   3   63.62    2.45
   6  -9   3   16.14    1.39
   7  -9   3   13.21    1.25
   8  -9   3   12.00    1.35
   9  -9   3   60.50    3.86
  10  -9   3    3.10    1.09
  11  -9   3    2.14    0.95
  12  -9   3   -0.58    0.67
  13  -9   3    0.36    0.93
  14  -9   3    1.84    1.34
 -14  -8   3    0.16    1.05
 -13  -8   3    1.19    1.16
 -12  -8   3    0.43    0.85
 -11  -8   3    5.92    1.61
 -10  -8   3    5.64    1.63
  -9  -8   3   18.35    1.77
  -8  -8   3    0.73    0.47
  -7  -8   3    7.76    1.11
  -6  -8   3    3.63    0.54
  -5  -8   3   30.01    1.45
  -4  -8   3   16.29    1.62
  -3  -8   3   13.92    1.42
  -2  -8   3   17.68    1.66
  -1  -8   3   18.87    1.70
   0  -8   3   36.31    1.49
   1  -8   3   19.96    1.19
   2  -8   3   17.38    1.15
   3  -8   3   13.61    1.12
   4  -8   3   17.66    1.35
   5  -8   3   28.97    1.58
   6  -8   3    4.52    0.73
   7  -8   3    6.70    0.88
   8  -8   3    0.76    0.42
   9  -8   3   20.07    2.21
  10  -8   3    3.82    1.05
  11  -8   3    2.08    0.88
  12  -8   3   -0.01    0.66
  13  -8   3    1.38    0.99
  14  -8   3   -0.08    0.78
 -15  -7   3   10.42    2.44
 -14  -7   3    1.99    1.36
 -13  -7   3   75.72    5.46
 -12  -7   3    1.87    1.10
 -11  -7   3   -0.05    0.80
 -10  -7   3    0.32    0.68
  -9  -7   3    2.43    0.66
  -8  -7   3   11.81    1.33
  -7  -7   3    5.95    0.76
  -6  -7   3    6.74    0.78
  -5  -7   3  122.52    3.48
  -4  -7   3    0.29    0.33
  -3  -7   3    1.55    0.38
  -2  -7   3    9.63    0.82
  -1  -7   3   29.80    1.29
   0  -7   3    0.02    0.19
   1  -7   3   26.30    1.32
   2  -7   3    9.87    0.90
   3  -7   3    1.18    0.37
   4  -7   3    0.32    0.27
   5  -7   3  122.90    3.65
   6  -7   3    7.41    0.89
   7  -7   3    7.40    0.91
   8  -7   3   12.41    1.19
   9  -7   3    2.17    0.83
  10  -7   3   -0.10    0.54
  11  -7   3    0.00    0.57
  12  -7   3    0.77    0.74
  13  -7   3   68.63    4.31
  14  -7   3    0.08    1.63
 -15  -6   3    1.52    1.16
 -14  -6   3    0.49    0.91
 -13  -6   3   26.05    3.55
 -12  -6   3   14.64    2.59
 -11  -6   3   51.18    3.93
 -10  -6   3   12.07    2.13
  -9  -6   3   11.39    1.35
  -8  -6   3    9.73    1.19
  -7  -6   3    8.64    0.85
  -6  -6   3    0.50    0.26
  -5  -6   3   19.06    0.98
  -4  -6   3    0.40    0.24
  -3  -6   3   10.10    0.84
  -2  -6   3    4.79    0.58
  -1  -6   3  133.51    3.51
   0  -6   3   24.43    1.22
   1  -6   3  126.37    3.52
   2  -6   3    3.90    0.56
   3  -6   3   10.35    0.94
   4  -6   3    0.22    0.26
   5  -6   3   19.48    1.38
   6  -6   3    0.36    0.31
   7  -6   3   10.58    0.97
   8  -6   3   11.45    1.09
   9  -6   3   13.56    1.76
  10  -6   3   16.64    2.05
  11  -6   3   42.83    3.04
  12  -6   3   15.77    2.05
  13  -6   3   26.65    2.77
  14  -6   3   -0.35    1.11
  15  -6   3    0.90    1.45
 -15  -5   3    0.12    0.94
 -14  -5   3    3.14    1.38
 -13  -5   3    2.63    1.24
 -12  -5   3   -0.12    0.78
 -11  -5   3   14.33    2.41
 -10  -5   3   28.74    3.17
  -9  -5   3   18.40    1.62
  -8  -5   3    0.31    0.24
  -7  -5   3   42.09    1.43
  -6  -5   3   46.13    1.27
  -5  -5   3   22.28    0.84
  -4  -5   3    0.01    0.13
  -3  -5   3   54.03    1.60
  -2  -5   3   51.38    1.78
  -1  -5   3    0.00    0.17
   0  -5   3   -0.05    0.17
   1  -5   3    0.24    0.20
   2  -5   3   50.14    1.82
   3  -5   3   56.88    1.98
   4  -5   3   -0.12    0.19
   5  -5   3   22.52    1.34
   6  -5   3   43.65    1.81
   7  -5   3   43.30    1.89
   8  -5   3    0.01    0.28
   9  -5   3   16.28    1.90
  10  -5   3   27.78    2.51
  11  -5   3   18.40    2.09
  12  -5   3    0.39    0.55
  13  -5   3    1.23    1.28
  14  -5   3    3.74    1.92
  15  -5   3    0.33    1.17
 -14  -4   3   35.87    2.78
 -13  -4   3    1.38    0.63
 -12  -4   3    0.37    0.45
 -11  -4   3    6.14    1.06
 -10  -4   3    0.10    0.39
  -9  -4   3   28.48    1.31
  -8  -4   3    5.57    0.47
  -7  -4   3    5.99    0.48
  -6  -4   3    8.02    0.52
  -5  -4   3   18.60    0.71
  -4  -4   3   67.34    1.76
  -3  -4   3    4.54    0.44
  -2  -4   3   28.69    0.96
  -1  -4   3   19.90    0.82
   0  -4   3    6.25    0.43
   1  -4   3   22.21    0.82
   2  -4   3   27.36    0.94
   3  -4   3    3.70    0.38
   4  -4   3   64.66    1.79
   5  -4   3   20.21    1.02
   6  -4   3    7.71    0.78
   7  -4   3    5.61    0.73
   8  -4   3    4.93    0.70
   9  -4   3   27.43    2.38
  10  -4   3   -0.08    0.40
  11  -4   3    6.10    1.09
  12  -4   3    0.29    0.53
  13  -4   3    0.48    1.09
  14  -4   3   32.68    4.83
  15  -4   3   -0.23    1.08
 -16  -3   3    6.04    2.50
 -15  -3   3    8.71    1.96
 -14  -3   3    0.34    0.69
 -13  -3   3    0.26    0.45
 -12  -3   3    7.60    1.13
 -11  -3   3   15.69    1.63
 -10  -3   3   26.06    1.97
  -9  -3   3   12.74    0.80
  -8  -3   3   33.09    1.00
  -7  -3   3   96.21    1.93
  -6  -3   3    3.89    0.36
  -5  -3   3   45.42    1.13
  -4  -3   3   21.68    0.79
  -3  -3   3    6.27    0.45
  -2  -3   3  116.93    2.64
  -1  -3   3  168.38    3.51
   0  -3   3   -0.12    0.11
   1  -3   3  166.89    3.50
   2  -3   3  116.37    2.65
   3  -3   3    6.80    0.55
   4  -3   3   21.28    0.89
   5  -3   3   47.33    1.45
   6  -3   3    3.62    0.46
   7  -3   3   94.55    2.44
   8  -3   3   31.20    1.34
   9  -3   3   11.25    1.11
  10  -3   3   26.06    1.78
  11  -3   3   15.76    1.48
  12  -3   3    8.10    1.46
  13  -3   3    0.27    0.85
  14  -3   3    0.35    0.96
  15  -3   3   13.01    2.88
 -16  -2   3   -0.56    0.67
 -15  -2   3    2.30    1.13
 -14  -2   3   -0.47    0.50
 -13  -2   3    0.67    0.77
 -12  -2   3   24.58    2.37
 -11  -2   3   17.08    1.31
 -10  -2   3    2.00    0.46
  -9  -2   3    1.07    0.27
  -8  -2   3    7.23    0.53
  -7  -2   3   38.08    1.04
  -6  -2   3    8.14    0.50
  -5  -2   3    1.28    0.21
  -4  -2   3    9.41    0.57
  -3  -2   3   21.56    0.74
  -2  -2   3   38.34    1.01
  -1  -2   3   52.94    1.22
   0  -2   3   13.65    0.69
   1  -2   3   53.27    1.45
   2  -2   3   34.68    1.14
   3  -2   3   21.33    0.87
   4  -2   3    8.48    0.62
   5  -2   3    1.82    0.31
   6  -2   3    7.30    0.63
   7  -2   3   37.18    1.33
   8  -2   3    7.20    0.68
   9  -2   3    0.75    0.37
  10  -2   3    1.57    0.48
  11  -2   3   15.32    1.41
  12  -2   3   24.25    2.53
  13  -2   3    1.49    0.77
  14  -2   3    0.86    0.72
  15  -2   3    1.52    0.89
  16  -2   3    0.62    1.85
 -16  -1   3   11.44    2.22
 -15  -1   3    0.04    0.75
 -14  -1   3    8.10    1.76
 -13  -1   3   16.89    2.53
 -12  -1   3   11.24    1.33
 -11  -1   3   10.35    1.25
 -10  -1   3   53.72    1.98
  -9  -1   3    1.97    0.36
  -8  -1   3   33.89    1.10
  -7  -1   3    6.96    0.49
  -6  -1   3    3.77    0.34
  -5  -1   3   89.07    1.76
  -4  -1   3   22.75    0.78
  -3  -1   3   68.39    1.55
  -2  -1   3    0.38    0.14
  -1  -1   3    0.20    0.12
   0  -1   3    0.05    0.09
   1  -1   3   -0.02    0.11
   2  -1   3    0.41    0.15
   3  -1   3   68.04    1.80
   4  -1   3   22.37    0.93
   5  -1   3   88.83    2.24
   6  -1   3    3.28    0.40
   7  -1   3    9.11    0.90
   8  -1   3   34.11    1.58
   9  -1   3    3.84    0.69
  10  -1   3   54.23    2.25
  11  -1   3    8.85    1.34
  12  -1   3    6.25    1.24
  13  -1   3   18.49    2.21
  14  -1   3    9.65    1.62
  15  -1   3    0.12    0.71
  16  -1   3   13.69    1.97
 -16   0   3   28.05    3.49
 -15   0   3    0.05    0.75
 -14   0   3   30.88    3.47
 -13   0   3   -0.28    0.46
 -12   0   3    0.92    0.47
 -11   0   3   -0.20    0.27
 -10   0   3   12.88    1.30
  -9   0   3    0.03    0.24
  -8   0   3  137.51    3.11
  -7   0   3    0.15    0.15
  -6   0   3   44.49    1.20
  -5   0   3   -0.09    0.12
  -4   0   3  160.31    3.07
  -3   0   3    0.10    0.12
  -2   0   3   54.55    1.31
  -1   0   3   -0.03    0.10
   0   0   3    1.99    0.22
   1   0   3   -0.10    0.12
   2   0   3   55.70    1.54
   3   0   3    0.08    0.14
   4   0   3  161.49    3.49
   5   0   3    0.04    0.17
   6   0   3   43.57    1.69
   7   0   3    0.01    0.20
   8   0   3  137.12    3.87
   9   0   3   -0.28    0.24
  10   0   3   11.27    1.52
  11   0   3    0.27    0.48
  12   0   3    0.19    0.54
  13   0   3   -0.43    0.46
  14   0   3   34.59    3.08
  15   0   3   -0.08    0.68
  16   0   3   26.50    2.72
 -16   1   3   10.84    2.20
 -15   1   3    0.45    0.76
 -14   1   3    8.36    1.68
 -13   1   3   24.15    2.07
 -12   1   3   11.56    1.33
 -11   1   3   11.40    1.28
 -10   1   3   54.10    2.46
  -9   1   3    2.91    0.51
  -8   1   3   33.03    1.44
  -7   1   3    6.67    0.70
  -6   1   3    3.94    0.38
  -5   1   3   87.08    2.20
  -4   1   3   22.36    0.91
  -3   1   3   67.43    1.75
  -2   1   3    0.49    0.16
  -1   1   3    0.19    0.13
   0   1   3    0.19    0.11
   1   1   3    0.12    0.10
   2   1   3    0.35    0.13
   3   1   3   70.90    2.14
   4   1   3   23.11    1.08
   5   1   3   90.81    2.65
   6   1   3    3.99    0.58
   7   1   3    7.36    0.79
   8   1   3   34.04    1.61
   9   1   3    2.46    0.54
  10   1   3   51.55    2.86
  11   1   3    5.61    1.09
  12   1   3   12.04    1.66
  13   1   3   22.04    2.31
  14   1   3    8.40    1.47
  15   1   3    0.31    0.57
  16   1   3   16.02    2.05
 -16   2   3    1.99    1.19
 -15   2   3    0.92    0.86
 -14   2   3    0.41    0.51
 -13   2   3    0.27    0.44
 -12   2   3   28.00    2.15
 -11   2   3   14.59    1.49
 -10   2   3    1.53    0.50
  -9   2   3    0.75    0.34
  -8   2   3    7.93    0.82
  -7   2   3   37.95    1.50
  -6   2   3    7.07    0.70
  -5   2   3    1.02    0.26
  -4   2   3    9.29    0.66
  -3   2   3   21.91    0.91
  -2   2   3   38.10    1.16
  -1   2   3   52.52    1.41
   0   2   3   13.58    0.65
   1   2   3   50.22    1.36
   2   2   3   38.32    1.11
   3   2   3   21.78    0.80
   4   2   3    7.83    0.73
   5   2   3    1.40    0.35
   6   2   3    7.46    0.77
   7   2   3   38.19    1.60
   8   2   3    6.87    0.81
   9   2   3    1.23    0.55
  10   2   3    2.32    0.77
  11   2   3   15.52    1.83
  12   2   3   23.13    2.28
  13   2   3   -0.20    0.52
  14   2   3    0.70    0.62
  15   2   3    1.77    0.86
  16   2   3    1.11    0.81
 -15   3   3    8.99    1.90
 -14   3   3    0.65    0.54
 -13   3   3    0.54    0.46
 -12   3   3    8.05    1.15
 -11   3   3   16.50    1.56
 -10   3   3   26.26    1.93
  -9   3   3   11.11    1.01
  -8   3   3   33.57    1.48
  -7   3   3   89.77    2.75
  -6   3   3    4.42    0.56
  -5   3   3   50.34    1.68
  -4   3   3   22.00    0.96
  -3   3   3    6.20    0.53
  -2   3   3  119.22    2.67
  -1   3   3  162.49    3.48
   0   3   3   -0.10    0.11
   1   3   3  167.66    3.48
   2   3   3  119.63    2.62
   3   3   3    7.58    0.54
   4   3   3   21.19    0.89
   5   3   3   46.59    1.39
   6   3   3    4.09    0.58
   7   3   3   94.16    2.86
   8   3   3   31.82    2.17
   9   3   3   11.36    1.40
  10   3   3   23.81    2.20
  11   3   3   13.46    1.65
  12   3   3    6.75    1.10
  13   3   3    0.43    0.57
  14   3   3    1.16    0.66
  15   3   3   12.31    1.69
  16   3   3    4.50    1.18
 -15   4   3    0.14    0.49
 -14   4   3   31.29    2.51
 -13   4   3    0.78    0.52
 -12   4   3    0.09    0.38
 -11   4   3    5.37    0.88
 -10   4   3    0.95    0.43
  -9   4   3   28.33    1.49
  -8   4   3    6.36    0.73
  -7   4   3    6.17    0.71
  -6   4   3    8.64    0.80
  -5   4   3   18.56    1.08
  -4   4   3   64.30    2.04
  -3   4   3    4.10    0.45
  -2   4   3   26.80    1.02
  -1   4   3   20.60    0.88
   0   4   3    6.88    0.55
   1   4   3   21.22    0.84
   2   4   3   26.32    0.95
   3   4   3    3.59    0.38
   4   4   3   66.31    1.76
   5   4   3   18.27    0.89
   6   4   3    7.94    0.66
   7   4   3    6.82    0.77
   8   4   3    4.48    0.86
   9   4   3   24.72    2.18
  10   4   3    0.07    0.39
  11   4   3    5.09    1.07
  12   4   3    0.41    0.47
  13   4   3    0.72    0.60
  14   4   3   32.71    2.80
  15   4   3    0.03    0.64
  16   4   3   11.20    2.41
 -15   5   3   -0.50    0.45
 -14   5   3    0.86    0.56
 -13   5   3    3.33    0.83
 -12   5   3    0.02    0.36
 -11   5   3   14.03    1.47
 -10   5   3   21.78    1.79
  -9   5   3   15.87    1.27
  -8   5   3   -0.16    0.17
  -7   5   3   42.59    1.71
  -6   5   3   42.42    1.66
  -5   5   3   20.76    1.10
  -4   5   3    0.12    0.17
  -3   5   3   55.05    1.80
  -2   5   3   50.72    1.51
  -1   5   3   -0.01    0.14
   0   5   3   -0.05    0.11
   1   5   3   -0.10    0.13
   2   5   3   49.74    1.45
   3   5   3   52.67    1.53
   4   5   3    0.35    0.16
   5   5   3   20.30    0.94
   6   5   3   44.18    1.44
   7   5   3   40.18    1.69
   8   5   3    0.08    0.32
   9   5   3   15.84    1.69
  10   5   3   23.25    2.12
  11   5   3   16.52    1.81
  12   5   3   -0.33    0.43
  13   5   3    1.68    0.74
  14   5   3    3.43    0.97
  15   5   3    0.27    0.83
 -15   6   3   -0.37    0.58
 -14   6   3    0.00    0.42
 -13   6   3   29.15    2.33
 -12   6   3   12.88    1.48
 -11   6   3   43.14    2.36
 -10   6   3   15.08    1.49
  -9   6   3   13.99    1.39
  -8   6   3   10.01    0.98
  -7   6   3   10.48    0.94
  -6   6   3    0.26    0.23
  -5   6   3   20.47    1.11
  -4   6   3    0.36    0.20
  -3   6   3    9.79    0.82
  -2   6   3    4.30    0.51
  -1   6   3  130.01    3.36
   0   6   3   23.21    0.96
   1   6   3  128.26    2.95
   2   6   3    4.96    0.50
   3   6   3   10.31    0.72
   4   6   3    0.19    0.18
   5   6   3   19.45    1.00
   6   6   3    0.07    0.23
   7   6   3   11.29    1.00
   8   6   3    9.61    0.97
   9   6   3   14.96    1.63
  10   6   3   13.27    1.57
  11   6   3   44.94    2.81
  12   6   3   17.14    1.89
  13   6   3   33.47    2.75
  14   6   3    0.00    0.82
  15   6   3    0.21    1.02
 -14   7   3    1.57    0.74
 -13   7   3   70.38    3.45
 -12   7   3    1.11    0.57
 -11   7   3   -0.13    0.38
 -10   7   3    0.33    0.35
  -9   7   3    2.60    0.64
  -8   7   3   13.60    1.19
  -7   7   3    5.55    0.70
  -6   7   3    6.69    0.75
  -5   7   3  122.03    3.43
  -4   7   3    0.10    0.20
  -3   7   3    0.61    0.26
  -2   7   3    9.69    0.82
  -1   7   3   27.79    1.20
   0   7   3    0.05    0.18
   1   7   3   26.29    1.17
   2   7   3    7.89    0.73
   3   7   3    1.35    0.34
   4   7   3    0.30    0.21
   5   7   3  119.67    2.92
   6   7   3    6.48    0.75
   7   7   3    6.76    0.81
   8   7   3   14.71    1.24
   9   7   3    3.13    0.61
  10   7   3   -0.06    0.37
  11   7   3   -0.08    0.39
  12   7   3    0.16    0.75
  13   7   3   80.66    5.64
  14   7   3    1.66    1.20
 -14   8   3    0.01    0.56
 -13   8   3    1.53    0.65
 -12   8   3    0.24    0.41
 -11   8   3    2.69    0.70
 -10   8   3    6.39    1.02
  -9   8   3   17.75    1.62
  -8   8   3    0.38    0.30
  -7   8   3    4.83    0.69
  -6   8   3    5.30    0.70
  -5   8   3   29.72    1.45
  -4   8   3   19.26    1.28
  -3   8   3   13.81    1.04
  -2   8   3   17.81    1.18
  -1   8   3   19.75    1.05
   0   8   3   32.04    1.36
   1   8   3   18.52    1.09
   2   8   3   15.38    1.09
   3   8   3   13.16    1.01
   4   8   3   16.77    1.16
   5   8   3   30.45    1.42
   6   8   3    2.65    0.46
   7   8   3    8.21    0.89
   8   8   3   -0.28    0.27
   9   8   3   19.05    1.46
  10   8   3    3.97    1.28
  11   8   3    5.75    1.71
  12   8   3    0.80    0.91
  13   8   3   -0.04    0.75
  14   8   3    0.11    0.85
 -13   9   3    0.78    0.53
 -12   9   3    0.06    0.40
 -11   9   3    1.81    0.60
 -10   9   3    5.30    0.91
  -9   9   3   61.99    2.83
  -8   9   3   11.57    1.28
  -7   9   3   14.15    1.19
  -6   9   3   13.67    1.17
  -5   9   3   64.31    2.30
  -4   9   3    6.83    0.76
  -3   9   3    2.61    0.50
  -2   9   3   74.29    2.43
  -1   9   3   15.98    1.13
   0   9   3   -0.07    0.19
   1   9   3   14.90    1.08
   2   9   3   78.96    2.46
   3   9   3    2.07    0.44
   4   9   3    6.88    0.78
   5   9   3   69.77    2.36
   6   9   3   16.91    1.29
   7   9   3   12.13    1.12
   8   9   3   12.40    1.50
   9   9   3   62.16    3.04
  10   9   3    4.51    1.00
  11   9   3    1.76    1.05
  12   9   3    0.15    0.73
  13   9   3    2.62    1.31
 -13  10   3    3.44    0.98
 -12  10   3    0.10    0.45
 -11  10   3   29.79    2.40
 -10  10   3    2.48    0.67
  -9  10   3    1.87    0.57
  -8  10   3    0.04    0.32
  -7  10   3    1.34    0.44
  -6  10   3   21.03    1.48
  -5  10   3    8.40    0.91
  -4  10   3   25.05    1.45
  -3  10   3   21.54    1.30
  -2  10   3    2.90    0.49
  -1  10   3   24.49    1.40
   0  10   3   15.43    1.13
   1  10   3   25.61    1.34
   2  10   3    3.68    0.56
   3  10   3   21.75    1.42
   4  10   3   25.22    1.36
   5  10   3   10.28    1.08
   6  10   3   20.71    1.83
   7  10   3    1.33    0.54
   8  10   3    0.41    0.46
   9  10   3    5.18    1.03
  10  10   3    3.42    0.91
  11  10   3   47.46    4.79
  12  10   3   -0.06    0.74
  13  10   3    4.00    1.87
 -12  11   3   -0.17    0.51
 -11  11   3   -0.19    0.40
 -10  11   3    0.00    0.39
  -9  11   3   19.46    1.83
  -8  11   3   -0.19    0.33
  -7  11   3   65.37    2.95
  -6  11   3    8.23    0.92
  -5  11   3    0.10    0.28
  -4  11   3    1.90    0.48
  -3  11   3    0.18    0.27
  -2  11   3   26.55    1.50
  -1  11   3   33.13    1.53
   0  11   3    0.03    0.24
   1  11   3   32.81    1.50
   2  11   3   26.57    1.49
   3  11   3    0.16    0.34
   4  11   3    2.36    0.65
   5  11   3    0.08    0.32
   6  11   3    5.83    1.00
   7  11   3   64.63    3.16
   8  11   3    0.69    0.53
   9  11   3   20.77    2.08
  10  11   3   -0.19    0.44
  11  11   3   -0.08    0.56
  12  11   3   -0.34    0.79
 -11  12   3    4.91    0.98
 -10  12   3    4.16    0.94
  -9  12   3    7.52    1.17
  -8  12   3    3.65    0.78
  -7  12   3    8.91    1.19
  -6  12   3    3.18    0.70
  -5  12   3    9.38    1.02
  -4  12   3   20.92    1.51
  -3  12   3    9.36    1.00
  -2  12   3    0.71    0.37
  -1  12   3    2.99    0.56
   0  12   3    1.75    0.47
   1  12   3    3.70    0.73
   2  12   3    0.92    0.46
   3  12   3    5.67    0.92
   4  12   3   23.05    1.94
   5  12   3   10.15    1.31
   6  12   3    5.66    1.01
   7  12   3   11.88    1.52
   8  12   3    6.18    1.13
   9  12   3    6.38    1.73
  10  12   3    4.34    1.06
  11  12   3    3.37    0.98
 -11  13   3   26.86    4.76
 -10  13   3   14.26    1.63
  -9  13   3    8.01    1.25
  -8  13   3   26.21    2.20
  -7  13   3    3.66    0.80
  -6  13   3    1.51    0.53
  -5  13   3    0.36    0.36
  -4  13   3    1.38    0.45
  -3  13   3   52.14    2.18
  -2  13   3    5.20    0.91
  -1  13   3    2.02    0.59
   0  13   3    0.33    0.31
   1  13   3    1.55    0.52
   2  13   3    4.61    0.83
   3  13   3   55.26    2.72
   4  13   3    1.44    0.54
   5  13   3   -0.12    0.37
   6  13   3    2.30    0.76
   7  13   3    4.32    0.93
   8  13   3   23.74    2.25
   9  13   3    8.15    1.31
  10  13   3   14.98    1.85
  11  13   3   25.91    3.39
 -10  14   3   -0.64    0.79
  -9  14   3    2.20    0.75
  -8  14   3   14.06    1.62
  -7  14   3    0.97    0.50
  -6  14   3    0.01    0.36
  -5  14   3    1.82    0.63
  -4  14   3   27.54    2.18
  -3  14   3    0.57    0.46
  -2  14   3    0.86    0.49
  -1  14   3   11.16    1.35
   0  14   3   32.31    2.39
   1  14   3    9.10    1.25
   2  14   3    1.19    0.59
   3  14   3    0.22    0.44
   4  14   3   32.82    2.52
   5  14   3    2.72    0.79
   6  14   3   -0.27    0.44
   7  14   3    0.80    0.62
   8  14   3   15.66    1.87
   9  14   3    2.99    0.95
  10  14   3    0.10    0.84
  -8  15   3    0.51    0.79
  -7  15   3    8.31    1.27
  -6  15   3   12.23    1.49
  -5  15   3   19.56    1.88
  -4  15   3   16.50    1.71
  -3  15   3   11.77    1.44
  -2  15   3    0.09    0.43
  -1  15   3    1.37    0.59
   0  15   3   -0.22    0.41
   1  15   3    1.65    0.59
   2  15   3    0.37    0.47
   3  15   3   15.36    1.66
   4  15   3   14.29    1.70
   5  15   3   22.23    2.13
   6  15   3   11.66    1.54
   7  15   3    7.62    1.29
   8  15   3    0.27    0.62
  -6  16   3    2.32    1.03
  -5  16   3    0.29    0.50
  -4  16   3   -0.10    0.44
  -3  16   3   15.38    1.77
  -2  16   3   11.52    1.50
  -1  16   3    1.59    0.64
   0  16   3   53.34    2.84
   1  16   3    1.39    0.66
   2  16   3   12.85    1.62
   3  16   3   19.43    1.97
   4  16   3    0.53    0.56
   5  16   3    0.28    0.57
   6  16   3    1.86    0.82
  -4  17   3    9.31    2.50
  -3  17   3   -0.04    0.80
  -2  17   3    3.58    0.96
  -1  17   3   21.17    2.12
   0  17   3    0.22    0.51
   1  17   3   21.06    2.05
   2  17   3    6.16    1.20
   3  17   3    1.15    0.66
   4  17   3    8.96    2.04
   0 -15   4   -0.03    0.74
   1 -15   4    0.07    0.80
   2 -15   4    0.16    0.91
   3 -15   4    2.27    1.45
  -6 -14   4    2.62    1.59
  -5 -14   4    2.43    1.51
  -4 -14   4    2.12    1.43
  -3 -14   4   -0.31    1.02
  -2 -14   4    1.06    1.22
  -1 -14   4    2.56    0.92
   0 -14   4   61.24    3.80
   1 -14   4    2.10    0.91
   2 -14   4    0.96    0.82
   3 -14   4    0.30    0.73
   4 -14   4    3.84    1.24
   5 -14   4    5.29    1.33
   6 -14   4    2.37    1.32
  -8 -13   4   -0.17    0.94
  -7 -13   4    4.66    1.76
  -6 -13   4    8.43    2.24
  -5 -13   4   38.24    4.97
  -4 -13   4   11.05    2.66
  -3 -13   4   -0.48    0.91
  -2 -13   4    0.29    0.58
  -1 -13   4    3.61    1.08
   0 -13   4   -0.16    0.59
   1 -13   4    6.59    1.39
   2 -13   4   -0.36    0.56
   3 -13   4    0.42    0.60
   4 -13   4   11.37    1.80
   5 -13   4   32.73    3.06
   6 -13   4   10.42    1.74
   7 -13   4    4.34    1.20
  -8 -12   4    0.93    1.10
  -7 -12   4   11.22    2.62
  -6 -12   4    9.72    2.38
  -5 -12   4    0.75    1.03
  -4 -12   4    7.67    2.20
  -3 -12   4    5.05    1.13
  -2 -12   4   16.76    2.01
  -1 -12   4   22.55    2.27
   0 -12   4   10.85    1.62
   1 -12   4   18.81    2.04
   2 -12   4   24.88    3.59
   3 -12   4    3.95    1.10
   4 -12   4   11.07    1.67
   5 -12   4    0.21    0.58
   6 -12   4    8.42    1.52
   7 -12   4   10.38    1.60
   8 -12   4    1.59    1.68
  -8 -11   4    0.56    0.96
  -7 -11   4    1.08    1.07
  -6 -11   4    3.19    1.42
  -5 -11   4    5.59    1.81
  -4 -11   4    2.74    0.84
  -3 -11   4   11.69    1.66
  -2 -11   4    2.12    0.77
  -1 -11   4   33.64    2.80
   0 -11   4   -0.24    0.39
   1 -11   4   32.41    2.80
   2 -11   4    2.50    0.85
   3 -11   4   10.46    1.60
   4 -11   4    2.82    0.93
   5 -11   4    5.43    1.21
   6 -11   4    2.86    0.92
   7 -11   4    1.86    0.80
   8 -11   4    1.35    1.39
   9 -11   4   11.20    3.09
 -11 -10   4    1.26    1.26
 -10 -10   4   -0.22    0.83
  -9 -10   4   -0.32    1.02
  -8 -10   4    0.74    0.91
  -7 -10   4    1.29    1.02
  -6 -10   4    5.21    1.70
  -5 -10   4    0.64    0.62
  -4 -10   4   18.64    2.00
  -3 -10   4   26.67    2.41
  -2 -10   4   16.17    1.87
  -1 -10   4   19.05    2.05
   0 -10   4    2.25    0.79
   1 -10   4   19.10    2.09
   2 -10   4   14.27    1.78
   3 -10   4   26.64    2.47
   4 -10   4   13.86    1.81
   5 -10   4   -0.14    0.48
   6 -10   4    4.28    1.04
   7 -10   4    1.86    0.60
   8 -10   4    0.98    0.78
   9 -10   4   -0.24    0.67
  10 -10   4    0.09    0.77
  11 -10   4    1.83    1.47
 -12  -9   4    1.74    1.76
 -11  -9   4    9.50    2.24
 -10  -9   4   18.82    2.88
  -9  -9   4    3.27    1.38
  -8  -9   4   -0.15    0.75
  -7  -9   4    7.76    1.94
  -6  -9   4   35.71    3.96
  -5  -9   4   10.55    1.42
  -4  -9   4    1.14    0.57
  -3  -9   4   25.37    2.26
  -2  -9   4    7.98    1.25
  -1  -9   4    1.88    0.73
   0  -9   4   -0.16    0.39
   1  -9   4    0.38    0.41
   2  -9   4    7.46    1.22
   3  -9   4   26.35    2.43
   4  -9   4    1.14    0.42
   5  -9   4   12.89    1.25
   6  -9   4   30.89    2.06
   7  -9   4    8.45    1.15
   8  -9   4    0.58    0.60
   9  -9   4    4.02    1.14
  10  -9   4   15.81    2.22
  11  -9   4   13.36    2.14
 -12  -8   4    0.94    1.17
 -11  -8   4    0.76    1.17
 -10  -8   4   11.44    2.20
  -9  -8   4    3.20    0.90
  -8  -8   4   45.80    3.81
  -7  -8   4    7.01    1.80
  -6  -8   4    9.93    1.36
  -5  -8   4   10.45    1.40
  -4  -8   4    5.91    1.06
  -3  -8   4   21.81    2.03
  -2  -8   4    1.11    0.55
  -1  -8   4   20.53    1.98
   0  -8   4   16.77    1.84
   1  -8   4   23.66    1.49
   2  -8   4    2.01    0.51
   3  -8   4   18.88    1.48
   4  -8   4    5.20    0.81
   5  -8   4    9.74    1.11
   6  -8   4    8.20    1.03
   7  -8   4    7.43    1.04
   8  -8   4   44.12    3.48
   9  -8   4    3.91    1.14
  10  -8   4    4.71    1.19
  11  -8   4    2.53    1.04
  12  -8   4    0.52    0.85
 -13  -7   4    3.69    2.48
 -12  -7   4    2.05    1.26
 -11  -7   4    0.99    0.98
 -10  -7   4    0.58    0.86
  -9  -7   4   35.82    2.40
  -8  -7   4    8.18    1.79
  -7  -7   4   37.96    2.30
  -6  -7   4    4.05    0.87
  -5  -7   4    1.40    0.62
  -4  -7   4   -0.30    0.29
  -3  -7   4   16.76    1.74
  -2  -7   4    5.01    0.98
  -1  -7   4   12.44    1.10
   0  -7   4   -0.08    0.24
   1  -7   4   14.42    1.19
   2  -7   4    7.83    0.91
   3  -7   4   17.15    1.40
   4  -7   4   -0.19    0.26
   5  -7   4    1.32    0.46
   6  -7   4    3.37    0.66
   7  -7   4   38.30    2.05
   8  -7   4    8.08    1.41
   9  -7   4   35.40    3.11
  10  -7   4    0.26    0.64
  11  -7   4    0.62    0.70
  12  -7   4    1.73    0.91
  13  -7   4    4.65    1.76
 -12  -6   4    7.15    2.01
 -11  -6   4    2.34    1.13
 -10  -6   4    9.35    1.97
  -9  -6   4   10.90    1.39
  -8  -6   4   20.33    2.72
  -7  -6   4   13.56    1.51
  -6  -6   4    0.52    0.44
  -5  -6   4   26.35    2.12
  -4  -6   4    0.07    0.29
  -3  -6   4  116.47    3.50
  -2  -6   4   50.78    1.99
  -1  -6   4    0.29    0.28
   0  -6   4   22.95    1.52
   1  -6   4    0.29    0.27
   2  -6   4   48.28    2.02
   3  -6   4  116.15    3.61
   4  -6   4    0.29    0.32
   5  -6   4   26.28    1.76
   6  -6   4    0.46    0.38
   7  -6   4    9.13    1.08
   8  -6   4   16.40    1.96
   9  -6   4    8.74    1.45
  10  -6   4    7.22    1.44
  11  -6   4    3.93    1.15
  12  -6   4    8.03    1.65
  13  -6   4    0.45    1.42
 -11  -5   4    1.41    1.63
 -10  -5   4    9.35    1.89
  -9  -5   4    7.30    1.09
  -8  -5   4    0.04    0.41
  -7  -5   4   20.15    1.87
  -6  -5   4   25.36    1.66
  -5  -5   4    0.21    0.28
  -4  -5   4    0.82    0.35
  -3  -5   4    2.85    0.54
  -2  -5   4   50.36    1.96
  -1  -5   4    7.18    0.81
   0  -5   4    0.05    0.22
   1  -5   4    8.89    0.95
   2  -5   4   49.32    2.00
   3  -5   4    2.37    0.50
   4  -5   4    0.88    0.30
   5  -5   4    0.37    0.34
   6  -5   4   26.81    1.67
   7  -5   4   20.25    1.58
   8  -5   4    0.64    0.58
   9  -5   4    9.58    1.54
  10  -5   4    6.59    1.35
  11  -5   4    2.66    1.00
  12  -5   4    0.67    0.79
  13  -5   4    1.33    1.71
  -9  -4   4    5.04    0.75
  -8  -4   4    0.10    0.32
  -7  -4   4    1.84    0.49
  -6  -4   4   44.84    1.86
  -5  -4   4    3.19    0.58
  -4  -4   4   13.66    1.17
  -3  -4   4   -0.18    0.20
  -2  -4   4   50.66    1.97
  -1  -4   4   13.91    1.14
   0  -4   4    6.26    0.77
   1  -4   4   17.95    1.34
   2  -4   4   47.58    1.97
   3  -4   4   -0.06    0.25
   4  -4   4   10.93    1.07
   5  -4   4    2.56    0.56
   6  -4   4   39.53    1.84
   7  -4   4    1.48    0.48
   8  -4   4    0.21    0.49
   9  -4   4    4.44    1.11
  10  -4   4    1.17    0.68
  11  -4   4    2.36    0.85
  12  -4   4   41.42    5.50
  13  -4   4    2.93    1.70
 -14  -3   4    0.79    0.95
 -13  -3   4    3.74    1.31
 -12  -3   4    1.00    0.91
 -11  -3   4   15.86    2.32
 -10  -3   4    0.20    0.40
  -9  -3   4   53.24    1.69
  -8  -3   4   36.69    1.53
  -7  -3   4   10.81    0.88
  -6  -3   4   87.41    2.40
  -5  -3   4    1.67    0.35
  -4  -3   4    5.73    0.61
  -3  -3   4   36.05    1.63
  -2  -3   4    0.92    0.35
  -1  -3   4   17.54    1.31
   0  -3   4   -0.03    0.22
   1  -3   4   18.25    1.34
   2  -3   4    1.33    0.41
   3  -3   4   38.94    1.70
   4  -3   4    4.64    0.69
   5  -3   4    2.25    0.49
   6  -3   4   85.47    2.92
   7  -3   4   10.70    1.13
   8  -3   4   34.65    2.32
   9  -3   4   50.26    3.16
  10  -3   4    0.27    0.54
  11  -3   4   16.16    1.94
  12  -3   4    0.01    0.98
  13  -3   4    2.78    1.77
 -14  -2   4    1.38    1.05
 -13  -2   4    0.95    0.92
 -12  -2   4   -0.26    0.65
 -11  -2   4   16.78    1.63
 -10  -2   4   24.98    1.68
  -9  -2   4    3.90    0.59
  -8  -2   4    2.87    0.48
  -7  -2   4    9.47    0.83
  -6  -2   4   19.23    1.13
  -5  -2   4   14.09    0.97
  -4  -2   4   91.11    2.75
  -3  -2   4   13.29    0.90
  -2  -2   4    1.57    0.34
  -1  -2   4    0.00    0.16
   0  -2   4    0.06    0.18
   1  -2   4    0.12    0.18
   2  -2   4    1.94    0.35
   3  -2   4   13.85    0.91
   4  -2   4   92.16    2.97
   5  -2   4   12.82    1.14
   6  -2   4   17.48    1.38
   7  -2   4    9.99    1.34
   8  -2   4    1.97    0.69
   9  -2   4    3.65    0.90
  10  -2   4   23.07    2.27
  11  -2   4   23.81    3.83
  12  -2   4    0.63    1.00
  13  -2   4   -0.13    1.03
  14  -2   4    1.70    1.93
 -14  -1   4    0.36    0.95
 -13  -1   4    5.14    1.59
 -12  -1   4   12.64    1.50
 -11  -1   4    5.83    0.98
 -10  -1   4    7.95    0.97
  -9  -1   4    5.79    0.76
  -8  -1   4    2.74    0.45
  -7  -1   4    2.32    0.41
  -6  -1   4   20.36    1.38
  -5  -1   4    9.63    0.80
  -4  -1   4   61.71    1.86
  -3  -1   4   15.05    0.97
  -2  -1   4    3.10    0.44
  -1  -1   4    0.42    0.21
   0  -1   4   -0.01    0.17
   1  -1   4    0.93    0.26
   2  -1   4    2.61    0.40
   3  -1   4   12.93    0.89
   4  -1   4   56.75    1.78
   5  -1   4    8.86    0.88
   6  -1   4   20.40    1.31
   7  -1   4    2.00    0.48
   8  -1   4    2.34    0.55
   9  -1   4    5.02    0.77
  10  -1   4    4.71    1.06
  11  -1   4    6.77    2.15
  12  -1   4   14.92    3.17
  13  -1   4    1.32    1.37
  14  -1   4    1.16    1.35
 -14   0   4   42.71    4.30
 -13   0   4   -0.01    0.51
 -12   0   4   10.97    1.34
 -11   0   4    0.33    0.45
 -10   0   4   42.11    1.94
  -9   0   4    0.02    0.27
  -8   0   4   39.05    1.66
  -7   0   4   -0.16    0.20
  -6   0   4    0.04    0.19
  -5   0   4    0.31    0.25
  -4   0   4    0.66    0.29
  -3   0   4    0.01    0.21
  -2   0   4    0.80    0.32
  -1   0   4   -0.22    0.20
   0   0   4  516.45   11.36
   1   0   4    0.02    0.20
   2   0   4    0.88    0.30
   3   0   4   -0.08    0.19
   4   0   4    0.26    0.24
   5   0   4    0.12    0.24
   6   0   4    0.18    0.27
   7   0   4    0.11    0.26
   8   0   4   35.98    1.83
   9   0   4   -0.08    0.32
  10   0   4   42.29    2.76
  11   0   4    0.16    0.62
  12   0   4    6.42    1.30
  13   0   4   -0.29    0.80
  14   0   4   37.72    4.91
 -14   1   4    1.30    0.75
 -13   1   4    4.53    0.99
 -12   1   4   12.32    1.49
 -11   1   4    6.37    1.07
 -10   1   4    4.93    0.76
  -9   1   4    3.59    0.65
  -8   1   4    2.34    0.52
  -7   1   4    2.60    0.44
  -6   1   4   20.42    1.11
  -5   1   4    7.03    0.69
  -4   1   4   62.99    2.20
  -3   1   4   15.62    1.16
  -2   1   4    2.62    0.47
  -1   1   4    0.77    0.31
   0   1   4   -0.16    0.19
   1   1   4    0.73    0.28
   2   1   4    3.48    0.54
   3   1   4   13.28    1.05
   4   1   4   57.43    2.10
   5   1   4    7.50    0.83
   6   1   4   23.47    1.53
   7   1   4    1.96    0.51
   8   1   4    2.17    0.55
   9   1   4    4.44    1.00
  10   1   4    3.88    0.98
  11   1   4    5.87    1.23
  12   1   4   12.09    1.78
  13   1   4    5.76    1.36
  14   1   4    0.42    0.81
 -14   2   4    1.13    0.64
 -13   2   4    0.14    0.50
 -12   2   4    0.31    0.49
 -11   2   4   25.13    2.06
 -10   2   4   23.93    1.67
  -9   2   4    3.70    0.61
  -8   2   4    1.91    0.48
  -7   2   4   11.03    0.99
  -6   2   4   17.79    1.08
  -5   2   4   15.38    1.00
  -4   2   4   90.31    2.90
  -3   2   4   11.74    1.02
  -2   2   4    1.61    0.41
  -1   2   4    0.28    0.24
   0   2   4    0.01    0.20
   1   2   4   -0.01    0.21
   2   2   4    1.52    0.38
   3   2   4   13.02    1.07
   4   2   4   90.23    2.86
   5   2   4   15.54    1.21
   6   2   4   15.71    1.26
   7   2   4    8.72    0.96
   8   2   4    2.44    0.55
   9   2   4    5.01    1.02
  10   2   4   26.60    2.32
  11   2   4   17.07    2.07
  12   2   4    0.02    0.60
  13   2   4    0.47    0.68
  14   2   4   -0.24    0.61
 -14   3   4    1.39    1.02
 -13   3   4    5.97    1.10
 -12   3   4    1.30    0.57
 -11   3   4   14.69    1.55
 -10   3   4    0.51    0.38
  -9   3   4   52.76    2.15
  -8   3   4   37.35    1.76
  -7   3   4   10.64    1.02
  -6   3   4   84.09    2.71
  -5   3   4    1.97    0.38
  -4   3   4    5.29    0.57
  -3   3   4   34.96    1.61
  -2   3   4    0.54    0.28
  -1   3   4   17.59    1.27
   0   3   4   -0.09    0.21
   1   3   4   19.59    1.34
   2   3   4    1.00    0.35
   3   3   4   37.11    1.62
   4   3   4    5.63    0.74
   5   3   4    1.56    0.44
   6   3   4   86.40    2.86
   7   3   4   11.10    1.08
   8   3   4   38.20    2.54
   9   3   4   47.14    2.81
  10   3   4   -0.48    0.40
  11   3   4   17.84    2.06
  12   3   4    1.05    0.77
  13   3   4    4.87    1.25
  14   3   4    1.34    0.89
 -14   4   4    6.75    2.02
 -13   4   4    4.28    0.96
 -12   4   4   49.95    2.73
 -11   4   4    3.95    0.87
 -10   4   4    1.92    0.53
  -9   4   4    4.56    0.72
  -8   4   4    0.37    0.32
  -7   4   4    1.43    0.41
  -6   4   4   40.27    1.69
  -5   4   4    2.61    0.48
  -4   4   4   13.46    0.95
  -3   4   4   -0.10    0.18
  -2   4   4   52.39    2.02
  -1   4   4   17.84    1.28
   0   4   4    8.27    0.84
   1   4   4   15.45    1.16
   2   4   4   51.12    1.96
   3   4   4    0.00    0.23
   4   4   4   14.33    1.18
   5   4   4    2.09    0.49
   6   4   4   41.28    1.84
   7   4   4    1.39    0.55
   8   4   4    0.47    0.49
   9   4   4    1.84    0.70
  10   4   4    2.75    0.88
  11   4   4    6.50    1.28
  12   4   4   56.23    3.29
  13   4   4    2.64    0.95
  14   4   4    6.30    1.50
 -13   5   4    1.65    0.68
 -12   5   4    1.29    0.60
 -11   5   4    2.60    0.73
 -10   5   4    8.83    1.05
  -9   5   4    6.60    0.88
  -8   5   4   -0.05    0.28
  -7   5   4   22.21    1.53
  -6   5   4   24.59    1.44
  -5   5   4    0.03    0.25
  -4   5   4    0.01    0.23
  -3   5   4    1.85    0.41
  -2   5   4   47.40    1.59
  -1   5   4    9.61    0.98
   0   5   4    0.09    0.24
   1   5   4   10.37    0.99
   2   5   4   47.40    1.93
   3   5   4    2.88    0.55
   4   5   4    0.35    0.29
   5   5   4    0.00    0.27
   6   5   4   25.28    1.69
   7   5   4   23.09    2.09
   8   5   4    0.58    0.49
   9   5   4    5.07    1.04
  10   5   4   10.43    1.53
  11   5   4    2.66    0.89
  12   5   4    1.69    0.83
  13   5   4    1.46    0.78
 -13   6   4    0.90    0.96
 -12   6   4    6.08    1.09
 -11   6   4    2.88    0.78
 -10   6   4    6.73    1.09
  -9   6   4    8.14    1.00
  -8   6   4   24.47    1.66
  -7   6   4   12.54    1.13
  -6   6   4    0.91    0.37
  -5   6   4   26.69    1.50
  -4   6   4    0.42    0.26
  -3   6   4  120.33    3.39
  -2   6   4   50.13    1.85
  -1   6   4    0.20    0.22
   0   6   4   21.31    1.48
   1   6   4    0.24    0.26
   2   6   4   50.72    2.03
   3   6   4  115.45    3.53
   4   6   4   -0.05    0.28
   5   6   4   30.21    1.69
   6   6   4    0.33    0.39
   7   6   4   12.11    1.50
   8   6   4   26.33    2.34
   9   6   4    8.59    1.36
  10   6   4    9.60    1.50
  11   6   4    4.14    1.04
  12   6   4    8.97    1.57
  13   6   4    0.22    0.73
 -12   7   4    2.05    0.76
 -11   7   4    0.92    0.58
 -10   7   4   -0.16    0.39
  -9   7   4   37.92    1.96
  -8   7   4    6.60    0.88
  -7   7   4   41.99    1.98
  -6   7   4    3.56    0.60
  -5   7   4    1.36    0.42
  -4   7   4   -0.18    0.20
  -3   7   4   14.61    1.14
  -2   7   4    5.85    0.69
  -1   7   4   12.58    1.04
   0   7   4    0.01    0.20
   1   7   4   14.91    1.47
   2   7   4    4.63    0.66
   3   7   4   14.84    1.26
   4   7   4   -0.26    0.25
   5   7   4    0.92    0.47
   6   7   4    3.43    0.84
   7   7   4   45.46    2.55
   8   7   4    8.21    1.30
   9   7   4   35.38    2.78
  10   7   4   -0.09    0.49
  11   7   4    0.76    0.64
  12   7   4    2.80    1.40
 -12   8   4    1.94    0.99
 -11   8   4    1.44    0.66
 -10   8   4    8.04    1.19
  -9   8   4    3.30    0.71
  -8   8   4   40.92    2.04
  -7   8   4    9.83    1.05
  -6   8   4    9.85    1.03
  -5   8   4   11.50    1.10
  -4   8   4    4.09    0.58
  -3   8   4   19.50    1.23
  -2   8   4    0.89    0.35
  -1   8   4   22.52    1.33
   0   8   4   21.16    1.39
   1   8   4   24.37    1.54
   2   8   4    1.41    0.50
   3   8   4   21.41    1.89
   4   8   4    4.95    0.93
   5   8   4   10.78    1.40
   6   8   4    8.81    1.28
   7   8   4    7.04    1.07
   8   8   4   46.00    2.67
   9   8   4    6.32    1.17
  10   8   4    9.21    1.66
  11   8   4    1.51    1.24
  12   8   4    1.31    1.68
 -11   9   4   11.31    2.12
 -10   9   4   12.43    1.54
  -9   9   4    2.22    0.66
  -8   9   4    0.66    0.40
  -7   9   4    8.49    1.00
  -6   9   4   27.42    1.82
  -5   9   4   11.35    1.06
  -4   9   4    1.88    0.50
  -3   9   4   25.01    1.49
  -2   9   4    6.79    0.83
  -1   9   4    1.57    0.42
   0   9   4    0.17    0.26
   1   9   4    1.04    0.39
   2   9   4    7.39    1.07
   3   9   4   24.39    2.07
   4   9   4    0.85    0.48
   5   9   4   11.36    1.44
   6   9   4   27.19    2.39
   7   9   4   10.52    1.41
   8   9   4    0.67    0.69
   9   9   4    1.53    1.03
  10   9   4   17.14    2.95
  11   9   4   10.32    2.44
 -10  10   4   -0.29    0.45
  -9  10   4    0.19    0.45
  -8  10   4    0.73    0.44
  -7  10   4    2.35    0.59
  -6  10   4    3.78    0.68
  -5  10   4    0.54    0.36
  -4  10   4   16.10    1.34
  -3  10   4   28.97    1.79
  -2  10   4   14.34    1.21
  -1  10   4   20.39    1.47
   0  10   4    2.15    0.53
   1  10   4   22.57    1.52
   2  10   4   14.20    1.21
   3  10   4   29.10    2.29
   4  10   4   16.87    1.77
   5  10   4    0.72    0.52
   6  10   4    2.76    1.19
   7  10   4    1.44    0.87
   8  10   4    0.19    0.71
   9  10   4   -0.04    0.79
  10  10   4    0.00    0.80
 -10  11   4    9.10    2.12
  -9  11   4   11.16    1.45
  -8  11   4    0.37    0.49
  -7  11   4    0.67    0.44
  -6  11   4    5.22    0.83
  -5  11   4    7.59    0.96
  -4  11   4    2.74    0.60
  -3  11   4   15.55    1.32
  -2  11   4    3.21    0.63
  -1  11   4   27.65    1.80
   0  11   4    0.02    0.28
   1  11   4   31.21    1.75
   2  11   4    2.60    0.57
   3  11   4    9.68    1.11
   4  11   4    1.58    0.90
   5  11   4    8.98    1.93
   6  11   4    4.95    1.48
   7  11   4    0.78    0.92
   8  11   4    1.28    1.00
   9  11   4   10.37    2.42
  -9  12   4    2.52    1.26
  -8  12   4    0.40    0.55
  -7  12   4    8.24    1.07
  -6  12   4   10.29    1.15
  -5  12   4    1.78    0.53
  -4  12   4    9.97    1.15
  -3  12   4    4.50    0.75
  -2  12   4   16.09    1.34
  -1  12   4   21.42    1.57
   0  12   4   12.49    1.20
   1  12   4   26.57    1.93
   2  12   4   19.44    1.80
   3  12   4    4.66    0.91
   4  12   4    9.06    1.83
   5  12   4    0.81    0.84
   6  12   4   12.87    2.42
   7  12   4    7.03    1.90
   8  12   4    0.12    0.85
  -7  13   4    3.47    0.92
  -6  13   4   10.94    1.24
  -5  13   4   40.71    2.14
  -4  13   4   12.41    1.27
  -3  13   4   -0.02    0.37
  -2  13   4    0.29    0.41
  -1  13   4    5.17    0.97
   0  13   4    0.37    0.45
   1  13   4    5.34    0.98
   2  13   4    0.11    0.45
   3  13   4    0.38    0.50
   4  13   4   14.23    2.53
   5  13   4   39.15    4.28
   6  13   4   13.69    2.47
   7  13   4    4.48    1.85
  -6  14   4    2.11    1.13
  -5  14   4    4.33    0.96
  -4  14   4    2.55    0.76
  -3  14   4    0.24    0.47
  -2  14   4    0.60    0.49
  -1  14   4    4.27    0.92
   0  14   4   56.77    2.94
   1  14   4    3.83    0.92
   2  14   4    1.93    0.70
   3  14   4    0.14    0.49
   4  14   4    4.33    1.18
   5  14   4    6.50    1.80
  -3  15   4    1.83    0.97
  -2  15   4    1.15    0.62
  -1  15   4    0.41    0.60
   0  15   4   -0.53    0.47
   1  15   4    0.10    0.58
   2  15   4    0.82    0.65
   3  15   4    1.96    1.11
   4  15   4    2.23    1.31
  -3 -12   5    5.63    1.79
  -2 -12   5   -0.18    0.91
  -1 -12   5    2.30    1.25
   0 -12   5    1.12    1.23
   1 -12   5    0.35    1.08
  -4 -11   5    0.62    1.33
  -3 -11   5   -0.48    0.63
  -2 -11   5   10.12    1.67
  -1 -11   5   18.99    2.30
   0 -11   5   -0.45    0.62
   1 -11   5   14.37    2.07
   2 -11   5   15.10    2.09
   3 -11   5    0.14    0.67
   4 -11   5   -0.42    0.66
   5 -11   5    0.56    0.98
  -7 -10   5   -0.46    1.01
  -6 -10   5    6.27    1.98
  -5 -10   5    2.90    1.48
  -4 -10   5   14.03    1.92
  -3 -10   5    7.88    1.41
  -2 -10   5    2.03    0.91
  -1 -10   5   12.03    1.84
   0 -10   5   10.32    1.60
   1 -10   5   13.99    1.97
   2 -10   5    2.51    0.96
   3 -10   5    7.05    1.46
   4 -10   5    9.52    1.61
   5 -10   5    2.96    1.05
   6 -10   5    9.18    1.80
  -8  -9   5    5.84    1.87
  -7  -9   5    7.48    2.03
  -6  -9   5    7.69    2.16
  -5  -9   5   27.87    2.60
  -4  -9   5    2.02    0.87
  -3  -9   5    1.57    0.72
  -2  -9   5   30.37    2.80
  -1  -9   5    4.51    1.09
   0  -9   5    0.36    0.54
   1  -9   5    7.86    1.38
   2  -9   5   34.57    3.03
   3  -9   5    0.92    0.77
   4  -9   5    2.67    0.92
   5  -9   5   26.55    2.65
   6  -9   5    8.34    1.50
   7  -9   5    5.66    1.13
   8  -9   5    4.38    1.60
  -8  -8   5   -0.49    0.80
  -7  -8   5    1.76    1.17
  -6  -8   5    0.90    0.74
  -5  -8   5    9.95    1.48
  -4  -8   5    6.46    1.23
  -3  -8   5    6.73    1.24
  -2  -8   5    8.78    1.47
  -1  -8   5    7.31    1.36
   0  -8   5   11.35    1.64
   1  -8   5    7.20    1.36
   2  -8   5    7.40    1.38
   3  -8   5    6.65    1.27
   4  -8   5    8.32    1.07
   5  -8   5   12.96    1.37
   6  -8   5    1.60    0.61
   7  -8   5    4.55    0.87
   8  -8   5    2.02    0.95
   9  -8   5    6.17    1.91
  -8  -7   5    4.50    1.60
  -7  -7   5    2.14    1.16
  -6  -7   5    3.36    0.91
  -5  -7   5   50.85    3.03
  -4  -7   5   -0.41    0.49
  -3  -7   5    0.58    0.53
  -2  -7   5    2.68    0.82
  -1  -7   5    4.83    1.09
   0  -7   5   -0.47    0.39
   1  -7   5    7.32    0.96
   2  -7   5    2.51    0.63
   3  -7   5    1.19    0.49
   4  -7   5   -0.03    0.35
   5  -7   5   53.27    2.56
   6  -7   5    1.61    0.62
   7  -7   5    1.38    0.59
   8  -7   5    5.67    1.34
   9  -7   5    1.72    0.84
  -8  -6   5    3.01    1.31
  -7  -6   5    4.10    1.02
  -6  -6   5   -0.24    0.48
  -5  -6   5    7.61    1.28
  -4  -6   5    0.33    0.50
  -3  -6   5    2.93    0.83
  -2  -6   5    0.17    0.43
  -1  -6   5   47.97    2.22
   0  -6   5   10.01    1.11
   1  -6   5   55.29    2.36
   2  -6   5    1.42    0.51
   3  -6   5    2.61    0.64
   4  -6   5    0.25    0.39
   5  -6   5    8.46    1.10
   6  -6   5   -0.33    0.36
   7  -6   5    5.54    0.91
   8  -6   5    4.59    1.24
   9  -6   5    5.35    1.26
  10  -6   5    4.48    1.81
  -9  -5   5    2.86    1.60
  -8  -5   5   -0.12    0.54
  -7  -5   5   19.02    2.06
  -6  -5   5   17.26    1.94
  -5  -5   5    7.45    1.32
  -4  -5   5   -0.10    0.33
  -3  -5   5   19.68    1.58
  -2  -5   5   24.19    1.76
  -1  -5   5    0.10    0.32
   0  -5   5   -0.10    0.31
   1  -5   5    0.15    0.33
   2  -5   5   21.34    1.61
   3  -5   5   17.55    1.54
   4  -5   5    0.21    0.37
   5  -5   5    7.31    0.97
   6  -5   5   15.74    1.51
   7  -5   5   18.74    1.69
   8  -5   5    0.17    0.58
   9  -5   5    3.55    1.09
  10  -5   5   13.09    1.93
  -8  -4   5    1.28    0.68
  -7  -4   5    2.72    0.84
  -6  -4   5    3.83    0.71
  -5  -4   5    3.65    0.74
  -4  -4   5   29.78    1.85
  -3  -4   5    1.51    0.51
  -2  -4   5    8.14    1.00
  -1  -4   5    7.18    0.92
   0  -4   5    1.65    0.53
   1  -4   5    6.73    0.91
   2  -4   5    9.02    1.06
   3  -4   5    1.28    0.44
   4  -4   5   31.56    1.91
   5  -4   5    6.74    0.97
   6  -4   5    2.77    0.68
   7  -4   5    2.39    0.66
   8  -4   5    3.67    1.02
   9  -4   5    8.57    1.56
  10  -4   5    0.12    0.64
  -9  -3   5    4.65    1.51
  -8  -3   5   13.81    1.72
  -7  -3   5   41.59    2.69
  -6  -3   5    1.12    0.47
  -5  -3   5   17.98    1.52
  -4  -3   5    6.94    0.96
  -3  -3   5    1.65    0.56
  -2  -3   5   43.31    2.12
  -1  -3   5   64.93    2.59
   0  -3   5   -0.28    0.26
   1  -3   5   65.20    2.60
   2  -3   5   41.19    2.10
   3  -3   5    1.65    0.54
   4  -3   5    7.14    0.94
   5  -3   5   20.59    1.69
   6  -3   5    0.69    0.54
   7  -3   5   33.49    2.83
   8  -3   5    9.06    1.49
   9  -3   5    5.48    1.20
  10  -3   5   10.40    1.68
 -10  -2   5   -0.26    0.85
  -9  -2   5    0.94    0.69
  -8  -2   5    3.33    0.90
  -7  -2   5   19.65    2.01
  -6  -2   5    1.51    0.64
  -5  -2   5    0.44    0.46
  -4  -2   5    4.21    0.96
  -3  -2   5    9.02    1.04
  -2  -2   5   12.81    1.25
  -1  -2   5   19.81    1.58
   0  -2   5    3.09    0.67
   1  -2   5   21.35    1.65
   2  -2   5   12.73    1.23
   3  -2   5    8.30    1.26
   4  -2   5    2.71    0.79
   5  -2   5    0.02    0.42
   6  -2   5    2.39    0.78
   7  -2   5   17.36    2.02
   8  -2   5    2.91    0.92
   9  -2   5    0.86    0.66
  10  -2   5    0.03    1.08
 -10  -1   5   27.49    3.60
  -9  -1   5    0.49    0.82
  -8  -1   5   17.71    1.97
  -7  -1   5    2.57    0.81
  -6  -1   5    1.18    0.62
  -5  -1   5   37.60    2.56
  -4  -1   5    6.77    1.16
  -3  -1   5   22.54    2.16
  -2  -1   5   -0.32    0.34
  -1  -1   5   -0.17    0.33
   0  -1   5    0.00    0.36
   1  -1   5   -0.05    0.35
   2  -1   5    0.38    0.46
   3  -1   5   25.82    2.30
   4  -1   5    6.96    1.18
   5  -1   5   38.49    2.94
   6  -1   5    0.62    0.52
   7  -1   5    1.36    0.75
   8  -1   5   15.15    1.94
   9  -1   5    0.50    0.61
  10  -1   5   17.40    3.36
  11  -1   5    4.32    2.06
 -11   0   5   -0.29    0.80
 -10   0   5    4.45    1.00
  -9   0   5    0.46    0.53
  -8   0   5   60.66    3.00
  -7   0   5   -0.14    0.34
  -6   0   5   14.96    1.34
  -5   0   5   -0.04    0.33
  -4   0   5   66.65    2.54
  -3   0   5   -0.11    0.27
  -2   0   5   18.23    1.40
  -1   0   5    0.09    0.27
   0   0   5   -0.15    0.35
   1   0   5    0.45    0.46
   2   0   5   20.16    2.01
   3   0   5    0.14    0.47
   4   0   5   68.65    3.37
   5   0   5    0.17    0.47
   6   0   5   18.55    1.94
   7   0   5    0.04    0.48
   8   0   5   57.35    3.19
   9   0   5    0.55    0.91
  10   0   5    2.54    1.49
  11   0   5   -0.07    1.00
 -11   1   5    3.34    1.34
 -10   1   5   24.71    2.28
  -9   1   5    0.13    0.56
  -8   1   5   11.26    1.46
  -7   1   5    2.72    0.66
  -6   1   5    0.35    0.42
  -5   1   5   36.78    2.05
  -4   1   5    7.05    0.90
  -3   1   5   23.61    1.63
  -2   1   5    0.31    0.33
  -1   1   5    0.29    0.28
   0   1   5    0.08    0.26
   1   1   5   -0.11    0.26
   2   1   5    0.58    0.34
   3   1   5   26.83    1.60
   4   1   5    5.83    0.79
   5   1   5   39.34    2.03
   6   1   5    0.51    0.47
   7   1   5    1.74    0.67
   8   1   5   14.21    1.81
   9   1   5    2.13    1.30
  10   1   5   17.38    3.26
  11   1   5    3.02    1.59
 -11   2   5    9.81    2.02
 -10   2   5    1.13    0.61
  -9   2   5    0.47    0.51
  -8   2   5    1.79    0.71
  -7   2   5   15.06    1.69
  -6   2   5    2.12    0.58
  -5   2   5    0.22    0.37
  -4   2   5    5.01    0.78
  -3   2   5    8.99    1.00
  -2   2   5   12.30    1.20
  -1   2   5   19.09    1.44
   0   2   5    5.19    0.76
   1   2   5   19.24    1.48
   2   2   5   13.59    1.25
   3   2   5    8.01    0.96
   4   2   5    3.35    0.64
   5   2   5    0.66    0.39
   6   2   5    2.06    0.55
   7   2   5   18.49    1.55
   8   2   5    3.05    0.84
   9   2   5    0.76    0.67
  10   2   5    0.34    1.03
  11   2   5    6.63    2.42
 -11   3   5    2.72    1.22
 -10   3   5   11.97    1.60
  -9   3   5    5.11    1.10
  -8   3   5   10.33    1.39
  -7   3   5   41.46    2.59
  -6   3   5    0.61    0.49
  -5   3   5   16.88    1.45
  -4   3   5    5.69    0.91
  -3   3   5    0.54    0.38
  -2   3   5   47.01    2.15
  -1   3   5   63.56    2.53
   0   3   5    0.08    0.30
   1   3   5   66.52    2.54
   2   3   5   43.08    2.03
   3   3   5    2.14    0.56
   4   3   5    6.79    0.94
   5   3   5   17.88    1.44
   6   3   5    0.86    0.43
   7   3   5   37.22    2.59
   8   3   5   11.38    1.58
   9   3   5    5.40    1.22
  10   3   5   11.40    1.69
  11   3   5    7.02    1.67
 -10   4   5    0.01    0.54
  -9   4   5    7.67    1.29
  -8   4   5    1.67    0.66
  -7   4   5    1.77    0.66
  -6   4   5    2.25    0.67
  -5   4   5    7.23    1.07
  -4   4   5   27.05    1.85
  -3   4   5    2.35    0.56
  -2   4   5    9.64    1.06
  -1   4   5    5.79    0.82
   0   4   5    0.79    0.41
   1   4   5    6.02    0.85
   2   4   5    9.43    1.04
   3   4   5    1.35    0.49
   4   4   5   31.24    1.84
   5   4   5    4.35    0.77
   6   4   5    2.57    0.63
   7   4   5    4.02    0.96
   8   4   5    1.35    0.74
   9   4   5    9.67    1.60
  10   4   5    0.36    0.66
  11   4   5    0.74    1.18
 -10   5   5   12.65    1.75
  -9   5   5    6.43    1.19
  -8   5   5    0.44    0.53
  -7   5   5   18.37    1.94
  -6   5   5   17.37    1.83
  -5   5   5    8.12    1.23
  -4   5   5   -0.31    0.33
  -3   5   5   20.51    1.87
  -2   5   5   22.82    1.70
  -1   5   5   -0.13    0.30
   0   5   5    0.01    0.32
   1   5   5   -0.08    0.30
   2   5   5   22.51    1.66
   3   5   5   20.82    1.58
   4   5   5    0.16    0.34
   5   5   5    6.13    0.88
   6   5   5   16.74    1.88
   7   5   5   16.60    1.85
   8   5   5    0.20    0.65
   9   5   5    6.05    1.29
  10   5   5   17.53    2.18
  -9   6   5    3.43    0.99
  -8   6   5    4.48    1.04
  -7   6   5    7.16    1.24
  -6   6   5    0.63    0.50
  -5   6   5    8.01    1.24
  -4   6   5    0.35    0.45
  -3   6   5    3.32    0.83
  -2   6   5    0.78    0.52
  -1   6   5   53.35    2.34
   0   6   5   10.61    1.12
   1   6   5   50.77    2.27
   2   6   5    1.10    0.45
   3   6   5    1.87    0.57
   4   6   5    0.24    0.40
   5   6   5    7.28    1.23
   6   6   5    0.86    0.59
   7   6   5    3.98    0.97
   8   6   5    4.05    1.06
   9   6   5    6.26    1.31
  10   6   5    5.21    1.25
  -9   7   5    1.74    0.87
  -8   7   5    8.24    1.41
  -7   7   5    3.78    0.95
  -6   7   5    2.74    0.83
  -5   7   5   54.22    2.97
  -4   7   5    0.07    0.40
  -3   7   5    0.83    0.54
  -2   7   5    4.70    0.98
  -1   7   5    9.86    1.35
   0   7   5   -0.39    0.37
   1   7   5    8.91    1.31
   2   7   5    2.63    0.62
   3   7   5    0.97    0.47
   4   7   5   -0.15    0.33
   5   7   5   54.76    2.99
   6   7   5    3.25    0.91
   7   7   5    1.34    0.74
   8   7   5    4.04    1.09
   9   7   5    0.57    0.68
  -8   8   5    0.88    0.68
  -7   8   5    2.99    0.95
  -6   8   5    0.81    0.58
  -5   8   5   14.25    1.76
  -4   8   5    7.70    1.24
  -3   8   5    7.22    1.23
  -2   8   5    7.92    1.26
  -1   8   5    9.64    1.36
   0   8   5   10.37    1.41
   1   8   5    6.54    1.10
   2   8   5    8.24    1.28
   3   8   5    6.73    1.15
   4   8   5    7.55    1.25
   5   8   5   12.15    1.60
   6   8   5    0.97    0.63
   7   8   5    2.25    0.87
   8   8   5    0.51    0.70
   9   8   5    7.38    2.00
  -7   9   5    6.42    1.30
  -6   9   5    7.34    1.30
  -5   9   5   23.55    2.31
  -4   9   5    1.24    0.68
  -3   9   5    0.74    0.61
  -2   9   5   37.99    2.90
  -1   9   5    7.58    1.24
   0   9   5    0.12    0.48
   1   9   5    6.41    1.15
   2   9   5   39.77    2.63
   3   9   5    1.20    0.61
   4   9   5    1.81    0.74
   5   9   5   24.05    2.37
   6   9   5    7.07    1.33
   7   9   5    3.30    0.90
   8   9   5    7.85    2.25
  -6  10   5    6.58    1.99
  -5  10   5    0.82    0.69
  -4  10   5   14.32    1.80
  -3  10   5    6.91    1.29
  -2  10   5    1.10    0.62
  -1  10   5   11.39    1.58
   0  10   5    7.74    1.27
   1  10   5   11.08    1.56
   2  10   5    0.77    0.59
   3  10   5    6.63    1.15
   4  10   5   10.02    1.47
   5  10   5    4.47    1.08
   6  10   5    8.78    2.07
  -5  11   5    0.60    1.20
  -4  11   5    0.95    0.86
  -3  11   5    0.33    0.53
  -2  11   5    8.55    1.43
  -1  11   5   13.96    1.78
   0  11   5   -0.08    0.52
   1  11   5   14.11    1.78
   2  11   5   13.56    1.74
   3  11   5    0.03    0.58
   4  11   5    0.99    1.12
  -3  12   5    3.63    1.73
  -2  12   5    0.58    1.06
  -1  12   5    1.85    1.39
   0  12   5    2.61    1.33
   1  12   5    0.66    1.32
  -2  -6   6   13.72    3.20
  -1  -6   6   -0.61    0.91
   0  -6   6    5.30    2.09
   1  -6   6   -0.75    1.26
   2  -6   6   11.93    2.15
   3  -6   6   41.69    3.72
  -4  -5   6    0.18    1.25
  -3  -5   6    0.15    0.69
  -2  -5   6   16.44    2.13
  -1  -5   6    2.07    0.70
   0  -5   6   -0.08    0.46
   1  -5   6    4.07    0.89
   2  -5   6   15.29    1.58
   3  -5   6    1.34    0.63
   4  -5   6    0.11    0.85
  -5  -4   6    2.06    1.47
  -4  -4   6    4.69    1.85
  -3  -4   6   -0.72    0.52
  -2  -4   6   19.84    2.23
  -1  -4   6    4.70    1.16
   0  -4   6    2.73    0.93
   1  -4   6    2.39    0.93
   2  -4   6   16.22    2.04
   3  -4   6   -0.44    0.56
   4  -4   6    4.51    1.12
   5  -4   6    0.41    0.93
  -5  -3   6    1.18    0.78
  -4  -3   6    1.34    0.81
  -3  -3   6   11.65    1.67
  -2  -3   6    1.08    0.73
  -1  -3   6    7.04    1.37
   0  -3   6    0.18    0.53
   1  -3   6    4.74    1.16
   2  -3   6    0.62    0.70
   3  -3   6    9.64    1.57
   4  -3   6    1.06    0.80
   5  -3   6   -0.02    0.62
  -6  -2   6    3.86    1.21
  -5  -2   6    6.29    1.35
  -4  -2   6   33.82    2.92
  -3  -2   6    5.16    1.09
  -2  -2   6    0.62    0.64
  -1  -2   6    0.53    0.65
   0  -2   6   -0.40    0.52
   1  -2   6   -0.71    0.45
   2  -2   6    0.55    0.63
   3  -2   6    4.15    1.11
   4  -2   6   29.71    2.73
   5  -2   6    4.37    1.14
   6  -2   6    5.55    1.87
  -6  -1   6    7.91    1.58
  -5  -1   6    2.21    0.91
  -4  -1   6   16.61    2.06
  -3  -1   6    6.75    1.34
  -2  -1   6    1.08    0.73
  -1  -1   6   -0.09    0.53
   0  -1   6   -0.13    0.49
   1  -1   6    0.71    0.67
   2  -1   6    0.94    0.70
   3  -1   6    3.55    1.08
   4  -1   6   18.41    2.13
   5  -1   6    2.43    0.89
   6  -1   6    9.75    2.29
  -6   0   6   -0.26    0.77
  -5   0   6    0.37    0.70
  -4   0   6   -0.28    0.58
  -3   0   6    0.37    0.58
  -2   0   6    0.21    0.63
  -1   0   6   -0.10    0.53
   0   0   6  198.43    7.34
   1   0   6    0.19    0.58
   2   0   6    1.12    0.69
   3   0   6   -0.27    0.58
   4   0   6   -0.56    0.53
   5   0   6   -0.19    0.58
   6   0   6    0.09    0.99
  -6   1   6    8.28    2.20
  -5   1   6    2.14    0.94
  -4   1   6   19.11    2.18
  -3   1   6    7.25    1.44
  -2   1   6    0.23    0.61
  -1   1   6    0.62    0.66
   0   1   6   -0.59    0.48
   1   1   6    0.91    0.66
   2   1   6    1.78    0.79
   3   1   6    6.25    1.28
   4   1   6   20.35    2.34
   5   1   6    3.94    1.10
   6   1   6    5.01    1.82
  -5   2   6    5.10    1.28
  -4   2   6   24.20    2.63
  -3   2   6    4.09    1.10
  -2   2   6    0.40    0.63
  -1   2   6   -0.21    0.54
   0   2   6   -0.30    0.55
   1   2   6    0.21    0.58
   2   2   6    1.05    0.70
   3   2   6    8.98    1.51
   4   2   6   31.38    2.91
   5   2   6    5.97    1.37
   6   2   6    8.06    2.01
  -6   3   6   28.24    3.31
  -5   3   6    0.28    0.60
  -4   3   6    1.62    0.62
  -3   3   6   13.76    1.43
  -2   3   6    0.69    0.54
  -1   3   6    9.02    1.56
   0   3   6   -0.52    0.51
   1   3   6    7.25    1.45
   2   3   6   -0.02    0.57
   3   3   6    9.42    1.40
   4   3   6    1.73    0.84
   5   3   6    0.51    0.91
  -5   4   6    1.65    0.97
  -4   4   6    6.14    1.26
  -3   4   6   -0.40    0.44
  -2   4   6   18.69    1.67
  -1   4   6    5.58    0.92
   0   4   6    3.83    0.80
   1   4   6    2.69    0.70
   2   4   6   18.57    1.64
   3   4   6   -0.22    0.43
   4   4   6    5.01    0.97
   5   4   6    0.51    0.95
  -5   5   6   -0.36    0.82
  -4   5   6    0.51    0.76
  -3   5   6    0.74    0.72
  -2   5   6   17.74    1.91
  -1   5   6    3.50    0.79
   0   5   6    0.70    0.51
   1   5   6    4.02    0.87
   2   5   6   18.69    1.68
   3   5   6    0.85    0.56
   4   5   6    0.50    0.61
   5   5   6    0.75    0.82
  -3   6   6   38.76    3.45
  -2   6   6   16.30    2.41
  -1   6   6   -0.12    0.60
   0   6   6    9.70    1.56
   1   6   6    0.20    0.54
   2   6   6   13.17    1.67
   3   6   6   40.84    3.59
   0   7   6   -0.80    0.94
   0   0   0    0.00    0.00
;
_shelx_hkl_checksum              13544
loop_
_space_group_symop_operation_xyz
'x, y, z'
'-x, -y, z'
'-x+1/2, y+1/2, -z'
'x+1/2, -y+1/2, -z'
'-x, -y, -z'
'x, y, -z'
'x-1/2, -y-1/2, z'
'-x-1/2, y-1/2, z'
loop_
_atom_site_label
_atom_site_type_symbol
_atom_site_fract_x
_atom_site_fract_y
_atom_site_fract_z
_atom_site_U_iso_or_equiv
_atom_site_adp_type
_atom_site_occupancy
_atom_site_site_symmetry_order
_atom_site_calc_flag
_atom_site_refinement_flags_posn
_atom_site_refinement_flags_adp
_atom_site_refinement_flags_occupancy
Ba Ba 0.0000 0.5000 0.5000 0.01872(13) Uani 1 4 d S T P
La La 0.11764(3) 0.14234(3) 0.5000 0.01258(10) Uani 1 2 d S T P
In In 0.28359(4) 0.37792(4) 0.0000 0.01523(11) Uani 1 2 d S T P
Se1 Se 0.35742(6) 0.28372(5) 0.5000 0.01423(14) Uani 1 2 d S T P
Se2 Se 0.07792(5) 0.30564(5) 0.0000 0.01326(14) Uani 1 2 d S T P
Se3 Se 0.28859(5) 0.06481(5) 0.0000 0.01331(14) Uani 1 2 d S T P
Se4 Se 0.0000 0.0000 0.0000 0.01340(18) Uani 1 4 d S T P
loop_
_atom_site_aniso_label
_atom_site_aniso_U_11
_atom_site_aniso_U_22
_atom_site_aniso_U_33
_atom_site_aniso_U_23
_atom_site_aniso_U_13
_atom_site_aniso_U_12
Ba 0.0189(3) 0.0250(3) 0.0122(2) 0.000 0.000 0.0054(2)
La 0.01459(18) 0.01343(18) 0.00972(15) 0.000 0.000 0.00041(13)
In 0.0185(2) 0.0149(2) 0.0123(2) 0.000 0.000 0.00283(17)
Se1 0.0158(3) 0.0159(3) 0.0110(3) 0.000 0.000 0.0027(2)
Se2 0.0143(3) 0.0123(3) 0.0132(3) 0.000 0.000 0.0002(2)
Se3 0.0127(3) 0.0123(3) 0.0149(3) 0.000 0.000 0.0004(2)
Se4 0.0137(4) 0.0133(4) 0.0132(4) 0.000 0.000 -0.0024(3)
loop_
_atom_type_symbol
_atom_type_description
_atom_type_scat_dispersion_real
_atom_type_scat_dispersion_imag
_atom_type_scat_source
Se Se -0.0929 2.2259 'International Tables Vol C Tables 4.2.6.8 and 6.1.1.4'
In In -0.7276 1.3100 'International Tables Vol C Tables 4.2.6.8 and 6.1.1.4'
Ba Ba -0.3244 2.2819 'International Tables Vol C Tables 4.2.6.8 and 6.1.1.4'
La La -0.2871 2.4523 'International Tables Vol C Tables 4.2.6.8 and 6.1.1.4'
loop_
_geom_angle_atom_site_label_1
_geom_angle_atom_site_label_2
_geom_angle_atom_site_label_3
_geom_angle
_geom_angle_site_symmetry_1
_geom_angle_site_symmetry_3
Se2 Ba Se2 75.981(14) 5_566 5_565
Se2 Ba Se2 104.019(14) 5_566 1_556
Se2 Ba Se2 180.0 5_565 1_556
Se2 Ba Se2 180.0 5_566 .
Se2 Ba Se2 104.020(14) 5_565 .
Se2 Ba Se2 75.980(14) 1_556 .
Se2 Ba Se3 110.469(14) 5_566 7_565
Se2 Ba Se3 66.090(15) 5_565 7_565
Se2 Ba Se3 113.910(15) 1_556 7_565
Se2 Ba Se3 69.531(14) . 7_565
Se2 Ba Se3 69.531(14) 5_566 3_556
Se2 Ba Se3 113.910(15) 5_565 3_556
Se2 Ba Se3 66.089(15) 1_556 3_556
Se2 Ba Se3 110.469(14) . 3_556
Se3 Ba Se3 180.00(2) 7_565 3_556
Se2 Ba Se3 66.090(15) 5_566 7_566
Se2 Ba Se3 110.469(14) 5_565 7_566
Se2 Ba Se3 69.531(14) 1_556 7_566
Se2 Ba Se3 113.910(15) . 7_566
Se3 Ba Se3 75.657(14) 7_565 7_566
Se3 Ba Se3 104.343(14) 3_556 7_566
Se2 Ba Se3 113.910(15) 5_566 3
Se2 Ba Se3 69.531(14) 5_565 3
Se2 Ba Se3 110.469(14) 1_556 3
Se2 Ba Se3 66.090(15) . 3
Se3 Ba Se3 104.343(14) 7_565 3
Se3 Ba Se3 75.657(14) 3_556 3
Se3 Ba Se3 180.0 7_566 3
Se2 Ba Ba 52.010(7) 5_566 1_556
Se2 Ba Ba 127.990(7) 5_565 1_556
Se2 Ba Ba 52.010(7) 1_556 1_556
Se2 Ba Ba 127.990(7) . 1_556
Se3 Ba Ba 127.829(7) 7_565 1_556
Se3 Ba Ba 52.171(7) 3_556 1_556
Se3 Ba Ba 52.171(7) 7_566 1_556
Se3 Ba Ba 127.829(7) 3 1_556
Se2 Ba Ba 127.990(7) 5_566 1_554
Se2 Ba Ba 52.010(7) 5_565 1_554
Se2 Ba Ba 127.990(7) 1_556 1_554
Se2 Ba Ba 52.010(7) . 1_554
Se3 Ba Ba 52.171(7) 7_565 1_554
Se3 Ba Ba 127.829(7) 3_556 1_554
Se3 Ba Ba 127.829(7) 7_566 1_554
Se3 Ba Ba 52.171(7) 3 1_554
Ba Ba Ba 180.0 1_556 1_554
Se2 La Se2 88.15(2) . 1_556
Se2 La Se3 82.171(15) . .
Se2 La Se3 143.12(2) 1_556 .
Se2 La Se3 143.12(2) . 1_556
Se2 La Se3 82.171(15) 1_556 1_556
Se3 La Se3 84.581(19) . 1_556
Se2 La Se4 82.697(12) . .
Se2 La Se4 143.480(18) 1_556 .
Se3 La Se4 70.403(12) . .
Se3 La Se4 124.399(17) 1_556 .
Se2 La Se4 143.480(18) . 1_556
Se2 La Se4 82.698(12) 1_556 1_556
Se3 La Se4 124.399(17) . 1_556
Se3 La Se4 70.404(12) 1_556 1_556
Se4 La Se4 83.982(10) . 1_556
Se2 La Se1 69.149(16) . 7_565
Se2 La Se1 69.150(16) 1_556 7_565
Se3 La Se1 136.949(10) . 7_565
Se3 La Se1 136.950(10) 1_556 7_565
Se4 La Se1 74.559(11) . 7_565
Se4 La Se1 74.559(11) 1_556 7_565
Se2 La Se1 76.300(16) . .
Se2 La Se1 76.300(16) 1_556 .
Se3 La Se1 66.845(16) . .
Se3 La Se1 66.845(16) 1_556 .
Se4 La Se1 134.279(8) . .
Se4 La Se1 134.279(8) 1_556 .
Se1 La Se1 131.052(13) 7_565 .
Se2 La La 134.077(10) . 1_556
Se2 La La 45.924(10) 1_556 1_556
Se3 La La 132.291(9) . 1_556
Se3 La La 47.710(9) 1_556 1_556
Se4 La La 131.991(5) . 1_556
Se4 La La 48.009(5) 1_556 1_556
Se1 La La 90.0 7_565 1_556
Se1 La La 90.0 . 1_556
Se2 La La 45.923(10) . 1_554
Se2 La La 134.076(10) 1_556 1_554
Se3 La La 47.709(9) . 1_554
Se3 La La 132.290(9) 1_556 1_554
Se4 La La 48.009(5) . 1_554
Se4 La La 131.991(5) 1_556 1_554
Se1 La La 90.0 7_565 1_554
Se1 La La 90.0 . 1_554
La La La 180.0 1_556 1_554
Se3 In Se1 124.129(16) 3 1_554
Se3 In Se1 124.129(16) 3 .
Se1 In Se1 108.41(3) 1_554 .
Se3 In Se2 90.57(3) 3 .
Se1 In Se2 99.19(2) 1_554 .
Se1 In Se2 99.19(2) . .
Se3 In Se4 78.95(2) 3 3
Se1 In Se4 86.863(19) 1_554 3
Se1 In Se4 86.863(19) . 3
Se2 In Se4 169.52(2) . 3
In Se1 In 108.41(3) 1_556 .
In Se1 La 101.28(2) 1_556 7_665
In Se1 La 101.27(2) . 7_665
In Se1 La 87.52(2) 1_556 .
In Se1 La 87.52(2) . .
La Se1 La 164.71(2) 7_665 .
In Se2 La 95.48(2) . 1_554
In Se2 La 95.48(2) . .
La Se2 La 88.15(2) 1_554 .
In Se2 Ba 90.098(18) . .
La Se2 Ba 171.56(2) 1_554 .
La Se2 Ba 97.633(7) . .
In Se2 Ba 90.098(18) . 1_554
La Se2 Ba 97.633(7) 1_554 1_554
La Se2 Ba 171.56(2) . 1_554
Ba Se2 Ba 75.980(14) . 1_554
In Se3 La 94.31(2) 3_545 1_554
In Se3 La 94.31(2) 3_545 .
La Se3 La 84.581(19) 1_554 .
In Se3 Ba 91.472(19) 3_545 3_546
La Se3 Ba 172.62(2) 1_554 3_546
La Se3 Ba 99.575(6) . 3_546
In Se3 Ba 91.472(19) 3_545 3_545
La Se3 Ba 99.575(6) 1_554 3_545
La Se3 Ba 172.62(2) . 3_545
Ba Se3 Ba 75.657(14) 3_546 3_545
In Se4 In 180.000(18) 7_565 3_545
In Se4 La 95.073(10) 7_565 .
In Se4 La 84.927(10) 3_545 .
In Se4 La 84.927(10) 7_565 5
In Se4 La 95.073(10) 3_545 5
La Se4 La 180.0 . 5
In Se4 La 84.927(10) 7_565 5_556
In Se4 La 95.073(10) 3_545 5_556
La Se4 La 96.018(10) . 5_556
La Se4 La 83.982(10) 5 5_556
In Se4 La 95.073(10) 7_565 1_554
In Se4 La 84.927(10) 3_545 1_554
La Se4 La 83.982(10) . 1_554
La Se4 La 96.018(10) 5 1_554
La Se4 La 180.000(17) 5_556 1_554
loop_
_geom_bond_atom_site_label_1
_geom_bond_atom_site_label_2
_geom_bond_distance
_geom_bond_site_symmetry_2
Ba Se2 3.4089(5) 5_566
Ba Se2 3.4089(5) 5_565
Ba Se2 3.4089(5) 1_556
Ba Se2 3.4090(5) .
Ba Se3 3.4213(5) 7_565
Ba Se3 3.4213(5) 3_556
Ba Se3 3.4213(5) 7_566
Ba Se3 3.4213(5) 3
Ba Ba 4.1966(2) 1_556
Ba Ba 4.1966(2) 1_554
La Se2 3.0164(6) .
La Se2 3.0165(6) 1_556
La Se3 3.1183(6) .
La Se3 3.1184(6) 1_556
La Se4 3.1364(3) .
La Se4 3.1364(3) 1_556
La Se1 3.3036(8) 7_565
La Se1 3.4402(8) .
La La 4.1966(2) 1_556
La La 4.1966(2) 1_554
In Se3 2.5720(8) 3
In Se1 2.5870(5) 1_554
In Se1 2.5870(5) .
In Se2 2.6684(8) .
In Se4 3.0675(5) 3
Se1 In 2.5870(5) 1_556
Se1 La 3.3036(8) 7_665
Se2 La 3.0164(6) 1_554
Se2 Ba 3.4090(5) 1_554
Se3 In 2.5720(8) 3_545
Se3 La 3.1183(6) 1_554
Se3 Ba 3.4213(5) 3_546
Se3 Ba 3.4213(5) 3_545
Se4 In 3.0675(5) 7_565
Se4 In 3.0675(5) 3_545
Se4 La 3.1364(3) 5
Se4 La 3.1364(3) 5_556
Se4 La 3.1364(3) 1_554
