#------------------------------------------------------------------------------
#$Date: 2016-08-07 12:09:56 +0300 (Sun, 07 Aug 2016) $
#$Revision: 185456 $
#$URL: file:///home/coder/svn-repositories/cod/cif/7/03/98/7039849.cif $
#------------------------------------------------------------------------------
#
# This file is available in the Crystallography Open Database (COD),
# http://www.crystallography.net/
#
# All data on this site have been placed in the public domain by the
# contributors.
#
data_7039849
loop_
_publ_author_name
'Yin, Wenlong'
'Iyer, Abishek K.'
'Lin, Xinsong'
'Li, Chao'
'Yao, Jiyong'
'Mar, Arthur'
_publ_section_title
;
 Quaternary chalcogenides BaRE2In2Ch7 (RE = La-Nd; Ch = S, Se) containing
 InCh5 trigonal bipyramids.
;
_journal_issue                   31
_journal_name_full
'Dalton transactions (Cambridge, England : 2003)'
_journal_page_first              12329
_journal_page_last               12337
_journal_paper_doi               10.1039/c6dt02385a
_journal_volume                  45
_journal_year                    2016
_chemical_formula_structural     'Ba Nd2 In2 Se7'
_chemical_formula_sum            'Ba In2 Nd2 Se7'
_chemical_formula_weight         1208.18
_chemical_name_common            'barium neodymium indium selenide (1/2/2/7)'
_chemical_name_systematic        'barium neodymium indium selenide (1/2/2/7)'
_space_group_crystal_system      orthorhombic
_space_group_IT_number           55
_space_group_name_Hall           '-P 2 2ab'
_space_group_name_H-M_alt        'P b a m'
_symmetry_space_group_name_Hall  '-P 2 2ab'
_symmetry_space_group_name_H-M   'P b a m'
_audit_creation_method           SHELXL-2014/7
_cell_angle_alpha                90
_cell_angle_beta                 90
_cell_angle_gamma                90
_cell_formula_units_Z            2
_cell_length_a                   12.1358(10)
_cell_length_b                   12.8510(11)
_cell_length_c                   4.1363(4)
_cell_measurement_reflns_used    1331
_cell_measurement_temperature    296(2)
_cell_measurement_theta_max      31.03
_cell_measurement_theta_min      3.71
_cell_volume                     645.09(10)
_computing_cell_refinement       'Bruker SAINT 8.34A (Bruker, 2013)'
_computing_data_collection       'Bruker APEX 2 (Bruker, 2008)'
_computing_data_reduction        'Bruker SAINT 8.34A'
_computing_molecular_graphics    'ATOMS 5.1 (Dowty, 1999)'
_computing_publication_material  'SHELXL-2014/7 (Sheldrick, 2014)'
_computing_structure_refinement  'SHELXL-2014/7 (Sheldrick, 2014)'
_computing_structure_solution    'SHELXS-97 (Sheldrick, 2008)'
_diffrn_ambient_temperature      296(2)
_diffrn_measured_fraction_theta_full 1.000
_diffrn_measured_fraction_theta_max 0.999
_diffrn_measurement_device_type  'Bruker PLATFORM/SMART APEX II CCD'
_diffrn_measurement_method       '\w and \f scans'
_diffrn_radiation_type           MoK\a
_diffrn_radiation_wavelength     0.71073
_diffrn_reflns_av_R_equivalents  0.0886
_diffrn_reflns_av_unetI/netI     0.0543
_diffrn_reflns_Laue_measured_fraction_full 1.000
_diffrn_reflns_Laue_measured_fraction_max 0.999
_diffrn_reflns_limit_h_max       18
_diffrn_reflns_limit_h_min       -18
_diffrn_reflns_limit_k_max       19
_diffrn_reflns_limit_k_min       -19
_diffrn_reflns_limit_l_max       6
_diffrn_reflns_limit_l_min       -6
_diffrn_reflns_number            9005
_diffrn_reflns_point_group_measured_fraction_full 1.000
_diffrn_reflns_point_group_measured_fraction_max 0.999
_diffrn_reflns_theta_full        25.242
_diffrn_reflns_theta_max         33.243
_diffrn_reflns_theta_min         2.308
_diffrn_source                   'fine-focus sealed tube'
_exptl_absorpt_coefficient_mu    34.129
_exptl_absorpt_correction_T_max  0.551
_exptl_absorpt_correction_T_min  0.283
_exptl_absorpt_correction_type   numerical
_exptl_absorpt_process_details   'SHELXL-2014/7 (Sheldrick, 2014)'
_exptl_crystal_colour            black
_exptl_crystal_density_diffrn    6.220
_exptl_crystal_description       prism
_exptl_crystal_F_000             1024
_exptl_crystal_size_max          0.055
_exptl_crystal_size_mid          0.033
_exptl_crystal_size_min          0.028
_refine_diff_density_max         2.972
_refine_diff_density_min         -2.433
_refine_diff_density_rms         0.498
_refine_ls_extinction_method     none
_refine_ls_goodness_of_fit_ref   1.119
_refine_ls_hydrogen_treatment    undef
_refine_ls_matrix_type           full
_refine_ls_number_parameters     39
_refine_ls_number_reflns         1391
_refine_ls_number_restraints     0
_refine_ls_restrained_S_all      1.119
_refine_ls_R_factor_all          0.0604
_refine_ls_R_factor_gt           0.0386
_refine_ls_shift/su_max          0.000
_refine_ls_shift/su_mean         0.000
_refine_ls_structure_factor_coef Fsqd
_refine_ls_weighting_details
'w=1/[\s^2^(Fo^2^)+(0.0242P)^2^+4.2259P] where P=(Fo^2^+2Fc^2^)/3'
_refine_ls_weighting_scheme      calc
_refine_ls_wR_factor_gt          0.0767
_refine_ls_wR_factor_ref         0.0854
_reflns_Friedel_coverage         0.000
_reflns_number_gt                1062
_reflns_number_total             1391
_reflns_threshold_expression     'I > 2\s(I)'
_cod_data_source_file            c6dt02385a6.cif
_cod_data_source_block           pbam
_cod_depositor_comments
'Adding full bibliography for 7039846--7039853.cif.'
_cod_database_code               7039849
_shelx_shelxl_version_number     2014/7
_shelx_space_group_comment
;
The symmetry employed for this shelxl refinement is uniquely defined
by the following loop, which should always be used as a source of
symmetry information in preference to the above space-group names.
They are only intended as comments.
;
_shelx_estimated_absorpt_t_min   0.255
_shelx_estimated_absorpt_t_max   0.448
_shelx_res_file
;

    pbam.res created by SHELXL-2014/7

TITL BaNd2In2Se7 Pbam lsf final refinement
CELL 0.71073  12.13580  12.85100   4.13630  90.0000  90.0000  90.0000
ZERR    2.00   0.00100   0.00110   0.00040   0.0000   0.0000   0.0000
LATT  1
SYMM -X, -Y, Z
SYMM 0.5-X, 0.5+Y, -Z
SYMM 0.5+X, 0.5-Y, -Z
SFAC SE IN BA ND
UNIT 14 4 2 4
TEMP 23
SIZE 0.028 0.033 0.055

L.S. 4
ACTA

WGHT    0.024200    4.225900
FVAR       0.04544
BA    3    0.000000    0.500000    0.500000    10.25000    0.02255    0.03075 =
         0.01454    0.00000    0.00000    0.00738
ND    4    0.116589    0.141208    0.500000    10.50000    0.01905    0.01755 =
         0.01177    0.00000    0.00000    0.00137
IN    2    0.286150    0.376445    0.000000    10.50000    0.01985    0.01763 =
         0.01403    0.00000    0.00000    0.00273
SE1   1    0.361800    0.281094    0.500000    10.50000    0.02232    0.01900 =
         0.01274    0.00000    0.00000    0.00456
SE2   1    0.080851    0.302884    0.000000    10.50000    0.01542    0.01558 =
         0.01561    0.00000    0.00000   -0.00015
SE3   1    0.285351    0.064938    0.000000    10.50000    0.01549    0.01525 =
         0.01769    0.00000    0.00000   -0.00039
SE4   1    0.000000    0.000000    0.000000    10.25000    0.01573    0.01746 =
         0.01614    0.00000    0.00000   -0.00150
HKLF 4

REM  BaNd2In2Se7 Pbam lsf final refinement
REM R1 =  0.0386 for    1062 Fo > 4sig(Fo)  and  0.0604 for all    1391 data
REM     39 parameters refined using      0 restraints

END

WGHT      0.0241      4.2451

REM Highest difference peak  2.972,  deepest hole -2.433,  1-sigma level  0.498
Q1    1   0.3423  0.2368  0.0000  10.50000  0.05    2.97
Q2    1   0.2604  0.2063  0.5000  10.50000  0.05    2.46
Q3    1   0.3989  0.0053  0.0000  10.50000  0.05    2.27
Q4    1   0.0378  0.6009  0.5000  10.50000  0.05    2.25
Q5    1   0.0018  0.2070  0.5000  10.50000  0.05    2.21
Q6    1   0.0755  0.4083  0.0000  10.50000  0.05    2.21
Q7    1   0.1862  0.0624  0.0000  10.50000  0.05    2.11
Q8    1   0.0111  0.0473  0.5000  10.50000  0.05    1.98
Q9    1   0.3551  0.4240  0.5000  10.50000  0.05    1.98
Q10   1   0.0365  0.3220 -0.5000  10.50000  0.05    1.97
Q11   1   0.2584  0.3655  0.5000  10.50000  0.05    1.96
Q12   1   0.1329  0.2231  0.5000  10.50000  0.05    1.89
Q13   1  -0.0601  0.0586  0.0000  10.50000  0.05    1.87
Q14   1   0.0046  0.3727  0.0000  10.50000  0.05    1.86
Q15   1   0.2172  0.1331  0.0000  10.50000  0.05    1.85
Q16   1   0.3226  0.4873  0.0000  10.50000  0.05    1.80
Q17   1   0.1187  0.2966  0.5000  10.50000  0.05    1.76
Q18   1   0.3034  0.1432  0.5000  10.50000  0.05    1.66
Q19   1   0.2561  0.0497  0.5000  10.50000  0.05    1.62
Q20   1   0.1738  0.2953  0.0000  10.50000  0.05    1.60
;
_shelx_res_checksum              52207
_shelx_hkl_file
;
  -2  -6  -6    8.13    2.44
  -4  -5  -6    1.74    1.86
  -3  -5  -6    0.04    1.51
  -2  -5  -6   10.42    2.90
  -1  -5  -6    3.99    1.80
   0  -5  -6   -0.05    1.36
   1  -5  -6    2.67    1.82
   4  -5  -6   -0.77    1.39
  -5  -4  -6    1.88    2.03
  -4  -4  -6    0.53    1.69
  -3  -4  -6   -0.24    1.12
  -2  -4  -6   10.83    2.85
  -1  -4  -6    0.37    1.44
   0  -4  -6    3.88    1.77
   1  -4  -6   -0.05    1.41
   2  -4  -6    7.69    2.43
   3  -4  -6   -0.55    0.90
   4  -4  -6    1.82    0.96
   5  -4  -6    0.52    1.02
  -5  -3  -6    0.47    1.51
  -4  -3  -6   -0.69    1.14
  -3  -3  -6    4.85    2.15
  -2  -3  -6    0.25    1.35
  -1  -3  -6    6.09    2.09
   0  -3  -6   -0.79    1.18
   1  -3  -6    6.31    1.38
   2  -3  -6    1.17    0.94
   3  -3  -6    3.82    1.28
   4  -3  -6    1.26    1.06
   5  -3  -6    1.02    1.04
  -5  -2  -6    2.04    1.79
  -4  -2  -6   21.72    3.85
  -3  -2  -6    2.22    1.72
  -2  -2  -6    0.05    1.21
  -1  -2  -6    0.17    0.80
   0  -2  -6    0.40    0.79
   1  -2  -6   -0.17    0.79
   2  -2  -6    0.39    0.80
   3  -2  -6    4.12    1.28
   4  -2  -6   16.31    2.30
   5  -2  -6    2.88    1.16
   6  -2  -6    0.85    1.44
  -5  -1  -6    2.22    1.85
  -4  -1  -6   10.83    2.78
  -3  -1  -6    3.59    1.90
  -2  -1  -6    1.03    0.89
  -1  -1  -6    0.65    0.90
   0  -1  -6   -0.10    0.80
   1  -1  -6   -0.10    0.85
   2  -1  -6    0.05    0.79
   3  -1  -6    5.18    1.36
   4  -1  -6   11.83    1.87
   5  -1  -6    0.07    0.89
   6  -1  -6    7.35    2.40
  -5   0  -6    0.98    1.86
  -4   0  -6    0.49    1.35
  -3   0  -6   -0.09    0.82
  -2   0  -6   -0.28    0.73
  -1   0  -6    0.02    0.79
   0   0  -6  118.28    7.78
   1   0  -6    0.80    0.89
   2   0  -6   -0.83    0.68
   3   0  -6   -0.06    0.83
   4   0  -6    1.46    0.73
   5   0  -6   -0.35    0.84
   6   0  -6   -1.32    1.22
  -5   1  -6    2.29    1.43
  -4   1  -6   13.40    2.15
  -3   1  -6    2.50    1.04
  -2   1  -6    1.60    0.90
  -1   1  -6   -0.13    0.76
   0   1  -6    0.49    0.88
   1   1  -6   -0.05    0.73
   2   1  -6    0.15    0.83
   3   1  -6    3.76    1.26
   4   1  -6   11.12    1.47
   5   1  -6    0.71    1.00
   6   1  -6    2.84    1.82
  -6   2  -6    2.38    1.68
  -5   2  -6   -0.13    1.11
  -4   2  -6   13.06    2.16
  -3   2  -6    2.73    1.13
  -2   2  -6    0.24    0.70
  -1   2  -6    0.48    0.75
   0   2  -6   -0.72    0.78
   1   2  -6   -0.83    0.73
   2   2  -6    0.42    0.84
   3   2  -6    2.97    1.10
   4   2  -6   18.30    1.94
   5   2  -6    4.18    1.75
  -5   3  -6   -0.44    1.27
  -4   3  -6    0.00    1.06
  -3   3  -6    7.16    1.61
  -2   3  -6    0.14    0.78
  -1   3  -6    2.10    1.03
   0   3  -6   -0.20    0.81
   1   3  -6    3.07    1.11
   2   3  -6   -0.06    0.83
   3   3  -6    4.17    1.03
   4   3  -6    0.29    1.02
   5   3  -6   -0.08    1.18
  -4   4  -6    3.02    1.53
  -3   4  -6    0.95    1.20
  -2   4  -6    6.04    1.38
  -1   4  -6    2.31    0.99
   0   4  -6    4.49    1.29
   1   4  -6    1.36    1.00
   2   4  -6    8.78    1.61
   3   4  -6   -0.89    0.73
   4   4  -6    4.23    1.73
  -2   5  -6    7.41    2.47
  -1   5  -6    3.44    1.20
   0   5  -6   -0.38    0.84
   1   5  -6    1.16    1.14
   3   5  -6    1.78    1.61
   4   5  -6   -0.35    1.31
   2   6  -6    6.19    2.08
  -2 -12  -5    0.78    1.23
  -1 -12  -5   -0.97    1.09
   0 -12  -5   -0.44    1.45
   1 -12  -5   -1.10    1.34
   2 -12  -5    1.79    1.63
  -4 -11  -5   -0.42    1.31
  -3 -11  -5    0.09    1.23
  -2 -11  -5    3.38    1.67
  -1 -11  -5    9.79    2.47
   0 -11  -5    1.05    1.41
   1 -11  -5   10.35    2.73
   2 -11  -5    2.01    1.70
   3 -11  -5   -0.50    1.78
   4 -11  -5    0.78    1.76
   5 -11  -5    1.52    1.63
  -5 -10  -5    0.26    1.30
  -4 -10  -5    5.51    2.05
  -3 -10  -5    2.88    1.63
  -2 -10  -5    0.54    1.19
  -1 -10  -5   13.04    2.86
   4 -10  -5   12.40    2.99
   5 -10  -5    4.05    2.19
   6 -10  -5    2.82    1.24
  -6  -9  -5    2.19    1.68
  -5  -9  -5   15.01    3.20
  -4  -9  -5    1.65    1.42
  -3  -9  -5    1.08    1.26
  -2  -9  -5   17.09    3.32
  -1  -9  -5    1.37    1.15
   0  -9  -5    0.36    0.90
   4  -9  -5    3.40    2.64
   5  -9  -5   16.12    2.31
   6  -9  -5    2.92    1.25
   7  -9  -5    0.23    1.09
  -7  -8  -5    4.27    1.85
  -6  -8  -5    0.59    1.36
  -5  -8  -5    7.41    2.27
  -4  -8  -5    4.89    1.94
  -3  -8  -5    3.78    1.69
  -2  -8  -5    1.13    1.03
  -1  -8  -5    6.42    1.92
   0  -8  -5    7.46    2.01
   4  -8  -5    5.72    2.37
   5  -8  -5    4.62    1.25
   6  -8  -5    0.29    1.00
   7  -8  -5    1.48    1.02
   8  -8  -5    0.75    1.14
  -8  -7  -5    4.12    1.94
  -7  -7  -5    1.31    1.36
  -6  -7  -5    1.31    1.43
  -5  -7  -5   28.46    4.47
  -4  -7  -5   -0.51    0.85
  -3  -7  -5    0.27    0.98
  -2  -7  -5   -0.15    0.90
  -1  -7  -5    3.47    1.47
   0  -7  -5   -0.25    0.75
   4  -7  -5    0.74    0.82
   5  -7  -5   28.87    2.46
   6  -7  -5    1.73    1.02
   7  -7  -5    2.24    1.03
   8  -7  -5    2.51    1.11
   9  -7  -5    0.41    1.25
 -10  -6  -5   -1.26    1.69
  -9  -6  -5    2.52    1.12
  -8  -6  -5    0.97    1.04
  -7  -6  -5    3.68    1.27
  -6  -6  -5   -0.46    0.73
  -5  -6  -5    4.85    1.34
  -4  -6  -5   -0.32    0.67
  -3  -6  -5    1.95    0.81
  -2  -6  -5    0.37    0.76
  -1  -6  -5   25.44    2.77
   0  -6  -5    4.34    1.06
   1  -6  -5   32.40    3.15
   2  -6  -5   -0.44    0.87
   3  -6  -5    0.48    0.62
   4  -6  -5    0.40    0.63
   5  -6  -5    4.78    0.92
   6  -6  -5    0.01    0.80
   7  -6  -5    3.93    1.19
   8  -6  -5    2.67    1.20
   9  -6  -5    0.52    0.96
 -10  -5  -5    6.69    2.90
  -9  -5  -5    2.53    1.11
  -8  -5  -5    0.80    1.42
  -7  -5  -5   13.85    3.06
  -6  -5  -5    0.95    1.37
  -5  -5  -5    1.76    1.48
  -4  -5  -5   -0.44    0.90
  -3  -5  -5    6.90    2.18
  -2  -5  -5   18.31    3.22
  -1  -5  -5    0.19    1.03
   0  -5  -5    0.29    0.99
   1  -5  -5   -0.21    0.53
   2  -5  -5   13.52    1.86
   3  -5  -5   10.38    1.28
   4  -5  -5    0.38    0.63
   5  -5  -5    3.13    0.96
   6  -5  -5   11.28    1.39
   7  -5  -5    9.20    1.61
   8  -5  -5    0.21    0.75
   9  -5  -5    3.44    1.21
  10  -5  -5    5.83    2.37
 -10  -4  -5   -0.42    1.41
  -9  -4  -5    3.00    1.84
  -8  -4  -5    0.94    1.46
  -7  -4  -5    2.10    1.55
  -6  -4  -5    1.38    1.23
  -5  -4  -5    2.46    1.53
  -4  -4  -5   23.80    3.69
  -3  -4  -5    0.10    1.03
  -2  -4  -5    3.32    1.51
  -1  -4  -5    4.41    1.10
   0  -4  -5    0.81    0.68
   1  -4  -5    3.26    0.90
   2  -4  -5    5.50    1.18
   3  -4  -5    0.88    0.53
   4  -4  -5   18.46    2.13
   5  -4  -5    2.73    0.87
   6  -4  -5    2.96    0.81
   7  -4  -5    0.71    0.78
   8  -4  -5    2.25    0.95
   9  -4  -5    6.21    1.40
  10  -4  -5    0.95    0.95
 -10  -3  -5    7.19    2.62
  -9  -3  -5    6.68    2.28
  -8  -3  -5   12.11    2.88
  -7  -3  -5   26.50    4.37
  -6  -3  -5    1.49    1.26
  -5  -3  -5   12.72    2.83
  -4  -3  -5    2.94    1.45
  -3  -3  -5    2.11    1.25
  -2  -3  -5   29.34    2.75
  -1  -3  -5   37.32    3.38
   0  -3  -5    0.21    0.59
   1  -3  -5   39.03    3.39
   2  -3  -5   29.08    2.24
   3  -3  -5    0.52    0.55
   4  -3  -5    2.88    0.88
   5  -3  -5   13.72    1.82
   6  -3  -5    0.52    0.67
   7  -3  -5   17.60    1.92
   8  -3  -5    7.56    1.46
   9  -3  -5    4.51    1.35
  10  -3  -5    7.29    1.59
  11  -3  -5    0.61    1.63
 -10  -2  -5    0.86    1.62
  -9  -2  -5    0.58    1.51
  -8  -2  -5    1.36    1.71
  -7  -2  -5   11.92    2.81
  -6  -2  -5    0.49    1.22
  -5  -2  -5   -0.62    0.82
  -4  -2  -5    1.13    0.81
  -3  -2  -5    5.69    1.20
  -2  -2  -5    7.42    1.21
  -1  -2  -5   15.35    1.90
   0  -2  -5    2.46    0.86
   1  -2  -5   14.82    1.85
   2  -2  -5    7.60    1.06
   3  -2  -5    5.50    1.11
   4  -2  -5    1.43    0.67
   5  -2  -5    0.29    0.62
   6  -2  -5    0.07    0.59
   7  -2  -5    5.14    1.02
   8  -2  -5    1.71    0.71
   9  -2  -5    1.87    0.94
  10  -2  -5   -0.35    0.79
  11  -2  -5    9.30    2.90
 -10  -1  -5   14.94    3.36
  -9  -1  -5   -0.03    1.46
  -8  -1  -5    4.05    2.04
  -7  -1  -5   -0.04    1.23
  -6  -1  -5   -0.55    0.94
  -5  -1  -5   23.49    2.54
  -4  -1  -5    1.61    0.80
  -3  -1  -5   13.67    1.82
  -2  -1  -5    0.72    0.62
  -1  -1  -5    0.28    0.52
   0  -1  -5   -0.10    0.50
   1  -1  -5   -0.24    0.41
   2  -1  -5    0.02    0.46
   3  -1  -5   11.93    1.71
   4  -1  -5    5.82    1.19
   5  -1  -5   23.42    2.49
   6  -1  -5    0.53    0.69
   7  -1  -5    0.90    0.73
   8  -1  -5    6.84    1.16
   9  -1  -5   -0.05    0.60
  10  -1  -5    7.43    1.65
  11  -1  -5    0.85    1.59
 -10   0  -5    2.25    1.84
  -9   0  -5    0.60    1.40
  -8   0  -5   46.20    5.94
  -7   0  -5   -0.89    0.87
  -6   0  -5    7.51    1.45
  -5   0  -5    0.41    0.62
  -4   0  -5   45.99    3.72
  -3   0  -5    0.02    0.49
  -2   0  -5   12.28    1.73
  -1   0  -5   -0.49    0.44
   0   0  -5   -0.20    0.46
   1   0  -5   -0.33    0.40
   2   0  -5   10.32    1.55
   3   0  -5    0.79    0.62
   4   0  -5   43.53    3.61
   5   0  -5   -0.02    0.56
   6   0  -5    6.19    1.29
   7   0  -5   -1.25    0.51
   8   0  -5   33.60    2.69
   9   0  -5    0.26    0.63
  10   0  -5    1.90    0.86
  11   0  -5   -0.78    1.34
 -10   1  -5    8.07    2.53
  -9   1  -5    1.37    1.47
  -8   1  -5    5.66    1.45
  -7   1  -5    1.56    0.90
  -6   1  -5    1.51    0.81
  -5   1  -5   27.27    2.75
  -4   1  -5    2.75    0.86
  -3   1  -5   15.25    1.93
  -2   1  -5   -0.16    0.50
  -1   1  -5   -0.25    0.51
   0   1  -5    0.44    0.56
   1   1  -5    0.04    0.42
   2   1  -5    0.79    0.62
   3   1  -5   11.86    1.68
   4   1  -5    5.21    1.11
   5   1  -5   23.27    2.50
   6   1  -5   -0.35    0.55
   7   1  -5    0.14    0.63
   8   1  -5    7.54    1.48
   9   1  -5    0.39    0.59
  10   1  -5   12.12    1.59
  11   1  -5    8.23    2.42
 -10   2  -5    3.66    1.88
  -9   2  -5   -0.87    0.78
  -8   2  -5    1.23    0.89
  -7   2  -5    8.65    1.63
  -6   2  -5    0.34    0.73
  -5   2  -5    0.05    0.57
  -4   2  -5    0.99    0.69
  -3   2  -5    7.93    1.33
  -2   2  -5    4.99    1.08
  -1   2  -5   15.15    1.92
   0   2  -5    1.36    0.59
   1   2  -5   14.13    1.48
   2   2  -5    5.76    1.13
   3   2  -5    5.01    1.14
   4   2  -5    2.55    0.84
   5   2  -5    0.81    0.67
   6   2  -5    0.77    0.74
   7   2  -5    8.33    1.48
   8   2  -5    1.82    0.81
   9   2  -5    2.84    0.92
  10   2  -5    0.62    0.74
  11   2  -5    5.63    2.27
 -10   3  -5    8.59    2.48
  -9   3  -5    2.79    1.28
  -8   3  -5    5.55    1.39
  -7   3  -5   21.81    2.72
  -6   3  -5    0.49    0.69
  -5   3  -5    9.85    1.63
  -4   3  -5    2.10    0.88
  -3   3  -5    0.36    0.59
  -2   3  -5   28.26    2.98
  -1   3  -5   37.71    3.46
   0   3  -5    0.42    0.47
   1   3  -5   39.79    2.85
   2   3  -5   29.90    2.87
   3   3  -5   -0.27    0.51
   4   3  -5    3.04    0.90
   5   3  -5   16.32    2.08
   6   3  -5   -0.02    0.57
   7   3  -5   21.49    2.54
   8   3  -5    8.47    1.51
   9   3  -5    3.79    1.18
  10   3  -5    6.80    1.30
  11   3  -5    8.64    2.54
 -10   4  -5    0.18    1.33
  -9   4  -5    3.73    1.34
  -8   4  -5    1.66    1.03
  -7   4  -5    2.58    1.03
  -6   4  -5    3.85    1.20
  -5   4  -5    2.14    0.88
  -4   4  -5   15.84    2.12
  -3   4  -5    1.58    0.75
  -2   4  -5    5.23    1.12
  -1   4  -5    4.83    1.06
   0   4  -5    0.23    0.45
   1   4  -5    4.13    0.82
   2   4  -5    5.61    1.16
   3   4  -5    0.75    0.61
   4   4  -5   13.50    1.87
   5   4  -5    3.17    0.87
   6   4  -5    4.01    1.19
   7   4  -5    2.70    0.93
   8   4  -5    0.86    0.76
   9   4  -5    5.15    1.36
  10   4  -5   -1.16    0.68
  11   4  -5   -0.15    1.45
  -9   5  -5    1.14    1.02
  -8   5  -5    0.43    0.74
  -7   5  -5    9.95    1.85
  -6   5  -5    9.42    1.70
  -5   5  -5    4.48    1.22
  -4   5  -5    0.05    0.62
  -3   5  -5   11.81    1.72
  -2   5  -5   18.65    2.20
  -1   5  -5    0.19    0.43
   0   5  -5    0.19    0.48
   1   5  -5   -0.19    0.48
   2   5  -5   15.74    2.03
   3   5  -5    9.59    1.51
   4   5  -5   -0.25    0.53
   5   5  -5    3.22    1.07
   6   5  -5    8.72    1.48
   7   5  -5    9.39    1.51
   8   5  -5    0.45    0.72
   9   5  -5    3.10    1.18
  10   5  -5    9.66    2.66
  -9   6  -5    1.41    1.02
  -8   6  -5    1.35    0.98
  -7   6  -5    4.03    1.22
  -6   6  -5   -0.75    0.61
  -5   6  -5    2.10    0.87
  -4   6  -5    0.57    0.65
  -3   6  -5   -0.14    0.63
  -2   6  -5    0.09    0.55
  -1   6  -5   31.28    2.38
   0   6  -5    4.84    0.82
   1   6  -5   25.92    2.22
   2   6  -5    1.34    0.61
   3   6  -5    0.42    0.61
   4   6  -5    0.04    0.65
   5   6  -5    5.46    1.24
   6   6  -5    0.36    0.68
   7   6  -5    2.04    0.98
   8   6  -5    1.58    0.82
   9   6  -5    2.30    0.96
  -9   7  -5    0.88    1.27
  -8   7  -5    2.60    1.20
  -7   7  -5    1.15    0.96
  -6   7  -5    1.32    0.84
  -5   7  -5   26.57    2.93
  -4   7  -5   -0.64    0.61
  -3   7  -5    1.26    0.80
  -2   7  -5    1.24    0.73
  -1   7  -5    3.50    0.83
   0   7  -5   -0.41    0.45
   1   7  -5    4.06    0.84
   2   7  -5    1.34    0.66
   3   7  -5    0.20    0.63
   4   7  -5   -0.60    0.59
   5   7  -5   28.20    2.92
   6   7  -5   -0.54    0.66
   7   7  -5    0.93    0.86
   8   7  -5    3.23    1.11
   9   7  -5    1.38    1.38
  -8   8  -5    0.16    1.66
  -7   8  -5    2.33    1.04
  -6   8  -5    1.17    0.94
  -5   8  -5    5.12    1.17
  -4   8  -5    6.57    1.39
  -3   8  -5    2.77    1.03
  -2   8  -5    3.69    0.85
  -1   8  -5    3.70    0.88
   0   8  -5    7.27    1.15
   1   8  -5    3.47    0.86
   2   8  -5    3.31    0.87
   3   8  -5    3.02    1.08
   4   8  -5    6.82    1.38
   5   8  -5    3.98    1.12
   6   8  -5    1.00    0.80
   7   8  -5    2.35    0.99
   8   8  -5    1.51    1.30
  -7   9  -5    3.36    1.90
  -6   9  -5    3.93    1.29
  -5   9  -5   16.43    2.30
  -4   9  -5    0.68    0.75
  -3   9  -5    0.27    0.78
  -2   9  -5   19.56    2.00
  -1   9  -5    1.61    0.72
   0   9  -5   -0.68    0.54
   1   9  -5    1.51    0.69
   2   9  -5   19.90    2.00
   3   9  -5    0.23    0.58
   4   9  -5   -0.67    0.65
   5   9  -5   14.78    2.01
   6   9  -5    3.12    1.15
   7   9  -5    2.11    1.51
  -6  10  -5    1.93    1.72
  -5  10  -5    1.44    1.00
  -4  10  -5   11.51    1.79
  -3  10  -5    1.31    0.90
  -2  10  -5    1.13    0.74
  -1  10  -5   10.25    1.40
   0  10  -5    5.51    1.05
   1  10  -5    5.04    1.04
   2  10  -5   -0.13    0.64
   3  10  -5    2.53    0.90
   4  10  -5    8.67    1.49
   5  10  -5    0.50    0.88
   6  10  -5    4.14    1.84
  -4  11  -5    1.42    1.25
  -3  11  -5    0.02    0.75
  -2  11  -5    4.55    1.03
  -1  11  -5   10.97    1.48
   0  11  -5    0.99    0.72
   1  11  -5    9.06    1.40
   2  11  -5    3.97    0.95
   3  11  -5   -0.34    0.66
   4  11  -5    1.61    0.90
  -2  12  -5    1.67    1.57
  -1  12  -5    1.51    1.40
   0  12  -5   -0.27    1.17
  -2 -15  -4    0.59    1.50
  -1 -15  -4   -0.34    1.46
  -4 -14  -4    4.32    2.03
  -3 -14  -4   -0.35    1.47
  -2 -14  -4    0.31    1.34
  -1 -14  -4    1.29    1.39
   0 -14  -4   30.74    3.34
   1 -14  -4    2.57    1.54
   2 -14  -4   -1.51    1.07
   3 -14  -4   -0.56    1.11
   4 -14  -4    2.16    1.78
   5 -14  -4    0.54    1.55
  -6 -13  -4    5.88    2.21
  -5 -13  -4   14.60    3.51
  -4 -13  -4    7.05    2.37
  -3 -13  -4    1.02    1.34
  -2 -13  -4    1.08    1.17
  -1 -13  -4    2.79    1.56
   0 -13  -4    0.81    1.29
   1 -13  -4    4.17    1.80
   2 -13  -4    1.12    1.25
   3 -13  -4   -0.36    1.14
   4 -13  -4    6.42    2.51
   5 -13  -4   22.39    2.87
   6 -13  -4    7.84    1.70
   7 -13  -4    4.62    1.59
  -8 -12  -4   -0.61    1.34
  -7 -12  -4    2.77    1.54
  -6 -12  -4    3.52    1.84
  -5 -12  -4   -0.99    0.80
  -4 -12  -4    4.27    1.80
  -3 -12  -4    4.01    1.68
  -2 -12  -4   12.36    2.67
  -1 -12  -4    9.88    2.36
   0 -12  -4    9.94    2.49
   1 -12  -4    7.99    1.44
   2 -12  -4   14.61    2.95
   3 -12  -4    1.08    1.25
   4 -12  -4    4.56    2.10
   5 -12  -4    0.03    0.84
   6 -12  -4    6.78    1.68
   7 -12  -4    5.35    1.52
   8 -12  -4    1.68    1.12
  -9 -11  -4   11.31    2.79
  -8 -11  -4    0.99    1.19
  -7 -11  -4    0.17    1.10
  -6 -11  -4    1.49    1.29
  -5 -11  -4    6.86    2.04
  -4 -11  -4    1.13    1.03
  -3 -11  -4   11.26    2.41
  -2 -11  -4    2.14    1.16
  -1 -11  -4   19.36    3.28
   0 -11  -4    0.24    0.88
   1 -11  -4   16.35    2.15
   2 -11  -4    0.51    0.83
   3 -11  -4   11.48    2.57
   4 -11  -4    4.29    1.85
   5 -11  -4    5.07    1.37
   6 -11  -4    1.38    0.95
   7 -11  -4   -0.12    0.77
   8 -11  -4   -0.41    0.89
   9 -11  -4    4.81    1.57
  10 -11  -4    9.96    3.12
 -10 -10  -4   -2.22    1.24
  -9 -10  -4    2.52    1.82
  -8 -10  -4    0.28    1.19
  -7 -10  -4    2.28    1.65
  -6 -10  -4    3.85    1.56
  -5 -10  -4   -0.46    0.86
  -4 -10  -4    9.46    2.29
  -3 -10  -4   17.75    3.03
  -2 -10  -4    5.41    1.82
  -1 -10  -4   12.14    2.56
   0 -10  -4    0.67    0.76
   1 -10  -4   12.88    1.77
   2 -10  -4    9.84    2.34
   3 -10  -4   11.08    2.59
   4 -10  -4    6.88    1.56
   5 -10  -4    0.49    0.74
   6 -10  -4    3.15    1.18
   7 -10  -4    1.46    0.96
   8 -10  -4    1.21    1.05
   9 -10  -4    0.37    0.84
  10 -10  -4   -0.40    0.82
  11 -10  -4    1.24    1.61
 -11  -9  -4    6.66    2.28
 -10  -9  -4    4.92    1.95
  -9  -9  -4    4.84    1.90
  -8  -9  -4    1.71    1.27
  -7  -9  -4    3.84    1.55
  -6  -9  -4   17.49    3.27
  -5  -9  -4    7.32    2.04
  -4  -9  -4    0.00    0.89
  -3  -9  -4   14.06    2.71
  -2  -9  -4    4.14    1.34
  -1  -9  -4   -0.19    0.60
   0  -9  -4    0.37    0.69
   1  -9  -4    0.24    0.71
   2  -9  -4    3.30    1.10
   3  -9  -4   13.38    2.72
   4  -9  -4   -0.02    0.67
   5  -9  -4    3.86    1.28
   6  -9  -4   19.55    2.51
   7  -9  -4    4.53    1.28
   8  -9  -4    0.19    0.85
   9  -9  -4    2.70    1.11
  10  -9  -4    9.58    1.84
  11  -9  -4    6.35    1.77
 -11  -8  -4    0.48    1.39
 -10  -8  -4    5.63    2.10
  -9  -8  -4    3.00    1.71
  -8  -8  -4   25.05    3.93
  -7  -8  -4    3.14    1.52
  -6  -8  -4    6.37    2.02
  -5  -8  -4    3.19    1.43
  -4  -8  -4    1.74    1.08
  -3  -8  -4   15.32    2.80
  -2  -8  -4    0.59    0.79
  -1  -8  -4   10.81    2.37
   0  -8  -4   10.15    2.32
   1  -8  -4   14.27    2.47
   2  -8  -4    0.41    0.56
   3  -8  -4   17.23    2.14
   4  -8  -4    0.00    0.65
   5  -8  -4    3.29    1.09
   6  -8  -4    6.02    1.40
   7  -8  -4    6.03    1.31
   8  -8  -4   16.10    2.31
   9  -8  -4    0.95    0.95
  10  -8  -4    3.66    1.24
  11  -8  -4    1.30    0.80
  12  -8  -4    2.52    1.77
 -13  -7  -4    0.54    1.83
 -12  -7  -4    1.88    1.23
 -11  -7  -4    0.63    0.95
 -10  -7  -4   -0.50    0.74
  -9  -7  -4   25.22    2.84
  -8  -7  -4    3.66    1.14
  -7  -7  -4   25.55    2.80
  -6  -7  -4    2.55    0.97
  -5  -7  -4    0.68    0.60
  -4  -7  -4    0.23    0.56
  -3  -7  -4   10.08    1.52
  -2  -7  -4    2.88    0.87
  -1  -7  -4   11.62    1.54
   0  -7  -4    0.97    0.56
   1  -7  -4    7.16    1.31
   2  -7  -4    2.54    0.55
   3  -7  -4   13.58    1.86
   4  -7  -4    1.27    0.66
   5  -7  -4    0.60    0.71
   6  -7  -4    2.38    0.90
   7  -7  -4   21.28    2.67
   8  -7  -4    2.20    1.06
   9  -7  -4   21.58    2.15
  10  -7  -4    0.00    0.65
  11  -7  -4   -0.02    0.63
  12  -7  -4    0.57    0.73
 -13  -6  -4    2.12    1.20
 -12  -6  -4    3.50    1.37
 -11  -6  -4    0.81    0.97
 -10  -6  -4    6.18    1.41
  -9  -6  -4    2.63    1.02
  -8  -6  -4    9.93    1.77
  -7  -6  -4   14.36    2.02
  -6  -6  -4    0.29    0.59
  -5  -6  -4   15.84    1.98
  -4  -6  -4   -0.13    0.73
  -3  -6  -4   90.28    7.58
  -2  -6  -4   29.37    3.73
  -1  -6  -4    0.04    0.49
   0  -6  -4   13.71    1.26
   1  -6  -4    0.01    0.27
   2  -6  -4   26.39    1.41
   3  -6  -4   82.53    4.35
   4  -6  -4    0.19    0.43
   5  -6  -4   14.52    1.57
   6  -6  -4    0.79    0.53
   7  -6  -4   13.87    1.53
   8  -6  -4   11.36    1.42
   9  -6  -4    2.38    0.80
  10  -6  -4    4.12    0.98
  11  -6  -4    0.86    0.76
  12  -6  -4    2.92    1.13
 -13  -5  -4    0.07    0.94
 -12  -5  -4    1.43    1.10
 -11  -5  -4    2.08    1.06
 -10  -5  -4   10.33    1.87
  -9  -5  -4    3.23    1.68
  -8  -5  -4   -0.21    0.89
  -7  -5  -4    7.57    2.07
  -6  -5  -4   15.65    3.12
  -5  -5  -4   -0.61    0.72
  -4  -5  -4   -0.20    0.74
  -3  -5  -4    0.94    0.83
  -2  -5  -4   28.70    3.88
  -1  -5  -4    6.72    1.08
   0  -5  -4   -0.28    0.26
   1  -5  -4    7.26    0.71
   2  -5  -4   29.43    1.85
   3  -5  -4    0.74    0.40
   4  -5  -4    1.07    0.49
   5  -5  -4    0.21    0.41
   6  -5  -4   21.78    1.89
   7  -5  -4   10.39    1.34
   8  -5  -4    0.29    0.52
   9  -5  -4    0.96    0.84
  10  -5  -4    8.30    1.52
  11  -5  -4    3.89    1.15
  12  -5  -4    2.55    1.09
  13  -5  -4   -0.22    0.95
 -14  -4  -4    3.88    2.09
 -13  -4  -4    3.08    1.24
 -12  -4  -4   25.14    3.00
 -11  -4  -4    1.28    1.34
 -10  -4  -4    1.26    1.51
  -9  -4  -4   -0.14    0.93
  -8  -4  -4   -0.24    0.90
  -7  -4  -4   -1.17    0.80
  -6  -4  -4   22.90    3.54
  -5  -4  -4    2.40    1.24
  -4  -4  -4   10.40    2.07
  -3  -4  -4   -0.02    0.41
  -2  -4  -4   35.43    2.80
  -1  -4  -4    9.18    1.27
   0  -4  -4    4.04    0.64
   1  -4  -4   10.61    0.87
   2  -4  -4   32.36    1.96
   3  -4  -4   -0.48    0.32
   4  -4  -4    7.79    1.02
   5  -4  -4    2.33    0.68
   6  -4  -4   21.86    2.40
   7  -4  -4   -0.45    0.50
   8  -4  -4   -0.19    0.51
   9  -4  -4    1.07    0.81
  10  -4  -4    2.42    1.04
  11  -4  -4    0.09    0.70
  12  -4  -4   29.41    3.25
  13  -4  -4   -0.32    0.90
 -14  -3  -4    0.77    1.62
 -13  -3  -4    8.41    2.63
 -12  -3  -4    0.88    1.47
 -11  -3  -4    8.24    2.52
 -10  -3  -4   -0.53    1.13
  -9  -3  -4   39.64    5.23
  -8  -3  -4   23.63    3.75
  -7  -3  -4    5.23    1.71
  -6  -3  -4   51.04    6.17
  -5  -3  -4    2.58    1.21
  -4  -3  -4    3.73    0.78
  -3  -3  -4   22.70    2.17
  -2  -3  -4    0.31    0.43
  -1  -3  -4   13.92    1.59
   0  -3  -4   -0.01    0.27
   1  -3  -4   11.96    1.00
   2  -3  -4    0.87    0.42
   3  -3  -4   19.86    1.67
   4  -3  -4    5.06    0.99
   5  -3  -4   -0.40    0.46
   6  -3  -4   54.47    3.92
   7  -3  -4    2.90    0.91
   8  -3  -4   20.87    2.34
   9  -3  -4   25.93    2.98
  10  -3  -4   -0.61    0.56
  11  -3  -4    7.92    1.57
  12  -3  -4    0.08    0.77
  13  -3  -4    3.11    1.16
 -13  -2  -4    1.73    1.65
 -12  -2  -4    2.04    1.60
 -11  -2  -4    8.01    2.30
 -10  -2  -4   13.07    2.88
  -9  -2  -4    2.54    1.37
  -8  -2  -4    0.08    0.94
  -7  -2  -4    6.04    1.83
  -6  -2  -4    8.96    1.38
  -5  -2  -4    8.61    1.25
  -4  -2  -4   63.21    4.16
  -3  -2  -4    7.90    1.17
  -2  -2  -4    0.66    0.49
  -1  -2  -4   -0.05    0.29
   0  -2  -4    0.04    0.32
   1  -2  -4   -0.36    0.38
   2  -2  -4    0.15    0.32
   3  -2  -4    7.90    0.94
   4  -2  -4   63.60    4.24
   5  -2  -4    6.12    1.15
   6  -2  -4   13.44    1.73
   7  -2  -4    7.78    1.36
   8  -2  -4    0.41    0.57
   9  -2  -4    4.33    1.11
  10  -2  -4   10.22    1.72
  11  -2  -4    4.38    1.28
  12  -2  -4    0.44    0.78
  13  -2  -4    1.76    1.00
 -13  -1  -4    4.73    2.15
 -12  -1  -4    6.97    2.45
 -11  -1  -4    0.11    1.32
 -10  -1  -4    3.19    1.56
  -9  -1  -4    0.03    1.01
  -8  -1  -4    0.59    1.06
  -7  -1  -4    0.84    0.61
  -6  -1  -4   16.01    1.84
  -5  -1  -4    6.62    1.11
  -4  -1  -4   43.03    3.03
  -3  -1  -4   11.61    1.45
  -2  -1  -4    1.92    0.60
  -1  -1  -4    1.88    0.47
   0  -1  -4    0.23    0.35
   1  -1  -4    1.38    0.51
   2  -1  -4    3.13    0.57
   3  -1  -4   12.21    1.22
   4  -1  -4   38.05    2.53
   5  -1  -4    8.07    1.25
   6  -1  -4   14.02    1.73
   7  -1  -4    0.92    0.66
   8  -1  -4    1.06    0.66
   9  -1  -4    3.56    0.98
  10  -1  -4    5.96    1.31
  11  -1  -4    2.85    1.05
  12  -1  -4    9.55    1.77
  13  -1  -4    6.84    1.54
  14  -1  -4    0.10    1.23
 -14   0  -4   15.50    5.19
 -13   0  -4    0.07    1.35
 -12   0  -4    3.90    1.91
 -11   0  -4   -0.26    0.97
 -10   0  -4   33.64    4.82
  -9   0  -4    0.10    0.61
  -8   0  -4   32.10    3.13
  -7   0  -4    0.02    0.46
  -6   0  -4    0.01    0.51
  -5   0  -4   -0.07    0.44
  -4   0  -4    0.83    0.52
  -3   0  -4   -0.17    0.36
  -2   0  -4    0.56    0.37
  -1   0  -4    0.02    0.30
   0   0  -4  410.05   17.91
   1   0  -4   -0.10    0.36
   2   0  -4   -0.11    0.38
   3   0  -4   -0.11    0.30
   4   0  -4    1.75    0.48
   5   0  -4    0.51    0.40
   6   0  -4    0.15    0.46
   7   0  -4    0.82    0.59
   8   0  -4   35.96    3.27
   9   0  -4   -0.89    0.47
  10   0  -4   29.19    3.12
  11   0  -4    0.16    0.62
  12   0  -4    6.98    1.48
  13   0  -4    1.15    1.03
  14   0  -4   18.84    2.80
 -13   1  -4    3.78    1.89
 -12   1  -4    5.20    2.09
 -11   1  -4    1.43    1.25
 -10   1  -4    5.94    2.01
  -9   1  -4    1.16    0.82
  -8   1  -4    1.74    0.74
  -7   1  -4    1.28    0.64
  -6   1  -4   11.53    1.53
  -5   1  -4    5.72    1.08
  -4   1  -4   37.50    3.13
  -3   1  -4   12.72    1.54
  -2   1  -4    2.61    0.55
  -1   1  -4    0.79    0.41
   0   1  -4    0.11    0.31
   1   1  -4    1.18    0.48
   2   1  -4    1.96    0.66
   3   1  -4   11.46    1.18
   4   1  -4   39.42    2.45
   5   1  -4    5.56    0.85
   6   1  -4   14.14    1.42
   7   1  -4    1.09    0.64
   8   1  -4    1.57    0.73
   9   1  -4    2.06    0.88
  10   1  -4    4.35    1.09
  11   1  -4    1.16    0.82
  12   1  -4    8.67    1.64
  13   1  -4    3.62    1.21
  14   1  -4    1.53    1.04
 -13   2  -4    2.42    1.48
 -12   2  -4    1.29    1.41
 -11   2  -4    6.76    2.16
 -10   2  -4   11.30    2.66
  -9   2  -4    4.04    1.03
  -8   2  -4    1.33    0.70
  -7   2  -4    6.83    1.30
  -6   2  -4    6.64    1.31
  -5   2  -4    6.61    1.18
  -4   2  -4   59.57    4.18
  -3   2  -4   10.02    1.38
  -2   2  -4    0.49    0.38
  -1   2  -4    0.09    0.33
   0   2  -4    0.07    0.32
   1   2  -4    0.14    0.40
   2   2  -4   -0.10    0.38
   3   2  -4   10.33    1.20
   4   2  -4   64.36    3.41
   5   2  -4    6.87    0.97
   6   2  -4   10.28    1.20
   7   2  -4    5.39    0.93
   8   2  -4    0.79    0.67
   9   2  -4    4.03    1.11
  10   2  -4    9.01    1.67
  11   2  -4    7.47    1.56
  12   2  -4    2.12    1.07
  13   2  -4    0.43    0.97
  14   2  -4   -0.33    1.27
 -13   3  -4    4.99    1.99
 -12   3  -4    1.65    1.51
 -11   3  -4   10.17    2.63
 -10   3  -4   -1.11    1.00
  -9   3  -4   28.25    3.15
  -8   3  -4   19.87    2.42
  -7   3  -4    2.21    0.84
  -6   3  -4   54.80    4.05
  -5   3  -4    0.51    0.55
  -4   3  -4    0.91    0.59
  -3   3  -4   22.74    1.76
  -2   3  -4    1.47    0.46
  -1   3  -4   12.86    1.28
   0   3  -4    0.13    0.32
   1   3  -4   11.57    1.47
   2   3  -4    0.16    0.43
   3   3  -4   22.55    2.19
   4   3  -4    3.37    0.67
   5   3  -4    0.73    0.41
   6   3  -4   56.04    3.15
   7   3  -4    5.12    0.85
   8   3  -4   20.34    1.87
   9   3  -4   37.16    2.74
  10   3  -4    0.10    0.66
  11   3  -4   10.77    1.79
  12   3  -4    0.81    0.91
  13   3  -4    4.56    1.37
 -13   4  -4    2.65    1.75
 -12   4  -4   22.90    4.27
 -11   4  -4   -0.93    0.95
 -10   4  -4    1.50    1.35
  -9   4  -4    4.50    1.12
  -8   4  -4    1.15    0.69
  -7   4  -4    0.08    0.56
  -6   4  -4   21.57    2.36
  -5   4  -4    1.86    0.72
  -4   4  -4    6.75    1.20
  -3   4  -4    0.16    0.38
  -2   4  -4   31.82    2.28
  -1   4  -4   11.11    1.20
   0   4  -4    5.73    0.83
   1   4  -4    7.89    1.19
   2   4  -4   37.21    2.89
   3   4  -4   -0.23    0.38
   4   4  -4    9.22    1.08
   5   4  -4    2.82    0.64
   6   4  -4   25.05    1.94
   7   4  -4    0.45    0.45
   8   4  -4   -0.20    0.47
   9   4  -4    0.87    0.59
  10   4  -4    2.08    0.72
  11   4  -4    0.28    0.60
  12   4  -4   27.96    2.46
  13   4  -4    0.05    0.67
  14   4  -4    2.64    2.32
 -13   5  -4    0.54    1.60
 -12   5  -4    2.08    1.81
 -11   5  -4    0.90    1.47
 -10   5  -4    4.46    1.86
  -9   5  -4    5.72    1.34
  -8   5  -4    0.51    0.61
  -7   5  -4    6.95    1.37
  -6   5  -4   20.33    2.28
  -5   5  -4   -0.58    0.44
  -4   5  -4    1.06    0.59
  -3   5  -4    0.26    0.39
  -2   5  -4   31.17    2.20
  -1   5  -4    4.26    0.77
   0   5  -4   -0.24    0.33
   1   5  -4    6.32    1.08
   2   5  -4   27.76    2.61
   3   5  -4    0.66    0.45
   4   5  -4   -0.17    0.43
   5   5  -4    0.18    0.39
   6   5  -4   19.12    1.78
   7   5  -4    9.74    1.19
   8   5  -4    0.30    0.49
   9   5  -4    2.91    0.76
  10   5  -4    9.08    1.29
  11   5  -4    4.77    1.06
  12   5  -4    0.43    0.65
  13   5  -4    0.85    0.80
 -13   6  -4    1.68    1.92
 -12   6  -4    1.18    1.46
 -11   6  -4   -0.85    1.13
 -10   6  -4    6.38    2.03
  -9   6  -4    1.90    0.93
  -8   6  -4   10.11    1.72
  -7   6  -4   13.12    1.85
  -6   6  -4    1.14    0.67
  -5   6  -4   13.41    1.86
  -4   6  -4   -0.21    0.37
  -3   6  -4   82.83    4.30
  -2   6  -4   29.81    2.15
  -1   6  -4    0.09    0.36
   0   6  -4   12.95    1.34
   1   6  -4    0.68    0.48
   2   6  -4   20.14    2.25
   3   6  -4   76.48    5.18
   4   6  -4   -0.41    0.40
   5   6  -4   17.42    1.62
   6   6  -4    0.96    0.50
   7   6  -4   14.60    1.47
   8   6  -4    9.30    1.24
   9   6  -4    2.79    0.76
  10   6  -4    7.06    1.12
  11   6  -4    1.12    0.71
  12   6  -4    4.67    1.07
  13   6  -4    0.44    0.87
 -12   7  -4   -0.09    1.54
 -11   7  -4    1.41    1.40
 -10   7  -4    0.61    1.19
  -9   7  -4   16.21    3.29
  -8   7  -4    1.43    0.87
  -7   7  -4   29.98    2.89
  -6   7  -4    1.23    0.74
  -5   7  -4    1.11    0.59
  -4   7  -4    0.02    0.41
  -3   7  -4   11.46    1.33
  -2   7  -4    4.15    0.78
  -1   7  -4    9.72    1.18
   0   7  -4   -0.10    0.37
   1   7  -4    9.49    1.39
   2   7  -4    4.04    0.90
   3   7  -4   13.39    1.70
   4   7  -4    0.30    0.52
   5   7  -4    1.80    0.74
   6   7  -4    1.90    0.63
   7   7  -4   27.00    2.18
   8   7  -4    1.20    0.64
   9   7  -4   21.23    2.00
  10   7  -4   -0.02    0.54
  11   7  -4    0.76    0.61
  12   7  -4    0.51    0.72
  13   7  -4    1.49    1.29
 -12   8  -4   -0.32    1.40
 -11   8  -4    0.65    1.44
 -10   8  -4    6.62    2.26
  -9   8  -4    1.23    1.31
  -8   8  -4   17.66    2.36
  -7   8  -4    3.95    1.10
  -6   8  -4    4.45    1.09
  -5   8  -4    5.16    0.99
  -4   8  -4    1.46    0.57
  -3   8  -4   18.38    1.66
  -2   8  -4    1.88    0.60
  -1   8  -4   14.44    1.45
   0   8  -4   19.41    1.68
   1   8  -4   14.70    1.46
   2   8  -4    0.50    0.53
   3   8  -4   18.33    1.98
   4   8  -4    1.06    0.68
   5   8  -4    7.92    1.29
   6   8  -4    5.78    1.18
   7   8  -4    4.73    0.85
   8   8  -4   21.25    1.98
   9   8  -4    2.36    0.80
  10   8  -4    7.08    1.19
  11   8  -4    2.37    0.81
  12   8  -4    1.35    1.37
 -11   9  -4    8.13    2.65
 -10   9  -4    7.90    2.42
  -9   9  -4    1.47    1.36
  -8   9  -4   -0.23    0.64
  -7   9  -4    2.26    0.94
  -6   9  -4   17.81    2.20
  -5   9  -4    7.72    1.12
  -4   9  -4   -0.23    0.44
  -3   9  -4   12.96    1.44
  -2   9  -4    2.99    0.71
  -1   9  -4    0.01    0.45
   0   9  -4   -0.67    0.39
   1   9  -4    0.90    0.53
   2   9  -4    3.12    0.82
   3   9  -4   11.57    1.64
   4   9  -4    1.08    0.61
   5   9  -4    7.28    1.31
   6   9  -4   15.52    1.95
   7   9  -4    2.22    0.69
   8   9  -4    0.82    0.60
   9   9  -4    2.53    0.81
  10   9  -4    9.68    1.31
  11   9  -4    4.47    1.45
 -10  10  -4   -0.83    1.31
  -9  10  -4    1.13    1.32
  -8  10  -4   -0.70    1.01
  -7  10  -4    1.83    0.93
  -6  10  -4   -0.05    0.64
  -5  10  -4    0.37    0.56
  -4  10  -4    6.51    1.05
  -3  10  -4   16.19    1.68
  -2  10  -4    9.13    1.17
  -1  10  -4   12.41    1.38
   0  10  -4    0.49    0.51
   1  10  -4   11.61    1.30
   2  10  -4   12.52    1.63
   3  10  -4   13.11    1.79
   4  10  -4    5.61    1.18
   5  10  -4    0.38    0.60
   6  10  -4    2.10    0.85
   7  10  -4    0.81    0.74
   8  10  -4    0.44    0.62
   9  10  -4   -0.15    0.66
  10  10  -4    0.53    0.92
  11  10  -4   -1.42    1.50
  -7  11  -4    0.18    1.05
  -6  11  -4    1.28    1.24
  -5  11  -4    4.54    1.22
  -4  11  -4    1.48    0.64
  -3  11  -4   10.69    1.31
  -2  11  -4    0.98    0.55
  -1  11  -4   22.30    1.96
   0  11  -4   -0.09    0.49
   1  11  -4   17.94    1.78
   2  11  -4    0.13    0.53
   3  11  -4    6.83    1.34
   4  11  -4    2.21    0.89
   5  11  -4    4.36    1.13
   6  11  -4    1.11    0.80
   7  11  -4    0.18    0.73
   8  11  -4    2.71    1.60
   9  11  -4   11.36    1.85
  10  11  -4    5.32    2.16
  -6  12  -4   10.69    2.51
  -5  12  -4    0.60    0.87
  -4  12  -4    5.17    1.33
  -3  12  -4    2.40    0.94
  -2  12  -4    6.56    1.35
  -1  12  -4    9.74    1.60
   0  12  -4   13.65    1.84
   1  12  -4    9.06    1.55
   2  12  -4    7.02    1.33
   3  12  -4    1.91    0.91
   4  12  -4    5.46    1.19
   5  12  -4   -0.18    0.68
   6  12  -4    6.52    1.36
   7  12  -4    4.76    1.94
   8  12  -4    0.63    1.54
  -5  13  -4   20.20    2.63
  -4  13  -4    9.68    1.79
  -3  13  -4   -0.33    0.72
  -2  13  -4   -0.11    0.73
  -1  13  -4    1.95    0.87
   0  13  -4    1.06    0.79
   1  13  -4    3.03    1.06
   2  13  -4    1.36    0.78
   3  13  -4   -0.21    0.74
   4  13  -4    4.07    1.20
   5  13  -4   22.20    3.86
   6  13  -4    5.84    2.04
  -5  14  -4    0.53    1.04
  -4  14  -4    1.84    1.09
  -3  14  -4    0.53    0.95
  -2  14  -4   -0.94    0.80
  -1  14  -4    1.53    0.92
   0  14  -4   35.87    3.44
   1  14  -4    0.56    0.95
   2  14  -4    0.43    0.86
   3  14  -4    0.44    0.97
   4  14  -4    3.61    1.75
  -2  15  -4    1.65    1.45
  -1  15  -4   -0.72    1.24
   0  15  -4   -0.57    1.25
   1  15  -4   -1.05    1.17
  -2 -17  -3    4.52    2.10
  -1 -17  -3    8.35    2.63
   0 -17  -3    1.01    1.65
  -5 -16  -3    1.11    1.65
  -4 -16  -3    0.36    1.59
  -3 -16  -3    7.69    2.52
  -2 -16  -3   10.47    2.85
  -1 -16  -3    1.13    1.36
   0 -16  -3   23.06    2.89
   1 -16  -3    3.43    1.27
   2 -16  -3    4.21    1.97
   3 -16  -3   12.92    2.97
   4 -16  -3   -2.25    1.04
   5 -16  -3    0.18    1.19
  -7 -15  -3    4.18    2.14
  -6 -15  -3    5.77    2.31
  -5 -15  -3   14.03    3.16
  -4 -15  -3    4.78    2.03
  -3 -15  -3    1.17    1.54
  -2 -15  -3   -0.18    1.25
  -1 -15  -3   -0.05    1.07
   0 -15  -3   -0.01    1.07
   1 -15  -3    1.41    0.95
   2 -15  -3    0.30    0.91
   3 -15  -3    6.01    1.96
   4 -15  -3    3.70    1.85
   5 -15  -3   17.58    3.68
   6 -15  -3    5.83    2.08
   7 -15  -3    4.71    1.92
  -9 -14  -3    2.32    2.79
  -8 -14  -3    4.80    2.28
  -7 -14  -3    1.33    1.57
  -6 -14  -3    1.09    1.33
  -5 -14  -3   -1.28    0.98
  -4 -14  -3   20.01    3.69
  -3 -14  -3    1.06    1.36
  -2 -14  -3    1.29    1.25
  -1 -14  -3   11.51    2.64
   0 -14  -3    9.08    2.48
   1 -14  -3    5.05    1.32
   2 -14  -3    1.70    0.84
   3 -14  -3    1.26    1.24
   4 -14  -3   15.71    3.50
   5 -14  -3    1.25    1.27
   6 -14  -3    1.79    1.32
   7 -14  -3    1.50    1.42
   8 -14  -3    7.94    1.77
   9 -14  -3    2.83    1.95
 -10 -13  -3    4.39    2.32
  -9 -13  -3    1.53    1.62
  -8 -13  -3   11.11    2.75
  -7 -13  -3    1.15    1.26
  -6 -13  -3    2.19    1.61
  -5 -13  -3   -0.19    1.07
  -4 -13  -3    2.75    1.49
  -3 -13  -3   31.63    4.77
  -2 -13  -3    6.87    1.99
  -1 -13  -3    1.14    1.04
   0 -13  -3    0.09    0.91
   1 -13  -3    0.05    1.04
   2 -13  -3    3.83    1.06
   3 -13  -3   35.07    4.85
   4 -13  -3    1.32    1.13
   5 -13  -3   -0.36    0.89
   6 -13  -3   -0.24    1.01
   7 -13  -3    1.02    1.15
   8 -13  -3    8.01    1.70
   9 -13  -3    1.78    1.08
  10 -13  -3    9.99    1.99
 -11 -12  -3    0.83    1.71
 -10 -12  -3    3.29    1.78
  -9 -12  -3    2.96    1.71
  -8 -12  -3    5.82    2.07
  -7 -12  -3    4.39    1.80
  -6 -12  -3    0.51    1.01
  -5 -12  -3    5.00    1.69
  -4 -12  -3   10.59    2.52
  -3 -12  -3    3.22    1.49
  -2 -12  -3    1.17    1.02
  -1 -12  -3    1.46    1.17
   0 -12  -3    1.28    1.03
   1 -12  -3    1.94    1.07
   2 -12  -3    1.02    0.70
   3 -12  -3    3.54    1.44
   4 -12  -3   12.40    2.59
   5 -12  -3    5.56    1.87
   6 -12  -3    2.53    1.44
   7 -12  -3    4.09    1.37
   8 -12  -3    4.91    1.34
   9 -12  -3    1.20    0.88
  10 -12  -3    2.11    1.18
  11 -12  -3    0.96    1.02
 -12 -11  -3    1.32    1.60
 -11 -11  -3    0.11    1.47
 -10 -11  -3    1.17    1.36
  -9 -11  -3   12.03    2.76
  -8 -11  -3    0.41    0.91
  -7 -11  -3   28.77    4.75
  -6 -11  -3    3.20    1.43
  -5 -11  -3    1.57    1.16
  -4 -11  -3    4.33    1.53
  -3 -11  -3   -0.04    0.75
  -2 -11  -3   21.71    3.23
  -1 -11  -3   17.46    3.19
   0 -11  -3   -0.82    0.63
   1 -11  -3   27.10    3.83
   2 -11  -3   12.53    1.75
   3 -11  -3    0.27    0.53
   4 -11  -3    3.56    1.46
   5 -11  -3   -0.36    0.92
   6 -11  -3    0.82    1.01
   7 -11  -3   39.99    3.87
   8 -11  -3    1.02    0.94
   9 -11  -3   10.93    1.92
  10 -11  -3   -0.14    0.73
  11 -11  -3    0.36    0.92
  12 -11  -3    0.00    0.94
 -13 -10  -3    0.62    1.74
 -12 -10  -3    0.86    1.43
 -11 -10  -3   20.51    3.82
 -10 -10  -3    2.73    1.44
  -9 -10  -3    1.98    1.40
  -8 -10  -3    0.66    1.14
  -7 -10  -3    1.30    1.18
  -6 -10  -3    7.54    2.12
  -5 -10  -3    6.20    1.79
  -4 -10  -3   21.70    3.40
  -3 -10  -3    8.63    2.05
  -2 -10  -3    4.82    1.49
  -1 -10  -3   17.73    2.85
   0 -10  -3   10.91    2.14
   1 -10  -3   17.02    2.82
   2 -10  -3    3.23    0.88
   3 -10  -3    9.44    1.44
   4 -10  -3   25.90    3.82
   5 -10  -3    6.93    1.82
   6 -10  -3    9.46    2.31
   7 -10  -3    0.27    0.68
   8 -10  -3    0.24    0.69
   9 -10  -3    4.53    1.23
  10 -10  -3    1.24    0.91
  11 -10  -3   17.56    2.52
  12 -10  -3    0.88    0.97
  13 -10  -3    3.97    2.06
 -14  -9  -3    0.34    1.74
 -13  -9  -3    1.73    1.60
 -12  -9  -3    1.14    1.22
 -11  -9  -3    0.10    1.20
 -10  -9  -3    1.05    1.10
  -9  -9  -3   24.91    4.13
  -8  -9  -3    9.56    2.45
  -7  -9  -3    6.97    1.82
  -6  -9  -3    8.95    2.16
  -5  -9  -3   47.47    5.63
  -4  -9  -3    3.53    1.22
  -3  -9  -3    2.12    1.13
  -2  -9  -3   53.43    5.15
  -1  -9  -3    5.31    1.46
   0  -9  -3   -0.07    0.53
   1  -9  -3    5.83    1.45
   2  -9  -3   54.49    3.57
   3  -9  -3    3.06    0.80
   4  -9  -3    4.85    1.59
   5  -9  -3   45.31    5.59
   6  -9  -3    8.35    1.51
   7  -9  -3    4.85    1.31
   8  -9  -3   14.72    2.07
   9  -9  -3   26.07    3.03
  10  -9  -3    1.41    0.92
  11  -9  -3    2.02    0.98
  12  -9  -3    1.01    0.97
  13  -9  -3   -0.20    0.86
 -14  -8  -3    0.37    1.30
 -13  -8  -3    2.38    1.21
 -12  -8  -3    0.30    0.85
 -11  -8  -3    3.89    1.15
 -10  -8  -3    1.76    0.89
  -9  -8  -3   14.49    1.93
  -8  -8  -3    2.68    0.97
  -7  -8  -3    4.24    1.05
  -6  -8  -3    4.15    1.02
  -5  -8  -3   14.95    1.83
  -4  -8  -3   14.06    1.89
  -3  -8  -3    5.26    1.55
  -2  -8  -3    8.40    1.81
  -1  -8  -3   12.39    2.18
   0  -8  -3   26.43    3.39
   1  -8  -3   16.28    2.38
   2  -8  -3    7.75    1.20
   3  -8  -3    6.94    1.12
   4  -8  -3   12.53    2.40
   5  -8  -3   14.05    2.80
   6  -8  -3    3.80    1.00
   7  -8  -3    6.08    1.27
   8  -8  -3    3.17    0.98
   9  -8  -3   10.38    1.81
  10  -8  -3    2.04    0.99
  11  -8  -3    5.20    1.34
  12  -8  -3    1.23    0.98
  13  -8  -3    1.68    1.03
  14  -8  -3    1.35    1.05
 -15  -7  -3   10.41    3.10
 -14  -7  -3    0.37    0.99
 -13  -7  -3   33.22    3.56
 -12  -7  -3   -0.31    0.82
 -11  -7  -3    0.34    0.79
 -10  -7  -3    0.01    0.67
  -9  -7  -3    3.81    1.08
  -8  -7  -3    8.89    1.48
  -7  -7  -3    3.91    1.00
  -6  -7  -3    3.55    0.87
  -5  -7  -3   77.26    4.89
  -4  -7  -3    0.58    0.44
  -3  -7  -3    0.91    0.54
  -2  -7  -3    4.81    0.89
  -1  -7  -3   18.19    1.77
   0  -7  -3    0.50    0.37
   1  -7  -3   17.77    1.72
   2  -7  -3    4.54    0.88
   3  -7  -3    0.60    0.47
   4  -7  -3    0.50    0.65
   5  -7  -3   71.59    4.95
   6  -7  -3    2.70    0.87
   7  -7  -3    3.63    0.98
   8  -7  -3   10.58    1.59
   9  -7  -3    2.42    0.90
  10  -7  -3    0.37    0.74
  11  -7  -3   -0.59    0.60
  12  -7  -3   -0.12    0.74
  13  -7  -3   37.85    3.85
  14  -7  -3    1.28    0.98
  15  -7  -3    6.28    3.72
 -15  -6  -3    2.25    1.83
 -14  -6  -3   -0.30    0.86
 -13  -6  -3   22.13    2.79
 -12  -6  -3    3.45    1.11
 -11  -6  -3   42.49    3.74
 -10  -6  -3    3.98    1.13
  -9  -6  -3    6.37    1.20
  -8  -6  -3    4.55    1.06
  -7  -6  -3    9.69    1.47
  -6  -6  -3    0.15    0.45
  -5  -6  -3   10.19    1.42
  -4  -6  -3    0.50    0.45
  -3  -6  -3    4.63    0.90
  -2  -6  -3    1.24    0.38
  -1  -6  -3   85.42    4.13
   0  -6  -3   16.69    1.26
   1  -6  -3   84.76    5.11
   2  -6  -3    2.38    0.60
   3  -6  -3    4.71    0.84
   4  -6  -3    0.36    0.33
   5  -6  -3    9.40    1.41
   6  -6  -3   -0.12    0.54
   7  -6  -3    6.92    1.31
   8  -6  -3    5.41    1.16
   9  -6  -3    2.97    0.95
  10  -6  -3    8.10    1.50
  11  -6  -3   33.18    3.51
  12  -6  -3    5.27    1.32
  13  -6  -3   19.63    2.69
  14  -6  -3   -0.51    0.61
  15  -6  -3    0.46    0.86
 -15  -5  -3   -0.58    1.48
 -14  -5  -3    7.17    1.66
 -13  -5  -3    0.04    0.87
 -12  -5  -3    0.11    0.85
 -11  -5  -3    4.72    1.24
 -10  -5  -3   14.43    1.81
  -9  -5  -3    5.90    1.28
  -8  -5  -3    0.33    0.84
  -7  -5  -3   28.55    3.82
  -6  -5  -3   29.51    3.83
  -5  -5  -3   16.87    2.62
  -4  -5  -3   -0.40    0.48
  -3  -5  -3   34.90    2.43
  -2  -5  -3   47.17    2.34
  -1  -5  -3    0.59    0.31
   0  -5  -3   -0.59    0.23
   2  -5  -3   44.73    3.02
   3  -5  -3   34.20    2.17
   4  -5  -3   -0.23    0.26
   5  -5  -3   14.96    1.74
   6  -5  -3   24.24    2.57
   7  -5  -3   26.25    2.60
   8  -5  -3    0.02    0.49
   9  -5  -3    6.99    1.38
  10  -5  -3   11.41    1.87
  11  -5  -3    3.34    0.99
  12  -5  -3    0.75    0.59
  13  -5  -3   -0.52    0.55
  14  -5  -3    4.38    1.07
  15  -5  -3   -0.39    0.66
 -15  -4  -3    1.68    1.68
 -14  -4  -3   18.28    3.39
 -13  -4  -3    0.35    0.85
 -12  -4  -3   -0.36    0.65
 -11  -4  -3    2.45    0.96
 -10  -4  -3    0.25    0.87
  -9  -4  -3   14.25    2.79
  -8  -4  -3    5.78    1.63
  -7  -4  -3    7.33    1.78
  -6  -4  -3    8.33    1.91
  -5  -4  -3   10.52    1.24
  -4  -4  -3   42.53    2.75
  -3  -4  -3    0.05    0.30
  -2  -4  -3   21.02    1.33
  -1  -4  -3   18.23    1.26
   0  -4  -3    3.02    0.48
   2  -4  -3   17.63    1.83
   3  -4  -3    1.44    0.54
   4  -4  -3   42.28    2.40
   5  -4  -3   11.88    1.48
   6  -4  -3    7.74    1.23
   7  -4  -3    5.11    1.02
   8  -4  -3    2.93    0.85
   9  -4  -3   17.32    2.08
  10  -4  -3   -0.27    0.40
  11  -4  -3    0.52    0.50
  12  -4  -3    0.49    0.48
  13  -4  -3   -0.21    0.55
  14  -4  -3   19.58    2.09
  15  -4  -3    0.16    0.69
  16  -4  -3    5.62    2.07
 -15  -3  -3    5.35    2.15
 -14  -3  -3   -0.11    0.82
 -13  -3  -3   -0.07    0.79
 -12  -3  -3    1.11    1.34
 -11  -3  -3   11.80    2.77
 -10  -3  -3   16.15    3.36
  -9  -3  -3   11.86    2.56
  -8  -3  -3   28.04    3.91
  -7  -3  -3   63.71    5.88
  -6  -3  -3    1.85    0.61
  -5  -3  -3   44.51    2.75
  -4  -3  -3   11.62    1.22
  -3  -3  -3    5.01    0.63
  -2  -3  -3   90.99    4.18
  -1  -3  -3  113.48    5.23
   0  -3  -3    0.04    0.22
   1  -3  -3  111.24    5.24
   2  -3  -3   91.34    4.29
   3  -3  -3    4.95    0.68
   4  -3  -3   10.40    1.05
   5  -3  -3   39.69    2.28
   6  -3  -3    0.39    0.33
   7  -3  -3   62.67    3.27
   8  -3  -3   25.34    2.05
   9  -3  -3   12.12    1.39
  10  -3  -3   20.35    1.86
  11  -3  -3   13.41    1.50
  12  -3  -3    1.81    0.71
  13  -3  -3   -0.43    0.51
  14  -3  -3    0.54    0.62
  15  -3  -3    3.27    0.96
  16  -3  -3    1.14    0.97
 -15  -2  -3    2.50    1.78
 -14  -2  -3   -0.02    0.83
 -13  -2  -3   -0.44    1.04
 -12  -2  -3   21.69    3.84
 -11  -2  -3   10.05    2.63
 -10  -2  -3    0.05    0.92
  -9  -2  -3    3.38    1.40
  -8  -2  -3    5.89    1.06
  -7  -2  -3   20.43    2.05
  -6  -2  -3    3.36    0.68
  -5  -2  -3    0.05    0.33
  -4  -2  -3    4.72    0.80
  -3  -2  -3   18.86    1.21
  -2  -2  -3   23.23    1.46
  -1  -2  -3   41.19    1.80
   0  -2  -3    7.15    0.74
   1  -2  -3   41.62    2.11
   2  -2  -3   25.87    1.58
   3  -2  -3   17.85    1.37
   4  -2  -3    4.00    0.61
   5  -2  -3    0.26    0.33
   6  -2  -3    3.08    0.62
   7  -2  -3   18.76    1.65
   8  -2  -3    6.42    0.94
   9  -2  -3    1.42    0.53
  10  -2  -3    1.33    0.56
  11  -2  -3   13.86    1.43
  12  -2  -3   19.13    1.89
  13  -2  -3    0.13    0.51
  14  -2  -3    0.11    0.61
  15  -2  -3    0.62    0.65
  16  -2  -3   -0.59    0.82
 -15  -1  -3    3.27    1.96
 -14  -1  -3    2.31    1.84
 -13  -1  -3   10.98    2.74
 -12  -1  -3    3.60    1.78
 -11  -1  -3    7.79    2.15
 -10  -1  -3   25.85    4.11
  -9  -1  -3   -0.13    0.71
  -8  -1  -3   18.54    1.96
  -7  -1  -3    3.48    0.83
  -6  -1  -3    2.58    0.71
  -5  -1  -3   64.22    4.14
  -4  -1  -3   18.53    1.71
  -3  -1  -3   47.89    2.29
  -2  -1  -3    0.48    0.22
  -1  -1  -3    0.13    0.19
   0  -1  -3   -0.18    0.18
   1  -1  -3    0.18    0.21
   2  -1  -3    0.37    0.22
   3  -1  -3   48.76    2.38
   4  -1  -3   16.02    1.33
   5  -1  -3   67.27    3.43
   6  -1  -3    2.28    0.54
   7  -1  -3    3.92    0.71
   8  -1  -3   16.46    1.55
   9  -1  -3   -0.14    0.39
  10  -1  -3   26.41    2.20
  11  -1  -3    5.46    0.96
  12  -1  -3    4.58    0.93
  13  -1  -3    6.91    1.18
  14  -1  -3    2.66    0.79
  15  -1  -3    0.82    0.84
  16  -1  -3    7.04    2.10
 -15   0  -3    0.53    1.33
 -14   0  -3   21.17    4.01
 -13   0  -3    1.07    1.18
 -12   0  -3    1.82    1.39
 -11   0  -3   -0.98    0.72
 -10   0  -3    6.15    1.96
  -9   0  -3    0.29    0.73
  -8   0  -3  101.83    6.21
  -7   0  -3    0.46    0.42
  -6   0  -3   18.91    1.97
  -5   0  -3   -0.07    0.33
  -4   0  -3  117.95    5.53
  -3   0  -3    0.11    0.24
  -2   0  -3   41.27    2.19
  -1   0  -3    0.05    0.19
   0   0  -3    0.16    0.22
   1   0  -3    0.09    0.19
   2   0  -3   44.40    1.91
   3   0  -3    0.07    0.24
   4   0  -3  124.30    5.61
   5   0  -3    0.04    0.28
   6   0  -3   23.60    1.72
   7   0  -3    0.10    0.35
   8   0  -3  103.22    5.04
   9   0  -3   -0.01    0.37
  10   0  -3    7.01    1.03
  11   0  -3    0.45    0.49
  12   0  -3    0.90    0.57
  13   0  -3    0.06    0.59
  14   0  -3   21.27    2.66
  15   0  -3   -0.53    0.66
  16   0  -3   18.84    3.33
 -15   1  -3    3.66    2.00
 -14   1  -3    4.33    1.89
 -13   1  -3   11.04    2.85
 -12   1  -3    3.71    1.75
 -11   1  -3    9.85    2.42
 -10   1  -3   34.90    4.61
  -9   1  -3    1.76    1.07
  -8   1  -3   17.52    1.97
  -7   1  -3    4.36    0.88
  -6   1  -3    3.49    0.80
  -5   1  -3   66.07    4.19
  -4   1  -3   17.09    1.25
  -3   1  -3   39.23    2.26
  -2   1  -3    0.20    0.23
  -1   1  -3    0.01    0.16
   0   1  -3    0.06    0.22
   1   1  -3    0.55    0.24
   2   1  -3    0.66    0.28
   3   1  -3   42.28    2.02
   4   1  -3   16.65    1.33
   5   1  -3   67.10    3.41
   6   1  -3    3.13    0.60
   7   1  -3    3.04    0.63
   8   1  -3   16.02    1.61
   9   1  -3    0.20    0.50
  10   1  -3   30.57    2.89
  11   1  -3    3.14    0.99
  12   1  -3    3.50    0.99
  13   1  -3    9.38    1.65
  14   1  -3    4.67    1.11
  15   1  -3    1.05    0.79
  16   1  -3    4.73    1.88
 -15   2  -3    0.15    1.44
 -14   2  -3    0.15    1.38
 -13   2  -3   -0.37    1.03
 -12   2  -3   14.96    3.21
 -11   2  -3   17.03    3.14
 -10   2  -3   -0.04    0.80
  -9   2  -3    3.13    1.28
  -8   2  -3    7.14    1.17
  -7   2  -3   20.02    2.06
  -6   2  -3    3.44    0.79
  -5   2  -3    0.59    0.40
  -4   2  -3    7.05    0.75
  -3   2  -3   18.87    1.34
  -2   2  -3   25.94    1.60
  -1   2  -3   38.73    2.12
   0   2  -3    8.53    0.79
   1   2  -3   38.30    2.07
   2   2  -3   20.99    1.47
   3   2  -3   15.83    1.31
   4   2  -3    5.27    0.72
   5   2  -3    0.39    0.40
   6   2  -3    3.81    0.82
   7   2  -3   20.74    2.13
   8   2  -3    9.29    1.36
   9   2  -3    3.01    0.84
  10   2  -3    0.99    0.63
  11   2  -3   15.58    2.06
  12   2  -3   18.93    2.15
  13   2  -3    0.05    0.60
  14   2  -3    0.63    0.81
  15   2  -3    0.36    0.84
  16   2  -3   -0.46    1.06
 -15   3  -3    2.72    1.99
 -14   3  -3    2.61    1.55
 -13   3  -3    0.72    1.21
 -12   3  -3    2.32    1.45
 -11   3  -3    9.01    2.43
 -10   3  -3   20.49    3.52
  -9   3  -3   12.73    2.68
  -8   3  -3   30.05    2.79
  -7   3  -3   59.83    3.98
  -6   3  -3    0.51    0.43
  -5   3  -3   39.49    2.26
  -4   3  -3   11.16    1.05
  -3   3  -3    4.30    0.62
  -2   3  -3   84.07    4.24
  -1   3  -3  114.23    5.32
   0   3  -3   -0.11    0.21
   1   3  -3  110.98    5.24
   2   3  -3   84.76    4.21
   3   3  -3    4.65    0.60
   4   3  -3   12.09    1.10
   5   3  -3   40.20    2.34
   6   3  -3    1.42    0.55
   7   3  -3   56.70    3.95
   8   3  -3   27.23    2.62
   9   3  -3   16.35    1.91
  10   3  -3   20.97    2.33
  11   3  -3   14.22    1.88
  12   3  -3    1.20    0.83
  13   3  -3   -0.71    0.55
  14   3  -3    2.05    0.94
  15   3  -3    1.34    0.95
  16   3  -3    3.46    1.50
 -15   4  -3   -0.13    1.45
 -14   4  -3   17.20    3.62
 -13   4  -3    0.66    1.25
 -12   4  -3   -0.07    0.99
 -11   4  -3    3.66    1.64
 -10   4  -3    0.20    0.81
  -9   4  -3   18.11    3.13
  -8   4  -3    3.60    0.88
  -7   4  -3    4.44    0.98
  -6   4  -3    6.94    1.15
  -5   4  -3   10.95    1.08
  -4   4  -3   42.51    2.39
  -3   4  -3    1.33    0.39
  -2   4  -3   18.62    1.48
  -1   4  -3   16.43    1.34
   0   4  -3    2.60    0.44
   1   4  -3   16.62    1.24
   2   4  -3   19.17    1.44
   3   4  -3    1.14    0.40
   4   4  -3   41.79    2.32
   5   4  -3    9.94    1.07
   6   4  -3    8.32    0.96
   7   4  -3    5.60    1.04
   8   4  -3    2.69    0.83
   9   4  -3   16.05    1.96
  10   4  -3   -0.04    0.54
  11   4  -3    0.74    0.72
  12   4  -3   -0.54    0.57
  13   4  -3   -0.06    0.60
  14   4  -3   20.07    2.50
  15   4  -3    0.56    0.82
  16   4  -3    2.94    1.70
 -15   5  -3    1.36    1.64
 -14   5  -3    4.57    2.03
 -13   5  -3   -0.29    1.11
 -12   5  -3    0.98    1.20
 -11   5  -3    3.95    1.75
 -10   5  -3   13.91    2.81
  -9   5  -3    7.21    1.83
  -8   5  -3   -0.39    0.43
  -7   5  -3   27.19    2.64
  -6   5  -3   30.84    2.11
  -5   5  -3   15.73    1.33
  -4   5  -3    0.80    0.36
  -3   5  -3   31.77    2.19
  -2   5  -3   44.41    2.47
  -1   5  -3   -0.25    0.24
   0   5  -3   -0.22    0.25
   1   5  -3    0.05    0.24
   2   5  -3   44.81    2.43
   3   5  -3   33.02    2.10
   4   5  -3    0.06    0.28
   5   5  -3   13.99    1.29
   6   5  -3   25.77    1.98
   7   5  -3   23.99    1.93
   8   5  -3    0.11    0.34
   9   5  -3    8.95    1.47
  10   5  -3   14.13    1.93
  11   5  -3    4.80    1.15
  12   5  -3    0.24    0.67
  13   5  -3   -0.89    0.63
  14   5  -3    3.13    1.11
  15   5  -3    1.05    0.87
 -15   6  -3   -1.00    1.37
 -14   6  -3   -0.54    1.25
 -13   6  -3   19.44    3.86
 -12   6  -3    2.26    1.56
 -11   6  -3   30.74    4.78
 -10   6  -3    6.71    2.09
  -9   6  -3    6.27    1.73
  -8   6  -3    4.80    1.06
  -7   6  -3    8.71    1.38
  -6   6  -3   -0.14    0.32
  -5   6  -3   11.20    1.11
  -4   6  -3    0.88    0.41
  -3   6  -3    4.55    0.71
  -2   6  -3    2.08    0.50
  -1   6  -3   84.67    4.20
   0   6  -3   15.92    1.62
   1   6  -3   82.70    4.14
   2   6  -3    1.08    0.39
   3   6  -3    3.92    0.63
   4   6  -3    0.40    0.36
   5   6  -3    9.27    0.95
   6   6  -3   -0.40    0.27
   7   6  -3    8.37    1.02
   8   6  -3    6.52    0.92
   9   6  -3    6.48    0.99
  10   6  -3    7.71    1.05
  11   6  -3   41.53    2.81
  12   6  -3    6.06    1.30
  13   6  -3   24.76    2.78
  14   6  -3   -0.26    0.71
  15   6  -3    0.02    1.01
 -15   7  -3   12.48    3.44
 -14   7  -3   -1.20    1.27
 -13   7  -3   38.86    5.52
 -12   7  -3    0.49    1.14
 -11   7  -3   -0.53    0.83
 -10   7  -3   -0.24    0.99
  -9   7  -3    3.02    1.32
  -8   7  -3    8.30    2.01
  -7   7  -3    4.40    0.85
  -6   7  -3    5.26    0.83
  -5   7  -3   79.89    3.92
  -4   7  -3   -0.02    0.32
  -3   7  -3    0.67    0.37
  -2   7  -3    4.73    0.74
  -1   7  -3   17.17    1.45
   0   7  -3    0.16    0.39
   1   7  -3   18.01    1.42
   2   7  -3    4.26    0.63
   3   7  -3    0.30    0.32
   4   7  -3    0.24    0.31
   5   7  -3   74.90    3.87
   6   7  -3    4.67    0.76
   7   7  -3    4.67    0.78
   8   7  -3    6.98    0.97
   9   7  -3    3.57    0.75
  10   7  -3   -0.22    0.43
  11   7  -3   -0.29    0.45
  12   7  -3   -0.57    0.48
  13   7  -3   37.72    3.54
  14   7  -3    0.55    0.79
  15   7  -3   10.16    2.57
 -14   8  -3   -1.12    1.60
 -13   8  -3    1.53    1.52
 -12   8  -3    0.37    1.37
 -11   8  -3    5.17    1.90
 -10   8  -3    0.43    1.04
  -9   8  -3    9.63    2.34
  -8   8  -3    1.78    1.06
  -7   8  -3    4.42    0.81
  -6   8  -3    3.51    0.70
  -5   8  -3   14.91    1.45
  -4   8  -3   16.35    1.45
  -3   8  -3    6.63    0.91
  -2   8  -3    7.94    0.97
  -1   8  -3   12.84    1.24
   0   8  -3   23.37    1.81
   1   8  -3   14.17    1.37
   2   8  -3    9.34    0.98
   3   8  -3    7.71    0.91
   4   8  -3   14.27    1.31
   5   8  -3   18.54    1.55
   6   8  -3    4.41    0.72
   7   8  -3    5.93    0.84
   8   8  -3    2.49    0.64
   9   8  -3   12.52    1.35
  10   8  -3    2.34    0.69
  11   8  -3    7.83    1.17
  12   8  -3   -0.08    0.74
  13   8  -3    1.26    0.94
  14   8  -3    1.24    0.96
 -14   9  -3    1.94    1.83
 -13   9  -3    0.51    1.32
 -12   9  -3    0.14    1.17
 -11   9  -3    0.28    1.23
 -10   9  -3    0.87    1.22
  -9   9  -3   34.03    4.61
  -8   9  -3   14.33    2.66
  -7   9  -3    7.00    1.02
  -6   9  -3    9.16    1.17
  -5   9  -3   48.49    2.98
  -4   9  -3    3.86    0.71
  -3   9  -3    3.27    0.68
  -2   9  -3   48.16    2.99
  -1   9  -3    5.60    0.87
   0   9  -3   -0.43    0.31
   1   9  -3    7.28    1.11
   2   9  -3   48.51    2.78
   3   9  -3    1.88    0.53
   4   9  -3    4.96    0.76
   5   9  -3   46.55    2.76
   6   9  -3    8.55    1.08
   7   9  -3    8.11    1.04
   8   9  -3   12.24    1.35
   9   9  -3   31.21    2.86
  10   9  -3    1.36    0.80
  11   9  -3    1.39    0.89
  12   9  -3    1.58    0.99
  13   9  -3    0.64    0.89
  14   9  -3    1.04    1.36
 -10  10  -3    2.25    1.57
  -9  10  -3    3.60    1.50
  -8  10  -3    1.29    1.02
  -7  10  -3    1.33    0.79
  -6  10  -3    9.31    1.14
  -5  10  -3    5.46    0.89
  -4  10  -3   16.76    1.60
  -3  10  -3    8.64    1.06
  -2  10  -3    4.46    0.76
  -1  10  -3   19.72    1.68
   0  10  -3   11.13    1.19
   1  10  -3   19.61    1.64
   2  10  -3    3.10    0.66
   3  10  -3    9.91    1.13
   4  10  -3   18.07    1.65
   5  10  -3    6.76    0.93
   6  10  -3   10.52    1.18
   7  10  -3    0.42    0.47
   8  10  -3   -0.07    0.45
   9  10  -3    3.73    1.04
  10  10  -3    2.27    0.88
  11  10  -3   19.54    2.42
  12  10  -3    0.04    0.74
  13  10  -3    2.51    1.06
  -8  11  -3    2.20    1.41
  -7  11  -3   41.43    5.07
  -6  11  -3    2.38    0.92
  -5  11  -3    1.05    0.69
  -4  11  -3    2.23    0.88
  -3  11  -3    0.78    0.62
  -2  11  -3   13.48    1.44
  -1  11  -3   28.87    2.12
   0  11  -3    0.31    0.39
   1  11  -3   29.84    2.11
   2  11  -3   15.79    1.85
   3  11  -3    0.67    0.44
   4  11  -3    2.22    0.59
   5  11  -3    1.75    0.54
   6  11  -3    3.89    0.73
   7  11  -3   43.94    3.70
   8  11  -3    0.54    0.73
   9  11  -3   11.57    1.79
  10  11  -3    1.38    0.80
  11  11  -3    0.83    0.85
  12  11  -3    0.92    0.81
  -8  12  -3    2.03    1.43
  -7  12  -3    7.21    1.96
  -6  12  -3    1.19    1.11
  -5  12  -3    2.29    0.87
  -4  12  -3   12.25    1.77
  -3  12  -3    4.84    1.17
  -2  12  -3    1.46    0.74
  -1  12  -3    1.38    0.66
   0  12  -3    3.08    0.91
   1  12  -3    2.20    0.78
   2  12  -3    0.06    0.58
   3  12  -3    5.01    1.11
   4  12  -3   11.52    1.33
   5  12  -3    3.28    0.78
   6  12  -3    0.62    0.68
   7  12  -3    4.97    1.17
   8  12  -3    7.03    1.45
   9  12  -3    2.19    0.96
  10  12  -3    3.03    1.17
  11  12  -3    0.85    1.03
  12  12  -3   -0.51    1.19
  -8  13  -3    9.37    2.38
  -7  13  -3    1.62    1.27
  -6  13  -3   -0.15    0.96
  -5  13  -3   -1.01    0.79
  -4  13  -3    1.28    0.84
  -3  13  -3   32.24    3.17
  -2  13  -3    2.07    0.93
  -1  13  -3    0.78    0.69
   0  13  -3    0.04    0.56
   1  13  -3    1.13    0.62
   2  13  -3    5.12    1.07
   3  13  -3   30.31    2.94
   4  13  -3    1.23    0.81
   5  13  -3   -0.16    0.59
   6  13  -3    1.00    0.81
   7  13  -3    2.47    1.05
   8  13  -3    9.19    1.70
   9  13  -3    1.41    1.02
  10  13  -3   13.74    2.21
  11  13  -3   21.66    5.81
  -8  14  -3   11.24    2.65
  -7  14  -3    2.65    1.43
  -6  14  -3    2.07    1.36
  -5  14  -3    0.93    1.30
  -4  14  -3   14.07    3.00
  -3  14  -3    1.62    0.88
  -2  14  -3    0.75    0.83
  -1  14  -3    7.19    1.43
   0  14  -3   14.38    1.91
   1  14  -3    9.89    1.59
   2  14  -3    2.20    1.37
   3  14  -3    1.57    1.19
   4  14  -3   20.12    3.58
   5  14  -3    0.34    0.73
   6  14  -3    1.08    0.88
   7  14  -3    0.96    0.88
   8  14  -3   12.22    1.87
   9  14  -3    4.40    1.33
  -8  15  -3   -1.15    1.27
  -7  15  -3    4.99    1.93
  -6  15  -3    4.73    1.88
  -5  15  -3   14.67    3.09
  -4  15  -3    3.87    1.88
  -3  15  -3    6.22    2.07
  -2  15  -3    0.50    0.74
  -1  15  -3    1.10    0.89
   0  15  -3    0.67    0.82
   1  15  -3    2.21    1.31
   2  15  -3   -0.08    0.99
   3  15  -3    4.20    1.74
   4  15  -3    3.21    1.55
   5  15  -3   13.18    2.91
   6  15  -3    2.50    1.16
   7  15  -3    4.05    1.28
   8  15  -3    0.25    1.51
  -6  16  -3   -1.42    1.17
  -5  16  -3    1.28    1.36
  -4  16  -3    0.57    1.24
  -3  16  -3    9.97    2.79
  -2  16  -3    3.67    1.79
  -1  16  -3    0.67    1.47
   0  16  -3   25.89    4.40
   1  16  -3    2.90    1.61
   2  16  -3    7.19    2.23
   3  16  -3   17.15    3.47
   4  16  -3    1.45    1.55
   5  16  -3   -0.09    1.21
  -3 -18  -2    1.66    1.76
  -2 -18  -2    0.41    1.36
  -1 -18  -2   -0.03    1.33
   0 -18  -2   -0.54    0.84
   1 -18  -2   -0.46    0.81
   2 -18  -2    1.52    1.09
   3 -18  -2    1.28    1.43
  -6 -17  -2   10.49    2.94
  -5 -17  -2    0.82    1.56
  -4 -17  -2    7.82    2.57
  -3 -17  -2    1.44    1.61
  -2 -17  -2    6.97    2.13
  -1 -17  -2    3.38    1.70
   0 -17  -2    0.41    0.88
   1 -17  -2    0.93    0.87
   2 -17  -2    4.65    1.39
   3 -17  -2    1.69    1.44
   4 -17  -2    6.56    2.39
   5 -17  -2    0.61    1.37
   6 -17  -2    8.17    2.54
  -8 -16  -2    0.77    1.42
  -7 -16  -2    2.92    1.82
  -6 -16  -2    0.24    1.31
  -5 -16  -2   -0.24    1.21
  -4 -16  -2   20.35    3.82
  -3 -16  -2    0.35    1.07
  -2 -16  -2    1.95    1.35
  -1 -16  -2    4.86    1.91
   0 -16  -2   18.93    3.64
   1 -16  -2    3.50    1.07
   2 -16  -2    0.60    0.79
   3 -16  -2   -0.10    0.81
   4 -16  -2   21.12    3.87
   5 -16  -2    1.17    1.20
   6 -16  -2    0.53    1.24
   7 -16  -2    2.13    1.75
   8 -16  -2    0.47    1.30
 -10 -15  -2    3.95    2.22
  -9 -15  -2    3.63    1.87
  -8 -15  -2    7.18    2.51
  -7 -15  -2   -0.52    1.17
  -6 -15  -2    1.05    1.33
  -5 -15  -2    1.63    1.42
  -4 -15  -2    2.66    1.69
  -3 -15  -2    1.84    1.31
  -2 -15  -2   -0.21    0.91
  -1 -15  -2    0.89    1.02
   0 -15  -2    1.21    1.04
   1 -15  -2    0.02    0.59
   2 -15  -2    0.38    0.69
   3 -15  -2    1.09    0.77
   4 -15  -2    0.87    1.14
   5 -15  -2   -0.03    0.98
   6 -15  -2    1.31    1.23
   7 -15  -2    2.32    1.54
   8 -15  -2    8.16    2.56
   9 -15  -2    2.21    1.22
  10 -15  -2    1.72    1.78
 -11 -14  -2    0.64    1.63
 -10 -14  -2    6.99    2.53
  -9 -14  -2    6.38    2.52
  -8 -14  -2   22.88    4.41
  -7 -14  -2    0.44    1.30
  -6 -14  -2    2.66    1.50
  -5 -14  -2    3.25    1.76
  -4 -14  -2    3.82    1.62
  -3 -14  -2    0.22    0.83
  -2 -14  -2    0.93    1.01
  -1 -14  -2    2.79    1.37
   0 -14  -2   80.60    7.35
   1 -14  -2    1.35    1.12
   2 -14  -2    0.39    0.61
   3 -14  -2   -0.23    0.52
   4 -14  -2    4.14    1.66
   5 -14  -2    5.55    1.82
   6 -14  -2    0.69    1.02
   7 -14  -2   -0.60    0.86
   8 -14  -2   27.19    4.48
   9 -14  -2    3.77    1.18
  10 -14  -2    6.68    1.65
  11 -14  -2   -0.31    0.98
 -12 -13  -2    4.44    2.33
 -11 -13  -2    1.14    1.48
 -10 -13  -2    0.95    1.34
  -9 -13  -2   -0.74    1.22
  -8 -13  -2    0.85    1.42
  -7 -13  -2    6.57    2.13
  -6 -13  -2   17.04    3.20
  -4 -13  -2   23.39    3.58
  -3 -13  -2    0.28    0.85
  -2 -13  -2   -0.53    0.77
  -1 -13  -2    5.34    1.72
   0 -13  -2   -0.10    0.76
   1 -13  -2    7.05    1.85
   2 -13  -2    2.08    0.77
   3 -13  -2    0.02    0.45
   4 -13  -2   16.97    2.18
   5 -13  -2   35.05    4.96
   6 -13  -2   21.22    3.54
   7 -13  -2    7.89    2.15
   8 -13  -2    1.80    1.37
   9 -13  -2    1.39    0.96
  10 -13  -2    0.93    0.94
  11 -13  -2    0.51    0.92
  12 -13  -2   10.45    1.94
 -13 -12  -2    2.76    2.10
 -12 -12  -2    8.60    2.65
 -11 -12  -2    9.60    2.68
 -10 -12  -2    0.20    1.17
  -9 -12  -2    1.70    1.54
  -8 -12  -2   -0.09    1.02
  -7 -12  -2   10.43    2.41
  -6 -12  -2   15.41    3.04
  -5 -12  -2    0.92    1.12
  -4 -12  -2   15.74    2.94
  -3 -12  -2    2.60    1.23
  -2 -12  -2   14.76    2.77
  -1 -12  -2   21.24    3.41
   0 -12  -2   14.95    2.92
   1 -12  -2   17.88    3.18
   2 -12  -2   16.32    1.94
   3 -12  -2    5.18    1.07
   4 -12  -2   13.65    1.87
   5 -12  -2   -0.03    0.88
   6 -12  -2   11.16    2.58
   7 -12  -2   10.72    2.58
   8 -12  -2    0.23    1.12
   9 -12  -2    5.06    1.32
  10 -12  -2    0.20    0.79
  11 -12  -2    5.64    1.49
  12 -12  -2    5.87    1.34
  13 -12  -2    0.97    1.22
 -14 -11  -2    2.98    1.92
 -13 -11  -2    0.71    1.48
 -12 -11  -2   -0.60    1.25
 -11 -11  -2   -0.14    1.23
 -10 -11  -2    7.72    2.33
  -9 -11  -2   15.75    3.05
  -8 -11  -2    4.71    1.70
  -7 -11  -2    1.32    1.06
  -6 -11  -2    6.63    1.79
  -5 -11  -2   10.85    2.31
  -4 -11  -2    3.48    1.39
  -3 -11  -2   23.42    3.30
  -2 -11  -2   -0.86    0.62
  -1 -11  -2   41.86    4.89
   0 -11  -2   -0.39    0.72
   1 -11  -2   43.51    4.97
   2 -11  -2    1.85    0.84
   3 -11  -2   16.94    1.97
   4 -11  -2    3.13    0.91
   5 -11  -2   12.04    2.49
   6 -11  -2    2.43    1.33
   7 -11  -2    0.26    0.85
   8 -11  -2    2.71    1.22
   9 -11  -2   15.39    2.14
  10 -11  -2    9.85    1.75
  11 -11  -2    1.29    0.95
  12 -11  -2    0.76    0.83
  13 -11  -2    0.61    0.87
  14 -11  -2    0.21    1.42
 -14 -10  -2    4.51    2.25
 -13 -10  -2   18.70    3.55
 -12 -10  -2   21.44    3.79
 -11 -10  -2    2.00    1.32
 -10 -10  -2    1.12    1.06
  -9 -10  -2    0.07    0.87
  -8 -10  -2   -0.73    0.67
  -7 -10  -2    3.85    1.42
  -6 -10  -2    3.10    1.22
  -5 -10  -2    0.18    0.63
  -4 -10  -2   14.00    2.55
  -3 -10  -2   36.56    4.38
  -2 -10  -2   26.25    3.51
  -1 -10  -2   29.33    3.84
   0 -10  -2    3.37    1.15
   1 -10  -2   33.05    3.99
   2 -10  -2   28.18    3.57
   3 -10  -2   30.94    2.80
   4 -10  -2   16.89    1.87
   5 -10  -2    0.02    0.73
   6 -10  -2    4.54    1.56
   7 -10  -2    2.80    1.37
   8 -10  -2    0.47    0.72
   9 -10  -2   -0.03    0.63
  10 -10  -2    0.36    0.69
  11 -10  -2    1.13    0.84
  12 -10  -2   21.22    2.80
  13 -10  -2   15.45    2.36
  14 -10  -2    7.46    1.74
 -14  -9  -2   13.36    2.75
 -13  -9  -2   -1.18    0.87
 -12  -9  -2    2.26    1.40
 -11  -9  -2    5.76    1.99
 -10  -9  -2   15.03    2.96
  -9  -9  -2    5.11    1.66
  -8  -9  -2    0.25    0.77
  -7  -9  -2    4.66    1.52
  -6  -9  -2   31.33    4.24
  -5  -9  -2   11.89    2.32
  -4  -9  -2   -0.57    0.53
  -3  -9  -2   37.61    4.36
  -2  -9  -2    5.43    1.52
  -1  -9  -2    2.73    1.01
   0  -9  -2    0.04    0.53
   1  -9  -2    1.64    0.87
   2  -9  -2    7.66    1.59
   3  -9  -2   29.77    2.77
   4  -9  -2    0.26    0.48
   5  -9  -2   11.13    2.39
   6  -9  -2   31.88    4.33
   7  -9  -2    8.59    2.20
   8  -9  -2   -0.34    0.51
   9  -9  -2    6.99    1.36
  10  -9  -2   20.08    2.44
  11  -9  -2   15.02    2.10
  12  -9  -2    1.66    1.00
  13  -9  -2   -0.47    0.69
  14  -9  -2    7.98    1.81
  15  -9  -2    0.98    1.03
 -16  -8  -2    5.12    2.14
 -15  -8  -2    1.47    1.60
 -14  -8  -2    0.21    0.91
 -13  -8  -2    0.56    0.84
 -12  -8  -2    2.50    1.02
 -11  -8  -2    3.37    1.04
 -10  -8  -2    8.73    1.46
  -9  -8  -2    2.63    0.93
  -8  -8  -2   44.60    3.56
  -7  -8  -2   13.55    1.70
  -6  -8  -2   19.35    2.04
  -5  -8  -2    9.57    1.34
  -4  -8  -2    1.66    0.58
  -3  -8  -2   34.91    2.62
  -2  -8  -2    2.60    0.56
  -1  -8  -2   33.30    2.51
   0  -8  -2   34.82    4.08
   1  -8  -2   32.00    3.30
   2  -8  -2    1.06    0.63
   3  -8  -2   36.72    2.75
   4  -8  -2    2.88    0.75
   5  -8  -2   13.54    1.48
   6  -8  -2   20.09    3.09
   7  -8  -2   12.14    1.69
   8  -8  -2   42.15    3.63
   9  -8  -2    2.36    0.87
  10  -8  -2   12.27    1.84
  11  -8  -2    4.13    1.21
  12  -8  -2    2.01    0.93
  13  -8  -2    0.63    0.79
  14  -8  -2    0.66    0.96
  15  -8  -2    2.09    1.05
 -16  -7  -2    2.92    1.76
 -15  -7  -2    0.19    1.40
 -14  -7  -2   -0.71    0.84
 -13  -7  -2    2.08    0.95
 -12  -7  -2    1.72    0.87
 -11  -7  -2    0.65    0.72
 -10  -7  -2   -0.47    0.50
  -9  -7  -2   50.28    3.65
  -8  -7  -2    9.96    1.44
  -7  -7  -2   63.63    4.08
  -6  -7  -2    1.73    0.64
  -5  -7  -2    0.42    0.42
  -4  -7  -2   -0.05    0.34
  -3  -7  -2   25.58    2.13
  -2  -7  -2   10.49    1.17
  -1  -7  -2   27.39    1.92
   0  -7  -2   -0.20    0.24
   1  -7  -2   25.66    1.85
   2  -7  -2    9.56    1.58
   3  -7  -2   25.86    2.18
   4  -7  -2   -0.21    0.31
   5  -7  -2    1.02    0.50
   6  -7  -2    3.72    1.30
   7  -7  -2   60.88    4.17
   8  -7  -2    4.55    1.06
   9  -7  -2   45.00    3.92
  10  -7  -2    0.26    0.58
  11  -7  -2   -0.38    0.59
  12  -7  -2    2.48    0.99
  13  -7  -2    3.12    1.14
  14  -7  -2   -0.30    0.82
  15  -7  -2    0.40    0.94
  16  -7  -2    2.13    1.19
 -16  -6  -2    8.56    2.56
 -15  -6  -2    8.11    2.48
 -14  -6  -2   -0.04    1.12
 -13  -6  -2    3.22    1.10
 -12  -6  -2    9.17    1.54
 -11  -6  -2    1.65    0.79
 -10  -6  -2   10.47    1.58
  -9  -6  -2    7.52    1.33
  -8  -6  -2   28.25    2.54
  -7  -6  -2   34.08    2.75
  -6  -6  -2    1.52    0.60
  -5  -6  -2   35.39    2.70
  -4  -6  -2    0.35    0.38
  -3  -6  -2  198.44    8.90
  -2  -6  -2   71.70    3.25
  -1  -6  -2    0.59    0.31
   0  -6  -2   27.92    1.83
   1  -6  -2    0.90    0.47
   2  -6  -2   66.33    5.72
   3  -6  -2  199.37   11.03
   4  -6  -2   -0.37    0.27
   5  -6  -2   36.58    2.58
   6  -6  -2    1.12    0.55
   7  -6  -2   25.28    2.61
   8  -6  -2   23.56    2.44
   9  -6  -2    9.27    1.52
  10  -6  -2   11.97    1.78
  11  -6  -2    1.23    0.73
  12  -6  -2    9.31    1.68
  13  -6  -2    3.07    1.09
  14  -6  -2    0.38    0.79
  15  -6  -2    9.35    1.88
  16  -6  -2    8.75    1.40
 -16  -5  -2    0.90    1.68
 -15  -5  -2    0.07    1.13
 -14  -5  -2    3.73    1.82
 -13  -5  -2    1.49    0.78
 -12  -5  -2    0.96    0.74
 -11  -5  -2    7.80    1.38
 -10  -5  -2   15.98    1.97
  -9  -5  -2    5.71    1.13
  -8  -5  -2    0.37    0.48
  -7  -5  -2   31.18    2.64
  -6  -5  -2   38.28    2.98
  -5  -5  -2    0.03    0.36
  -4  -5  -2    0.84    0.26
  -3  -5  -2    1.51    0.30
  -2  -5  -2   71.39    3.40
  -1  -5  -2   17.58    1.50
   0  -5  -2    0.10    0.26
   1  -5  -2   19.64    2.28
   2  -5  -2   72.77    5.95
   3  -5  -2    1.61    0.45
   4  -5  -2    1.07    0.40
   5  -5  -2   -0.20    0.24
   6  -5  -2   39.26    3.09
   7  -5  -2   24.19    2.43
   8  -5  -2    0.53    0.49
   9  -5  -2    4.96    1.07
  10  -5  -2   18.71    2.19
  11  -5  -2    7.34    1.41
  12  -5  -2    0.42    0.68
  13  -5  -2    1.44    0.80
  14  -5  -2    3.92    1.22
  15  -5  -2    0.63    0.61
  16  -5  -2    1.28    0.70
  17  -5  -2    0.69    1.23
 -17  -4  -2   -0.44    1.71
 -16  -4  -2    3.24    2.01
 -15  -4  -2   12.45    3.17
 -14  -4  -2    7.88    2.33
 -13  -4  -2    2.09    0.95
 -12  -4  -2   53.93    6.87
 -11  -4  -2    1.53    0.76
 -10  -4  -2    3.15    0.88
  -9  -4  -2    3.83    0.94
  -8  -4  -2    0.05    0.70
  -7  -4  -2    0.02    0.64
  -6  -4  -2   54.14    4.83
  -5  -4  -2    7.49    0.85
  -4  -4  -2   19.56    1.07
  -3  -4  -2    0.48    0.23
  -2  -4  -2   88.25    4.77
  -1  -4  -2   31.93    1.95
   0  -4  -2   15.38    1.78
   2  -4  -2   83.34    6.78
   3  -4  -2   -0.18    0.22
   4  -4  -2   20.03    1.30
   5  -4  -2    6.57    0.72
   6  -4  -2   45.34    3.31
   7  -4  -2   -0.10    0.36
   8  -4  -2    1.10    0.56
   9  -4  -2    4.33    0.89
  10  -4  -2    4.51    1.02
  11  -4  -2    1.27    0.69
  12  -4  -2   64.43    4.64
  13  -4  -2    2.44    0.99
  14  -4  -2    7.48    1.19
  15  -4  -2   17.88    1.87
  16  -4  -2    1.23    0.74
  17  -4  -2    0.34    0.68
 -17  -3  -2    3.71    2.02
 -16  -3  -2    2.11    1.55
 -15  -3  -2   -0.23    1.27
 -14  -3  -2    2.13    1.46
 -13  -3  -2   10.75    1.39
 -12  -3  -2    1.61    0.77
 -11  -3  -2   18.50    2.17
 -10  -3  -2   -0.21    0.76
  -9  -3  -2   78.18    6.70
  -8  -3  -2   38.61    5.01
  -7  -3  -2    8.23    1.81
  -6  -3  -2  142.14    7.72
  -5  -3  -2    3.62    0.62
  -4  -3  -2   11.61    0.75
  -3  -3  -2   54.56    2.64
  -2  -3  -2    1.24    0.32
  -1  -3  -2   32.10    2.01
   2  -3  -2    0.56    0.49
   3  -3  -2   57.71    3.51
   4  -3  -2   11.56    0.95
   5  -3  -2    3.89    0.49
   6  -3  -2  133.17    7.84
   7  -3  -2    7.52    1.16
   8  -3  -2   47.43    3.28
   9  -3  -2   59.86    4.38
  10  -3  -2   -0.32    0.43
  11  -3  -2   18.94    2.22
  12  -3  -2    2.57    0.92
  13  -3  -2    8.99    1.24
  14  -3  -2    4.74    0.97
  15  -3  -2    1.66    0.68
  16  -3  -2    2.91    0.90
  17  -3  -2    1.22    1.09
 -17  -2  -2   -0.70    1.69
 -16  -2  -2    0.01    1.25
 -15  -2  -2   18.71    3.61
 -14  -2  -2    4.36    1.78
 -13  -2  -2    0.17    0.59
 -12  -2  -2    0.20    1.11
 -11  -2  -2   17.78    3.16
 -10  -2  -2   22.42    3.61
  -9  -2  -2   10.97    2.22
  -8  -2  -2    3.65    1.24
  -7  -2  -2   15.03    2.50
  -6  -2  -2   28.21    2.06
  -5  -2  -2   16.69    1.49
  -4  -2  -2  159.83    8.83
  -3  -2  -2   21.26    1.22
  -2  -2  -2    1.95    0.30
  -1  -2  -2   -0.03    0.14
   0  -2  -2   -0.22    0.19
   2  -2  -2    2.72    0.48
   3  -2  -2   22.67    1.87
   4  -2  -2  157.58    8.95
   5  -2  -2   15.50    1.55
   6  -2  -2   32.49    2.56
   7  -2  -2   16.05    1.74
   8  -2  -2    1.07    0.50
   9  -2  -2    8.14    1.19
  10  -2  -2   22.65    1.87
  11  -2  -2   12.47    1.38
  12  -2  -2    1.55    0.58
  13  -2  -2    0.74    0.49
  14  -2  -2    1.69    0.70
  15  -2  -2   19.25    1.89
  16  -2  -2    0.13    0.59
  17  -2  -2   -0.35    0.89
 -17  -1  -2   -2.00    1.34
 -16  -1  -2    1.97    1.60
 -15  -1  -2    0.32    1.34
 -14  -1  -2   -0.69    0.90
 -13  -1  -2    8.25    2.44
 -12  -1  -2   18.46    3.30
 -11  -1  -2    7.26    2.15
 -10  -1  -2    8.14    2.12
  -9  -1  -2    5.85    1.77
  -8  -1  -2    4.60    1.46
  -7  -1  -2    3.58    1.09
  -6  -1  -2   34.23    2.54
  -5  -1  -2   13.25    1.29
  -4  -1  -2   96.49    4.29
  -3  -1  -2   25.91    1.37
  -2  -1  -2    7.18    0.58
  -1  -1  -2    2.60    0.35
   0  -1  -2   -0.08    0.15
   1  -1  -2    2.95    0.48
   2  -1  -2    7.15    0.67
   3  -1  -2   25.65    1.44
   4  -1  -2   97.73    4.43
   5  -1  -2   13.49    1.11
   6  -1  -2   34.23    2.00
   7  -1  -2    4.62    0.66
   8  -1  -2    3.15    0.62
   9  -1  -2    5.29    0.78
  10  -1  -2    8.93    1.11
  11  -1  -2    3.78    0.77
  12  -1  -2   13.27    1.49
  13  -1  -2    7.05    1.10
  14  -1  -2   -0.17    0.44
  15  -1  -2    0.32    0.54
  16  -1  -2    2.15    0.85
  17  -1  -2    2.26    1.14
 -17   0  -2   -0.54    1.31
 -16   0  -2   -0.43    1.17
 -15   0  -2   -0.43    1.05
 -14   0  -2   39.27    5.56
 -13   0  -2   -0.27    0.89
 -12   0  -2   11.42    2.77
 -11   0  -2    0.49    0.97
 -10   0  -2   61.68    6.58
  -9   0  -2    0.82    0.78
  -8   0  -2   57.29    5.55
  -7   0  -2    0.51    0.57
  -6   0  -2    0.50    0.39
  -5   0  -2    0.07    0.19
  -4   0  -2    1.35    0.26
  -3   0  -2   -0.03    0.14
  -2   0  -2    1.79    0.22
  -1   0  -2    0.26    0.14
   0   0  -2  981.80   41.57
   1   0  -2   -0.06    0.13
   2   0  -2    1.25    0.29
   3   0  -2   -0.19    0.14
   4   0  -2    1.98    0.39
   5   0  -2    0.22    0.24
   6   0  -2    0.60    0.30
   7   0  -2   -0.02    0.26
   8   0  -2   56.65    3.05
   9   0  -2    0.13    0.31
  10   0  -2   70.17    3.65
  11   0  -2   -0.19    0.32
  12   0  -2   11.96    1.28
  13   0  -2   -0.21    0.40
  14   0  -2   40.01    3.04
  15   0  -2    0.27    0.55
  16   0  -2   -0.19    0.57
  17   0  -2    0.69    0.92
 -17   1  -2    2.39    1.77
 -16   1  -2    4.82    2.02
 -15   1  -2   -1.09    1.04
 -14   1  -2    0.45    1.14
 -13   1  -2    7.15    2.32
 -12   1  -2   16.91    3.16
 -11   1  -2    1.84    1.18
 -10   1  -2    7.62    1.96
  -9   1  -2    4.42    1.50
  -8   1  -2    5.40    1.54
  -7   1  -2    2.46    1.03
  -6   1  -2   34.59    1.95
  -5   1  -2   12.56    0.92
  -4   1  -2   95.18    4.34
  -3   1  -2   26.09    1.43
  -2   1  -2    7.06    0.64
  -1   1  -2    3.03    0.30
   0   1  -2    0.24    0.17
   1   1  -2    3.07    0.32
   2   1  -2    6.45    0.58
   3   1  -2   26.24    1.40
   4   1  -2   90.21    4.37
   5   1  -2   13.27    1.08
   6   1  -2   38.23    2.02
   7   1  -2    4.28    0.64
   8   1  -2    3.27    0.62
   9   1  -2    6.03    0.83
  10   1  -2    9.85    1.12
  11   1  -2    3.41    0.61
  12   1  -2   18.04    1.65
  13   1  -2    9.96    1.26
  14   1  -2    0.03    0.44
  15   1  -2   -0.20    0.50
  16   1  -2    4.89    1.35
  17   1  -2    1.00    1.05
 -17   2  -2   -0.50    1.51
 -16   2  -2   -1.01    1.33
 -15   2  -2   16.02    3.42
 -14   2  -2   -1.11    1.06
 -13   2  -2    2.05    1.47
 -12   2  -2    1.37    1.08
 -11   2  -2   18.31    3.23
 -10   2  -2   21.09    3.45
  -9   2  -2    7.22    1.86
  -8   2  -2    2.06    1.05
  -7   2  -2   17.63    1.32
  -6   2  -2   28.66    1.79
  -5   2  -2   18.63    1.22
  -4   2  -2  163.24    7.22
  -3   2  -2   23.82    1.39
  -2   2  -2    2.63    0.39
  -1   2  -2    0.45    0.16
   0   2  -2    0.01    0.18
   1   2  -2    0.26    0.18
   2   2  -2    2.69    0.30
   3   2  -2   21.43    1.28
   4   2  -2  163.00    7.22
   5   2  -2   15.82    1.18
   6   2  -2   29.64    1.74
   7   2  -2   16.36    1.34
   8   2  -2    1.53    0.45
   9   2  -2    9.17    1.01
  10   2  -2   21.17    1.77
  11   2  -2   13.30    1.38
  12   2  -2    0.59    0.44
  13   2  -2    0.68    0.50
  14   2  -2    2.67    0.76
  15   2  -2   15.48    1.74
  16   2  -2    0.08    0.66
  17   2  -2    1.44    1.03
 -17   3  -2    2.42    1.73
 -16   3  -2    2.55    1.88
 -15   3  -2    2.96    1.62
 -14   3  -2    4.96    1.98
 -13   3  -2   13.41    2.82
 -12   3  -2    3.29    1.43
 -11   3  -2   17.19    3.16
 -10   3  -2    0.28    0.73
  -9   3  -2   63.35    6.34
  -8   3  -2   45.39    5.22
  -7   3  -2   10.56    1.19
  -6   3  -2  140.22    6.32
  -5   3  -2    3.45    0.53
  -4   3  -2   13.11    1.03
  -3   3  -2   55.23    2.76
  -2   3  -2    1.60    0.33
  -1   3  -2   32.73    1.43
   0   3  -2   -0.01    0.15
   1   3  -2   32.32    1.67
   2   3  -2    0.73    0.25
   3   3  -2   56.79    2.35
   4   3  -2   11.57    0.92
   5   3  -2    3.43    0.49
   6   3  -2  138.69    6.29
   7   3  -2    7.28    0.83
   8   3  -2   46.55    2.54
   9   3  -2   69.19    3.51
  10   3  -2    0.06    0.29
  11   3  -2   21.23    1.77
  12   3  -2    1.87    0.59
  13   3  -2    7.22    1.05
  14   3  -2    4.26    0.91
  15   3  -2    1.07    0.63
  16   3  -2    0.71    0.92
  17   3  -2    2.85    1.22
 -17   4  -2   -0.34    1.96
 -16   4  -2    0.58    1.49
 -15   4  -2   14.41    3.17
 -14   4  -2   12.80    3.02
 -13   4  -2    3.42    1.65
 -12   4  -2   60.97    7.03
 -11   4  -2    1.11    1.02
 -10   4  -2    4.69    1.47
  -9   4  -2    7.40    1.86
  -8   4  -2    1.36    0.53
  -7   4  -2   -0.11    0.35
  -6   4  -2   47.70    2.62
  -5   4  -2    5.77    0.70
  -4   4  -2   18.57    1.34
  -3   4  -2    0.01    0.19
  -2   4  -2   86.37    3.41
  -1   4  -2   31.36    1.42
   0   4  -2   14.42    0.99
   1   4  -2   30.41    1.64
   2   4  -2   83.96    3.97
   3   4  -2    0.25    0.14
   4   4  -2   17.20    1.03
   5   4  -2    6.16    0.67
   6   4  -2   51.79    2.60
   7   4  -2   -0.18    0.26
   8   4  -2    1.72    0.47
   9   4  -2    4.33    0.71
  10   4  -2    5.13    0.80
  11   4  -2    0.87    0.46
  12   4  -2   59.71    3.33
  13   4  -2    2.95    0.73
  14   4  -2    6.66    1.07
  15   4  -2   14.85    2.09
  16   4  -2    3.88    1.36
 -16   5  -2    1.05    1.68
 -15   5  -2    0.20    1.13
 -14   5  -2    3.39    1.78
 -13   5  -2    1.12    1.08
 -12   5  -2    1.99    1.16
 -11   5  -2    5.73    1.84
 -10   5  -2   17.81    3.05
  -9   5  -2    7.55    1.83
  -8   5  -2    0.53    0.42
  -7   5  -2   29.07    2.39
  -6   5  -2   42.15    2.39
  -5   5  -2    0.22    0.26
  -4   5  -2    0.77    0.31
  -3   5  -2    1.05    0.25
  -2   5  -2   71.40    2.96
  -1   5  -2   17.25    1.00
   0   5  -2   -0.22    0.16
   1   5  -2   19.37    1.27
   2   5  -2   73.29    3.47
   3   5  -2    0.92    0.23
   4   5  -2    0.97    0.24
   5   5  -2    0.11    0.19
   6   5  -2   41.74    2.23
   7   5  -2   27.99    1.82
   8   5  -2    0.32    0.35
   9   5  -2    6.77    0.87
  10   5  -2   16.70    1.53
  11   5  -2    9.10    1.09
  12   5  -2    0.47    0.46
  13   5  -2    0.53    0.51
  14   5  -2    2.49    0.86
  15   5  -2    0.48    1.17
  16   5  -2    0.85    1.45
 -16   6  -2    4.61    2.16
 -15   6  -2    4.44    1.98
 -14   6  -2    0.19    0.95
 -13   6  -2    5.05    1.92
 -12   6  -2    4.80    1.75
 -11   6  -2    0.88    0.91
 -10   6  -2   14.90    2.73
  -9   6  -2    7.10    1.12
  -8   6  -2   28.61    2.40
  -7   6  -2   30.51    2.54
  -6   6  -2    2.33    0.51
  -5   6  -2   38.59    2.16
  -4   6  -2    0.13    0.27
  -3   6  -2  200.14    7.75
  -2   6  -2   67.65    2.85
  -1   6  -2    0.26    0.20
   0   6  -2   26.95    1.50
   1   6  -2    0.11    0.21
   2   6  -2   68.51    3.32
   3   6  -2  200.08    7.75
   4   6  -2    0.30    0.18
   5   6  -2   35.73    1.68
   6   6  -2    1.84    0.37
   7   6  -2   29.40    1.63
   8   6  -2   22.99    1.73
   9   6  -2    7.13    0.92
  10   6  -2   15.64    1.43
  11   6  -2    3.48    0.79
  12   6  -2    6.50    1.28
  13   6  -2    4.74    1.08
  14   6  -2    0.23    0.66
  15   6  -2   11.80    2.97
  16   6  -2    4.88    2.03
 -16   7  -2    1.80    1.82
 -15   7  -2   -0.25    1.30
 -14   7  -2    1.88    1.34
 -13   7  -2    0.36    1.24
 -12   7  -2    1.33    1.30
 -11   7  -2   -0.54    0.80
 -10   7  -2    1.00    0.97
  -9   7  -2   49.63    3.49
  -8   7  -2    6.30    1.13
  -7   7  -2   58.23    3.91
  -6   7  -2    3.26    0.60
  -5   7  -2    0.72    0.39
  -4   7  -2    0.38    0.31
  -3   7  -2   24.20    1.40
  -2   7  -2    9.75    0.80
  -1   7  -2   25.46    1.41
   0   7  -2    0.01    0.23
   1   7  -2   24.83    1.62
   2   7  -2   11.20    0.98
   3   7  -2   27.60    1.78
   4   7  -2    0.44    0.29
   5   7  -2    0.46    0.31
   6   7  -2    3.24    0.58
   7   7  -2   59.21    3.15
   8   7  -2    5.77    0.78
   9   7  -2   46.25    2.70
  10   7  -2    0.07    0.35
  11   7  -2    1.10    0.57
  12   7  -2    1.68    0.73
  13   7  -2    3.83    1.01
  14   7  -2   -0.54    0.97
  15   7  -2    0.99    1.35
  16   7  -2    4.74    3.37
 -16   8  -2    2.25    1.82
 -15   8  -2    0.27    1.48
 -14   8  -2    0.38    1.18
 -13   8  -2    1.32    1.45
 -12   8  -2    1.80    1.33
 -11   8  -2    3.39    1.55
 -10   8  -2   12.90    2.51
  -9   8  -2    1.59    0.68
  -8   8  -2   37.05    3.22
  -7   8  -2   14.10    1.61
  -6   8  -2   19.65    1.97
  -5   8  -2   14.54    1.29
  -4   8  -2    4.46    0.68
  -3   8  -2   38.11    1.87
  -2   8  -2    2.76    0.44
  -1   8  -2   35.30    1.68
   0   8  -2   37.32    2.13
   1   8  -2   31.96    1.92
   2   8  -2    2.91    0.54
   3   8  -2   36.34    2.04
   4   8  -2    3.02    0.56
   5   8  -2   11.97    1.10
   6   8  -2   19.56    1.54
   7   8  -2   11.49    1.14
   8   8  -2   41.67    2.51
   9   8  -2    2.84    0.63
  10   8  -2   11.63    1.65
  11   8  -2    3.05    0.96
  12   8  -2    2.29    0.87
  13   8  -2    1.21    0.74
  14   8  -2    0.35    1.16
  15   8  -2    0.37    1.22
 -13   9  -2    0.04    1.10
 -12   9  -2    2.55    1.45
 -11   9  -2   17.89    3.07
 -10   9  -2   17.26    2.18
  -9   9  -2    4.09    0.97
  -8   9  -2    1.18    0.58
  -7   9  -2    8.36    1.20
  -6   9  -2   37.45    2.77
  -5   9  -2   14.13    1.35
  -4   9  -2    0.16    0.32
  -3   9  -2   36.81    1.85
  -2   9  -2    7.99    0.75
  -1   9  -2    0.83    0.30
   0   9  -2    0.36    0.26
   1   9  -2    1.72    0.45
   2   9  -2    6.59    0.82
   3   9  -2   39.09    2.17
   4   9  -2    0.71    0.36
   5   9  -2   16.21    1.35
   6   9  -2   34.23    2.22
   7   9  -2    8.00    0.92
   8   9  -2    0.25    0.37
   9   9  -2    5.87    1.13
  10   9  -2   20.56    2.27
  11   9  -2   11.84    1.80
  12   9  -2    3.62    1.01
  13   9  -2    0.48    1.07
  14   9  -2    6.31    2.19
  15   9  -2    2.83    2.37
 -10  10  -2    0.89    0.97
  -9  10  -2    0.46    0.78
  -8  10  -2    0.59    0.69
  -7  10  -2    2.68    0.80
  -6  10  -2    4.09    0.94
  -5  10  -2   -0.07    0.45
  -4  10  -2   13.33    1.34
  -3  10  -2   36.24    2.23
  -2  10  -2   26.72    1.63
  -1  10  -2   31.73    1.74
   0  10  -2    2.28    0.44
   1  10  -2   33.02    2.17
   2  10  -2   24.19    1.85
   3  10  -2   35.55    2.20
   4  10  -2   18.89    1.45
   5  10  -2    0.77    0.39
   6  10  -2    3.77    0.65
   7  10  -2    1.71    0.69
   8  10  -2    0.36    0.47
   9  10  -2   -0.06    0.51
  10  10  -2    0.29    0.55
  11  10  -2    0.22    0.64
  12  10  -2   29.00    2.89
  13  10  -2   18.16    3.57
  14  10  -2    7.99    2.55
 -10  11  -2    8.25    2.10
  -9  11  -2   13.87    2.64
  -8  11  -2    0.50    0.87
  -7  11  -2    1.01    0.87
  -6  11  -2    5.13    1.53
  -5  11  -2   10.10    2.24
  -4  11  -2    2.97    0.88
  -3  11  -2   21.79    2.11
  -2  11  -2    1.46    0.47
  -1  11  -2   43.32    2.47
   0  11  -2    0.34    0.38
   1  11  -2   40.57    2.46
   2  11  -2    0.57    0.38
   3  11  -2   16.14    1.45
   4  11  -2    4.23    0.68
   5  11  -2    8.85    1.06
   6  11  -2    2.96    0.85
   7  11  -2    0.00    0.49
   8  11  -2    1.59    0.73
   9  11  -2   13.30    1.89
  10  11  -2    6.65    1.36
  11  11  -2    0.58    0.72
  12  11  -2    0.20    0.74
  13  11  -2    1.49    1.42
 -10  12  -2    0.38    0.87
  -9  12  -2    2.72    1.37
  -8  12  -2    0.57    0.94
  -7  12  -2   10.14    2.29
  -6  12  -2   14.39    2.71
  -5  12  -2    1.07    0.91
  -4  12  -2   15.96    2.81
  -3  12  -2    4.12    1.01
  -2  12  -2   14.66    1.89
  -1  12  -2   24.38    1.93
   0  12  -2   21.60    1.76
   1  12  -2   25.62    1.92
   2  12  -2   17.02    1.55
   3  12  -2    3.47    0.70
   4  12  -2   13.69    1.78
   5  12  -2    1.91    0.72
   6  12  -2   13.69    1.82
   7  12  -2    7.31    1.38
   8  12  -2    0.95    0.74
   9  12  -2    5.86    1.29
  10  12  -2    1.58    0.82
  11  12  -2    9.54    1.68
  12  12  -2    5.20    2.06
  13  12  -2    1.75    1.78
 -10  13  -2    0.98    1.16
  -9  13  -2    0.63    0.88
  -8  13  -2    0.44    1.04
  -7  13  -2    8.17    2.06
  -6  13  -2   22.88    3.65
  -5  13  -2   47.64    5.37
  -4  13  -2   21.78    3.36
  -3  13  -2    0.51    0.72
  -2  13  -2    0.32    0.58
  -1  13  -2    7.02    1.00
   0  13  -2    0.01    0.39
   1  13  -2    5.25    0.88
   2  13  -2    0.62    0.49
   3  13  -2    0.35    0.56
   4  13  -2   17.42    2.16
   5  13  -2   39.63    3.48
   6  13  -2   15.88    2.12
   7  13  -2    5.64    1.27
   8  13  -2    0.43    0.66
   9  13  -2    0.99    0.81
  10  13  -2    0.51    0.83
  11  13  -2    0.91    0.87
  12  13  -2   13.69    3.07
 -10  14  -2    3.61    1.68
  -9  14  -2    5.39    1.90
  -8  14  -2   30.23    4.37
  -7  14  -2   -0.47    0.84
  -6  14  -2    2.63    1.33
  -5  14  -2    5.11    1.87
  -4  14  -2    1.98    1.18
  -3  14  -2    0.24    0.88
  -2  14  -2   -0.63    0.71
  -1  14  -2    2.41    0.88
   0  14  -2   70.25    4.00
   1  14  -2    1.24    0.65
   2  14  -2    1.00    0.69
   3  14  -2   -0.38    0.53
   4  14  -2    4.20    1.15
   5  14  -2    7.16    1.40
   6  14  -2    2.02    0.86
   7  14  -2   -0.13    0.70
   8  14  -2   26.32    2.91
   9  14  -2    5.38    1.38
  10  14  -2    4.46    1.29
  11  14  -2    0.64    1.42
 -10  15  -2    1.91    1.47
  -9  15  -2    3.34    1.50
  -8  15  -2    7.76    2.21
  -7  15  -2    2.80    1.43
  -6  15  -2    0.72    1.11
  -5  15  -2    1.93    1.36
  -4  15  -2   -0.75    1.02
  -3  15  -2    1.33    1.23
  -2  15  -2    2.54    1.27
  -1  15  -2    0.77    0.95
   0  15  -2   -0.39    0.61
   1  15  -2    0.27    0.71
   2  15  -2    0.23    0.70
   3  15  -2    0.14    0.63
   4  15  -2    1.38    0.73
   5  15  -2    0.14    0.68
   6  15  -2    0.17    0.67
   7  15  -2    1.81    0.95
   8  15  -2   10.35    1.84
   9  15  -2    3.08    1.24
  10  15  -2    5.91    1.60
  -9  16  -2    2.67    1.59
  -8  16  -2   -0.89    1.05
  -7  16  -2    1.18    1.23
  -6  16  -2    0.66    1.17
  -5  16  -2    0.78    1.16
  -4  16  -2   20.74    3.87
  -3  16  -2   -0.08    1.20
  -2  16  -2    1.17    1.36
  -1  16  -2    5.57    1.88
   0  16  -2   13.11    3.04
   1  16  -2    3.07    1.07
   2  16  -2    0.96    0.86
   3  16  -2    0.66    0.81
   4  16  -2   22.95    2.64
   5  16  -2    3.11    1.08
   6  16  -2    0.17    0.79
   7  16  -2    0.78    0.94
   8  16  -2    0.85    0.97
   9  16  -2    1.51    1.52
  -6  17  -2    9.51    2.61
  -5  17  -2    3.03    1.75
  -4  17  -2    5.02    2.04
  -3  17  -2    1.99    1.54
  -2  17  -2    5.92    2.21
  -1  17  -2    2.56    1.64
   0  17  -2    0.81    1.29
   1  17  -2    0.75    1.19
   2  17  -2    7.82    1.55
   3  17  -2    1.16    0.98
   4  17  -2    1.65    1.05
   5  17  -2    1.88    1.09
   6  17  -2   11.12    2.03
   7  17  -2    4.09    1.31
  -3  18  -2    0.37    1.88
  -2  18  -2    0.59    1.42
  -1  18  -2   -0.53    1.17
   0  18  -2   -0.81    1.16
   1  18  -2   -0.39    1.28
   2  18  -2    1.18    1.34
   3  18  -2    2.74    1.19
   4  18  -2   12.70    2.41
   5  18  -2   -0.69    1.49
  -2 -19  -1    2.38    1.78
  -1 -19  -1    0.77    1.00
   0 -19  -1    0.48    0.99
   1 -19  -1    2.29    1.09
   2 -19  -1    0.46    1.01
   3 -19  -1    2.30    1.18
   4 -19  -1    1.52    1.65
  -5 -18  -1   -0.05    1.43
  -4 -18  -1    0.36    1.45
  -3 -18  -1   -0.22    1.42
  -2 -18  -1    1.02    1.62
  -1 -18  -1   -0.02    1.48
   0 -18  -1    0.48    0.89
   1 -18  -1   -0.09    0.82
   2 -18  -1    0.53    0.90
   3 -18  -1    1.66    1.08
   4 -18  -1   -0.59    1.07
   5 -18  -1   -0.71    1.19
   6 -18  -1    0.67    1.29
  -8 -17  -1    3.81    2.12
  -7 -17  -1   -0.08    1.42
  -6 -17  -1   -0.08    1.44
  -5 -17  -1    1.58    1.58
  -4 -17  -1    3.41    1.90
  -3 -17  -1    0.28    1.10
  -2 -17  -1    7.37    2.29
  -1 -17  -1   11.90    2.95
   0 -17  -1    0.52    0.75
   1 -17  -1   12.48    2.11
   2 -17  -1    4.38    1.30
   3 -17  -1   -0.62    0.65
   4 -17  -1    5.45    1.41
   5 -17  -1   -0.81    0.95
   6 -17  -1    1.34    1.44
   7 -17  -1    1.47    1.39
   8 -17  -1    0.27    1.13
 -10 -16  -1    3.66    2.07
  -9 -16  -1   -0.04    1.44
  -8 -16  -1   -2.05    1.01
  -7 -16  -1    8.18    2.63
  -6 -16  -1    0.21    1.20
  -5 -16  -1   -0.52    1.27
  -4 -16  -1    0.68    1.30
  -3 -16  -1   14.86    3.36
  -2 -16  -1   10.97    2.71
  -1 -16  -1    3.15    1.45
   0 -16  -1   40.87    5.47
   1 -16  -1    3.14    1.05
   2 -16  -1   10.14    1.70
   3 -16  -1   14.95    2.16
   4 -16  -1   -0.25    0.63
   5 -16  -1   -0.68    0.95
   6 -16  -1   -0.25    1.04
   7 -16  -1    9.19    2.46
   8 -16  -1   -0.07    1.11
   9 -16  -1    1.36    1.31
  10 -16  -1    0.68    0.94
 -11 -15  -1   -0.23    1.60
 -10 -15  -1   -0.35    1.49
  -9 -15  -1   -0.08    1.18
  -8 -15  -1   -0.07    1.16
  -7 -15  -1    5.58    1.96
  -6 -15  -1    5.53    2.08
  -5 -15  -1   18.63    3.78
  -4 -15  -1    8.75    2.48
  -3 -15  -1    2.94    1.58
  -2 -15  -1    0.87    1.15
  -1 -15  -1    2.26    1.39
   0 -15  -1   -0.43    0.80
   1 -15  -1    0.70    0.66
   2 -15  -1   -0.45    0.54
   3 -15  -1    5.15    1.29
   4 -15  -1    8.03    1.46
   5 -15  -1   23.61    3.85
   6 -15  -1    9.95    2.36
   7 -15  -1    9.72    2.47
   8 -15  -1    1.52    1.24
   9 -15  -1   -0.82    0.85
  10 -15  -1    1.04    0.99
  11 -15  -1    0.38    0.90
 -12 -14  -1   -0.86    1.55
 -11 -14  -1    0.09    1.35
 -10 -14  -1    1.43    1.25
  -9 -14  -1    2.15    1.32
  -8 -14  -1   17.76    3.38
  -7 -14  -1    1.84    1.21
  -6 -14  -1    0.00    0.93
  -5 -14  -1    0.89    1.02
  -4 -14  -1   35.05    4.68
  -3 -14  -1    2.56    1.35
  -2 -14  -1    2.74    1.39
  -1 -14  -1   11.91    2.64
   0 -14  -1   14.73    2.97
   1 -14  -1    8.87    2.21
   2 -14  -1    1.10    0.76
   3 -14  -1    1.37    0.75
   4 -14  -1   31.73    3.09
   5 -14  -1   -0.08    0.54
   6 -14  -1   -0.78    0.75
   7 -14  -1    1.02    1.12
   8 -14  -1   15.66    3.22
   9 -14  -1    1.51    1.37
  10 -14  -1    0.63    0.89
  11 -14  -1    0.43    0.81
  12 -14  -1    2.20    1.11
 -13 -13  -1    7.90    2.38
 -12 -13  -1    0.79    1.34
 -11 -13  -1   28.72    4.63
 -10 -13  -1   12.92    2.96
  -9 -13  -1    7.01    2.29
  -8 -13  -1   16.11    3.15
  -7 -13  -1    0.38    1.12
  -6 -13  -1    1.72    1.23
  -5 -13  -1    0.06    0.95
  -4 -13  -1    5.12    1.71
  -3 -13  -1   49.66    5.87
  -2 -13  -1    5.97    1.79
  -1 -13  -1    1.35    1.12
   0 -13  -1   -0.13    0.60
   1 -13  -1    1.11    1.00
   2 -13  -1    8.20    1.35
   3 -13  -1   45.05    3.64
   4 -13  -1    2.29    0.84
   5 -13  -1    0.43    0.64
   6 -13  -1    1.56    1.14
   7 -13  -1    1.76    1.13
   8 -13  -1   12.97    2.82
   9 -13  -1    2.44    1.47
  10 -13  -1   17.49    2.45
  11 -13  -1   20.51    2.71
  12 -13  -1    0.84    0.85
  13 -13  -1    6.41    1.36
 -13 -12  -1    0.63    1.37
 -12 -12  -1    0.58    1.39
 -11 -12  -1    3.56    1.71
 -10 -12  -1    4.41    1.65
  -9 -12  -1    2.81    1.37
  -8 -12  -1   12.81    2.62
  -7 -12  -1    6.65    1.87
  -6 -12  -1    2.26    1.19
  -5 -12  -1    4.29    1.52
  -4 -12  -1   14.33    2.82
  -3 -12  -1    3.60    1.45
  -2 -12  -1   -0.45    0.73
  -1 -12  -1    6.78    1.70
   0 -12  -1    2.80    1.20
   1 -12  -1    3.77    1.40
   2 -12  -1    1.44    0.67
   3 -12  -1    5.95    1.11
   4 -12  -1   17.54    2.04
   5 -12  -1    8.50    1.35
   6 -12  -1    3.21    1.32
   7 -12  -1    6.48    1.94
   8 -12  -1    9.24    2.28
   9 -12  -1    0.89    1.16
  10 -12  -1    3.62    1.14
  11 -12  -1    4.44    1.23
  12 -12  -1   -0.70    0.69
  13 -12  -1    0.96    0.91
  14 -12  -1    1.89    1.23
 -13 -11  -1    0.84    1.50
 -12 -11  -1    0.84    1.08
 -11 -11  -1   -0.42    1.16
 -10 -11  -1    0.19    1.09
  -9 -11  -1   22.98    3.58
  -8 -11  -1    1.35    1.12
  -7 -11  -1   72.62    6.69
  -6 -11  -1    2.45    1.31
  -5 -11  -1    3.09    1.24
  -4 -11  -1    4.70    1.48
  -3 -11  -1    0.80    0.82
  -2 -11  -1   22.43    3.38
  -1 -11  -1   37.97    4.75
   0 -11  -1    0.79    0.70
   1 -11  -1   35.15    4.60
   2 -11  -1   25.35    2.40
   3 -11  -1    0.70    0.49
   4 -11  -1    3.39    0.82
   5 -11  -1    3.51    0.86
   6 -11  -1    5.18    1.14
   7 -11  -1   73.41    6.65
   8 -11  -1    1.01    1.01
   9 -11  -1   16.64    2.21
  10 -11  -1   -0.35    0.59
  11 -11  -1    0.34    0.66
  12 -11  -1    0.06    0.73
  13 -11  -1    2.15    1.02
  14 -11  -1    0.67    0.86
  15 -11  -1    1.48    1.70
 -13 -10  -1    2.93    1.64
 -12 -10  -1   -1.78    0.85
 -11 -10  -1   26.39    4.14
 -10 -10  -1    2.93    1.50
  -9 -10  -1   10.49    2.31
  -8 -10  -1    0.26    0.78
  -7 -10  -1    1.42    0.96
  -6 -10  -1   19.26    2.90
  -5 -10  -1   10.39    2.12
  -4 -10  -1   34.55    4.18
  -3 -10  -1   20.42    2.91
  -2 -10  -1    4.61    1.52
  -1 -10  -1   42.11    4.56
   0 -10  -1   13.02    2.43
   1 -10  -1   40.30    4.40
   2 -10  -1    6.50    1.51
   3 -10  -1   17.48    1.85
   4 -10  -1   34.13    2.85
   5 -10  -1    9.44    1.37
   6 -10  -1   14.43    1.74
   7 -10  -1    2.13    1.06
   8 -10  -1    0.11    0.85
   9 -10  -1    5.29    1.17
  10 -10  -1    2.01    0.79
  11 -10  -1   33.47    3.29
  12 -10  -1    1.07    0.74
  13 -10  -1    2.05    0.95
  14 -10  -1    0.60    0.87
  15 -10  -1    0.73    1.03
 -16  -9  -1    1.66    1.89
 -15  -9  -1   -0.98    1.19
 -14  -9  -1    0.87    1.17
 -13  -9  -1    0.48    0.80
 -12  -9  -1   -0.40    0.66
 -11  -9  -1    1.58    0.78
 -10  -9  -1    2.68    0.86
  -9  -9  -1   50.46    3.64
  -8  -9  -1   16.80    1.93
  -7  -9  -1   11.02    1.40
  -6  -9  -1   18.31    1.76
  -5  -9  -1   85.65    5.52
  -4  -9  -1    6.04    1.57
  -3  -9  -1    3.36    1.12
  -2  -9  -1   84.23    7.55
  -1  -9  -1   15.22    2.28
   0  -9  -1   -0.24    0.45
   1  -9  -1    9.84    1.84
   2  -9  -1   77.29    7.34
   3  -9  -1    5.33    0.90
   4  -9  -1    5.93    1.01
   5  -9  -1   84.11    5.33
   6  -9  -1   17.90    1.83
   7  -9  -1    6.42    1.78
   8  -9  -1   18.24    3.04
   9  -9  -1   50.45    3.81
  10  -9  -1    2.59    0.96
  11  -9  -1    1.28    0.77
  12  -9  -1   -0.35    0.64
  13  -9  -1    2.17    0.94
  14  -9  -1    0.21    0.80
  15  -9  -1    2.04    1.00
  16  -9  -1    0.74    1.32
 -16  -8  -1   -0.07    1.28
 -15  -8  -1    0.37    1.27
 -14  -8  -1    0.41    1.22
 -13  -8  -1    1.28    0.86
 -12  -8  -1   -0.03    0.69
 -11  -8  -1   10.24    1.56
 -10  -8  -1    3.94    0.93
  -9  -8  -1   19.12    2.02
  -8  -8  -1    3.01    0.80
  -7  -8  -1    9.04    1.30
  -6  -8  -1    9.42    1.21
  -5  -8  -1   26.86    2.18
  -4  -8  -1   25.06    2.10
  -3  -8  -1   14.22    1.29
  -2  -8  -1   14.93    1.27
  -1  -8  -1   17.81    2.68
   0  -8  -1   37.12    4.11
   1  -8  -1   26.55    3.09
   2  -8  -1   16.12    2.22
   3  -8  -1   13.73    1.44
   4  -8  -1   25.12    2.27
   5  -8  -1   28.56    2.42
   6  -8  -1    9.69    1.24
   7  -8  -1   10.08    2.15
   8  -8  -1    5.99    1.04
   9  -8  -1   19.06    2.23
  10  -8  -1    3.23    0.90
  11  -8  -1    6.03    1.30
  12  -8  -1    0.15    0.67
  13  -8  -1    1.96    0.90
  14  -8  -1   -0.28    0.64
  15  -8  -1    2.57    1.12
  16  -8  -1    0.92    0.98
 -17  -7  -1    7.99    2.53
 -16  -7  -1    0.71    1.49
 -15  -7  -1    3.37    1.98
 -14  -7  -1   -0.65    0.97
 -13  -7  -1   56.39    6.69
 -12  -7  -1    0.14    0.53
 -11  -7  -1    0.09    0.54
 -10  -7  -1   -0.36    0.44
  -9  -7  -1    9.95    1.39
  -8  -7  -1   15.05    1.75
  -7  -7  -1    9.84    1.27
  -6  -7  -1    7.06    1.02
  -5  -7  -1  138.00    7.62
  -4  -7  -1    0.05    0.31
  -3  -7  -1    1.54    0.43
  -2  -7  -1   10.31    1.02
  -1  -7  -1   34.60    2.19
   0  -7  -1   -0.06    0.43
   1  -7  -1   36.81    3.40
   2  -7  -1   15.80    1.94
   3  -7  -1    0.98    0.41
   4  -7  -1    0.49    0.34
   5  -7  -1  129.59    7.60
   6  -7  -1    6.35    0.95
   7  -7  -1   11.38    2.08
   8  -7  -1   16.91    1.93
   9  -7  -1    7.88    1.34
  10  -7  -1    0.94    0.59
  11  -7  -1    0.58    0.61
  12  -7  -1   -0.68    0.47
  13  -7  -1   58.48    4.58
  14  -7  -1    0.61    0.70
  15  -7  -1   10.77    1.85
  16  -7  -1    1.60    1.08
  17  -7  -1   11.44    3.02
 -17  -6  -1    3.49    2.01
 -16  -6  -1    1.36    1.51
 -15  -6  -1    0.11    1.05
 -14  -6  -1   -0.28    0.98
 -13  -6  -1   35.58    4.91
 -12  -6  -1   10.64    1.57
 -11  -6  -1   55.49    4.17
 -10  -6  -1    8.30    1.29
  -9  -6  -1    9.95    1.38
  -8  -6  -1    6.98    1.10
  -7  -6  -1   10.19    1.36
  -6  -6  -1    0.75    0.40
  -5  -6  -1   15.26    1.59
  -4  -6  -1    1.35    0.44
  -3  -6  -1   10.85    1.12
  -2  -6  -1    4.13    0.60
  -1  -6  -1  172.50    9.39
   0  -6  -1   30.56    1.89
   1  -6  -1  171.87    9.34
   2  -6  -1    3.13    0.85
   3  -6  -1   12.22    1.24
   4  -6  -1    1.21    0.42
   5  -6  -1   18.06    1.63
   6  -6  -1    0.02    0.30
   7  -6  -1   15.71    1.66
   8  -6  -1    7.46    1.19
   9  -6  -1   13.18    1.67
  10  -6  -1   11.83    1.62
  11  -6  -1   58.26    4.13
  12  -6  -1    8.75    1.55
  13  -6  -1   33.53    3.38
  14  -6  -1    0.64    0.76
  15  -6  -1   -0.12    0.76
  16  -6  -1   -0.31    0.77
  17  -6  -1    4.88    1.53
 -17  -5  -1   13.86    3.07
 -16  -5  -1    2.96    1.81
 -15  -5  -1   -0.04    1.13
 -14  -5  -1    4.41    1.62
 -13  -5  -1   -0.36    0.84
 -12  -5  -1    1.49    0.69
 -11  -5  -1   11.86    1.59
 -10  -5  -1   23.32    2.30
  -9  -5  -1   13.01    1.58
  -8  -5  -1   -0.03    0.34
  -7  -5  -1   44.56    3.12
  -6  -5  -1   48.22    3.15
  -5  -5  -1   31.07    2.08
  -4  -5  -1   -0.07    0.25
  -3  -5  -1   68.96    4.01
  -2  -5  -1   89.20    5.01
  -1  -5  -1    0.02    0.21
   0  -5  -1    0.18    0.17
   1  -5  -1   -0.33    0.25
   2  -5  -1   92.06    7.11
   3  -5  -1   62.51    3.98
   4  -5  -1   -0.05    0.24
   5  -5  -1   25.68    1.92
   6  -5  -1   48.18    2.51
   7  -5  -1   48.92    3.25
   8  -5  -1    0.72    0.49
   9  -5  -1   12.93    1.65
  10  -5  -1   21.97    2.35
  11  -5  -1    9.69    1.62
  12  -5  -1    0.77    0.63
  13  -5  -1   -0.66    0.56
  14  -5  -1    4.68    1.26
  15  -5  -1   -0.36    0.59
  16  -5  -1    0.10    0.78
  17  -5  -1   11.81    2.08
 -17  -4  -1   -0.12    1.57
 -16  -4  -1    3.51    1.92
 -15  -4  -1    2.14    1.38
 -14  -4  -1   26.60    4.32
 -13  -4  -1   -0.33    0.79
 -12  -4  -1    0.91    0.59
 -11  -4  -1    3.89    0.90
 -10  -4  -1    0.84    0.49
  -9  -4  -1   26.94    2.48
  -8  -4  -1    5.98    0.99
  -7  -4  -1   11.15    1.32
  -6  -4  -1   20.22    1.69
  -5  -4  -1   22.32    1.94
  -4  -4  -1   87.18    4.99
  -3  -4  -1    3.91    0.58
  -2  -4  -1   44.03    2.08
  -1  -4  -1   38.97    2.27
   0  -4  -1    8.78    0.74
   1  -4  -1   35.67    3.22
   2  -4  -1   45.98    2.66
   3  -4  -1    2.17    0.44
   4  -4  -1   89.60    4.92
   5  -4  -1   22.66    1.40
   6  -4  -1   14.26    1.00
   7  -4  -1   10.75    1.34
   8  -4  -1    7.50    1.12
   9  -4  -1   29.81    2.57
  10  -4  -1    0.87    0.59
  11  -4  -1    1.69    0.73
  12  -4  -1    0.16    0.49
  13  -4  -1    0.13    0.56
  14  -4  -1   30.44    3.19
  15  -4  -1    2.92    1.08
  16  -4  -1    7.61    1.58
  17  -4  -1    0.30    0.89
  18  -4  -1   -0.44    1.43
 -17  -3  -1   13.16    3.12
 -16  -3  -1    2.01    1.75
 -15  -3  -1    6.52    2.05
 -14  -3  -1   -0.93    0.81
 -13  -3  -1   -1.19    0.80
 -12  -3  -1    5.44    1.07
 -11  -3  -1   19.74    2.06
 -10  -3  -1   36.27    2.70
  -9  -3  -1   19.39    2.03
  -8  -3  -1   50.82    3.44
  -7  -3  -1  109.63    6.19
  -6  -3  -1    2.31    0.56
  -5  -3  -1   75.04    6.50
  -4  -3  -1   27.09    2.58
  -3  -3  -1   12.16    0.89
  -2  -3  -1  199.35   10.53
  -1  -3  -1  254.07   13.68
   0  -3  -1   -0.01    0.26
   1  -3  -1  258.44   19.32
   2  -3  -1  199.12   10.64
   3  -3  -1   12.47    0.96
   4  -3  -1   27.33    1.64
   5  -3  -1   77.31    3.61
   6  -3  -1    2.30    0.61
   7  -3  -1  101.48    6.20
   8  -3  -1   52.29    3.51
   9  -3  -1   20.65    2.09
  10  -3  -1   30.17    2.86
  11  -3  -1   18.79    2.17
  12  -3  -1    4.06    1.06
  13  -3  -1    0.41    0.58
  14  -3  -1    0.51    0.68
  15  -3  -1    4.35    0.87
  16  -3  -1    6.67    1.57
  17  -3  -1   14.35    2.22
  18  -3  -1    1.47    1.51
 -17  -2  -1   -0.69    1.13
 -16  -2  -1   -0.25    1.04
 -15  -2  -1    0.49    1.06
 -14  -2  -1    1.31    1.29
 -13  -2  -1   -0.57    0.70
 -12  -2  -1   29.19    4.39
 -11  -2  -1   21.82    2.19
 -10  -2  -1    2.46    0.72
  -9  -2  -1    6.05    0.99
  -8  -2  -1   10.55    2.09
  -7  -2  -1   38.07    4.26
  -6  -2  -1    5.50    1.33
  -5  -2  -1   -0.27    0.31
  -4  -2  -1   10.93    1.57
  -3  -2  -1   40.65    2.29
  -2  -2  -1   56.29    3.13
  -1  -2  -1   94.10    5.08
   2  -2  -1   58.60    3.19
   3  -2  -1   39.27    1.88
   4  -2  -1   10.07    0.71
   5  -2  -1    0.52    0.34
   6  -2  -1    6.26    0.86
   7  -2  -1   35.36    2.52
   8  -2  -1   11.41    1.42
   9  -2  -1    4.47    0.93
  10  -2  -1    1.22    0.62
  11  -2  -1   19.26    2.23
  12  -2  -1   29.28    2.94
  13  -2  -1    0.41    0.39
  14  -2  -1    0.87    0.47
  15  -2  -1    0.53    0.70
  16  -2  -1    0.78    0.85
  17  -2  -1   -0.29    0.76
  18  -2  -1    2.30    1.64
 -18  -1  -1    2.17    2.32
 -17  -1  -1   -0.33    1.27
 -16  -1  -1   15.01    3.18
 -15  -1  -1    4.79    1.92
 -14  -1  -1    2.19    1.62
 -13  -1  -1    6.96    2.23
 -12  -1  -1    3.58    1.55
 -11  -1  -1   13.33    1.52
 -10  -1  -1   56.80    6.06
  -9  -1  -1    0.12    0.72
  -8  -1  -1   37.08    4.31
  -7  -1  -1   10.35    0.83
  -6  -1  -1    8.09    0.69
  -5  -1  -1  132.44   10.79
  -4  -1  -1   41.51    2.37
  -3  -1  -1  100.56    5.59
  -2  -1  -1    1.00    0.16
  -1  -1  -1    0.39    0.19
   2  -1  -1    0.84    0.32
   3  -1  -1  102.00    5.65
   4  -1  -1   36.24    2.38
   5  -1  -1  138.62    7.57
   6  -1  -1    9.37    1.07
   7  -1  -1    9.99    1.21
   8  -1  -1   36.69    2.64
   9  -1  -1    0.63    0.49
  10  -1  -1   49.12    3.42
  11  -1  -1   10.30    1.16
  12  -1  -1    6.67    0.95
  13  -1  -1   12.51    1.34
  14  -1  -1    6.54    1.03
  15  -1  -1    2.61    0.99
  16  -1  -1    7.67    1.52
  17  -1  -1    0.39    0.86
  18  -1  -1    0.08    0.98
 -17   0  -1    0.00    1.40
 -16   0  -1   32.45    5.16
 -15   0  -1   -0.42    0.98
 -14   0  -1   33.45    4.96
 -13   0  -1    1.25    1.18
 -12   0  -1    1.88    1.25
 -11   0  -1    0.99    0.92
 -10   0  -1   13.76    2.72
  -9   0  -1    0.62    0.89
  -8   0  -1  170.73    9.28
  -7   0  -1   -0.29    0.16
  -6   0  -1   47.39    2.87
  -5   0  -1   -0.03    0.15
  -4   0  -1  245.03   10.72
  -3   0  -1    0.12    0.14
  -2   0  -1  113.16    4.91
  -1   0  -1    0.01    0.13
   0   0  -1    3.91    0.33
   1   0  -1   -0.01    0.15
   2   0  -1  111.91    4.95
   3   0  -1   -0.11    0.22
   4   0  -1  245.16   13.23
   5   0  -1   -0.13    0.22
   6   0  -1   46.92    3.02
   7   0  -1    0.17    0.23
   8   0  -1  162.44    7.64
   9   0  -1    0.07    0.26
  10   0  -1   14.25    1.31
  11   0  -1   -0.07    0.29
  12   0  -1    1.94    0.59
  13   0  -1   -0.07    0.37
  14   0  -1   33.63    2.57
  15   0  -1    0.28    0.65
  16   0  -1   33.60    3.51
  17   0  -1   -0.03    0.78
  18   0  -1   -0.24    0.99
 -18   1  -1    0.74    2.45
 -17   1  -1   -0.61    1.33
 -16   1  -1    9.90    2.46
 -15   1  -1    2.58    1.59
 -14   1  -1    5.45    1.94
 -13   1  -1   18.58    3.27
 -12   1  -1    5.03    1.71
 -11   1  -1   16.58    3.02
 -10   1  -1   62.35    5.51
  -9   1  -1   -0.31    0.28
  -8   1  -1   34.84    2.37
  -7   1  -1    7.97    0.94
  -6   1  -1   10.59    0.95
  -5   1  -1  134.02    7.43
  -4   1  -1   41.04    1.91
  -3   1  -1  102.10    4.55
  -2   1  -1    1.15    0.22
  -1   1  -1    0.33    0.17
   0   1  -1   -0.13    0.12
   1   1  -1    0.06    0.14
   2   1  -1    0.98    0.22
   3   1  -1  100.20    4.56
   4   1  -1   37.25    1.90
   5   1  -1  132.02    6.10
   6   1  -1    8.87    0.81
   7   1  -1    9.06    0.87
   8   1  -1   34.33    1.93
   9   1  -1    0.06    0.28
  10   1  -1   50.75    2.70
  11   1  -1    9.86    1.12
  12   1  -1    6.39    0.88
  13   1  -1   13.10    1.39
  14   1  -1    4.98    1.15
  15   1  -1    3.21    1.07
  16   1  -1   12.11    1.81
  17   1  -1    0.41    0.77
  18   1  -1    0.34    0.91
 -17   2  -1   -0.80    1.52
 -16   2  -1   -0.26    1.05
 -15   2  -1    0.78    1.31
 -14   2  -1    0.53    1.10
 -13   2  -1   -1.03    0.80
 -12   2  -1   30.07    4.48
 -11   2  -1   24.98    3.74
 -10   2  -1    4.21    1.54
  -9   2  -1    4.65    0.82
  -8   2  -1   12.54    1.29
  -7   2  -1   38.04    2.51
  -6   2  -1    7.05    0.82
  -5   2  -1    0.26    0.26
  -4   2  -1   10.43    0.83
  -3   2  -1   37.20    1.89
  -2   2  -1   56.28    2.23
  -1   2  -1   94.17    4.16
   0   2  -1   23.35    1.13
   1   2  -1   95.25    4.19
   2   2  -1   56.63    2.59
   3   2  -1   39.73    1.88
   4   2  -1   10.67    0.80
   5   2  -1    0.37    0.21
   6   2  -1    6.42    0.66
   7   2  -1   35.26    1.94
   8   2  -1   13.53    1.14
   9   2  -1    4.81    0.68
  10   2  -1    1.65    0.49
  11   2  -1   20.16    1.72
  12   2  -1   32.94    2.35
  13   2  -1    0.26    0.39
  14   2  -1   -0.05    0.65
  15   2  -1    1.17    0.82
  16   2  -1    1.12    0.87
  17   2  -1    0.48    0.87
  18   2  -1    0.15    0.85
 -17   3  -1    5.95    2.43
 -16   3  -1    2.67    1.71
 -15   3  -1    4.47    1.89
 -14   3  -1    2.35    1.25
 -13   3  -1    0.63    1.13
 -12   3  -1    9.29    2.20
 -11   3  -1   16.69    3.10
 -10   3  -1   33.74    2.55
  -9   3  -1   20.43    1.89
  -8   3  -1   53.50    3.38
  -7   3  -1  109.80    6.12
  -6   3  -1    3.55    0.62
  -5   3  -1   76.47    4.49
  -4   3  -1   24.29    1.22
  -3   3  -1   11.72    0.68
  -2   3  -1  197.92    7.50
  -1   3  -1  259.25    9.66
   0   3  -1   -0.13    0.14
   1   3  -1  258.87    9.64
   2   3  -1  199.15    7.49
   3   3  -1   11.18    0.78
   4   3  -1   24.99    1.36
   5   3  -1   81.16    3.65
   6   3  -1    2.82    0.44
   7   3  -1  105.50    4.96
   8   3  -1   52.11    2.74
   9   3  -1   22.27    1.58
  10   3  -1   35.72    2.20
  11   3  -1   20.33    1.65
  12   3  -1    5.15    0.82
  13   3  -1    0.11    0.41
  14   3  -1    0.32    0.57
  15   3  -1    4.67    1.14
  16   3  -1    2.01    1.03
  17   3  -1   14.24    2.27
  18   3  -1    0.95    1.02
 -17   4  -1   -0.35    1.32
 -16   4  -1    6.85    2.10
 -15   4  -1    0.42    1.22
 -14   4  -1   30.72    4.65
 -13   4  -1    0.72    1.07
 -12   4  -1    0.20    0.81
 -11   4  -1    3.90    1.45
 -10   4  -1    0.97    0.46
  -9   4  -1   29.37    2.45
  -8   4  -1    7.12    0.99
  -7   4  -1   11.66    1.24
  -6   4  -1   15.88    1.46
  -5   4  -1   23.94    1.35
  -4   4  -1   87.96    3.48
  -3   4  -1    3.46    0.38
  -2   4  -1   43.96    1.85
  -1   4  -1   40.18    1.61
   0   4  -1    7.80    0.51
   1   4  -1   37.68    1.58
   2   4  -1   43.27    1.83
   3   4  -1    2.93    0.32
   4   4  -1   85.08    3.99
   5   4  -1   23.11    1.36
   6   4  -1   13.95    1.11
   7   4  -1    9.36    0.93
   8   4  -1    7.44    0.81
   9   4  -1   27.53    1.96
  10   4  -1    0.44    0.35
  11   4  -1    2.87    0.63
  12   4  -1    0.54    0.42
  13   4  -1   -0.35    0.47
  14   4  -1   29.35    3.01
  15   4  -1    1.62    0.83
  16   4  -1    4.09    1.15
  17   4  -1    1.02    0.90
 -17   5  -1    6.98    2.44
 -16   5  -1    1.82    1.36
 -15   5  -1   -0.05    1.07
 -14   5  -1    2.66    1.57
 -13   5  -1   -0.33    0.91
 -12   5  -1    1.50    0.99
 -11   5  -1   10.58    1.45
 -10   5  -1   22.34    2.16
  -9   5  -1   13.27    1.54
  -8   5  -1    0.84    0.46
  -7   5  -1   47.99    3.11
  -6   5  -1   48.73    2.50
  -5   5  -1   27.17    1.62
  -4   5  -1   -0.06    0.16
  -3   5  -1   72.01    2.82
  -2   5  -1   89.09    3.54
  -1   5  -1    0.02    0.15
   0   5  -1    0.22    0.14
   1   5  -1    0.26    0.15
   2   5  -1   90.86    3.52
   3   5  -1   69.99    2.78
   4   5  -1    0.02    0.15
   5   5  -1   25.63    1.52
   6   5  -1   47.11    2.48
   7   5  -1   49.13    2.49
   8   5  -1    0.98    0.37
   9   5  -1   15.91    1.34
  10   5  -1   20.10    1.69
  11   5  -1   12.19    1.21
  12   5  -1    1.91    0.57
  13   5  -1    1.23    0.68
  14   5  -1    6.27    1.32
  15   5  -1   -0.22    0.64
  16   5  -1    1.77    0.93
  17   5  -1   17.51    2.47
 -17   6  -1    4.51    2.14
 -16   6  -1    1.00    1.26
 -15   6  -1   -0.57    1.17
 -14   6  -1    0.72    1.06
 -13   6  -1   36.14    4.90
 -12   6  -1   11.17    2.45
 -11   6  -1   59.55    4.14
 -10   6  -1   12.88    1.58
  -9   6  -1    7.40    1.18
  -8   6  -1    8.05    1.12
  -7   6  -1   12.51    1.11
  -6   6  -1    0.37    0.29
  -5   6  -1   18.92    1.33
  -4   6  -1    0.69    0.29
  -3   6  -1   11.63    0.81
  -2   6  -1    4.73    0.46
  -1   6  -1  174.33    5.96
   0   6  -1   31.15    1.39
   1   6  -1  175.16    6.67
   2   6  -1    4.69    0.43
   3   6  -1   10.78    0.74
   4   6  -1    1.32    0.26
   5   6  -1   17.13    1.01
   6   6  -1    0.04    0.19
   7   6  -1   13.51    1.14
   8   6  -1    6.94    0.84
   9   6  -1   10.18    1.04
  10   6  -1   10.81    1.12
  11   6  -1   59.92    3.18
  12   6  -1   12.02    1.28
  13   6  -1   38.92    3.44
  14   6  -1   -0.21    0.57
  15   6  -1   -0.02    0.70
  16   6  -1   -0.25    0.69
  17   6  -1    3.30    1.20
 -17   7  -1    7.38    2.50
 -16   7  -1    0.66    1.22
 -15   7  -1   12.20    2.70
 -14   7  -1   -0.73    0.97
 -13   7  -1   57.98    6.59
 -12   7  -1   -1.16    0.57
 -11   7  -1    0.53    0.47
 -10   7  -1    0.32    0.58
  -9   7  -1    7.69    1.21
  -8   7  -1   16.87    1.37
  -7   7  -1    9.36    1.00
  -6   7  -1    7.48    0.82
  -5   7  -1  135.82    6.18
  -4   7  -1    0.39    0.26
  -3   7  -1    1.05    0.27
  -2   7  -1   10.44    0.76
  -1   7  -1   35.70    1.43
   0   7  -1   -0.17    0.14
   1   7  -1   36.30    1.60
   2   7  -1   11.48    0.76
   3   7  -1    1.13    0.26
   4   7  -1    0.16    0.18
   5   7  -1  134.86    5.29
   6   7  -1    7.10    0.65
   7   7  -1   10.37    0.80
   8   7  -1   16.20    1.37
   9   7  -1    9.09    1.03
  10   7  -1   -0.07    0.31
  11   7  -1    0.26    0.40
  12   7  -1    0.09    0.54
  13   7  -1   57.28    4.43
  14   7  -1    0.80    0.80
  15   7  -1   11.24    1.87
  16   7  -1    1.15    0.95
  17   7  -1   10.55    2.31
 -16   8  -1    0.97    1.53
 -15   8  -1    1.63    1.51
 -14   8  -1    0.02    1.02
 -13   8  -1    2.53    1.46
 -12   8  -1    0.21    0.65
 -11   8  -1    9.31    1.40
 -10   8  -1    4.23    0.92
  -9   8  -1   18.39    2.01
  -8   8  -1    3.68    0.62
  -7   8  -1   11.63    1.10
  -6   8  -1    9.36    0.99
  -5   8  -1   29.50    1.76
  -4   8  -1   27.39    1.64
  -3   8  -1   11.90    0.89
  -2   8  -1   17.32    1.02
  -1   8  -1   24.04    1.14
   0   8  -1   45.32    1.78
   1   8  -1   23.46    1.26
   2   8  -1   17.00    1.06
   3   8  -1   12.90    0.89
   4   8  -1   26.22    1.37
   5   8  -1   29.45    1.49
   6   8  -1    8.48    0.74
   7   8  -1    9.08    0.73
   8   8  -1    4.45    0.69
   9   8  -1   20.16    1.63
  10   8  -1    3.01    0.64
  11   8  -1   10.63    1.19
  12   8  -1    0.73    0.63
  13   8  -1    3.45    1.03
  14   8  -1    0.02    0.62
  15   8  -1    3.38    1.15
  16   8  -1    0.47    0.86
 -12   9  -1    0.86    0.66
 -11   9  -1    1.52    0.69
 -10   9  -1    3.31    0.90
  -9   9  -1   46.59    3.53
  -8   9  -1   24.74    1.83
  -7   9  -1   10.67    1.12
  -6   9  -1   15.93    1.35
  -5   9  -1   87.17    4.27
  -4   9  -1    5.84    0.68
  -3   9  -1    3.31    0.54
  -2   9  -1   85.96    3.62
  -1   9  -1   12.74    0.80
   0   9  -1    0.16    0.17
   1   9  -1   11.47    0.90
   2   9  -1   90.08    3.63
   3   9  -1    4.82    0.51
   4   9  -1    8.99    0.72
   5   9  -1   90.02    3.65
   6   9  -1   17.36    1.41
   7   9  -1   12.14    1.16
   8   9  -1   19.16    1.60
   9   9  -1   48.26    2.70
  10   9  -1    2.84    0.64
  11   9  -1    1.47    0.64
  12   9  -1    0.44    0.59
  13   9  -1    2.00    0.83
  14   9  -1    0.61    0.75
  15   9  -1    0.77    0.90
  16   9  -1    0.51    2.27
 -12  10  -1    0.89    0.82
 -11  10  -1   30.49    3.98
 -10  10  -1    2.44    1.09
  -9  10  -1    9.36    1.96
  -8  10  -1    0.04    0.65
  -7  10  -1    1.39    0.57
  -6  10  -1   14.82    1.79
  -5  10  -1   10.47    1.44
  -4  10  -1   36.00    2.67
  -3  10  -1   19.73    1.94
  -2  10  -1    8.37    1.20
  -1  10  -1   36.65    1.82
   0  10  -1   19.81    1.28
   1  10  -1   36.06    1.79
   2  10  -1    7.72    0.72
   3  10  -1   19.46    1.22
   4  10  -1   33.54    1.73
   5  10  -1   11.61    1.13
   6  10  -1   15.89    1.42
   7  10  -1    0.51    0.37
   8  10  -1    0.70    0.40
   9  10  -1    7.62    0.97
  10  10  -1    2.31    0.62
  11  10  -1   30.20    2.92
  12  10  -1    0.32    0.62
  13  10  -1    2.40    0.99
  14  10  -1    1.96    1.52
  15  10  -1    2.54    1.59
 -12  11  -1    0.49    0.94
 -11  11  -1   -0.93    0.64
 -10  11  -1    0.68    0.88
  -9  11  -1   17.77    3.01
  -8  11  -1    0.62    0.89
  -7  11  -1   64.32    4.40
  -6  11  -1    4.26    1.00
  -5  11  -1    2.37    0.77
  -4  11  -1    5.47    0.94
  -3  11  -1   -0.16    0.39
  -2  11  -1   24.50    2.26
  -1  11  -1   41.41    2.49
   0  11  -1   -0.20    0.23
   1  11  -1   43.46    2.07
   2  11  -1   24.78    1.51
   3  11  -1    0.27    0.29
   4  11  -1    4.31    0.69
   5  11  -1    3.13    0.64
   6  11  -1    4.75    0.77
   7  11  -1   65.49    3.57
   8  11  -1    0.48    0.43
   9  11  -1   18.40    1.70
  10  11  -1   -0.08    0.42
  11  11  -1   -0.44    0.58
  12  11  -1   -0.87    0.86
  13  11  -1    2.19    1.41
  14  11  -1   -0.95    1.19
 -12  12  -1    0.26    0.99
 -11  12  -1    3.75    1.50
 -10  12  -1    5.30    1.68
  -9  12  -1    2.12    1.21
  -8  12  -1    8.86    2.17
  -7  12  -1    6.19    1.79
  -6  12  -1    2.67    0.83
  -5  12  -1    7.25    1.24
  -4  12  -1   19.65    2.10
  -3  12  -1    8.89    1.33
  -2  12  -1    2.65    0.78
  -1  12  -1    4.51    0.72
   0  12  -1    2.96    0.63
   1  12  -1    6.34    0.71
   2  12  -1    1.09    0.47
   3  12  -1    5.41    0.80
   4  12  -1   17.16    1.52
   5  12  -1    7.47    0.97
   6  12  -1    1.69    0.54
   7  12  -1    4.17    0.82
   8  12  -1   10.38    1.58
   9  12  -1    3.67    1.02
  10  12  -1    2.81    1.47
  11  12  -1    5.53    2.02
  12  12  -1    0.70    1.25
  13  12  -1    0.99    1.36
  14  12  -1    7.42    3.09
 -12  13  -1    1.04    1.19
 -11  13  -1   27.68    4.16
 -10  13  -1   13.58    2.71
  -9  13  -1    4.92    1.68
  -8  13  -1   12.83    2.72
  -7  13  -1    3.51    1.40
  -6  13  -1    0.70    0.57
  -5  13  -1   -0.21    0.55
  -4  13  -1    3.65    1.01
  -3  13  -1   52.70    3.82
  -2  13  -1    4.99    1.10
  -1  13  -1    1.36    0.50
   0  13  -1    0.17    0.39
   1  13  -1    0.79    0.61
   2  13  -1    5.75    1.18
   3  13  -1   59.05    3.74
   4  13  -1    4.42    1.06
   5  13  -1    1.12    0.67
   6  13  -1    2.01    0.80
   7  13  -1    2.29    0.91
   8  13  -1   15.60    1.97
   9  13  -1    3.70    1.00
  10  13  -1    9.48    2.62
  11  13  -1   22.70    4.15
  12  13  -1   -0.02    1.20
  13  13  -1    7.98    2.54
 -12  14  -1    0.33    1.27
 -11  14  -1    0.17    1.08
 -10  14  -1    0.39    0.93
  -9  14  -1    4.04    1.62
  -8  14  -1   13.05    2.82
  -7  14  -1    0.34    0.98
  -6  14  -1    0.08    0.82
  -5  14  -1    0.81    0.67
  -4  14  -1   30.93    2.98
  -3  14  -1    2.21    0.87
  -2  14  -1    1.50    0.74
  -1  14  -1   13.53    1.78
   0  14  -1   19.64    2.15
   1  14  -1   12.03    1.73
   2  14  -1    1.34    0.67
   3  14  -1    0.76    0.73
   4  14  -1   32.16    3.01
   5  14  -1   -0.53    0.52
   6  14  -1    0.52    0.62
   7  14  -1    0.62    0.67
   8  14  -1   17.74    2.21
   9  14  -1    1.94    1.47
  10  14  -1    0.13    1.05
  11  14  -1    0.04    1.14
  12  14  -1    3.43    2.10
 -11  15  -1    1.50    1.37
 -10  15  -1    1.35    1.24
  -9  15  -1    1.23    1.12
  -8  15  -1   -0.87    0.97
  -7  15  -1    8.16    2.15
  -6  15  -1    8.57    2.14
  -5  15  -1   24.01    3.83
  -4  15  -1    8.90    1.55
  -3  15  -1   11.80    1.74
  -2  15  -1    0.74    0.59
  -1  15  -1    1.75    0.78
   0  15  -1   -0.15    0.59
   1  15  -1    1.11    0.68
   2  15  -1    0.07    0.63
   3  15  -1   10.31    1.70
   4  15  -1    8.67    1.58
   5  15  -1   19.59    2.44
   6  15  -1    7.72    1.53
   7  15  -1    5.97    1.30
   8  15  -1    0.35    0.71
   9  15  -1   -0.19    1.26
  10  15  -1   -0.98    1.10
  11  15  -1   -0.50    1.33
 -10  16  -1    0.51    1.16
  -9  16  -1    0.18    1.09
  -8  16  -1    1.09    1.17
  -7  16  -1    4.29    1.65
  -6  16  -1   -0.48    1.05
  -5  16  -1    0.25    0.97
  -4  16  -1   -0.05    0.67
  -3  16  -1   19.14    2.33
  -2  16  -1   12.97    1.90
  -1  16  -1    2.85    0.94
   0  16  -1   40.53    3.83
   1  16  -1    2.33    0.89
   2  16  -1    9.99    1.77
   3  16  -1   20.79    2.43
   4  16  -1    0.51    0.77
   5  16  -1   -0.09    0.64
   6  16  -1    1.06    0.84
   7  16  -1    7.18    1.56
   8  16  -1   -1.05    1.14
   9  16  -1    0.15    1.36
  -8  17  -1   -0.71    1.16
  -7  17  -1    3.58    1.72
  -6  17  -1    0.46    0.87
  -5  17  -1    1.63    1.33
  -4  17  -1    4.28    1.78
  -3  17  -1    0.38    0.76
  -2  17  -1    5.66    1.36
  -1  17  -1   19.05    2.34
   0  17  -1    0.04    0.72
   1  17  -1   13.87    2.09
   2  17  -1    5.45    1.36
   3  17  -1   -0.41    0.75
   4  17  -1    5.82    1.34
   5  17  -1   -0.18    0.75
   6  17  -1    0.71    0.90
   7  17  -1    0.60    1.03
   8  17  -1    2.08    1.68
  -5  18  -1   -1.46    0.95
  -4  18  -1   -0.15    1.31
  -3  18  -1   -0.06    1.32
  -2  18  -1    1.16    0.96
  -1  18  -1   -0.21    0.80
   0  18  -1    1.30    0.90
   1  18  -1    1.00    0.81
   2  18  -1    0.20    0.82
   3  18  -1   -0.12    0.87
   4  18  -1   -0.70    0.87
   5  18  -1   -0.52    0.91
   6  18  -1    0.06    0.94
  -1  19  -1    1.17    0.98
   0  19  -1   -0.25    0.88
   1  19  -1    1.16    1.00
   2  19  -1    0.26    0.93
   3  19  -1    0.56    1.06
   4  19  -1   -0.74    1.43
  -3 -19   0    0.45    1.91
  -2 -19   0   17.15    3.74
  -1 -19   0    0.00    1.36
   0 -19   0   -0.23    1.25
   1 -19   0    0.13    1.27
   2 -19   0   26.77    4.49
   3 -19   0   -1.07    1.39
   4 -19   0    1.63    1.54
  -6 -18   0   10.62    3.17
  -5 -18   0    0.08    1.37
  -4 -18   0    9.71    2.90
  -3 -18   0    0.06    1.26
  -2 -18   0   -0.97    1.21
  -1 -18   0    0.90    1.55
   0 -18   0    0.46    0.88
   1 -18   0    0.81    0.83
   2 -18   0    0.21    0.88
   3 -18   0    2.22    0.96
   4 -18   0    9.28    1.65
   5 -18   0    0.57    0.87
   6 -18   0   16.67    3.28
   7 -18   0    1.28    1.32
  -9 -17   0    6.30    2.80
  -8 -17   0    0.41    1.49
  -7 -17   0    3.37    1.94
  -6 -17   0   16.66    3.53
  -5 -17   0    0.36    1.43
  -4 -17   0    6.16    2.19
  -3 -17   0   -0.35    1.21
  -2 -17   0    7.20    2.26
  -1 -17   0    1.07    0.77
   0 -17   0    0.28    0.74
   1 -17   0    0.61    0.79
   2 -17   0    7.57    1.52
   3 -17   0   -0.30    0.74
   4 -17   0    6.60    1.44
   5 -17   0    3.49    1.17
   6 -17   0   14.84    3.05
   7 -17   0    4.51    1.78
   8 -17   0   -0.19    1.15
   9 -17   0    5.82    2.16
 -11 -16   0    5.32    2.77
 -10 -16   0   11.12    3.11
  -9 -16   0    1.40    1.70
  -8 -16   0    0.27    1.36
  -7 -16   0    2.75    1.86
  -6 -16   0    0.24    1.36
  -5 -16   0    1.42    1.42
  -4 -16   0   19.03    3.93
  -3 -16   0    1.99    1.18
  -2 -16   0    1.06    1.23
  -1 -16   0    1.36    1.31
   0 -16   0   28.42    3.02
   1 -16   0    3.90    1.06
   2 -16   0    0.47    0.65
   3 -16   0   -0.51    0.57
   4 -16   0   25.16    2.77
   5 -16   0    3.23    1.06
   6 -16   0    0.08    0.93
   7 -16   0    4.29    1.57
   8 -16   0    0.13    0.98
   9 -16   0    1.24    1.34
  10 -16   0   15.86    3.23
  11 -16   0   12.56    3.17
 -12 -15   0    0.70    1.95
 -11 -15   0   -2.06    1.58
 -10 -15   0    2.01    1.74
  -9 -15   0    3.70    1.99
  -8 -15   0    5.07    2.22
  -7 -15   0    0.26    1.20
  -6 -15   0   -0.14    0.95
  -5 -15   0   -0.77    0.99
  -4 -15   0    2.14    1.42
  -3 -15   0    2.19    1.52
  -2 -15   0    0.29    0.90
  -1 -15   0    0.30    0.96
   0 -15   0    0.10    1.09
   1 -15   0    0.26    0.58
   2 -15   0    0.77    0.65
   3 -15   0    0.65    0.67
   4 -15   0    1.45    0.73
   5 -15   0    1.29    0.77
   6 -15   0    0.72    0.76
   7 -15   0    4.63    1.61
   8 -15   0   10.36    2.51
   9 -15   0    4.41    1.75
  10 -15   0    1.88    1.40
  11 -15   0    0.45    1.41
  12 -15   0    0.51    1.34
 -12 -14   0    2.41    1.98
 -11 -14   0    1.80    1.43
 -10 -14   0    5.55    2.01
  -9 -14   0    6.85    2.32
  -8 -14   0   29.90    4.46
  -7 -14   0    0.15    1.13
  -6 -14   0    2.77    1.35
  -5 -14   0    2.97    1.41
  -4 -14   0    1.54    1.24
  -3 -14   0   -0.60    0.79
  -2 -14   0   -0.22    0.99
  -1 -14   0    3.31    1.60
   0 -14   0   79.25    8.30
   1 -14   0    1.69    0.74
   2 -14   0    1.55    0.73
   3 -14   0   -0.26    0.49
   4 -14   0    4.68    1.01
   5 -14   0    7.28    1.30
   6 -14   0    0.57    0.67
   7 -14   0    0.31    0.85
   8 -14   0   22.31    3.83
   9 -14   0    2.64    1.35
  10 -14   0    4.22    1.24
  11 -14   0    0.06    1.13
  12 -14   0    3.39    1.62
  13 -14   0    1.21    1.61
 -12 -13   0   10.04    2.77
 -11 -13   0   -0.56    1.33
 -10 -13   0    0.16    1.22
  -9 -13   0    2.53    1.56
  -8 -13   0    0.98    1.24
  -7 -13   0    8.32    2.28
  -6 -13   0   15.03    3.04
  -5 -13   0   41.64    5.79
  -4 -13   0   24.99    3.92
  -3 -13   0   -0.11    0.73
  -2 -13   0   -0.32    0.81
  -1 -13   0    9.52    2.29
   0 -13   0    0.18    0.84
   1 -13   0   10.95    1.57
   2 -13   0    1.06    0.56
   3 -13   0    0.41    0.53
   4 -13   0   26.84    2.60
   5 -13   0   53.32    3.91
   6 -13   0   21.03    2.25
   7 -13   0   10.36    2.26
   8 -13   0   -1.44    0.71
   9 -13   0    1.72    1.12
  10 -13   0   -0.13    0.63
  11 -13   0   -0.08    1.11
  12 -13   0   10.53    2.57
  13 -13   0    0.87    1.31
 -12 -12   0    8.39    2.47
 -11 -12   0   19.21    3.53
 -10 -12   0    0.58    1.26
  -9 -12   0    8.37    2.29
  -8 -12   0    3.33    1.46
  -7 -12   0    7.09    2.18
  -6 -12   0   15.68    3.08
  -5 -12   0    2.57    1.30
  -4 -12   0   18.16    3.16
  -3 -12   0    4.20    1.50
  -2 -12   0   20.26    3.21
  -1 -12   0   28.67    3.90
   0 -12   0   30.91    3.90
   1 -12   0   36.51    4.44
   2 -12   0   22.27    2.27
   3 -12   0    2.95    0.81
   4 -12   0   21.01    2.22
   5 -12   0    1.25    0.62
   6 -12   0   22.68    2.27
   7 -12   0   16.05    1.86
   8 -12   0    0.40    0.89
   9 -12   0    8.05    2.16
  10 -12   0   -0.03    0.62
  11 -12   0   13.83    2.06
  12 -12   0    7.97    2.21
  13 -12   0    0.98    1.35
  14 -12   0    0.51    1.44
 -12 -11   0    0.26    1.41
 -11 -11   0    2.99    1.69
 -10 -11   0   12.62    2.77
  -9 -11   0   24.81    3.88
  -8 -11   0    2.85    1.33
  -7 -11   0    0.93    1.01
  -6 -11   0    5.19    1.77
  -5 -11   0    9.67    2.19
  -4 -11   0    2.59    1.22
  -3 -11   0   20.90    3.38
  -2 -11   0    1.21    0.98
  -1 -11   0   47.18    4.89
   0 -11   0   -0.74    0.54
   1 -11   0   49.02    5.64
   2 -11   0    0.37    0.51
   3 -11   0   25.23    2.39
   4 -11   0    4.69    0.97
   5 -11   0   13.06    1.64
   6 -11   0    5.85    1.09
   7 -11   0    0.38    0.51
   8 -11   0    2.51    1.13
   9 -11   0   24.24    3.68
  10 -11   0   11.23    1.68
  11 -11   0    1.78    0.84
  12 -11   0    0.12    0.78
  13 -11   0    3.08    1.51
  14 -11   0    5.99    2.11
  15 -11   0    2.27    1.72
 -12 -10   0   33.86    3.40
 -11 -10   0    1.26    0.73
 -10 -10   0    0.72    0.65
  -9 -10   0    0.37    0.56
  -8 -10   0    0.82    0.89
  -7 -10   0    2.18    1.08
  -6 -10   0    7.64    1.78
  -5 -10   0    0.54    0.75
  -4 -10   0   15.93    2.71
  -3 -10   0   40.36    4.93
  -2 -10   0   43.57    4.68
  -1 -10   0   38.11    4.67
   0 -10   0    1.14    0.83
   1 -10   0   45.99    4.31
   2 -10   0   34.34    2.73
   3 -10   0   45.52    3.15
   4 -10   0   20.45    2.03
   5 -10   0    1.41    0.59
   6 -10   0    5.39    1.03
   7 -10   0    3.75    0.88
   8 -10   0    1.19    0.98
   9 -10   0    0.21    0.50
  10 -10   0    1.15    0.69
  11 -10   0    0.85    0.67
  12 -10   0   36.79    3.48
  13 -10   0   12.11    2.91
  14 -10   0    7.28    2.23
  15 -10   0   10.12    2.67
 -16  -9   0   11.32    2.67
 -15  -9   0    2.31    1.42
 -14  -9   0   14.21    2.94
 -13  -9   0    1.53    1.12
 -12  -9   0    2.86    1.18
 -11  -9   0   17.67    2.12
 -10  -9   0   27.39    2.67
  -9  -9   0   12.04    1.52
  -8  -9   0    0.52    0.45
  -7  -9   0    9.55    1.25
  -6  -9   0   44.70    3.08
  -5  -9   0   23.14    1.77
  -4  -9   0    0.80    0.37
  -3  -9   0   45.41    2.86
  -2  -9   0    7.03    1.69
  -1  -9   0    2.90    1.02
   0  -9   0   -0.22    0.51
   1  -9   0    0.61    0.70
   2  -9   0    6.57    1.05
   3  -9   0   50.24    3.17
   4  -9   0    0.96    0.51
   5  -9   0   20.02    1.95
   6  -9   0   43.22    3.06
   7  -9   0   10.91    1.40
   8  -9   0    1.35    0.85
   9  -9   0    6.66    1.24
  10  -9   0   31.34    2.93
  11  -9   0   15.94    2.08
  12  -9   0    3.65    1.11
  13  -9   0   -0.15    0.79
  14  -9   0   15.51    3.31
  15  -9   0    2.86    1.78
  16  -9   0    8.65    2.74
 -17  -8   0    1.06    1.59
 -16  -8   0    2.81    1.83
 -15  -8   0    2.07    1.31
 -14  -8   0   -0.77    0.82
 -13  -8   0    1.71    1.19
 -12  -8   0    1.87    1.11
 -11  -8   0    4.82    1.03
 -10  -8   0   16.34    1.94
  -9  -8   0    4.10    0.94
  -8  -8   0   55.64    3.55
  -7  -8   0   20.27    1.88
  -6  -8   0   26.99    2.28
  -5  -8   0   17.07    1.63
  -4  -8   0    4.31    0.67
  -3  -8   0   48.95    3.04
  -2  -8   0    3.35    0.47
  -1  -8   0   40.95    3.98
   0  -8   0   53.84    4.88
   1  -8   0   43.98    3.98
   2  -8   0    2.50    0.64
   3  -8   0   50.99    3.27
   4  -8   0    3.94    0.79
   5  -8   0   18.32    1.82
   6  -8   0   28.28    2.35
   7  -8   0   15.87    1.79
   8  -8   0   51.91    2.88
   9  -8   0    6.22    1.11
  10  -8   0   17.57    2.01
  11  -8   0    4.14    1.03
  12  -8   0    2.80    0.97
  13  -8   0    0.10    0.69
  14  -8   0   -0.25    1.02
  15  -8   0    0.11    1.27
  16  -8   0    5.00    2.07
 -17  -7   0    0.56    1.60
 -16  -7   0    3.65    1.61
 -15  -7   0    1.11    1.24
 -14  -7   0    0.31    0.94
 -13  -7   0    5.17    1.71
 -12  -7   0    3.18    1.40
 -11  -7   0    0.03    0.56
 -10  -7   0    0.71    0.57
  -9  -7   0   63.62    4.08
  -8  -7   0   10.04    1.29
  -7  -7   0   82.11    5.01
  -6  -7   0    5.79    0.90
  -5  -7   0    0.54    0.40
  -4  -7   0    0.51    0.35
  -3  -7   0   35.85    2.32
  -2  -7   0   13.95    1.02
  -1  -7   0   36.16    2.13
   0  -7   0    0.18    0.44
   1  -7   0   35.34    3.41
   2  -7   0   13.47    1.38
   3  -7   0   36.06    2.49
   4  -7   0    0.54    0.36
   5  -7   0    0.59    0.38
   6  -7   0    5.52    0.90
   7  -7   0   79.70    4.96
   8  -7   0    9.82    1.01
   9  -7   0   62.03    4.12
  10  -7   0    0.10    0.42
  11  -7   0    1.35    0.70
  12  -7   0    1.24    0.73
  13  -7   0    4.37    1.17
  14  -7   0   -0.76    0.96
  15  -7   0   -1.01    1.00
  16  -7   0    1.74    1.64
  17  -7   0    0.65    1.54
 -17  -6   0    8.40    2.53
 -16  -6   0    8.68    2.54
 -15  -6   0    6.59    2.24
 -14  -6   0    0.26    0.98
 -13  -6   0    4.87    1.58
 -12  -6   0   10.60    2.42
 -11  -6   0    2.67    0.77
 -10  -6   0   15.74    1.77
  -9  -6   0   10.71    1.39
  -8  -6   0   36.06    2.62
  -7  -6   0   39.79    2.63
  -6  -6   0    2.23    0.57
  -5  -6   0   50.76    3.17
  -4  -6   0    0.21    0.28
  -3  -6   0  288.51   15.35
  -2  -6   0  100.92    5.70
  -1  -6   0    0.20    0.16
   0  -6   0   42.59    3.80
   1  -6   0    0.98    0.52
   2  -6   0  105.47    5.88
   3  -6   0  286.68   15.45
   4  -6   0    0.37    0.35
   5  -6   0   50.67    3.21
   6  -6   0    2.99    0.64
   7  -6   0   38.08    2.17
   8  -6   0   33.41    1.97
   9  -6   0    9.12    1.34
  10  -6   0   20.90    2.07
  11  -6   0    3.82    1.00
  12  -6   0   14.64    1.96
  13  -6   0    5.01    1.16
  14  -6   0   -0.17    0.59
  15  -6   0    7.69    2.29
  16  -6   0    9.61    2.73
  17  -6   0    7.07    2.19
 -17  -5   0    1.42    1.57
 -16  -5   0   -0.63    1.15
 -15  -5   0    0.52    1.21
 -14  -5   0    5.21    1.83
 -13  -5   0   -0.54    0.80
 -12  -5   0    0.11    0.81
 -11  -5   0   12.15    1.57
 -10  -5   0   19.38    2.06
  -9  -5   0    7.10    1.12
  -8  -5   0    0.41    0.40
  -7  -5   0   38.15    2.61
  -6  -5   0   57.79    3.51
  -5  -5   0    0.00    0.25
  -4  -5   0    2.24    0.47
  -3  -5   0    1.15    0.36
  -2  -5   0  113.55    6.13
  -1  -5   0   26.95    1.63
   0  -5   0   -0.19    0.42
   1  -5   0   26.46    2.62
   2  -5   0  111.31    6.23
   3  -5   0    2.71    0.56
   4  -5   0    2.29    0.52
   5  -5   0    0.54    0.32
   6  -5   0   58.55    3.46
   7  -5   0   38.47    2.07
   8  -5   0    0.60    0.31
   9  -5   0    7.22    1.22
  10  -5   0   19.83    2.17
  11  -5   0   12.12    1.66
  12  -5   0    1.00    0.59
  13  -5   0    0.77    0.71
  14  -5   0    2.60    0.95
  15  -5   0   -0.35    0.97
  16  -5   0   -0.39    1.06
  17  -5   0    0.60    1.23
 -17  -4   0   -0.12    1.27
 -16  -4   0    4.88    1.97
 -15  -4   0   17.25    3.47
 -14  -4   0    3.76    1.70
 -13  -4   0    3.10    1.33
 -12  -4   0   66.52    6.67
 -11  -4   0    3.69    1.45
 -10  -4   0    6.16    1.02
  -9  -4   0    6.04    0.99
  -8  -4   0    2.20    0.62
  -7  -4   0   -0.25    0.26
  -6  -4   0   73.92    4.27
  -5  -4   0    9.68    1.01
  -4  -4   0   27.40    1.80
  -3  -4   0   -0.12    0.22
  -2  -4   0  145.80    7.74
  -1  -4   0   56.75    3.20
   0  -4   0   19.98    2.25
   1  -4   0   56.16    4.73
   2  -4   0  145.44    7.82
   3  -4   0    0.29    0.29
   4  -4   0   27.18    1.79
   5  -4   0    9.20    0.95
   6  -4   0   71.20    3.43
   7  -4   0    0.14    0.22
   8  -4   0    1.84    0.40
   9  -4   0    6.16    1.09
  10  -4   0    4.37    0.94
  11  -4   0    0.65    0.55
  12  -4   0   70.30    4.64
  13  -4   0    4.40    1.09
  14  -4   0    9.42    1.59
  15  -4   0   21.61    2.66
  16  -4   0    5.65    2.03
  17  -4   0    1.64    1.41
 -18  -3   0    3.36    2.43
 -17  -3   0    3.27    1.78
 -16  -3   0   -0.76    1.08
 -15  -3   0    0.59    1.17
 -14  -3   0    2.14    1.28
 -13  -3   0    7.53    2.11
 -12  -3   0    1.55    1.02
 -11  -3   0   22.33    3.40
 -10  -3   0    0.57    0.45
  -9  -3   0   93.80    5.54
  -8  -3   0   69.55    4.32
  -7  -3   0   10.74    1.20
  -6  -3   0  194.84   10.67
  -5  -3   0    8.26    0.89
  -4  -3   0   18.15    1.38
  -3  -3   0   98.14    5.45
  -2  -3   0    3.05    0.42
  -1  -3   0   56.02    3.11
   0  -3   0   -0.29    0.36
   1  -3   0   59.21    4.54
   2  -3   0    1.36    0.39
   3  -3   0  100.10    5.46
   4  -3   0   17.93    1.35
   5  -3   0    6.00    0.58
   6  -3   0  195.79    8.66
   7  -3   0   11.57    0.93
   8  -3   0   70.67    3.45
   9  -3   0   92.94    5.60
  10  -3   0    0.28    0.41
  11  -3   0   25.21    2.39
  12  -3   0    1.29    0.63
  13  -3   0   14.46    1.90
  14  -3   0    3.24    0.94
  15  -3   0    0.93    0.77
  16  -3   0    2.38    1.45
  17  -3   0    1.73    1.54
 -18  -2   0    8.87    2.68
 -17  -2   0   -0.68    1.14
 -16  -2   0   -0.13    0.97
 -15  -2   0   23.19    4.16
 -14  -2   0    2.16    1.26
 -13  -2   0    3.13    1.57
 -12  -2   0    2.21    1.26
 -11  -2   0   14.82    2.83
 -10  -2   0   30.79    2.32
  -9  -2   0   14.95    1.44
  -8  -2   0    3.66    0.67
  -7  -2   0   24.65    1.81
  -6  -2   0   43.33    2.71
  -5  -2   0   23.49    1.73
  -4  -2   0  255.42   13.41
  -3  -2   0   33.97    2.00
  -2  -2   0    4.11    0.47
  -1  -2   0    0.73    0.20
   0  -2   0    0.19    0.24
   1  -2   0    0.51    0.22
   2  -2   0    3.63    0.45
   3  -2   0   34.80    1.97
   4  -2   0  248.96   10.90
   5  -2   0   25.84    1.32
   6  -2   0   41.87    2.13
   7  -2   0   23.28    1.42
   8  -2   0    3.19    0.46
   9  -2   0   11.83    1.43
  10  -2   0   30.36    2.68
  11  -2   0   17.16    1.96
  12  -2   0    0.50    0.55
  13  -2   0    1.07    0.66
  14  -2   0    1.70    0.78
  15  -2   0   22.61    2.72
  16  -2   0   -0.20    0.79
  17  -2   0    0.01    1.07
  18  -2   0   11.53    2.95
 -18  -1   0    4.87    2.00
 -17  -1   0    4.26    2.03
 -16  -1   0    2.91    1.65
 -15  -1   0   -1.32    0.90
 -14  -1   0   -0.54    0.89
 -13  -1   0    8.30    2.07
 -12  -1   0   17.16    3.12
 -11  -1   0    7.09    1.91
 -10  -1   0   17.67    1.31
  -9  -1   0    7.69    0.76
  -8  -1   0    4.36    0.52
  -7  -1   0    6.47    0.60
  -6  -1   0   53.14    2.55
  -5  -1   0   20.58    1.12
  -4  -1   0  157.98    7.02
  -3  -1   0   42.63    1.96
  -2  -1   0   10.28    0.77
  -1  -1   0    5.96    0.45
   0  -1   0    0.15    0.14
   1  -1   0    5.43    0.44
   2  -1   0   10.90    0.61
   3  -1   0   42.44    1.95
   4  -1   0  162.59    7.02
   5  -1   0   19.93    1.11
   6  -1   0   52.16    2.53
   7  -1   0    5.16    0.54
   8  -1   0    4.44    0.55
   9  -1   0    7.69    0.77
  10  -1   0   12.81    1.61
  11  -1   0    5.30    0.98
  12  -1   0   17.53    2.08
  13  -1   0   10.60    1.53
  14  -1   0    0.72    0.61
  15  -1   0    0.17    0.66
  16  -1   0    4.56    1.24
  17  -1   0   -0.19    1.32
  18  -1   0    7.84    2.43
 -18   0   0    7.11    2.36
 -17   0   0    0.63    1.25
 -16   0   0    0.93    1.20
 -15   0   0   -0.96    0.86
 -14   0   0   52.94    6.77
 -13   0   0   -0.05    0.76
 -12   0   0   15.75    2.98
 -11   0   0    0.24    0.38
 -10   0   0   96.39    5.69
  -9   0   0   -0.42    0.19
  -8   0   0   77.13    3.67
  -7   0   0   -0.03    0.25
  -6   0   0    3.12    0.55
  -5   0   0    0.21    0.21
  -4   0   0    2.53    0.43
  -3   0   0   -0.26    0.17
  -2   0   0    3.41    0.39
  -1   0   0   -0.03    0.14
   1   0   0    0.21    0.08
   2   0   0    4.10    0.29
   3   0   0    0.10    0.14
   4   0   0    2.31    0.29
   5   0   0   -0.08    0.14
   6   0   0    2.33    0.35
   7   0   0    0.06    0.20
   8   0   0   76.69    3.68
   9   0   0   -0.21    0.21
  10   0   0   93.85    4.58
  11   0   0    0.22    0.30
  12   0   0   19.94    1.96
  13   0   0    0.44    0.52
  14   0   0   60.68    4.47
  15   0   0    0.20    0.64
  16   0   0   -0.15    0.67
  17   0   0   -0.44    1.04
  18   0   0    8.07    2.50
 -18   1   0    3.64    1.91
 -17   1   0    0.40    1.33
 -16   1   0    2.05    1.55
 -15   1   0    0.17    0.99
 -14   1   0   -0.05    0.87
 -13   1   0   10.75    2.50
 -12   1   0   22.73    2.48
 -11   1   0    3.79    0.82
 -10   1   0   17.29    1.70
  -9   1   0    5.81    0.92
  -8   1   0    3.91    0.70
  -7   1   0    4.60    0.74
  -6   1   0   51.47    3.21
  -5   1   0   20.08    1.51
  -4   1   0  158.75    8.68
  -3   1   0   41.82    2.47
  -2   1   0   12.57    0.66
  -1   1   0    4.97    0.35
   0   1   0    0.02    0.05
   1   1   0    5.45    0.31
   2   1   0   10.62    0.59
   3   1   0   41.89    1.68
   4   1   0  160.21    6.06
   5   1   0   18.92    0.92
   6   1   0   53.31    2.19
   7   1   0    4.98    0.57
   8   1   0    3.63    0.52
   9   1   0    9.09    0.86
  10   1   0   16.84    1.33
  11   1   0    4.66    0.68
  12   1   0   23.41    2.34
  13   1   0    9.87    1.53
  14   1   0   -0.16    0.55
  15   1   0    0.93    0.69
  16   1   0    3.60    1.10
  17   1   0    0.93    0.90
  18   1   0    6.01    2.23
 -18   2   0    8.38    2.65
 -17   2   0   -0.60    1.02
 -16   2   0    0.01    1.26
 -15   2   0   21.79    3.92
 -14   2   0    1.78    1.26
 -13   2   0   -0.01    0.92
 -12   2   0    2.21    0.72
 -11   2   0   22.30    2.04
 -10   2   0   29.49    2.38
  -9   2   0   13.88    1.51
  -8   2   0    3.30    0.66
  -7   2   0   23.53    1.85
  -6   2   0   46.62    2.77
  -5   2   0   25.93    1.83
  -4   2   0  252.29   10.96
  -3   2   0   31.82    1.64
  -2   2   0    3.67    0.37
  -1   2   0    0.73    0.15
   0   2   0    0.19    0.10
   1   2   0    0.40    0.14
   2   2   0    4.20    0.36
   3   2   0   32.41    1.92
   4   2   0  249.88   10.89
   5   2   0   24.34    1.30
   6   2   0   42.30    2.14
   7   2   0   22.87    1.42
   8   2   0    4.17    0.55
   9   2   0   11.92    1.06
  10   2   0   29.94    1.91
  11   2   0   17.95    1.47
  12   2   0    1.09    0.60
  13   2   0    1.04    0.63
  14   2   0    3.22    0.96
  15   2   0   31.56    3.09
  16   2   0   -0.24    0.68
  17   2   0    0.88    0.87
  18   2   0    7.87    2.42
 -18   3   0    4.02    2.05
 -17   3   0    0.50    1.13
 -16   3   0    6.09    1.96
 -15   3   0   -0.02    0.97
 -14   3   0    3.53    1.56
 -13   3   0   10.02    2.49
 -12   3   0    2.87    0.71
 -11   3   0   19.54    2.09
 -10   3   0    0.11    0.42
  -9   3   0   93.98    5.58
  -8   3   0   69.98    4.37
  -7   3   0   10.99    1.26
  -6   3   0  194.27   10.72
  -5   3   0    6.76    0.67
  -4   3   0   19.51    1.15
  -3   3   0   96.93    4.47
  -2   3   0    2.18    0.34
  -1   3   0   55.13    2.20
   0   3   0   -0.04    0.13
   1   3   0   55.79    2.18
   2   3   0    2.22    0.21
   3   3   0  100.34    4.42
   4   3   0   18.35    1.22
   5   3   0    6.92    0.60
   6   3   0  196.12    8.64
   7   3   0   12.23    0.96
   8   3   0   72.61    3.47
   9   3   0   92.17    4.44
  10   3   0    0.41    0.30
  11   3   0   27.54    2.44
  12   3   0    1.60    0.65
  13   3   0   12.73    1.75
  14   3   0    4.37    1.08
  15   3   0    0.14    0.62
  16   3   0    3.08    1.12
  17   3   0    2.45    1.09
  18   3   0    0.76    1.42
 -18   4   0    0.46    1.62
 -17   4   0    1.53    1.45
 -16   4   0    2.32    1.40
 -15   4   0   29.43    4.32
 -14   4   0   12.73    2.70
 -13   4   0    2.55    0.85
 -12   4   0   70.75    4.53
 -11   4   0    1.84    0.68
 -10   4   0    6.72    1.09
  -9   4   0    7.13    1.08
  -8   4   0    3.24    0.69
  -7   4   0   -0.19    0.31
  -6   4   0   71.26    3.48
  -5   4   0    8.46    0.81
  -4   4   0   26.51    1.48
  -3   4   0    0.31    0.23
  -2   4   0  142.38    5.49
  -1   4   0   57.10    2.28
   0   4   0   20.27    1.10
   1   4   0   56.87    2.26
   2   4   0  141.53    5.43
   3   4   0    0.11    0.11
   4   4   0   27.02    1.42
   5   4   0    8.32    0.72
   6   4   0   71.49    3.39
   7   4   0    0.40    0.22
   8   4   0    3.02    0.46
   9   4   0    5.83    0.73
  10   4   0    4.98    0.70
  11   4   0    2.54    0.74
  12   4   0   65.93    4.55
  13   4   0    3.24    0.90
  14   4   0    8.38    1.46
  15   4   0   28.46    2.99
  16   4   0    3.80    1.28
  17   4   0    1.32    0.95
 -18   5   0    1.95    1.75
 -17   5   0    0.50    1.38
 -16   5   0    1.08    1.08
 -15   5   0   -0.09    0.91
 -14   5   0    3.92    1.54
 -13   5   0    1.06    0.67
 -12   5   0    1.25    0.65
 -11   5   0   11.97    1.56
 -10   5   0   25.62    2.32
  -9   5   0    9.85    1.29
  -8   5   0    1.09    0.50
  -7   5   0   37.08    2.18
  -6   5   0   54.45    2.85
  -5   5   0    0.64    0.27
  -4   5   0    1.96    0.39
  -3   5   0    2.44    0.41
  -2   5   0  110.53    4.35
  -1   5   0   27.07    1.44
   0   5   0   -0.02    0.19
   1   5   0   25.89    1.18
   2   5   0  110.74    4.30
   3   5   0    2.36    0.25
   4   5   0    2.05    0.25
   5   5   0   -0.07    0.18
   6   5   0   55.73    2.78
   7   5   0   38.93    2.05
   8   5   0    0.97    0.33
   9   5   0   10.36    0.96
  10   5   0   22.04    1.73
  11   5   0   10.53    1.51
  12   5   0    1.57    0.69
  13   5   0    0.34    0.57
  14   5   0    3.70    0.98
  15   5   0   -0.43    0.55
  16   5   0    1.24    0.80
  17   5   0   -0.38    0.85
  18   5   0    3.42    2.45
 -17   6   0    4.85    2.07
 -16   6   0   13.58    2.91
 -15   6   0    6.26    1.98
 -14   6   0    1.30    1.14
 -13   6   0    2.96    0.81
 -12   6   0   11.22    1.62
 -11   6   0    4.28    0.94
 -10   6   0   14.54    1.74
  -9   6   0   11.54    1.42
  -8   6   0   33.03    2.11
  -7   6   0   35.89    2.11
  -6   6   0    4.04    0.63
  -5   6   0   51.78    2.63
  -4   6   0    0.15    0.22
  -3   6   0  286.55   12.57
  -2   6   0  103.82    4.09
  -1   6   0    0.02    0.20
   0   6   0   39.89    2.06
   1   6   0    0.11    0.16
   2   6   0  101.67    4.04
   3   6   0  286.45   10.80
   4   6   0    0.12    0.15
   5   6   0   50.26    2.13
   6   6   0    2.84    0.43
   7   6   0   37.41    2.05
   8   6   0   30.60    1.95
   9   6   0   11.22    1.05
  10   6   0   14.94    1.77
  11   6   0    3.10    0.81
  12   6   0   14.31    1.80
  13   6   0    3.17    0.96
  14   6   0   -0.42    0.55
  15   6   0   12.49    1.85
  16   6   0   10.87    1.88
  17   6   0    8.57    1.64
 -17   7   0   -0.51    1.30
 -16   7   0    3.19    1.76
 -15   7   0    2.05    1.31
 -14   7   0   -0.44    0.77
 -13   7   0    2.19    0.80
 -12   7   0    2.84    0.89
 -11   7   0    0.22    0.52
 -10   7   0    0.55    0.47
  -9   7   0   61.61    4.02
  -8   7   0    9.00    1.02
  -7   7   0   84.01    4.10
  -6   7   0    6.71    0.80
  -5   7   0    0.65    0.35
  -4   7   0   -0.07    0.24
  -3   7   0   36.10    1.94
  -2   7   0   12.53    0.81
  -1   7   0   35.41    1.90
   0   7   0    0.39    0.24
   1   7   0   32.03    1.84
   2   7   0   12.86    0.83
   3   7   0   37.70    1.63
   4   7   0    0.30    0.17
   5   7   0    1.01    0.21
   6   7   0    4.85    0.48
   7   7   0   84.40    4.02
   8   7   0    8.14    0.90
   9   7   0   60.61    3.20
  10   7   0   -0.23    0.43
  11   7   0    0.49    0.51
  12   7   0    1.95    0.74
  13   7   0    3.62    0.92
  14   7   0    0.52    0.71
  15   7   0   -0.09    0.58
  16   7   0    1.72    0.97
  17   7   0    0.61    0.90
 -14   8   0    0.47    0.62
 -13   8   0    1.25    0.70
 -12   8   0    0.90    0.67
 -11   8   0    3.23    0.84
 -10   8   0   15.34    1.82
  -9   8   0    4.52    0.77
  -8   8   0   50.78    2.84
  -7   8   0   19.77    1.55
  -6   8   0   25.09    1.83
  -5   8   0   19.51    1.46
  -4   8   0    6.27    0.68
  -3   8   0   48.86    2.51
  -2   8   0    3.88    0.59
  -1   8   0   40.13    2.15
   0   8   0   51.66    2.65
   1   8   0   40.19    2.14
   2   8   0    2.80    0.50
   3   8   0   49.83    2.16
   4   8   0    4.12    0.42
   5   8   0   18.17    1.40
   6   8   0   26.93    1.83
   7   8   0   15.64    1.32
   8   8   0   51.32    2.77
   9   8   0    4.80    0.80
  10   8   0   16.10    1.90
  11   8   0    2.12    0.75
  12   8   0    2.41    0.76
  13   8   0    1.44    0.79
  14   8   0   -0.57    0.59
  15   8   0    0.32    0.73
  16   8   0    5.05    1.40
  17   8   0    2.94    1.73
 -14   9   0   10.81    2.44
 -13   9   0   -0.45    0.90
 -12   9   0    3.00    1.22
 -11   9   0   15.82    2.90
 -10   9   0   22.09    2.49
  -9   9   0    9.81    1.44
  -8   9   0    0.06    0.45
  -7   9   0    9.62    1.33
  -6   9   0   43.44    3.27
  -5   9   0   21.92    2.11
  -4   9   0    0.90    0.49
  -3   9   0   44.77    2.52
  -2   9   0    8.96    0.95
  -1   9   0    2.16    0.46
   0   9   0    0.11    0.27
   1   9   0    2.16    0.47
   2   9   0    8.38    0.90
   3   9   0   43.71    2.43
   4   9   0    1.07    0.38
   5   9   0   19.91    1.54
   6   9   0   45.64    2.47
   7   9   0    9.01    1.01
   8   9   0    0.86    0.39
   9   9   0    7.67    1.26
  10   9   0   25.88    2.58
  11   9   0   20.10    2.22
  12   9   0    6.71    1.27
  13   9   0    1.15    0.66
  14   9   0   11.55    1.86
  15   9   0    1.43    0.91
  16   9   0    5.40    1.51
 -14  10   0   17.00    3.09
 -13  10   0   18.38    3.16
 -12  10   0   38.61    4.91
 -11  10   0   -0.33    0.78
 -10  10   0    0.59    0.64
  -9  10   0   -0.53    0.45
  -8  10   0    1.23    0.67
  -7  10   0    3.67    0.88
  -6  10   0    3.42    0.88
  -5  10   0    0.79    0.58
  -4  10   0   20.77    2.09
  -3  10   0   46.55    2.67
  -2  10   0   34.55    2.17
  -1  10   0   42.04    2.30
   0  10   0    2.06    0.51
   1  10   0   38.08    2.24
   2  10   0   35.89    2.15
   3  10   0   44.57    2.49
   4  10   0   16.72    1.44
   5  10   0    1.45    0.47
   6  10   0    4.79    0.73
   7  10   0    2.11    0.52
   8  10   0    1.93    0.52
   9  10   0    0.33    0.51
  10  10   0    0.16    0.49
  11  10   0    1.16    0.62
  12  10   0   34.29    3.36
  13  10   0   15.05    2.10
  14  10   0   10.59    1.81
  15  10   0   16.98    2.34
  16  10   0    0.42    0.99
 -14  11   0    2.15    1.43
 -13  11   0    0.70    1.05
 -12  11   0    1.45    1.11
 -11  11   0    2.71    0.87
 -10  11   0   11.92    1.75
  -9  11   0   18.76    2.31
  -8  11   0    0.82    0.54
  -7  11   0    1.44    0.67
  -6  11   0    4.66    1.01
  -5  11   0   11.08    1.55
  -4  11   0    6.68    1.15
  -3  11   0   23.73    1.89
  -2  11   0    0.58    0.38
  -1  11   0   49.10    2.72
   0  11   0   -0.39    0.26
   1  11   0   49.89    2.73
   2  11   0    1.81    0.50
   3  11   0   25.42    1.88
   4  11   0    4.01    0.70
   5  11   0   13.12    1.29
   6  11   0    4.11    0.73
   7  11   0    0.48    0.41
   8  11   0    1.78    0.70
   9  11   0   18.50    2.19
  10  11   0    9.46    1.51
  11  11   0    1.58    0.76
  12  11   0    0.29    0.66
  13  11   0    0.18    0.69
  14  11   0    2.35    0.98
  15  11   0    0.37    0.94
 -14  12   0   -0.47    1.14
 -13  12   0    0.78    1.09
 -12  12   0   12.41    2.69
 -11  12   0    8.02    1.90
 -10  12   0   -0.17    0.55
  -9  12   0    6.86    1.38
  -8  12   0    1.29    0.69
  -7  12   0   12.80    1.73
  -6  12   0   22.78    2.35
  -5  12   0    2.26    0.76
  -4  12   0   22.93    2.38
  -3  12   0    5.43    1.05
  -2  12   0   22.95    1.82
  -1  12   0   23.92    1.99
   0  12   0   22.23    1.83
   1  12   0   29.84    2.13
   2  12   0   19.52    1.68
   3  12   0    4.30    0.74
   4  12   0   21.39    1.79
   5  12   0    1.32    0.52
   6  12   0   18.84    1.71
   7  12   0   12.70    1.34
   8  12   0    1.33    0.64
   9  12   0    8.77    1.46
  10  12   0    0.02    0.55
  11  12   0   12.48    1.88
  12  12   0   10.61    1.72
  13  12   0    0.13    0.73
  14  12   0   -0.51    0.79
 -14  13   0    0.13    1.41
 -13  13   0   -0.01    1.12
 -12  13   0   11.85    2.72
 -11  13   0    1.07    0.97
 -10  13   0    1.40    0.78
  -9  13   0    2.74    0.93
  -8  13   0    1.00    0.74
  -7  13   0    7.55    1.41
  -6  13   0   15.27    2.04
  -5  13   0   51.47    4.19
  -4  13   0   23.40    2.50
  -3  13   0   -0.56    0.39
  -2  13   0    1.27    0.54
  -1  13   0    9.31    1.15
   0  13   0    0.04    0.40
   1  13   0    9.06    1.12
   2  13   0    0.51    0.40
   3  13   0   -0.27    0.35
   4  13   0   25.18    2.02
   5  13   0   50.44    3.13
   6  13   0   17.50    1.66
   7  13   0    9.21    1.21
   8  13   0    0.08    0.53
   9  13   0    1.96    0.84
  10  13   0    0.80    0.70
  11  13   0    0.81    0.76
  12  13   0   11.26    1.95
  13  13   0    0.65    0.81
  14  13   0   -0.26    1.11
 -13  14   0    0.97    1.38
 -12  14   0    0.59    1.36
 -11  14   0    0.22    1.06
 -10  14   0    6.34    1.98
  -9  14   0    5.26    1.26
  -8  14   0   32.75    3.08
  -7  14   0    0.95    0.65
  -6  14   0    0.40    0.67
  -5  14   0    6.85    1.26
  -4  14   0    6.48    1.24
  -3  14   0   -0.34    0.46
  -2  14   0    0.75    0.50
  -1  14   0    2.33    0.67
   0  14   0   92.36    4.69
   1  14   0    2.96    0.73
   2  14   0    0.53    0.42
   3  14   0   -0.31    0.39
   4  14   0    3.00    0.73
   5  14   0    6.66    1.03
   6  14   0    1.30    0.54
   7  14   0    0.77    0.62
   8  14   0   28.00    2.81
   9  14   0    6.30    1.31
  10  14   0    8.50    1.62
  11  14   0   -0.39    0.70
  12  14   0    2.54    1.02
  13  14   0   -0.23    0.98
 -11  15   0    2.51    1.41
 -10  15   0    3.69    1.68
  -9  15   0    1.51    0.94
  -8  15   0    8.60    1.47
  -7  15   0    4.31    1.12
  -6  15   0   -0.10    0.64
  -5  15   0   -0.88    0.52
  -4  15   0    1.23    0.72
  -3  15   0    2.18    0.85
  -2  15   0    0.83    0.54
  -1  15   0   -0.15    0.39
   0  15   0    0.73    0.47
   1  15   0    0.03    0.40
   2  15   0    0.69    0.52
   3  15   0   -0.21    0.44
   4  15   0    2.27    0.65
   5  15   0    0.33    0.47
   6  15   0    0.55    0.56
   7  15   0    3.70    1.03
   8  15   0    9.69    1.67
   9  15   0    1.94    0.90
  10  15   0    2.41    0.99
  11  15   0    2.09    1.08
 -10  16   0   13.10    2.91
  -9  16   0    1.87    1.52
  -8  16   0    0.58    0.86
  -7  16   0    1.17    0.83
  -6  16   0    1.91    0.95
  -5  16   0    4.05    1.13
  -4  16   0   26.44    2.86
  -3  16   0    0.36    0.70
  -2  16   0    0.48    0.62
  -1  16   0    2.96    0.83
   0  16   0   26.13    2.30
   1  16   0    4.31    0.86
   2  16   0    1.40    0.60
   3  16   0    0.13    0.52
   4  16   0   24.77    2.20
   5  16   0    3.42    0.84
   6  16   0    0.11    0.68
   7  16   0    1.88    0.91
   8  16   0   -0.40    0.71
   9  16   0    0.85    1.30
  10  16   0   12.06    2.94
  -8  17   0   -1.31    1.11
  -7  17   0    4.52    1.31
  -6  17   0   17.31    2.34
  -5  17   0    2.79    1.08
  -4  17   0    5.46    1.35
  -3  17   0    2.37    0.95
  -2  17   0    9.55    1.71
  -1  17   0    0.97    0.62
   0  17   0   -0.32    0.55
   1  17   0    0.72    0.64
   2  17   0    7.37    1.15
   3  17   0    0.76    0.65
   4  17   0    6.00    1.23
   5  17   0    4.19    1.26
   6  17   0   14.48    3.21
   7  17   0    2.30    1.74
   8  17   0    0.19    1.29
  -7  18   0   -0.69    1.64
  -6  18   0   11.20    1.96
  -5  18   0   -0.25    0.85
  -4  18   0   10.95    1.90
  -3  18   0    0.62    0.81
  -2  18   0   -0.23    0.78
  -1  18   0   -0.32    0.60
   0  18   0   -0.22    0.78
   1  18   0    0.36    0.83
   2  18   0    0.07    0.85
   3  18   0    1.15    0.99
   4  18   0   11.84    2.03
   5  18   0    1.25    1.54
   6  18   0    8.28    2.70
  -5  19   0    1.11    1.60
  -4  19   0    0.11    1.47
  -3  19   0    0.20    0.89
  -2  19   0   21.00    2.74
  -1  19   0   -0.62    0.83
   0  19   0   -0.36    0.79
   1  19   0    0.33    0.89
   2  19   0   22.09    2.78
   3  19   0    0.80    1.03
  -1 -19   1   -0.23    1.60
   0 -19   1    0.41    1.29
   1 -19   1    2.05    1.60
   2 -19   1    0.04    1.39
   3 -19   1    2.38    1.67
   4 -19   1    0.41    1.66
  -6 -18   1    0.59    1.83
  -5 -18   1    0.39    1.67
  -4 -18   1    2.41    1.76
  -3 -18   1    1.41    1.41
  -2 -18   1    1.98    1.46
  -1 -18   1    0.71    1.28
   0 -18   1   -0.97    0.96
   1 -18   1   -1.40    1.07
   2 -18   1    1.03    1.32
   3 -18   1    2.81    1.79
   4 -18   1   -0.11    1.30
   5 -18   1   -0.06    1.31
   6 -18   1    1.68    1.42
  -8 -17   1    0.53    1.69
  -7 -17   1    2.94    1.91
  -6 -17   1    1.69    1.70
  -5 -17   1   -0.49    1.39
  -4 -17   1    7.15    2.41
  -3 -17   1    1.16    1.36
  -2 -17   1    7.70    2.42
  -1 -17   1   18.20    3.62
   0 -17   1    1.04    1.03
   1 -17   1   16.65    3.32
   2 -17   1    5.16    1.98
   3 -17   1    0.62    1.19
   4 -17   1    6.36    2.03
   5 -17   1    0.27    1.05
   6 -17   1   -0.54    1.17
 -10 -16   1    0.41    1.71
  -9 -16   1    0.09    1.64
  -8 -16   1    0.88    1.77
  -7 -16   1    5.92    2.35
  -6 -16   1    2.55    1.77
  -5 -16   1    1.33    1.42
  -4 -16   1   -0.56    0.93
  -3 -16   1   15.16    3.42
  -2 -16   1    9.93    2.57
  -1 -16   1    2.43    1.43
   0 -16   1   40.28    5.57
   1 -16   1    3.79    1.72
   2 -16   1   12.62    2.91
   3 -16   1   16.75    3.31
   4 -16   1    0.27    0.92
   5 -16   1    2.98    1.52
   6 -16   1    2.64    1.43
   7 -16   1    5.85    1.80
 -10 -15   1    1.78    1.80
  -9 -15   1    0.56    1.55
  -8 -15   1   -0.29    1.38
  -7 -15   1    5.23    2.03
  -6 -15   1    6.67    2.37
  -5 -15   1   24.51    4.12
  -4 -15   1   14.50    3.11
  -3 -15   1    9.95    2.62
  -2 -15   1    0.21    1.27
  -1 -15   1    1.49    1.19
   0 -15   1    0.00    0.93
   1 -15   1    2.27    1.43
   2 -15   1   -0.36    0.79
   3 -15   1    8.18    2.30
   4 -15   1    8.11    2.28
   5 -15   1   20.49    3.62
   6 -15   1    6.90    1.91
   7 -15   1    4.75    1.69
 -10 -14   1    2.04    1.83
  -9 -14   1    5.26    2.18
  -8 -14   1   16.54    3.68
  -7 -14   1    2.27    1.67
  -6 -14   1    0.61    1.37
  -5 -14   1    0.51    1.05
  -4 -14   1   30.95    4.84
  -3 -14   1    3.14    1.64
  -2 -14   1    0.83    1.12
  -1 -14   1   10.83    2.59
   0 -14   1   13.15    2.84
   1 -14   1    7.90    2.26
   2 -14   1    0.49    0.87
   3 -14   1    1.82    0.95
   4 -14   1   28.60    2.98
   5 -14   1    1.01    0.71
   6 -14   1    0.25    0.61
   7 -14   1    1.50    0.74
   8 -14   1   21.95    3.49
   9 -14   1    4.53    1.69
  10 -14   1    0.08    1.14
 -10 -13   1   22.69    4.20
  -9 -13   1    4.32    2.08
  -8 -13   1   16.08    3.56
  -7 -13   1    1.16    1.45
  -6 -13   1    0.15    1.15
  -5 -13   1    0.48    1.01
  -4 -13   1    4.21    1.80
  -3 -13   1   44.83    6.01
  -2 -13   1    5.71    1.99
  -1 -13   1    0.78    1.09
   0 -13   1    0.47    0.50
   1 -13   1    1.19    0.63
   2 -13   1    7.26    1.25
   3 -13   1   46.31    3.67
   4 -13   1    5.50    1.08
   5 -13   1   -0.16    0.49
   6 -13   1    1.41    0.76
   7 -13   1    4.69    1.09
   8 -13   1   16.93    2.08
   9 -13   1    3.96    1.59
  10 -13   1   12.27    2.64
  11 -13   1   25.37    4.13
  12 -13   1    0.11    1.31
  13 -13   1    3.39    1.80
 -10 -12   1    5.55    2.11
  -9 -12   1    3.63    1.89
  -8 -12   1    7.32    2.41
  -7 -12   1    4.55    1.94
  -6 -12   1    2.51    1.49
  -5 -12   1    3.53    1.75
  -4 -12   1   20.74    3.76
  -3 -12   1    8.54    2.19
  -2 -12   1    1.10    1.10
  -1 -12   1    4.53    1.60
   0 -12   1    2.67    0.78
   1 -12   1    4.68    0.94
   2 -12   1    1.70    0.69
   3 -12   1    6.48    1.18
   4 -12   1   18.39    2.05
   5 -12   1    7.67    1.27
   6 -12   1    2.02    0.81
   7 -12   1    8.18    1.39
   8 -12   1    7.86    1.40
   9 -12   1    4.81    1.55
  10 -12   1    3.23    1.50
  11 -12   1    3.05    1.47
  12 -12   1    0.51    1.16
  13 -12   1    1.37    1.50
  14 -12   1    2.34    1.78
 -10 -11   1    1.73    1.49
  -9 -11   1   16.58    3.50
  -8 -11   1   -0.13    1.11
  -7 -11   1   69.71    7.88
  -6 -11   1    3.56    1.67
  -5 -11   1    5.13    1.84
  -4 -11   1    7.51    2.06
  -3 -11   1   -0.28    0.86
  -2 -11   1   24.16    3.76
  -1 -11   1   45.81    5.50
   0 -11   1   -0.15    0.67
   1 -11   1   48.07    3.28
   2 -11   1   25.61    2.34
   3 -11   1   -0.07    0.39
   4 -11   1    3.20    0.75
   5 -11   1    2.17    0.70
   6 -11   1    6.75    1.19
   7 -11   1   70.93    4.49
   8 -11   1    1.30    0.65
   9 -11   1   18.21    3.11
  10 -11   1   -0.46    0.88
  11 -11   1   -0.49    0.79
  12 -11   1   -0.13    1.02
  13 -11   1    1.31    1.24
  14 -11   1    0.82    1.29
  15 -11   1    3.95    1.95
 -15 -10   1    0.74    1.42
 -14 -10   1    2.88    1.62
 -13 -10   1    3.43    1.43
 -12 -10   1   -0.13    0.81
 -11 -10   1   28.38    3.93
 -10 -10   1    2.68    0.92
  -9 -10   1    3.45    0.98
  -8 -10   1    1.35    0.66
  -7 -10   1    2.45    0.71
  -6 -10   1   16.11    1.78
  -5 -10   1   14.32    1.53
  -4 -10   1   40.93    2.77
  -3 -10   1   19.48    3.25
  -2 -10   1    9.45    2.23
  -1 -10   1   33.49    4.52
   0 -10   1   19.41    3.13
   1 -10   1   40.04    2.76
   2 -10   1    6.41    1.05
   3 -10   1   18.37    1.91
   4 -10   1   33.86    2.86
   5 -10   1   11.96    1.52
   6 -10   1   18.27    1.91
   7 -10   1    1.91    0.68
   8 -10   1    0.48    0.56
   9 -10   1    7.40    1.25
  10 -10   1    5.38    1.72
  11 -10   1   30.64    4.39
  12 -10   1   -0.31    1.06
  13 -10   1    3.03    1.77
  14 -10   1    3.69    1.81
  15 -10   1   -1.44    0.94
 -16  -9   1    1.96    1.37
 -15  -9   1    0.11    1.17
 -14  -9   1   -0.83    0.95
 -13  -9   1   -0.64    0.74
 -12  -9   1    1.01    0.90
 -11  -9   1    2.22    1.12
 -10  -9   1    2.86    0.87
  -9  -9   1   46.10    3.62
  -8  -9   1   18.98    2.07
  -7  -9   1   11.57    1.50
  -6  -9   1   11.78    1.53
  -5  -9   1   88.25    5.37
  -4  -9   1    8.34    1.06
  -3  -9   1    3.71    0.68
  -2  -9   1   85.79    5.20
  -1  -9   1   13.16    1.30
   0  -9   1    0.45    0.29
   1  -9   1   14.44    1.48
   2  -9   1   92.98    5.33
   3  -9   1    4.95    0.82
   4  -9   1    8.18    1.16
   5  -9   1   85.95    5.33
   6  -9   1   20.03    1.92
   7  -9   1   13.24    1.57
   8  -9   1   25.24    2.27
   9  -9   1   48.62    3.40
  10  -9   1    0.70    0.98
  11  -9   1    0.19    0.89
  12  -9   1   -0.28    0.90
  13  -9   1    1.44    1.21
  14  -9   1    2.82    1.39
  15  -9   1    1.22    1.49
  16  -9   1    0.30    1.26
 -16  -8   1    0.22    1.11
 -15  -8   1    1.03    1.11
 -14  -8   1    0.13    0.87
 -13  -8   1    0.53    0.95
 -12  -8   1    1.30    1.10
 -11  -8   1   11.32    2.17
 -10  -8   1    2.18    0.84
  -9  -8   1   18.31    2.11
  -8  -8   1    4.05    0.97
  -7  -8   1    6.81    1.15
  -6  -8   1    8.51    1.21
  -5  -8   1   28.94    2.30
  -4  -8   1   24.29    2.03
  -3  -8   1   13.03    1.35
  -2  -8   1   18.40    1.57
  -1  -8   1   23.90    1.85
   0  -8   1   48.38    3.01
   1  -8   1   25.76    1.94
   2  -8   1   15.51    1.59
   3  -8   1   11.65    1.38
   4  -8   1   30.82    2.41
   5  -8   1   29.82    2.56
   6  -8   1   10.19    1.31
   7  -8   1    9.58    1.34
   8  -8   1    3.74    0.66
   9  -8   1   21.72    1.74
  10  -8   1    3.86    1.43
  11  -8   1    7.28    2.07
  12  -8   1    2.18    1.32
  13  -8   1    5.50    1.95
  14  -8   1    0.07    1.01
  15  -8   1    1.78    1.51
  16  -8   1    0.28    1.38
 -17  -7   1    6.09    2.63
 -16  -7   1    1.78    1.46
 -15  -7   1   12.41    2.72
 -14  -7   1   -0.15    0.98
 -13  -7   1   47.42    6.21
 -12  -7   1   -0.23    0.76
 -11  -7   1   -0.08    0.71
 -10  -7   1    0.15    0.56
  -9  -7   1    9.46    1.34
  -8  -7   1   14.01    1.73
  -7  -7   1    9.66    1.29
  -6  -7   1    6.65    1.05
  -5  -7   1  140.67    7.74
  -4  -7   1   -0.21    0.26
  -3  -7   1    1.15    0.43
  -2  -7   1   11.71    1.18
  -1  -7   1   38.18    2.50
   0  -7   1   -0.17    0.22
   1  -7   1   32.37    2.46
   2  -7   1   10.30    1.17
   3  -7   1    0.95    0.41
   4  -7   1    0.15    0.32
   5  -7   1  131.20    7.64
   6  -7   1    5.99    1.00
   7  -7   1    7.78    1.18
   8  -7   1   16.59    1.40
   9  -7   1    8.82    0.98
  10  -7   1    0.05    0.75
  11  -7   1   -0.57    0.70
  12  -7   1    0.96    1.02
  13  -7   1   62.89    7.01
  14  -7   1    0.71    1.17
  15  -7   1   17.18    3.43
  16  -7   1    1.16    1.39
  17  -7   1    5.67    3.39
 -17  -6   1    4.40    1.88
 -16  -6   1    0.01    1.18
 -15  -6   1   -0.07    1.06
 -14  -6   1    0.04    0.93
 -13  -6   1   38.77    4.75
 -12  -6   1    9.78    2.12
 -11  -6   1   67.15    5.86
 -10  -6   1    7.17    1.69
  -9  -6   1    9.59    1.35
  -8  -6   1    6.79    1.13
  -7  -6   1   10.52    1.40
  -6  -6   1   -0.37    0.29
  -5  -6   1   22.00    1.85
  -4  -6   1    1.47    0.47
  -3  -6   1   10.95    1.21
  -2  -6   1    4.49    0.67
  -1  -6   1  179.40    9.58
   0  -6   1   33.32    2.19
   1  -6   1  172.96    7.74
   2  -6   1    3.78    0.67
   3  -6   1    9.62    1.14
   4  -6   1    1.73    0.49
   5  -6   1   21.30    1.82
   6  -6   1    0.11    0.33
   7  -6   1   12.18    1.12
   8  -6   1    7.40    0.86
   9  -6   1   11.73    1.11
  10  -6   1   16.95    2.67
  11  -6   1   49.88    6.17
  12  -6   1   12.23    2.47
  13  -6   1   34.05    4.84
  14  -6   1    0.12    0.73
  15  -6   1   -0.11    0.99
  16  -6   1   -1.19    1.16
  17  -6   1    4.26    2.05
 -17  -5   1   10.93    2.86
 -16  -5   1    0.24    1.22
 -15  -5   1    1.19    1.15
 -14  -5   1    6.37    1.95
 -13  -5   1    1.43    1.04
 -12  -5   1    1.66    1.07
 -11  -5   1   14.75    2.55
 -10  -5   1   25.55    3.38
  -9  -5   1   13.06    1.61
  -8  -5   1    0.49    0.47
  -7  -5   1   47.26    3.18
  -6  -5   1   52.09    3.22
  -5  -5   1   26.53    2.10
  -4  -5   1    0.46    0.35
  -3  -5   1   67.81    4.10
  -2  -5   1   88.72    5.13
  -1  -5   1    0.27    0.25
   0  -5   1    0.52    0.28
   1  -5   1   -0.10    0.16
   2  -5   1   89.81    5.10
   3  -5   1   67.10    4.04
   4  -5   1    0.10    0.28
   5  -5   1   27.38    2.01
   6  -5   1   48.65    2.49
   7  -5   1   50.00    2.49
   8  -5   1   -0.20    0.24
   9  -5   1   14.39    1.29
  10  -5   1   26.62    1.81
  11  -5   1    8.58    2.09
  12  -5   1    2.80    1.29
  13  -5   1   -0.31    0.79
  14  -5   1    8.01    2.09
  15  -5   1    1.22    1.33
  16  -5   1    1.12    1.25
  17  -5   1   11.63    3.08
 -17  -4   1    0.96    1.41
 -16  -4   1    3.28    1.57
 -15  -4   1   -0.23    1.02
 -14  -4   1   28.32    4.34
 -13  -4   1   -0.36    0.78
 -12  -4   1    0.33    0.87
 -11  -4   1    1.68    1.09
 -10  -4   1    0.43    0.69
  -9  -4   1   27.04    2.37
  -8  -4   1    9.42    1.21
  -7  -4   1    8.19    1.17
  -6  -4   1   12.83    1.41
  -5  -4   1   23.85    1.97
  -4  -4   1   82.49    5.01
  -3  -4   1    2.59    0.54
  -2  -4   1   42.36    2.70
  -1  -4   1   34.33    2.33
   0  -4   1    8.04    0.84
   1  -4   1   36.49    1.85
   2  -4   1   45.14    2.68
   3  -4   1    2.69    0.52
   4  -4   1   90.13    4.97
   5  -4   1   24.33    1.36
   6  -4   1   15.00    1.13
   7  -4   1   11.13    0.96
   8  -4   1    7.86    0.81
   9  -4   1   27.74    1.68
  10  -4   1    0.38    0.32
  11  -4   1    4.44    1.43
  12  -4   1    0.49    0.79
  13  -4   1    0.21    0.99
  14  -4   1   36.06    4.85
  15  -4   1    2.92    1.59
  16  -4   1    5.13    2.07
  17  -4   1    0.88    1.47
 -17  -3   1   10.70    2.86
 -16  -3   1    1.20    1.46
 -15  -3   1    5.71    1.91
 -14  -3   1   -0.53    0.89
 -13  -3   1    0.17    1.01
 -12  -3   1    5.27    1.65
 -11  -3   1   14.96    2.86
 -10  -3   1   38.25    4.56
  -9  -3   1   22.51    3.14
  -8  -3   1   53.02    3.42
  -7  -3   1  104.37    6.14
  -6  -3   1    2.12    0.55
  -5  -3   1   70.27    4.50
  -4  -3   1   24.67    1.84
  -3  -3   1   13.07    1.16
  -2  -3   1  194.64   10.70
  -1  -3   1  258.79   13.75
   0  -3   1   -0.09    0.13
   1  -3   1  256.62   11.17
   2  -3   1  195.60   10.64
   3  -3   1   12.04    1.08
   4  -3   1   25.51    1.34
   5  -3   1   80.96    3.61
   6  -3   1    3.08    0.45
   7  -3   1  108.98    4.92
   8  -3   1   56.31    2.72
   9  -3   1   23.74    1.53
  10  -3   1   35.97    2.06
  11  -3   1   21.08    2.09
  12  -3   1    3.85    1.46
  13  -3   1    0.54    0.81
  14  -3   1   -0.44    0.77
  15  -3   1    3.47    1.69
  16  -3   1    3.46    1.69
  17  -3   1   13.94    3.20
 -17  -2   1   -0.23    1.23
 -16  -2   1    0.32    1.12
 -15  -2   1    3.00    1.59
 -14  -2   1   -0.05    0.89
 -13  -2   1    0.10    0.78
 -12  -2   1   28.97    4.39
 -11  -2   1   19.05    3.25
 -10  -2   1    0.97    0.92
  -9  -2   1    2.87    1.28
  -8  -2   1   10.35    1.20
  -7  -2   1   34.78    2.52
  -6  -2   1    5.25    0.77
  -5  -2   1    0.54    0.33
  -4  -2   1   11.61    1.07
  -3  -2   1   36.40    2.32
  -2  -2   1   55.77    3.24
  -1  -2   1   94.72    7.38
   0  -2   1   21.52    1.46
   1  -2   1   95.38    4.18
   2  -2   1   57.23    3.19
   3  -2   1   38.19    1.82
   4  -2   1   11.63    0.75
   5  -2   1    0.34    0.18
   6  -2   1    6.00    0.61
   7  -2   1   35.86    1.91
   8  -2   1   12.80    1.05
   9  -2   1    5.82    0.69
  10  -2   1    1.80    0.45
  11  -2   1   25.42    2.28
  12  -2   1   28.14    4.00
  13  -2   1   -0.82    0.80
  14  -2   1    0.40    0.95
  15  -2   1   -0.58    0.88
  16  -2   1    1.64    1.40
  17  -2   1    0.12    1.21
 -18  -1   1    0.52    2.03
 -17  -1   1    0.96    1.29
 -16  -1   1    7.31    2.30
 -15  -1   1    1.99    1.54
 -14  -1   1    8.38    2.30
 -13  -1   1   10.18    2.65
 -12  -1   1    4.96    1.88
 -11  -1   1   17.24    2.86
 -10  -1   1   44.71    5.37
  -9  -1   1    0.90    0.50
  -8  -1   1   32.67    1.85
  -7  -1   1   10.94    0.84
  -6  -1   1    9.62    0.75
  -5  -1   1  137.30    6.06
  -4  -1   1   38.50    1.87
  -3  -1   1  101.69    5.57
  -2  -1   1    1.25    0.29
  -1  -1   1    0.04    0.20
   0  -1   1    0.03    0.22
   1  -1   1    0.59    0.17
   2  -1   1    0.95    0.27
   3  -1   1  103.32    5.59
   4  -1   1   38.81    1.84
   5  -1   1  136.03    6.04
   6  -1   1    9.58    0.79
   7  -1   1   10.79    0.89
   8  -1   1   32.64    1.90
   9  -1   1    0.85    0.33
  10  -1   1   48.31    2.61
  11  -1   1   14.24    1.63
  12  -1   1    3.75    0.88
  13  -1   1   15.81    2.92
  14  -1   1    5.37    1.84
  15  -1   1    1.88    1.22
  16  -1   1   14.23    2.99
  17  -1   1    1.02    1.50
  18  -1   1    0.73    2.00
 -18   0   1    0.19    1.44
 -17   0   1   -0.30    1.53
 -16   0   1   38.27    5.47
 -15   0   1    0.59    1.21
 -13   0   1    0.01    0.55
 -12   0   1    0.43    0.55
 -11   0   1   -0.22    0.39
 -10   0   1   12.44    1.56
  -9   0   1    0.30    0.39
  -8   0   1  171.64    9.46
  -7   0   1    0.12    0.32
  -6   0   1   47.54    3.02
  -5   0   1    0.01    0.23
  -4   0   1  245.22   10.70
  -3   0   1   -0.08    0.13
  -2   0   1  110.61    6.02
  -1   0   1   -0.07    0.11
   0   0   1    4.02    0.30
   1   0   1    0.07    0.11
   2   0   1  111.51    4.91
   3   0   1   -0.04    0.13
   4   0   1  249.70   10.71
   5   0   1    0.05    0.16
   6   0   1   49.39    2.37
   7   0   1   -0.08    0.18
   8   0   1  167.68    7.56
   9   0   1   -0.20    0.23
  10   0   1   14.63    1.24
  11   0   1    0.33    0.32
  12   0   1    2.62    0.74
  13   0   1   -0.07    0.66
  14   0   1   34.44    4.59
  15   0   1    0.76    0.94
  16   0   1   30.42    4.82
  17   0   1    1.07    1.30
  18   0   1    1.79    2.22
 -18   1   1   -0.06    1.53
 -17   1   1   -0.94    1.02
 -16   1   1    5.48    2.19
 -15   1   1    2.26    1.33
 -14   1   1    4.91    1.08
 -13   1   1   15.63    1.90
 -12   1   1    6.47    1.19
 -11   1   1   13.15    1.63
 -10   1   1   48.70    3.59
  -9   1   1    0.60    0.47
  -8   1   1   32.39    2.55
  -7   1   1    8.36    1.10
  -6   1   1    8.12    1.00
  -5   1   1  135.43    7.53
  -4   1   1   39.28    2.37
  -3   1   1  102.49    4.52
  -2   1   1    0.74    0.17
  -1   1   1    0.23    0.12
   0   1   1    0.03    0.11
   1   1   1    0.40    0.12
   2   1   1    1.05    0.22
   3   1   1  102.13    4.55
   4   1   1   35.26    1.86
   5   1   1  137.09    6.07
   6   1   1    8.96    0.55
   7   1   1   10.40    0.64
   8   1   1   34.46    1.54
   9   1   1    0.14    0.26
  10   1   1   47.19    2.61
  11   1   1   14.66    1.30
  12   1   1    7.61    1.15
  13   1   1   14.29    1.80
  14   1   1    6.19    1.90
  15   1   1    2.86    1.31
  16   1   1    9.10    2.40
  17   1   1   -0.17    1.08
 -18   2   1   -0.39    1.50
 -17   2   1    0.29    1.28
 -16   2   1    0.44    1.28
 -15   2   1    1.13    1.23
 -14   2   1    0.00    0.60
 -13   2   1    1.35    0.63
 -12   2   1   32.54    2.91
 -11   2   1   21.99    2.30
 -10   2   1    1.93    0.70
  -9   2   1    6.25    1.01
  -8   2   1   10.51    1.33
  -7   2   1   38.88    2.54
  -6   2   1    7.25    0.93
  -5   2   1   -0.05    0.27
  -4   2   1   12.97    0.93
  -3   2   1   37.73    1.92
  -2   2   1   54.03    2.02
  -1   2   1   92.79    3.25
   0   2   1   22.88    0.90
   1   2   1   94.98    3.63
   2   2   1   58.46    2.24
   3   2   1   39.77    1.90
   4   2   1   11.73    0.84
   5   2   1    0.32    0.19
   6   2   1    6.14    0.64
   7   2   1   36.84    1.94
   8   2   1   13.79    1.11
   9   2   1    6.48    0.73
  10   2   1    1.87    0.45
  11   2   1   23.45    1.77
  12   2   1   31.78    2.80
  13   2   1    0.47    0.51
  14   2   1    1.08    1.01
  15   2   1    1.47    1.20
  16   2   1   -0.26    0.98
  17   2   1   -1.43    1.01
 -18   3   1    1.69    1.93
 -17   3   1    6.17    2.33
 -16   3   1    3.52    1.88
 -15   3   1    9.38    2.61
 -14   3   1    1.41    0.68
 -13   3   1   -0.13    0.45
 -12   3   1    4.52    1.04
 -11   3   1   21.91    2.15
 -10   3   1   28.08    2.61
  -9   3   1   19.19    2.02
  -8   3   1   54.02    3.48
  -7   3   1  101.23    6.17
  -6   3   1    3.18    0.62
  -5   3   1   76.57    3.70
  -4   3   1   26.29    1.43
  -3   3   1   12.33    0.88
  -2   3   1  201.81    7.56
  -1   3   1  260.08    8.67
   0   3   1    0.17    0.13
   1   3   1  255.40    9.69
   2   3   1  199.38    8.66
   3   3   1   12.24    0.67
   4   3   1   24.57    1.39
   5   3   1   76.59    3.64
   6   3   1    2.49    0.42
   7   3   1  106.58    4.95
   8   3   1   50.21    2.69
   9   3   1   21.37    1.60
  10   3   1   32.68    2.03
  11   3   1   21.69    2.11
  12   3   1    5.45    1.06
  13   3   1    0.47    0.55
  14   3   1    0.47    0.89
  15   3   1    5.77    1.76
  16   3   1    3.30    1.67
  17   3   1   13.10    2.94
 -17   4   1    1.43    1.32
 -16   4   1    5.29    2.02
 -15   4   1    2.21    0.93
 -14   4   1   35.55    3.19
 -13   4   1    0.87    0.62
 -12   4   1    0.19    0.52
 -11   4   1    3.47    0.87
 -10   4   1    0.30    0.47
  -9   4   1   27.20    2.47
  -8   4   1    6.76    1.06
  -7   4   1   10.42    1.30
  -6   4   1   15.75    1.24
  -5   4   1   20.38    1.50
  -4   4   1   85.67    4.06
  -3   4   1    2.46    0.39
  -2   4   1   45.66    1.89
  -1   4   1   38.46    1.63
   0   4   1    7.90    0.54
   1   4   1   39.65    2.34
   2   4   1   44.34    1.88
   3   4   1    3.45    0.36
   4   4   1   85.30    3.45
   5   4   1   21.53    1.14
   6   4   1   14.21    0.86
   7   4   1    9.63    0.96
   8   4   1    6.15    0.78
   9   4   1   28.70    2.44
  10   4   1    0.05    0.41
  11   4   1    1.66    0.66
  12   4   1    0.42    0.53
  13   4   1    0.20    0.50
  14   4   1   31.14    3.06
  15   4   1    1.23    1.22
  16   4   1    8.16    2.33
  17   4   1    0.00    1.25
 -17   5   1   14.26    3.25
 -16   5   1    1.62    1.50
 -15   5   1    0.02    0.75
 -14   5   1    6.95    1.29
 -13   5   1    0.41    0.59
 -12   5   1    2.03    0.78
 -11   5   1   11.43    1.57
 -10   5   1   22.47    2.30
  -9   5   1   13.36    1.63
  -8   5   1    0.88    0.49
  -7   5   1   43.52    2.55
  -6   5   1   46.99    2.57
  -5   5   1   25.56    1.66
  -4   5   1    0.15    0.22
  -3   5   1   68.51    2.85
  -2   5   1   88.79    3.58
  -1   5   1   -0.07    0.14
   0   5   1   -0.20    0.18
   1   5   1    0.29    0.22
   2   5   1   86.90    4.13
   3   5   1   68.27    3.26
   4   5   1    0.18    0.20
   5   5   1   26.19    1.47
   6   5   1   51.47    2.47
   7   5   1   46.72    3.09
   8   5   1    0.78    0.45
   9   5   1   14.29    1.61
  10   5   1   22.57    2.25
  11   5   1    8.80    1.35
  12   5   1    1.72    0.68
  13   5   1    0.09    0.54
  14   5   1    5.03    1.19
  15   5   1   -0.23    1.04
  16   5   1    1.30    1.22
  17   5   1   13.86    3.08
 -17   6   1   10.51    2.68
 -16   6   1   -0.15    1.11
 -15   6   1    0.71    0.72
 -14   6   1   -0.16    0.62
 -13   6   1   29.58    3.11
 -12   6   1   10.54    1.58
 -11   6   1   55.62    3.97
 -10   6   1   10.34    1.35
  -9   6   1    8.41    1.30
  -8   6   1    8.45    1.01
  -7   6   1   13.40    1.22
  -6   6   1    0.00    0.27
  -5   6   1   18.27    1.37
  -4   6   1    0.87    0.31
  -3   6   1   11.46    0.81
  -2   6   1    4.78    0.44
  -1   6   1  171.33    6.70
   0   6   1   29.02    2.08
   1   6   1  173.48    9.57
   2   6   1    4.14    0.54
   3   6   1   12.54    0.98
   4   6   1    0.88    0.31
   5   6   1   16.32    1.24
   6   6   1   -0.23    0.20
   7   6   1   14.36    1.51
   8   6   1    8.93    1.23
   9   6   1   10.22    1.35
  10   6   1   12.62    1.52
  11   6   1   57.22    3.97
  12   6   1   13.67    1.76
  13   6   1   39.19    3.46
  14   6   1    0.06    0.64
  15   6   1    0.45    1.06
  16   6   1   -0.50    1.08
  17   6   1    3.00    1.75
 -16   7   1    3.11    1.52
 -15   7   1    8.96    1.58
 -14   7   1    0.83    0.61
 -13   7   1   62.08    4.46
 -12   7   1   -0.30    0.49
 -11   7   1    0.36    0.56
 -10   7   1   -0.06    0.53
  -9   7   1   10.22    1.15
  -8   7   1   15.03    1.43
  -7   7   1   10.24    1.07
  -6   7   1    7.20    0.85
  -5   7   1  132.87    6.21
  -4   7   1    0.48    0.26
  -3   7   1    1.40    0.28
  -2   7   1    9.91    0.68
  -1   7   1   35.83    2.00
   0   7   1    0.02    0.22
   1   7   1   35.83    1.98
   2   7   1   10.13    0.96
   3   7   1    0.69    0.31
   4   7   1    0.20    0.26
   5   7   1  130.32    6.17
   6   7   1    6.71    0.78
   7   7   1   11.04    1.36
   8   7   1   16.72    1.79
   9   7   1    7.68    1.25
  10   7   1    0.00    0.39
  11   7   1    0.08    0.48
  12   7   1   -0.34    0.44
  13   7   1   62.94    4.30
  14   7   1    0.36    0.70
  15   7   1    9.92    1.77
  16   7   1    1.78    1.32
 -15   8   1    3.13    1.49
 -14   8   1   -0.47    0.80
 -13   8   1    2.02    1.13
 -12   8   1    1.12    0.70
 -11   8   1    9.51    1.45
 -10   8   1    3.73    0.94
  -9   8   1   19.27    1.68
  -8   8   1    3.31    0.65
  -7   8   1   10.35    1.07
  -6   8   1    8.45    0.93
  -5   8   1   28.22    1.84
  -4   8   1   25.45    1.65
  -3   8   1   13.01    0.84
  -2   8   1   15.26    1.34
  -1   8   1   23.40    1.73
   0   8   1   46.50    2.46
   1   8   1   24.22    1.71
   2   8   1   17.43    1.41
   3   8   1   11.43    1.12
   4   8   1   26.32    1.84
   5   8   1   28.95    1.86
   6   8   1   10.89    1.01
   7   8   1    9.57    1.31
   8   8   1    4.38    0.94
   9   8   1   19.61    2.09
  10   8   1    1.85    0.70
  11   8   1    7.54    1.29
  12   8   1    0.57    0.63
  13   8   1    1.84    0.84
  14   8   1   -0.22    0.63
  15   8   1    2.90    1.01
  16   8   1    1.88    1.43
 -16   9   1    0.01    1.09
 -15   9   1    1.44    1.04
 -14   9   1    0.66    1.22
 -13   9   1    0.98    1.05
 -12   9   1   -0.25    0.75
 -11   9   1    0.76    0.98
 -10   9   1    2.28    0.89
  -9   9   1   43.23    3.83
  -8   9   1   21.61    2.37
  -7   9   1   10.70    1.52
  -6   9   1   15.29    1.82
  -5   9   1   86.82    5.47
  -4   9   1    4.92    1.01
  -3   9   1    3.31    0.65
  -2   9   1   84.58    4.35
  -1   9   1   12.13    1.21
   0   9   1   -0.02    0.27
   1   9   1   12.37    1.19
   2   9   1   90.43    4.33
   3   9   1    3.17    0.58
   4   9   1    7.69    0.87
   5   9   1   88.12    4.33
   6   9   1   15.02    1.34
   7   9   1   10.59    1.41
   8   9   1   16.16    1.97
   9   9   1   44.62    3.52
  10   9   1    2.64    0.83
  11   9   1    1.69    0.71
  12   9   1    0.33    0.62
  13   9   1    0.85    0.73
  14   9   1   -0.04    0.69
  15   9   1    1.11    0.92
 -15  10   1    0.08    1.09
 -14  10   1    1.76    1.33
 -13  10   1    3.35    1.45
 -12  10   1   -1.35    0.64
 -11  10   1   25.80    4.08
 -10  10   1    2.23    0.86
  -9  10   1    3.43    0.98
  -8  10   1    1.35    0.68
  -7  10   1    1.15    0.65
  -6  10   1   17.99    2.04
  -5  10   1   10.31    1.47
  -4  10   1   31.09    2.82
  -3  10   1   19.24    1.66
  -2  10   1    8.06    1.02
  -1  10   1   34.34    2.30
   0  10   1   18.36    1.54
   1  10   1   33.19    2.21
   2  10   1    6.98    0.89
   3  10   1   17.40    1.49
   4  10   1   27.20    2.14
   5  10   1   10.79    1.16
   6  10   1   14.79    1.80
   7  10   1    1.65    0.66
   8  10   1    0.13    0.53
   9  10   1    5.79    1.18
  10  10   1    1.62    0.75
  11  10   1   27.07    2.91
  12  10   1    0.85    0.70
  13  10   1    2.63    1.00
  14  10   1    1.65    0.97
  15  10   1    0.74    0.96
 -15  11   1    0.32    1.30
 -14  11   1   -0.29    1.16
 -13  11   1    2.38    1.43
 -12  11   1   -0.21    0.86
 -11  11   1    0.41    0.64
 -10  11   1    0.23    0.56
  -9  11   1   20.89    2.37
  -8  11   1    3.70    0.97
  -7  11   1   62.13    4.70
  -6  11   1    5.68    1.22
  -5  11   1    1.44    0.71
  -4  11   1    3.92    0.96
  -3  11   1    0.04    0.37
  -2  11   1   20.24    1.80
  -1  11   1   45.08    2.67
   0  11   1    0.55    0.39
   1  11   1   42.42    2.60
   2  11   1   19.84    1.73
   3  11   1   -0.39    0.32
   4  11   1    4.85    0.79
   5  11   1    2.56    0.62
   6  11   1    5.49    1.13
   7  11   1   65.78    4.50
   8  11   1    1.01    0.64
   9  11   1   13.37    1.91
  10  11   1   -0.54    0.52
  11  11   1    0.14    0.55
  12  11   1    0.80    0.74
  13  11   1    1.85    0.97
  14  11   1    0.63    0.88
  15  11   1    3.79    1.98
 -14  12   1    2.79    1.57
 -13  12   1    0.93    1.25
 -12  12   1   -0.77    0.96
 -11  12   1    4.69    1.27
 -10  12   1    4.60    1.21
  -9  12   1    5.36    1.35
  -8  12   1    8.72    1.53
  -7  12   1    7.81    1.38
  -6  12   1    2.17    0.83
  -5  12   1    5.13    1.11
  -4  12   1   17.18    2.06
  -3  12   1    6.17    0.94
  -2  12   1    0.87    0.52
  -1  12   1    4.44    0.82
   0  12   1    2.55    0.63
   1  12   1    3.90    0.77
   2  12   1    0.92    0.50
   3  12   1    5.53    0.87
   4  12   1   16.77    1.61
   5  12   1    5.76    0.89
   6  12   1    3.22    0.94
   7  12   1    6.16    1.22
   8  12   1    9.21    1.53
   9  12   1    1.13    0.69
  10  12   1    2.21    0.99
  11  12   1    3.27    1.09
  12  12   1    0.66    0.75
  13  12   1    0.18    0.83
  14  12   1    4.79    1.50
 -13  13   1    1.87    1.55
 -12  13   1    0.25    1.29
 -11  13   1   23.09    2.81
 -10  13   1   13.54    2.11
  -9  13   1    2.02    0.99
  -8  13   1   11.65    1.77
  -7  13   1    1.89    0.82
  -6  13   1    2.52    0.94
  -5  13   1   -0.60    0.48
  -4  13   1    5.09    1.12
  -3  13   1   51.38    3.21
  -2  13   1    6.33    1.02
  -1  13   1    0.72    0.47
   0  13   1   -0.05    0.36
   1  13   1    1.43    0.56
   2  13   1    4.68    0.89
   3  13   1   44.47    3.04
   4  13   1    4.44    0.84
   5  13   1    0.04    0.49
   6  13   1    2.64    0.86
   7  13   1    1.75    0.72
   8  13   1   14.04    1.96
   9  13   1    3.93    1.01
  10  13   1   15.13    2.16
  11  13   1   26.16    2.96
  12  13   1    2.13    1.08
  13  13   1    9.36    1.85
 -12  14   1    2.04    1.11
 -11  14   1   -0.97    0.73
 -10  14   1   -0.04    0.72
  -9  14   1    2.13    1.03
  -8  14   1   17.66    2.35
  -7  14   1    0.87    0.68
  -6  14   1   -0.12    0.60
  -5  14   1   -0.25    0.64
  -4  14   1   28.18    2.93
  -3  14   1    1.96    0.68
  -2  14   1    2.86    0.74
  -1  14   1   11.75    1.38
   0  14   1   14.59    1.60
   1  14   1    9.21    1.17
   2  14   1    1.41    0.61
   3  14   1    2.40    0.65
   4  14   1   27.83    2.35
   5  14   1    0.15    0.57
   6  14   1    0.19    0.58
   7  14   1    1.28    0.73
   8  14   1   16.47    2.19
   9  14   1    2.30    0.92
  10  14   1    0.18    0.69
  11  14   1   -0.80    0.68
  12  14   1    1.77    1.05
 -11  15   1   -0.69    0.96
 -10  15   1    1.17    1.02
  -9  15   1   -0.52    0.71
  -8  15   1    0.41    0.67
  -7  15   1    5.30    1.31
  -6  15   1    8.86    1.66
  -5  15   1   24.10    2.69
  -4  15   1    9.45    1.58
  -3  15   1    6.92    1.14
  -2  15   1    0.16    0.46
  -1  15   1    1.87    0.64
   0  15   1    0.31    0.50
   1  15   1    1.20    0.62
   2  15   1    0.16    0.47
   3  15   1    9.12    1.28
   4  15   1    6.95    1.39
   5  15   1   17.77    2.37
   6  15   1    5.08    1.20
   7  15   1    6.22    1.39
   8  15   1    0.46    0.74
   9  15   1    0.48    0.81
  10  15   1    1.55    1.01
  11  15   1    1.33    0.96
 -10  16   1    2.47    1.82
  -9  16   1    0.88    0.88
  -8  16   1    1.65    0.76
  -7  16   1    6.14    1.34
  -6  16   1    0.29    0.77
  -5  16   1    0.46    0.76
  -4  16   1    1.14    0.81
  -3  16   1   17.71    2.32
  -2  16   1    8.63    1.30
  -1  16   1    2.82    0.83
   0  16   1   41.11    3.11
   1  16   1    2.85    0.75
   2  16   1   12.06    1.44
   3  16   1   17.86    1.83
   4  16   1   -0.41    0.52
   5  16   1    1.28    0.75
   6  16   1    0.62    0.75
   7  16   1    7.74    1.59
   8  16   1    0.72    0.79
   9  16   1    0.88    0.94
  10  16   1   -0.68    0.86
  -9  17   1    1.53    1.50
  -8  17   1    3.62    1.27
  -7  17   1    0.28    0.93
  -6  17   1    1.89    1.04
  -5  17   1    0.10    0.73
  -4  17   1    6.13    1.36
  -3  17   1    0.81    0.83
  -2  17   1    5.61    1.08
  -1  17   1   22.50    2.11
   0  17   1    0.13    0.59
   1  17   1   14.69    1.77
   2  17   1    5.23    1.06
   3  17   1    0.10    0.66
   4  17   1    4.72    1.23
   5  17   1    0.16    0.67
   6  17   1    1.46    0.91
   7  17   1    1.13    0.89
   8  17   1    0.82    0.97
   9  17   1    5.63    2.24
  -7  18   1    1.99    2.14
  -6  18   1   -0.09    1.04
  -5  18   1   -0.33    0.87
  -4  18   1    0.02    0.85
  -3  18   1    1.24    0.88
  -2  18   1    1.10    0.74
  -1  18   1    0.56    0.69
   0  18   1    0.82    0.75
   1  18   1    0.51    0.68
   2  18   1    1.50    0.72
   3  18   1    0.53    0.77
   4  18   1    0.35    0.87
   5  18   1   -0.09    0.82
   6  18   1   -0.01    1.06
   7  18   1    1.18    1.36
  -3  19   1    1.08    1.77
  -2  19   1   -0.08    0.92
  -1  19   1    2.20    0.90
   0  19   1    0.14    0.75
   1  19   1    1.37    0.88
   2  19   1    0.79    1.36
   3  19   1    2.19    1.58
   4  19   1    0.27    1.26
  -3 -18   2   -0.16    1.79
  -2 -18   2    0.11    1.48
  -1 -18   2    3.82    1.54
   0 -18   2    1.07    1.61
   1 -18   2   -0.77    1.23
   2 -18   2   -0.49    1.33
   3 -18   2    0.91    1.63
   4 -18   2    7.81    2.87
  -7 -17   2    5.96    2.79
  -6 -17   2    9.65    3.30
  -5 -17   2    1.03    1.62
  -4 -17   2    3.45    1.87
  -3 -17   2    0.20    1.41
  -2 -17   2    9.25    2.65
  -1 -17   2    4.30    1.90
   0 -17   2    0.75    1.36
   1 -17   2   -0.32    1.29
   2 -17   2    7.52    2.47
   3 -17   2    1.44    1.34
   4 -17   2    2.12    1.54
   5 -17   2    0.01    1.34
   6 -17   2   11.16    2.76
   7 -17   2    2.26    1.74
  -9 -16   2    6.37    2.44
  -8 -16   2    2.93    2.06
  -7 -16   2    2.51    1.92
  -6 -16   2    0.21    1.26
  -5 -16   2    1.52    1.65
  -4 -16   2   26.38    4.53
  -3 -16   2    0.00    1.44
  -2 -16   2    2.18    1.54
  -1 -16   2    7.56    2.56
   0 -16   2   18.29    3.70
   1 -16   2    1.82    1.64
   2 -16   2    1.18    1.34
   3 -16   2   -0.45    1.14
   4 -16   2   14.87    3.33
   5 -16   2    1.79    1.25
   6 -16   2    0.42    1.10
   7 -16   2    1.38    1.45
   8 -16   2    0.61    1.27
  -9 -15   2    0.00    1.79
  -8 -15   2    7.35    2.65
  -7 -15   2    1.56    1.81
  -6 -15   2    0.12    1.35
  -5 -15   2   -0.48    1.12
  -4 -15   2   -0.69    1.15
  -3 -15   2    1.19    1.56
  -2 -15   2    0.06    1.31
  -1 -15   2   -0.11    1.08
   0 -15   2   -0.26    1.03
   1 -15   2   -0.34    1.07
   2 -15   2    0.08    1.18
   3 -15   2    2.64    1.62
   4 -15   2    1.50    1.23
   5 -15   2    0.82    1.11
   6 -15   2    0.61    1.05
   7 -15   2    4.46    1.80
   8 -15   2    5.36    1.88
  -9 -14   2    6.50    2.61
  -8 -14   2   25.34    4.75
  -7 -14   2    1.98    1.60
  -6 -14   2    1.08    1.41
  -5 -14   2    3.52    1.90
  -4 -14   2    0.86    1.42
  -3 -14   2    0.54    1.37
  -2 -14   2    1.89    1.39
  -1 -14   2    2.78    1.64
   0 -14   2   92.91    8.13
   1 -14   2    2.63    1.58
   2 -14   2    1.95    1.46
   3 -14   2    0.28    1.02
   4 -14   2    1.76    1.27
   5 -14   2    8.30    2.31
   6 -14   2    0.63    0.94
   7 -14   2   -0.82    0.91
   8 -14   2   27.31    4.26
   9 -14   2    3.06    1.58
  -9 -13   2    1.56    1.78
  -8 -13   2   -2.12    1.19
  -7 -13   2    7.18    2.62
  -6 -13   2   16.04    3.70
  -5 -13   2   43.71    6.02
  -4 -13   2   22.96    4.04
  -3 -13   2    0.46    1.08
  -2 -13   2    0.26    1.03
  -1 -13   2    7.83    2.41
   0 -13   2    1.85    1.30
   1 -13   2    5.16    1.93
   2 -13   2    2.33    1.23
   3 -13   2    0.77    1.04
   4 -13   2   18.64    3.32
   5 -13   2   38.62    5.20
   6 -13   2   13.94    3.03
   7 -13   2    6.89    1.97
   8 -13   2    0.87    1.06
   9 -13   2    4.64    1.67
  -9 -12   2    5.55    2.25
  -8 -12   2    1.03    1.43
  -7 -12   2    9.41    2.71
  -6 -12   2   15.62    3.51
  -5 -12   2    1.12    1.36
  -4 -12   2   17.43    3.48
  -3 -12   2    3.61    1.80
  -2 -12   2   25.24    4.04
  -1 -12   2   24.07    4.10
   0 -12   2   24.45    3.91
   1 -12   2   16.01    3.28
   2 -12   2   18.57    3.28
   3 -12   2    8.05    2.24
   4 -12   2   14.68    2.87
   5 -12   2    0.60    1.04
   6 -12   2   13.67    2.65
   7 -12   2    7.86    2.08
   8 -12   2    0.29    0.91
   9 -12   2    8.48    2.07
  -9 -11   2   18.95    3.74
  -8 -11   2   -0.68    1.39
  -7 -11   2    1.52    1.50
  -6 -11   2    1.60    1.40
  -5 -11   2   11.89    2.85
  -4 -11   2    6.67    2.11
  -3 -11   2   15.81    3.39
  -2 -11   2    2.06    1.27
  -1 -11   2   35.61    5.19
   0 -11   2    1.21    1.06
   1 -11   2   40.52    5.25
   2 -11   2    0.93    0.96
   3 -11   2   14.82    3.03
   4 -11   2    3.31    1.41
   5 -11   2    9.75    2.37
   6 -11   2    2.26    1.18
   7 -11   2    0.58    0.91
   8 -11   2    2.40    1.20
   9 -11   2   24.95    3.63
  10 -11   2    7.92    2.26
 -15 -10   2    9.97    2.58
 -14 -10   2   12.91    2.90
 -13 -10   2   15.84    2.92
 -12 -10   2   27.01    3.90
 -11 -10   2    1.20    1.00
 -10 -10   2   -0.26    0.85
  -9 -10   2    0.06    0.63
  -8 -10   2    0.72    0.62
  -7 -10   2    2.01    0.82
  -6 -10   2    3.74    0.95
  -5 -10   2    0.17    0.57
  -4 -10   2   14.97    1.61
  -3 -10   2   29.77    2.58
  -2 -10   2   29.22    2.53
  -1 -10   2   30.15    2.49
   0 -10   2    1.57    0.58
   1 -10   2   32.53    4.48
   2 -10   2   36.22    4.50
   3 -10   2   27.72    4.19
   4 -10   2   13.33    2.58
   5 -10   2    0.85    0.89
   6 -10   2    1.85    1.04
   7 -10   2    1.37    1.00
   8 -10   2    1.97    1.08
   9 -10   2    0.07    0.73
  10 -10   2    0.11    0.94
 -15  -9   2    0.28    1.32
 -14  -9   2    9.29    2.38
 -13  -9   2    1.66    1.30
 -12  -9   2    2.20    1.21
 -11  -9   2   14.96    2.72
 -10  -9   2   19.39    2.99
  -9  -9   2    5.31    1.21
  -8  -9   2    0.24    0.60
  -7  -9   2   10.37    1.49
  -6  -9   2   33.50    3.04
  -5  -9   2   18.21    1.90
  -4  -9   2    0.06    0.40
  -3  -9   2   29.29    2.65
  -2  -9   2    6.17    1.04
  -1  -9   2    2.10    0.61
   0  -9   2   -0.07    0.38
   1  -9   2    1.53    0.59
   2  -9   2    4.78    1.50
   3  -9   2   37.74    4.59
   4  -9   2    0.36    0.81
   5  -9   2   13.52    2.48
   6  -9   2   43.57    4.92
   7  -9   2    7.30    1.27
   8  -9   2    0.62    0.61
   9  -9   2    8.61    1.40
  10  -9   2   16.00    2.07
  11  -9   2   10.96    2.59
  12  -9   2    4.66    1.73
  13  -9   2   -0.06    1.13
 -15  -8   2    0.42    1.18
 -14  -8   2    0.24    1.18
 -13  -8   2   -0.76    0.78
 -12  -8   2    2.12    1.29
 -11  -8   2    3.69    1.36
 -10  -8   2   12.91    2.44
  -9  -8   2    2.19    1.14
  -8  -8   2   32.72    3.20
  -7  -8   2   15.32    1.74
  -6  -8   2   21.94    2.15
  -5  -8   2   12.57    1.51
  -4  -8   2    2.70    0.73
  -3  -8   2   39.84    2.82
  -2  -8   2    1.80    0.65
  -1  -8   2   34.72    2.56
   0  -8   2   36.55    2.72
   1  -8   2   30.76    2.47
   2  -8   2    2.03    1.05
   3  -8   2   37.85    3.17
   4  -8   2    2.21    0.66
   5  -8   2   13.70    1.56
   6  -8   2   20.13    2.05
   7  -8   2   10.80    1.49
   8  -8   2   43.25    3.20
   9  -8   2    3.31    0.90
  10  -8   2   13.77    1.81
  11  -8   2    6.49    1.93
  12  -8   2    2.01    1.49
  13  -8   2    0.76    1.36
  14  -8   2    1.90    1.50
  15  -8   2    0.58    1.40
  16  -8   2    0.28    1.69
 -16  -7   2    2.96    1.79
 -15  -7   2    1.56    1.27
 -14  -7   2   -1.75    0.88
 -13  -7   2    0.82    1.01
 -12  -7   2    1.29    1.05
 -11  -7   2    0.72    0.79
 -10  -7   2   -0.06    0.68
  -9  -7   2   47.39    4.70
  -8  -7   2    8.57    1.24
  -7  -7   2   61.50    4.04
  -6  -7   2    5.14    0.93
  -5  -7   2    0.00    0.35
  -4  -7   2    0.21    0.42
  -3  -7   2   24.64    2.21
  -2  -7   2   10.34    1.27
  -1  -7   2   30.23    2.19
   0  -7   2    0.17    0.33
   1  -7   2   24.45    1.62
   2  -7   2   10.66    1.14
   3  -7   2   26.79    2.03
   4  -7   2    0.21    0.35
   5  -7   2    1.06    0.47
   6  -7   2    4.08    0.80
   7  -7   2   63.15    3.98
   8  -7   2    6.34    0.99
   9  -7   2   47.62    3.57
  10  -7   2    0.08    0.53
  11  -7   2    0.32    0.53
  12  -7   2    1.21    1.20
  13  -7   2    1.44    1.27
  14  -7   2   -1.04    0.94
  15  -7   2   -0.50    1.31
  16  -7   2    4.31    2.01
 -16  -6   2    6.93    2.34
 -15  -6   2    6.71    2.24
 -14  -6   2   -0.49    0.88
 -13  -6   2    3.24    1.44
 -12  -6   2   11.46    2.42
 -11  -6   2    2.18    1.15
 -10  -6   2    9.80    2.10
  -9  -6   2    9.25    1.90
  -8  -6   2   23.90    2.28
  -7  -6   2   34.84    2.74
  -6  -6   2    2.21    0.67
  -5  -6   2   30.71    2.63
  -4  -6   2   -0.59    0.28
  -3  -6   2  199.58   11.15
  -2  -6   2   63.89    4.17
  -1  -6   2    0.30    0.35
   0  -6   2   26.98    2.08
   1  -6   2    0.05    0.17
   2  -6   2   66.87    4.02
   3  -6   2  203.43   11.01
   4  -6   2    0.12    0.31
   5  -6   2   38.07    2.52
   6  -6   2    1.40    0.50
   7  -6   2   26.63    2.49
   8  -6   2   28.75    2.44
   9  -6   2    9.75    1.32
  10  -6   2   15.58    1.83
  11  -6   2    3.32    0.89
  12  -6   2    7.69    2.08
  13  -6   2    6.05    1.95
  14  -6   2   -0.90    0.96
  15  -6   2    7.40    2.29
  16  -6   2    3.88    2.10
 -16  -5   2   -0.25    1.15
 -15  -5   2    0.00    1.06
 -14  -5   2    4.12    1.70
 -13  -5   2   -0.04    1.00
 -12  -5   2    0.80    1.02
 -11  -5   2    7.41    1.94
 -10  -5   2   10.94    2.31
  -9  -5   2    5.06    1.48
  -8  -5   2    0.27    0.47
  -7  -5   2   29.57    2.47
  -6  -5   2   43.31    2.88
  -5  -5   2   -0.01    0.35
  -4  -5   2    1.08    0.45
  -3  -5   2    1.54    0.50
  -2  -5   2   70.98    4.36
  -1  -5   2   16.63    1.65
   0  -5   2    0.31    0.32
   1  -5   2   17.14    1.61
   2  -5   2   69.76    3.42
   3  -5   2    2.03    0.43
   4  -5   2    0.74    0.35
   5  -5   2    0.68    0.37
   6  -5   2   39.15    2.77
   7  -5   2   25.98    2.33
   8  -5   2    0.84    0.47
   9  -5   2    6.76    1.11
  10  -5   2   17.93    1.91
  11  -5   2    8.73    1.41
  12  -5   2    1.93    1.23
  13  -5   2    0.81    1.16
  14  -5   2    9.69    2.39
  15  -5   2    0.73    1.27
  16  -5   2    1.17    1.53
  17  -5   2    0.29    1.36
 -16  -4   2    4.96    1.92
 -15  -4   2   10.63    2.85
 -14  -4   2    7.44    2.34
 -13  -4   2    2.05    1.33
 -12  -4   2   58.06    6.70
 -11  -4   2    2.94    1.29
 -10  -4   2    6.10    1.59
  -9  -4   2    4.21    1.41
  -8  -4   2    0.49    0.70
  -7  -4   2    0.09    0.39
  -6  -4   2   52.13    3.24
  -5  -4   2    6.30    0.94
  -4  -4   2   19.70    1.76
  -3  -4   2   -0.07    0.21
  -2  -4   2   81.56    4.93
  -1  -4   2   34.41    2.17
   0  -4   2   12.09    1.26
   1  -4   2   28.05    2.10
   2  -4   2   85.59    3.94
   3  -4   2    0.15    0.22
   4  -4   2   17.89    1.51
   5  -4   2    8.51    1.02
   6  -4   2   52.01    3.21
   7  -4   2   -0.24    0.29
   8  -4   2    3.41    0.75
   9  -4   2    5.62    1.01
  10  -4   2    3.81    0.92
  11  -4   2    2.06    0.72
  12  -4   2   51.43    6.38
  13  -4   2    5.20    1.90
  14  -4   2    7.59    2.19
  15  -4   2   15.68    3.17
  16  -4   2    2.46    1.68
  17  -4   2    0.18    1.37
 -17  -3   2    1.07    1.74
 -16  -3   2    1.59    1.45
 -15  -3   2    1.45    1.52
 -14  -3   2    3.75    1.66
 -13  -3   2    6.33    2.19
 -12  -3   2    2.14    1.34
 -11  -3   2   19.05    3.38
 -10  -3   2   -0.12    0.69
  -9  -3   2   70.97    6.33
  -8  -3   2   44.74    4.53
  -7  -3   2    9.90    1.09
  -6  -3   2  136.01    7.68
  -5  -3   2    2.96    0.62
  -4  -3   2   12.66    1.25
  -3  -3   2   58.89    3.44
  -2  -3   2    0.97    0.39
  -1  -3   2   31.82    2.14
   0  -3   2   -0.06    0.23
   1  -3   2   34.36    2.18
   2  -3   2    0.99    0.23
   3  -3   2   56.88    3.35
   4  -3   2   10.73    1.10
   5  -3   2    2.72    0.55
   6  -3   2  137.89    7.73
   7  -3   2    8.84    1.10
   8  -3   2   43.37    3.07
   9  -3   2   70.72    4.31
  10  -3   2    0.23    0.44
  11  -3   2   19.58    2.11
  12  -3   2    3.44    1.15
  13  -3   2   12.26    2.53
  14  -3   2    5.11    1.92
  15  -3   2    0.34    1.19
  16  -3   2    2.68    1.74
  17  -3   2    0.87    1.48
 -17  -2   2    1.28    1.56
 -16  -2   2    0.20    1.36
 -15  -2   2   14.01    3.19
 -14  -2   2    1.37    1.23
 -13  -2   2    0.62    1.01
 -12  -2   2    0.04    0.79
 -11  -2   2    9.10    2.39
 -10  -2   2   20.03    3.37
  -9  -2   2    6.42    1.81
  -8  -2   2    4.84    1.46
  -7  -2   2   16.74    1.36
  -6  -2   2   31.32    2.01
  -5  -2   2   14.94    1.40
  -4  -2   2  157.32    8.85
  -3  -2   2   22.95    1.68
  -2  -2   2    2.25    0.48
  -1  -2   2   -0.08    0.22
   0  -2   2   -0.09    0.25
   1  -2   2    0.13    0.14
   2  -2   2    2.03    0.34
   3  -2   2   24.12    1.65
   4  -2   2  161.60    8.85
   5  -2   2   17.37    1.50
   6  -2   2   25.21    2.09
   7  -2   2   18.22    1.72
   8  -2   2    2.16    0.64
   9  -2   2   10.28    1.32
  10  -2   2   26.20    2.34
  11  -2   2   13.20    1.67
  12  -2   2    0.78    0.59
  13  -2   2   -0.08    0.96
  14  -2   2    2.68    1.47
  15  -2   2   19.70    3.49
  16  -2   2    1.11    1.42
  17  -2   2    1.45    1.61
 -17  -1   2    2.61    1.86
 -16  -1   2   -0.88    1.24
 -15  -1   2    0.16    1.30
 -14  -1   2    0.38    1.30
 -13  -1   2   12.92    2.85
 -12  -1   2   12.91    2.83
 -11  -1   2    2.03    1.20
 -10  -1   2   14.00    2.55
  -9  -1   2    2.52    1.19
  -8  -1   2    2.71    1.13
  -7  -1   2    2.57    1.01
  -6  -1   2   36.16    2.30
  -5  -1   2   13.53    1.12
  -4  -1   2   95.53    5.35
  -3  -1   2   24.28    1.72
  -2  -1   2    6.03    0.73
  -1  -1   2    3.08    0.51
   0  -1   2   -0.21    0.12
   1  -1   2    3.17    0.37
   2  -1   2    6.28    0.60
   3  -1   2   23.82    1.75
   4  -1   2   92.07    5.35
   5  -1   2   13.35    1.32
   6  -1   2   37.80    2.42
   7  -1   2    3.41    0.68
   8  -1   2    3.94    0.75
   9  -1   2    7.26    1.09
  10  -1   2   11.24    1.43
  11  -1   2    5.09    0.97
  12  -1   2   15.08    1.89
  13  -1   2    9.50    2.24
  14  -1   2    0.26    0.99
  15  -1   2    0.56    1.01
  16  -1   2    5.48    2.05
  17  -1   2   -0.35    1.26
 -17   0   2   -1.10    1.54
 -16   0   2   -1.73    0.98
 -15   0   2   -0.25    1.08
 -14   0   2   39.41    5.64
 -13   0   2   -0.83    0.77
 -12   0   2   13.73    2.86
 -11   0   2   -0.59    0.38
 -10   0   2   69.70    4.54
  -9   0   2   -0.01    0.46
  -8   0   2   58.75    3.79
  -7   0   2    0.17    0.39
  -6   0   2    1.09    0.28
  -5   0   2    0.20    0.19
  -4   0   2    1.45    0.29
  -3   0   2    0.06    0.19
  -2   0   2    1.31    0.35
  -1   0   2    0.07    0.17
   0   0   2  963.83   41.61
   1   0   2    0.37    0.19
   2   0   2    1.52    0.26
   3   0   2    0.02    0.20
   4   0   2    1.58    0.40
   5   0   2    0.02    0.25
   6   0   2    0.92    0.26
   7   0   2   -0.33    0.28
   8   0   2   57.66    3.68
   9   0   2    0.19    0.42
  10   0   2   68.84    4.40
  11   0   2   -0.45    0.34
  12   0   2   12.67    1.64
  13   0   2   -0.62    0.77
  14   0   2   54.30    6.03
  15   0   2   -0.61    0.95
  16   0   2    0.07    1.05
  17   0   2    0.31    1.30
 -17   1   2   -0.99    1.62
 -16   1   2    2.53    1.81
 -15   1   2   -0.29    1.27
 -14   1   2    0.47    1.37
 -13   1   2    8.81    1.53
 -12   1   2   17.49    2.12
 -11   1   2    4.36    0.99
 -10   1   2   11.18    1.55
  -9   1   2    5.86    1.05
  -8   1   2    3.98    0.87
  -7   1   2    3.50    0.72
  -6   1   2   36.41    1.87
  -5   1   2   12.51    0.90
  -4   1   2   93.62    4.36
  -3   1   2   25.47    1.40
  -2   1   2    5.94    0.51
  -1   1   2    3.28    0.34
   0   1   2    0.02    0.13
   1   1   2    2.87    0.33
   2   1   2    5.46    0.54
   3   1   2   26.89    1.38
   4   1   2   93.92    4.33
   5   1   2   12.61    0.93
   6   1   2   34.59    1.89
   7   1   2    3.65    0.51
   8   1   2    4.48    0.85
   9   1   2    5.67    0.95
  10   1   2    9.52    1.33
  11   1   2    3.66    0.89
  12   1   2   20.06    2.10
  13   1   2   14.11    2.80
  14   1   2    0.73    1.04
  15   1   2    2.15    1.39
  16   1   2    1.36    1.53
  17   1   2    0.78    1.36
 -17   2   2    0.36    1.51
 -16   2   2   -0.33    1.28
 -15   2   2   21.86    2.49
 -14   2   2    0.60    0.65
 -13   2   2    0.09    0.62
 -12   2   2    0.58    0.66
 -11   2   2   12.91    1.77
 -10   2   2   25.05    2.40
  -9   2   2    9.78    1.39
  -8   2   2    3.80    0.86
  -7   2   2   14.96    1.67
  -6   2   2   34.64    2.55
  -5   2   2   15.00    1.04
  -4   2   2  161.94    7.20
  -3   2   2   23.59    1.19
  -2   2   2    2.33    0.28
  -1   2   2    0.18    0.15
   0   2   2    0.08    0.13
   1   2   2    0.17    0.15
   2   2   2    2.53    0.39
   3   2   2   22.63    1.32
   4   2   2  161.13    7.21
   5   2   2   15.76    1.15
   6   2   2   28.77    1.73
   7   2   2   17.54    1.31
   8   2   2    2.23    0.47
   9   2   2    9.78    1.29
  10   2   2   19.35    2.09
  11   2   2   13.70    1.69
  12   2   2    1.35    0.66
  13   2   2    1.07    0.92
  14   2   2    1.93    1.17
  15   2   2   14.89    3.08
  16   2   2   -0.75    1.12
  17   2   2    0.59    1.37
 -17   3   2    2.49    1.76
 -16   3   2    4.09    1.27
 -15   3   2    0.80    0.77
 -14   3   2    3.72    1.09
 -13   3   2    8.17    1.51
 -12   3   2    2.52    0.84
 -11   3   2   25.68    2.41
 -10   3   2    0.64    0.56
  -9   3   2   67.23    4.40
  -8   3   2   47.00    3.21
  -7   3   2    5.47    0.97
  -6   3   2  130.60    7.76
  -5   3   2    3.25    0.58
  -4   3   2   11.55    0.76
  -3   3   2   57.51    2.41
  -2   3   2    1.35    0.25
  -1   3   2   33.91    1.33
   0   3   2   -0.26    0.12
   1   3   2   29.68    1.29
   2   3   2    2.17    0.30
   3   3   2   56.71    2.36
   4   3   2   13.04    1.02
   5   3   2    4.03    0.57
   6   3   2  133.92    6.28
   7   3   2    7.36    0.84
   8   3   2   48.50    2.52
   9   3   2   64.83    3.43
  10   3   2    0.06    0.41
  11   3   2   15.37    1.91
  12   3   2    1.68    0.63
  13   3   2    6.55    1.21
  14   3   2    1.70    1.24
  15   3   2    0.36    1.26
  16   3   2   -0.42    1.11
  17   3   2    2.81    1.95
 -17   4   2   -1.63    1.37
 -16   4   2    2.74    1.07
 -15   4   2   14.84    2.12
 -14   4   2    3.44    1.14
 -13   4   2    1.08    0.76
 -12   4   2   56.88    4.45
 -11   4   2    0.26    0.50
 -10   4   2    2.34    0.77
  -9   4   2    5.57    1.02
  -8   4   2    2.02    0.59
  -7   4   2    0.11    0.38
  -6   4   2   50.14    2.69
  -5   4   2    6.56    0.78
  -4   4   2   19.42    1.43
  -3   4   2    0.14    0.16
  -2   4   2   84.19    3.09
  -1   4   2   32.14    1.32
   0   4   2   12.00    0.74
   1   4   2   30.31    1.44
   2   4   2   83.65    3.43
   3   4   2   -0.17    0.15
   4   4   2   20.37    1.08
   5   4   2    7.35    0.80
   6   4   2   49.51    2.62
   7   4   2   -0.17    0.28
   8   4   2    1.05    0.39
   9   4   2    4.81    0.75
  10   4   2    4.31    0.91
  11   4   2   -0.32    0.43
  12   4   2   55.58    4.25
  13   4   2    3.70    1.04
  14   4   2    4.20    1.73
  15   4   2   16.18    3.24
  16   4   2    2.88    1.61
 -17   5   2   -0.45    1.45
 -16   5   2    0.37    0.92
 -15   5   2    1.54    0.89
 -14   5   2    3.41    1.14
 -13   5   2    1.84    0.87
 -12   5   2    1.82    0.80
 -11   5   2    8.21    1.37
 -10   5   2   14.09    1.82
  -9   5   2    3.54    0.88
  -8   5   2    0.50    0.41
  -7   5   2   27.01    2.02
  -6   5   2   40.83    2.34
  -5   5   2    0.27    0.30
  -4   5   2    0.52    0.30
  -3   5   2    1.18    0.30
  -2   5   2   72.67    3.04
  -1   5   2   17.31    0.97
   0   5   2    0.03    0.16
   1   5   2   16.55    1.07
   2   5   2   75.48    3.02
   3   5   2    0.78    0.24
   4   5   2    1.13    0.25
   5   5   2    0.53    0.31
   6   5   2   44.85    2.34
   7   5   2   28.88    1.88
   8   5   2    0.93    0.41
   9   5   2    5.22    0.76
  10   5   2   19.84    1.66
  11   5   2    8.83    1.37
  12   5   2    1.20    0.94
  13   5   2    0.06    0.79
  14   5   2    3.50    1.55
  15   5   2    0.35    1.02
  16   5   2   -1.18    0.96
 -16   6   2    9.87    1.78
 -15   6   2    8.09    1.65
 -14   6   2   -0.47    0.72
 -13   6   2    1.55    0.92
 -12   6   2   10.52    1.61
 -11   6   2    2.51    0.81
 -10   6   2   14.25    1.79
  -9   6   2    6.27    1.16
  -8   6   2   19.51    1.76
  -7   6   2   25.73    2.03
  -6   6   2    2.02    0.51
  -5   6   2   38.80    2.27
  -4   6   2   -0.31    0.21
  -3   6   2  198.22    7.84
  -2   6   2   67.47    2.92
  -1   6   2    0.24    0.22
   0   6   2   25.07    1.37
   1   6   2    0.05    0.21
   2   6   2   68.57    2.91
   3   6   2  205.05    7.81
   4   6   2    0.20    0.22
   5   6   2   34.63    2.20
   6   6   2    2.23    0.49
   7   6   2   31.57    2.17
   8   6   2   25.70    1.93
   9   6   2    7.95    0.97
  10   6   2   12.89    1.65
  11   6   2    3.16    1.29
  12   6   2    5.21    1.75
  13   6   2    5.88    1.83
  14   6   2    1.07    1.25
  15   6   2    7.22    2.14
  16   6   2    9.01    2.46
 -16   7   2    3.20    1.56
 -15   7   2   -1.69    0.79
 -14   7   2    0.34    0.84
 -13   7   2    1.47    0.77
 -12   7   2    0.62    0.71
 -11   7   2    0.29    0.55
 -10   7   2    0.10    0.51
  -9   7   2   44.46    3.69
  -8   7   2    6.64    0.92
  -7   7   2   60.27    3.27
  -6   7   2    2.67    0.53
  -5   7   2    1.07    0.41
  -4   7   2    0.40    0.29
  -3   7   2   25.52    1.48
  -2   7   2   11.83    0.89
  -1   7   2   25.01    1.43
   0   7   2    0.58    0.32
   1   7   2   24.83    1.77
   2   7   2   10.99    1.01
   3   7   2   25.87    1.66
   4   7   2    0.62    0.30
   5   7   2    1.42    0.59
   6   7   2    2.21    0.70
   7   7   2   60.91    4.01
   8   7   2    5.39    1.04
   9   7   2   42.69    3.43
  10   7   2    0.35    0.50
  11   7   2    0.88    0.65
  12   7   2    0.58    0.92
  13   7   2    3.46    1.36
  14   7   2   -0.83    0.71
  15   7   2    0.59    1.15
 -16   8   2    3.43    1.87
 -15   8   2    0.51    1.07
 -14   8   2    0.35    1.03
 -13   8   2    0.56    0.99
 -12   8   2    4.56    1.52
 -11   8   2    0.63    0.92
 -10   8   2   11.97    2.46
  -9   8   2    3.68    1.00
  -8   8   2   37.06    3.39
  -7   8   2   11.24    1.63
  -6   8   2   19.20    2.17
  -5   8   2   11.87    1.55
  -4   8   2    2.56    0.60
  -3   8   2   32.08    2.39
  -2   8   2    1.89    0.42
  -1   8   2   31.40    2.19
   0   8   2   37.79    2.17
   1   8   2   31.54    2.05
   2   8   2    2.15    0.50
   3   8   2   35.36    2.14
   4   8   2    2.69    0.74
   5   8   2   11.24    1.49
   6   8   2   19.33    2.01
   7   8   2   14.18    1.65
   8   8   2   39.44    3.32
   9   8   2    3.18    0.91
  10   8   2   11.03    1.68
  11   8   2    3.56    0.96
  12   8   2    3.09    1.31
  13   8   2    1.61    1.00
  14   8   2   -0.76    0.86
  15   8   2    0.66    1.22
 -15   9   2    2.17    1.46
 -14   9   2   10.89    2.67
 -13   9   2    0.75    1.07
 -12   9   2    6.92    2.01
 -11   9   2   10.92    2.62
 -10   9   2   18.90    3.24
  -9   9   2    5.38    1.21
  -8   9   2    0.73    0.57
  -7   9   2    5.40    1.15
  -6   9   2   31.80    3.08
  -5   9   2   13.17    1.73
  -4   9   2    0.08    0.39
  -3   9   2   32.62    2.43
  -2   9   2    6.04    0.87
  -1   9   2    1.88    0.55
   0   9   2    0.22    0.35
   1   9   2    1.20    0.46
   2   9   2    6.16    0.83
   3   9   2   37.56    2.29
   4   9   2    0.53    0.51
   5   9   2   13.95    1.71
   6   9   2   40.87    3.06
   7   9   2    4.76    1.08
   8   9   2   -0.24    0.41
   9   9   2    4.79    1.08
  10   9   2   19.23    2.23
  11   9   2   18.06    2.12
  12   9   2    2.50    1.31
  13   9   2    0.43    1.00
  14   9   2    9.78    2.55
  15   9   2    3.22    2.42
 -14  10   2    7.41    2.37
 -13  10   2   16.08    3.31
 -12  10   2   19.68    3.67
 -11  10   2    0.17    0.95
 -10  10   2   -0.01    0.68
  -9  10   2   -0.05    0.53
  -8  10   2    1.02    0.67
  -7  10   2    4.17    1.09
  -6  10   2    5.06    1.10
  -5  10   2    0.79    0.66
  -4  10   2   12.78    1.45
  -3  10   2   32.52    2.45
  -2  10   2   27.48    2.16
  -1  10   2   25.88    2.14
   0  10   2    1.27    0.51
   1  10   2   32.05    2.28
   2  10   2   25.13    1.97
   3  10   2   36.39    2.43
   4  10   2   17.30    1.88
   5  10   2    0.58    0.54
   6  10   2    3.12    0.86
   7  10   2    1.58    0.74
   8  10   2    2.05    0.72
   9  10   2    0.67    0.65
  10  10   2    0.80    0.68
  11  10   2    0.09    0.60
  12  10   2   24.91    4.01
  13  10   2   18.98    3.55
  14  10   2   10.96    2.88
 -14  11   2    1.68    2.02
 -13  11   2    0.93    1.19
 -12  11   2    0.50    1.13
 -11  11   2    0.80    1.08
 -10  11   2    9.58    1.70
  -9  11   2   14.20    2.11
  -8  11   2    1.88    0.97
  -7  11   2    0.71    0.67
  -6  11   2    4.35    1.13
  -5  11   2   11.58    1.66
  -4  11   2    4.92    0.91
  -3  11   2   18.44    1.72
  -2  11   2    1.14    0.56
  -1  11   2   37.55    2.74
   0  11   2   -0.32    0.34
   1  11   2   40.80    2.66
   2  11   2    1.72    0.55
   3  11   2   18.33    1.66
   4  11   2    4.57    1.03
   5  11   2    8.52    1.44
   6  11   2    3.79    0.95
   7  11   2    0.80    0.61
   8  11   2    1.83    0.80
   9  11   2   16.12    2.15
  10  11   2    8.01    1.46
  11  11   2    0.89    0.85
  12  11   2    0.41    0.81
  13  11   2    0.17    0.95
 -13  12   2    1.06    1.53
 -12  12   2    7.11    2.23
 -11  12   2    7.80    1.69
 -10  12   2   -0.16    0.69
  -9  12   2    7.18    1.52
  -8  12   2    1.44    0.75
  -7  12   2    8.00    1.55
  -6  12   2   13.95    2.04
  -5  12   2    0.13    0.65
  -4  12   2   13.26    1.58
  -3  12   2    2.50    0.66
  -2  12   2   15.81    1.60
  -1  12   2   23.11    2.04
   0  12   2   17.81    1.78
   1  12   2   22.72    2.01
   2  12   2   18.00    1.72
   3  12   2    3.36    0.88
   4  12   2   22.41    3.52
   5  12   2    0.88    0.61
   6  12   2   17.15    2.08
   7  12   2    9.54    1.60
   8  12   2    0.49    0.73
   9  12   2    6.00    1.37
  10  12   2   -0.50    0.58
  11  12   2    9.30    1.74
  12  12   2    7.93    1.66
  13  12   2   -0.51    1.46
 -12  13   2    6.44    2.26
 -11  13   2   -0.30    0.80
 -10  13   2    0.39    0.82
  -9  13   2    2.21    1.01
  -8  13   2   -0.01    0.67
  -7  13   2    5.27    1.33
  -6  13   2   16.99    2.20
  -5  13   2   40.91    3.85
  -4  13   2   15.42    1.73
  -3  13   2    0.23    0.43
  -2  13   2    1.10    0.57
  -1  13   2    8.06    1.15
   0  13   2    0.68    0.52
   1  13   2    5.01    0.89
   2  13   2    0.59    0.53
   3  13   2    0.34    0.60
   4  13   2   17.83    2.23
   5  13   2   35.46    3.42
   6  13   2   14.82    2.10
   7  13   2    6.93    1.40
   8  13   2    0.22    0.63
   9  13   2    1.36    0.95
  10  13   2    1.47    0.89
  11  13   2    0.22    0.80
  12  13   2    5.08    1.51
 -11  14   2   -0.34    0.96
 -10  14   2    5.12    1.41
  -9  14   2    4.50    1.39
  -8  14   2   26.27    3.08
  -7  14   2   -0.34    0.77
  -6  14   2    0.56    0.86
  -5  14   2    5.48    1.34
  -4  14   2    3.17    1.12
  -3  14   2    0.10    0.46
  -2  14   2    0.65    0.56
  -1  14   2    2.18    0.71
   0  14   2   72.90    4.17
   1  14   2    2.59    0.75
   2  14   2    1.24    0.71
   3  14   2    0.60    0.65
   4  14   2    3.36    1.08
   5  14   2    5.92    1.27
   6  14   2   -0.16    0.67
   7  14   2    0.03    0.66
   8  14   2   29.30    3.19
   9  14   2    4.04    1.31
  10  14   2    4.04    1.33
  11  14   2   -0.68    0.84
 -10  15   2    2.32    1.82
  -9  15   2    2.20    1.18
  -8  15   2    7.68    1.58
  -7  15   2    4.61    1.34
  -6  15   2    0.46    0.86
  -5  15   2    0.90    0.83
  -4  15   2    0.11    0.71
  -3  15   2    1.02    0.62
  -2  15   2    0.16    0.58
  -1  15   2   -0.15    0.53
   0  15   2    0.43    0.55
   1  15   2   -0.67    0.45
   2  15   2    0.17    0.67
   3  15   2    0.10    0.60
   4  15   2    0.61    0.76
   5  15   2    1.36    0.86
   6  15   2    0.80    0.76
   7  15   2    3.17    1.14
   8  15   2    6.33    1.49
   9  15   2    2.56    1.11
  10  15   2    2.70    1.24
  -8  16   2    1.19    0.90
  -7  16   2    1.16    0.91
  -6  16   2    1.76    1.02
  -5  16   2    2.11    1.07
  -4  16   2   20.07    2.71
  -3  16   2    1.67    0.73
  -2  16   2    0.68    0.72
  -1  16   2    4.44    1.02
   0  16   2   18.78    2.00
   1  16   2    2.05    0.99
   2  16   2    0.98    0.84
   3  16   2    1.22    0.87
   4  16   2   16.96    2.34
   5  16   2    1.95    0.91
   6  16   2    0.57    0.88
   7  16   2    0.36    0.91
   8  16   2    0.88    0.94
   9  16   2    2.39    1.85
  -6  17   2    9.55    2.72
  -5  17   2    3.84    1.20
  -4  17   2    3.90    1.38
  -3  17   2    1.17    1.00
  -2  17   2    6.88    1.22
  -1  17   2    0.22    0.71
   0  17   2   -0.29    0.62
   1  17   2    1.20    0.90
   2  17   2    7.47    1.66
   3  17   2   -0.07    0.83
   4  17   2    4.49    1.33
   5  17   2    2.92    1.19
   6  17   2   13.75    2.13
  -4  18   2    9.04    2.80
  -3  18   2   -0.01    1.06
  -2  18   2    0.93    0.75
  -1  18   2   -0.53    0.67
   0  18   2    0.42    0.90
   1  18   2    0.10    0.87
   2  18   2   -0.37    0.87
   3  18   2    0.39    1.00
  -6 -16   3    0.48    1.86
  -5 -16   3    0.34    1.80
  -4 -16   3   -3.06    1.50
  -3 -16   3   13.70    3.79
  -2 -16   3    4.84    2.46
  -1 -16   3    6.66    2.52
   0 -16   3   27.32    4.78
   1 -16   3    1.06    1.55
   2 -16   3   10.66    2.94
   3 -16   3    3.55    1.99
   4 -16   3   -0.02    1.33
   5 -16   3    1.04    1.56
  -8 -15   3    2.30    4.30
  -7 -15   3    4.73    2.63
  -6 -15   3    4.85    2.32
  -5 -15   3   23.81    4.81
  -4 -15   3    0.41    1.88
  -3 -15   3    3.89    2.23
  -2 -15   3   -0.46    1.47
  -1 -15   3    1.80    1.58
   0 -15   3   -1.38    1.17
   1 -15   3    0.63    1.15
   2 -15   3   -0.97    1.14
   3 -15   3    3.02    1.66
   4 -15   3    8.55    2.62
   5 -15   3   17.35    3.58
   6 -15   3    4.48    1.99
   7 -15   3    2.35    1.59
   8 -15   3   -0.75    1.27
  -8 -14   3   11.43    4.80
  -7 -14   3    3.98    2.49
  -6 -14   3    2.34    1.97
  -5 -14   3   -1.40    1.40
  -4 -14   3   17.52    4.19
  -3 -14   3    0.87    1.57
  -2 -14   3    1.74    1.53
  -1 -14   3    7.88    2.71
   0 -14   3    8.65    2.79
   1 -14   3    3.90    2.03
   2 -14   3    2.53    1.71
   3 -14   3    0.52    1.22
   4 -14   3   16.97    3.70
   5 -14   3    0.67    1.25
   6 -14   3    0.28    1.05
   7 -14   3    1.00    1.35
   8 -14   3   11.32    2.66
   9 -14   3    3.06    1.58
  -8 -13   3   18.04    5.70
  -7 -13   3    3.57    2.28
  -6 -13   3    3.39    2.01
  -5 -13   3    1.04    1.47
  -4 -13   3    0.09    1.36
  -3 -13   3   42.91    5.99
  -2 -13   3    3.32    1.84
  -1 -13   3    0.56    1.23
   0 -13   3    0.37    1.18
   1 -13   3    0.85    1.32
   2 -13   3    4.89    1.86
   3 -13   3   33.15    4.97
   4 -13   3    0.94    0.99
   5 -13   3    1.07    1.23
   6 -13   3    1.35    1.17
   7 -13   3    1.25    1.21
   8 -13   3   14.29    2.94
   9 -13   3    0.50    1.26
  10 -13   3   10.76    2.58
  -7 -12   3    3.04    2.07
  -6 -12   3    2.63    1.80
  -5 -12   3    3.69    1.96
  -4 -12   3   15.42    3.37
  -3 -12   3    2.30    1.65
  -2 -12   3    2.60    1.54
  -1 -12   3    1.01    1.44
   0 -12   3    3.79    1.77
   1 -12   3    2.58    1.51
   2 -12   3   -0.54    0.98
   3 -12   3    7.28    2.32
   4 -12   3    8.99    2.42
   5 -12   3    3.55    1.71
   6 -12   3   -0.61    0.88
   7 -12   3    5.64    1.94
   8 -12   3    3.29    1.62
   9 -12   3    2.55    1.46
  10 -12   3    1.60    1.29
 -11 -11   3   -1.23    0.91
 -10 -11   3    0.04    0.89
  -9 -11   3   15.16    2.69
  -8 -11   3   -0.09    0.83
  -7 -11   3   39.40    3.69
  -6 -11   3    3.94    1.09
  -5 -11   3    1.67    0.79
  -4 -11   3    3.84    1.09
  -3 -11   3    0.36    0.66
  -2 -11   3   11.85    1.90
  -1 -11   3   24.19    4.24
   0 -11   3    0.69    1.06
   1 -11   3   17.62    3.66
   2 -11   3   15.62    3.08
   3 -11   3   -0.30    0.86
   4 -11   3    2.38    1.34
   5 -11   3    0.40    0.97
   6 -11   3    2.81    1.46
   7 -11   3   36.19    5.12
   8 -11   3    1.29    1.08
   9 -11   3   10.54    2.55
  10 -11   3   -0.18    0.96
  11 -11   3    0.09    1.16
 -13 -10   3    0.82    1.28
 -12 -10   3    1.55    1.38
 -11 -10   3   18.10    3.12
 -10 -10   3    0.87    1.16
  -9 -10   3    3.81    1.31
  -8 -10   3    0.58    0.89
  -7 -10   3    1.23    0.77
  -6 -10   3   10.99    1.60
  -5 -10   3    4.56    1.11
  -4 -10   3   23.70    2.43
  -3 -10   3    9.35    1.44
  -2 -10   3    4.03    0.93
  -1 -10   3   20.31    2.19
   0 -10   3    9.95    1.46
   1 -10   3   13.99    3.02
   2 -10   3    2.97    1.50
   3 -10   3   11.55    2.53
   4 -10   3   22.66    3.62
   5 -10   3    0.96    1.06
   6 -10   3    6.69    1.95
   7 -10   3   -0.64    0.71
   8 -10   3   -1.09    0.66
   9 -10   3    2.06    1.42
  10 -10   3    1.72    1.30
  11 -10   3   15.18    3.18
 -14  -9   3   -0.41    1.54
 -13  -9   3    1.05    1.28
 -12  -9   3    0.74    1.24
 -11  -9   3    0.46    1.12
 -10  -9   3    4.63    1.59
  -9  -9   3   31.53    4.09
  -8  -9   3   12.17    2.31
  -7  -9   3    9.15    1.48
  -6  -9   3    9.75    1.53
  -5  -9   3   44.35    3.63
  -4  -9   3    4.54    0.99
  -3  -9   3    2.11    0.73
  -2  -9   3   50.06    3.72
  -1  -9   3    5.00    1.07
   0  -9   3   -0.17    0.43
   1  -9   3    4.98    0.94
   2  -9   3   55.55    6.39
   3  -9   3    1.99    1.27
   4  -9   3    4.13    1.50
   5  -9   3   40.18    5.47
   6  -9   3   12.08    2.47
   7  -9   3    7.11    2.01
   8  -9   3   12.65    2.58
   9  -9   3   27.51    4.26
  10  -9   3    0.40    0.99
  11  -9   3    1.06    1.01
 -14  -8   3   -1.28    1.30
 -13  -8   3   -0.08    1.20
 -12  -8   3    0.44    1.11
 -11  -8   3    4.54    1.69
 -10  -8   3    1.69    1.24
  -9  -8   3   22.61    3.24
  -8  -8   3    2.11    1.14
  -7  -8   3    5.90    1.14
  -6  -8   3    4.33    1.05
  -5  -8   3   14.83    1.85
  -4  -8   3   13.23    1.74
  -3  -8   3    7.43    1.19
  -2  -8   3    7.89    1.28
  -1  -8   3   10.28    1.46
   0  -8   3   28.49    2.51
   1  -8   3   12.36    1.58
   2  -8   3    8.88    2.11
   3  -8   3    9.35    2.26
   4  -8   3   13.95    2.73
   5  -8   3   14.83    2.83
   6  -8   3    2.45    1.27
   7  -8   3    7.40    1.89
   8  -8   3    2.14    1.16
   9  -8   3   12.84    2.70
  10  -8   3    1.99    1.15
  11  -8   3    4.07    1.51
 -14  -7   3    0.25    1.29
 -13  -7   3   34.82    5.18
 -12  -7   3   -0.72    0.84
 -11  -7   3    0.08    1.04
 -10  -7   3    1.51    1.10
  -9  -7   3    1.55    1.08
  -8  -7   3    4.49    1.44
  -7  -7   3    4.80    1.02
  -6  -7   3    6.99    1.17
  -5  -7   3   78.92    4.88
  -4  -7   3   -0.04    0.45
  -3  -7   3    0.45    0.54
  -2  -7   3    3.56    0.87
  -1  -7   3   17.97    1.91
   0  -7   3    0.78    0.51
   1  -7   3   19.03    1.90
   2  -7   3    3.54    1.35
   3  -7   3    0.44    0.79
   4  -7   3    0.71    0.73
   5  -7   3   64.71    6.88
   6  -7   3    3.64    1.47
   7  -7   3    2.62    1.10
   8  -7   3    6.61    1.90
   9  -7   3    2.03    1.18
  10  -7   3    0.24    0.78
  11  -7   3   -0.70    0.81
  12  -7   3   -0.71    1.04
 -15  -6   3    0.92    1.74
 -14  -6   3   -0.34    1.17
 -13  -6   3   21.46    3.78
 -12  -6   3   10.83    2.48
 -11  -6   3   33.53    4.62
 -10  -6   3    5.92    1.78
  -9  -6   3    7.69    1.91
  -8  -6   3    2.64    1.25
  -7  -6   3    7.35    1.17
  -6  -6   3   -0.16    0.42
  -5  -6   3    9.32    1.28
  -4  -6   3    0.86    0.53
  -3  -6   3    4.04    0.84
  -2  -6   3    1.53    0.59
  -1  -6   3   88.37    5.31
   0  -6   3   13.63    1.68
   1  -6   3   89.68    5.31
   2  -6   3    3.11    0.77
   3  -6   3    2.41    1.06
   4  -6   3   -0.21    0.62
   5  -6   3   10.56    2.13
   6  -6   3    0.01    0.65
   7  -6   3    6.37    1.88
   8  -6   3    4.51    1.43
   9  -6   3    4.99    1.57
  10  -6   3    8.71    2.09
  11  -6   3   30.40    4.58
  12  -6   3   13.42    2.71
 -15  -5   3    0.68    1.49
 -14  -5   3    1.47    1.37
 -13  -5   3    0.34    1.12
 -12  -5   3   -0.32    1.00
 -11  -5   3    3.04    1.45
 -10  -5   3   11.44    2.54
  -9  -5   3    7.43    2.02
  -8  -5   3   -1.03    0.66
  -7  -5   3   25.62    3.51
  -6  -5   3   28.66    2.50
  -5  -5   3   16.18    1.73
  -4  -5   3    0.31    0.44
  -3  -5   3   32.91    2.77
  -2  -5   3   47.76    3.15
  -1  -5   3   -0.29    0.31
   0  -5   3    0.13    0.36
   1  -5   3   -0.25    0.33
   2  -5   3   44.22    3.24
   3  -5   3   31.68    4.05
   4  -5   3    0.32    0.68
   5  -5   3   14.27    2.49
   6  -5   3   20.45    3.44
   7  -5   3   27.87    3.83
   8  -5   3    0.58    0.76
   9  -5   3    7.80    2.00
  10  -5   3   10.38    2.47
  11  -5   3    3.73    1.49
  12  -5   3    1.12    1.14
 -15  -4   3    0.21    1.33
 -14  -4   3   26.67    4.39
 -13  -4   3    0.00    0.90
 -12  -4   3   -0.51    1.07
 -11  -4   3    2.92    1.50
 -10  -4   3   -0.24    0.59
  -9  -4   3   14.91    2.75
  -8  -4   3    3.07    1.30
  -7  -4   3    7.64    1.73
  -6  -4   3    9.16    1.20
  -5  -4   3   12.03    1.40
  -4  -4   3   41.39    2.87
  -3  -4   3    1.41    0.53
  -2  -4   3   22.41    2.00
  -1  -4   3   16.24    1.70
   0  -4   3    2.26    0.66
   1  -4   3   16.27    1.73
   2  -4   3   21.50    2.02
   3  -4   3    1.22    0.83
   4  -4   3   48.18    5.19
   5  -4   3    9.59    1.95
   6  -4   3    4.96    1.56
   7  -4   3    2.69    1.12
   8  -4   3    5.70    1.55
   9  -4   3   17.19    2.32
  10  -4   3    0.40    0.58
  11  -4   3    1.02    0.70
  12  -4   3   -0.87    0.67
 -15  -3   3    1.37    1.80
 -14  -3   3   -0.66    1.10
 -13  -3   3    0.09    1.02
 -12  -3   3    1.39    1.32
 -11  -3   3   10.66    2.69
 -10  -3   3   20.35    3.45
  -9  -3   3   10.21    2.30
  -8  -3   3   31.20    3.94
  -7  -3   3   58.74    5.69
  -6  -3   3    0.20    0.37
  -5  -3   3   36.71    2.80
  -4  -3   3   11.32    1.29
  -3  -3   3    2.45    0.66
  -2  -3   3   88.79    5.29
  -1  -3   3  110.72    6.59
   0  -3   3   -0.33    0.29
   1  -3   3  115.18    6.63
   2  -3   3   89.09    5.35
   3  -3   3    6.09    1.44
   4  -3   3   11.98    2.05
   5  -3   3   35.51    2.78
   6  -3   3    0.91    0.40
   7  -3   3   61.06    3.85
   8  -3   3   31.51    2.60
   9  -3   3   14.19    1.70
  10  -3   3   22.06    2.25
  11  -3   3   13.66    1.78
  12  -3   3    2.25    0.92
  13  -3   3    0.05    0.64
  14  -3   3   -0.40    1.05
  15  -3   3    2.95    1.87
  16  -3   3    2.23    1.89
 -15  -2   3    2.14    1.73
 -14  -2   3   -1.22    1.07
 -13  -2   3    1.21    1.38
 -12  -2   3   20.26    3.71
 -11  -2   3    9.69    2.50
 -10  -2   3    0.73    0.98
  -9  -2   3    2.67    1.21
  -8  -2   3    3.99    1.40
  -7  -2   3   25.00    3.32
  -6  -2   3    3.99    0.73
  -5  -2   3   -0.04    0.34
  -4  -2   3    6.50    0.91
  -3  -2   3   17.58    1.65
  -2  -2   3   20.67    1.93
  -1  -2   3   39.14    2.70
   0  -2   3    9.69    1.21
   1  -2   3   36.85    2.69
   2  -2   3   24.13    2.10
   3  -2   3   19.61    1.42
   4  -2   3    5.15    0.73
   5  -2   3    0.54    0.40
   6  -2   3    2.40    0.64
   7  -2   3   21.34    2.06
   8  -2   3    7.13    1.15
   9  -2   3    3.26    0.80
  10  -2   3    1.36    0.67
  11  -2   3   14.73    1.86
  12  -2   3   19.40    2.25
  13  -2   3    0.68    0.77
  14  -2   3   -1.27    0.94
  15  -2   3    2.59    1.54
  16  -2   3    1.27    1.47
 -15  -1   3    1.25    1.62
 -14  -1   3    5.29    2.12
 -13  -1   3    7.30    2.46
 -12  -1   3    4.67    1.94
 -11  -1   3    3.80    1.71
 -10  -1   3   26.16    4.10
  -9  -1   3    1.96    0.95
  -8  -1   3   20.32    3.12
  -7  -1   3    5.88    1.62
  -6  -1   3    3.80    1.15
  -5  -1   3   67.40    4.10
  -4  -1   3   17.48    1.61
  -3  -1   3   43.39    2.88
  -2  -1   3    1.05    0.42
  -1  -1   3    0.22    0.30
   0  -1   3    0.35    0.22
   1  -1   3    0.12    0.20
   2  -1   3    0.84    0.29
   3  -1   3   44.34    2.81
   4  -1   3   14.37    1.48
   5  -1   3   69.30    4.12
   6  -1   3    3.11    0.67
   7  -1   3    5.47    0.95
   8  -1   3   19.76    1.94
   9  -1   3    0.14    0.46
  10  -1   3   29.44    2.74
  11  -1   3    5.55    1.13
  12  -1   3    2.57    0.87
  13  -1   3    9.60    1.64
  14  -1   3    4.32    1.76
  15  -1   3    3.18    1.77
  16  -1   3    4.41    2.00
 -16   0   3   13.78    4.05
 -15   0   3   -0.24    1.53
 -14   0   3   18.21    4.07
 -13   0   3   -0.81    1.05
 -12   0   3    0.37    1.28
 -11   0   3   -0.19    0.86
 -10   0   3   10.03    2.33
  -9   0   3   -0.40    0.68
  -8   0   3  104.38    9.08
  -7   0   3   -0.02    0.55
  -6   0   3   24.54    3.16
  -5   0   3    0.18    0.31
  -4   0   3  117.75    6.84
  -3   0   3   -0.64    0.27
  -2   0   3   40.71    2.76
  -1   0   3    0.11    0.24
   0   0   3    0.35    0.25
   1   0   3   -0.17    0.18
   2   0   3   39.91    2.21
   3   0   3    0.02    0.28
   4   0   3  117.56    6.85
   5   0   3   -0.08    0.28
   6   0   3   21.97    2.02
   7   0   3   -0.69    0.29
   8   0   3   96.87    6.10
   9   0   3   -0.20    0.40
  10   0   3    6.89    1.19
  11   0   3    0.00    0.48
  12   0   3    1.72    0.76
  13   0   3   -0.03    0.55
  14   0   3   22.24    3.76
  15   0   3   -0.36    1.01
  16   0   3   20.25    3.73
 -16   1   3    5.11    2.48
 -15   1   3    1.66    1.71
 -14   1   3    5.07    2.11
 -13   1   3   13.30    3.13
 -12   1   3    3.14    1.56
 -11   1   3    8.09    2.40
 -10   1   3   29.85    4.40
  -9   1   3    0.22    0.53
  -8   1   3   16.76    1.97
  -7   1   3    5.91    1.03
  -6   1   3    3.48    0.79
  -5   1   3   68.54    3.37
  -4   1   3   16.26    1.29
  -3   1   3   42.11    2.85
  -2   1   3    0.81    0.41
  -1   1   3   -0.03    0.24
   0   1   3    0.12    0.24
   1   1   3    0.29    0.24
   2   1   3    0.72    0.29
   3   1   3   44.32    2.88
   4   1   3   18.59    1.71
   5   1   3   66.04    4.17
   6   1   3    6.03    0.96
   7   1   3    3.58    0.78
   8   1   3   18.70    1.88
   9   1   3    0.22    0.49
  10   1   3   26.96    2.67
  11   1   3    5.23    1.10
  12   1   3    3.28    0.94
  13   1   3    8.75    1.46
  14   1   3    3.95    1.70
  15   1   3    4.39    1.95
  16   1   3    3.74    1.99
 -16   2   3   -1.62    1.36
 -15   2   3    3.35    1.98
 -14   2   3    0.46    1.27
 -13   2   3   -1.15    1.02
 -12   2   3   13.77    2.06
 -11   2   3   14.04    1.99
 -10   2   3    0.89    0.64
  -9   2   3    1.98    0.82
  -8   2   3    9.15    1.40
  -7   2   3   21.03    2.13
  -6   2   3    3.18    0.78
  -5   2   3    0.37    0.30
  -4   2   3    4.86    0.62
  -3   2   3   16.08    1.29
  -2   2   3   21.49    1.36
  -1   2   3   39.34    1.65
   0   2   3    8.73    0.74
   1   2   3   40.07    1.85
   2   2   3   24.25    1.45
   3   2   3   18.58    1.24
   4   2   3    4.33    0.80
   5   2   3    0.20    0.38
   6   2   3    3.49    0.76
   7   2   3   21.77    2.07
   8   2   3    8.58    1.25
   9   2   3    2.72    0.69
  10   2   3    1.49    0.71
  11   2   3   12.12    1.72
  12   2   3   17.21    2.15
  13   2   3    0.02    0.52
  14   2   3    0.99    0.81
  15   2   3    2.34    1.68
  16   2   3    0.01    1.32
 -16   3   3   -0.53    1.62
 -15   3   3    8.20    2.61
 -14   3   3   -0.09    0.81
 -13   3   3   -0.13    0.70
 -12   3   3    2.36    0.99
 -11   3   3    8.21    1.54
 -10   3   3   18.10    2.19
  -9   3   3   12.37    1.71
  -8   3   3   25.29    2.55
  -7   3   3   53.69    3.91
  -6   3   3    0.41    0.43
  -5   3   3   40.93    2.81
  -4   3   3    9.57    0.95
  -3   3   3    4.85    0.58
  -2   3   3   89.34    3.31
  -1   3   3  116.03    4.11
   0   3   3    0.00    0.18
   1   3   3  113.53    4.09
   2   3   3   89.98    4.25
   3   3   3    4.40    0.61
   4   3   3   11.79    1.04
   5   3   3   40.40    2.93
   6   3   3    0.34    0.43
   7   3   3   58.14    3.90
   8   3   3   26.59    2.54
   9   3   3   12.74    1.67
  10   3   3   21.58    2.27
  11   3   3   10.78    1.65
  12   3   3    4.03    1.02
  13   3   3   -0.34    0.55
  14   3   3    0.89    0.78
  15   3   3    4.19    1.71
  16   3   3    3.92    2.00
 -16   4   3    2.68    2.45
 -15   4   3    0.57    0.93
 -14   4   3   19.95    2.60
 -13   4   3    0.56    0.81
 -12   4   3   -0.51    0.62
 -11   4   3    1.73    0.77
 -10   4   3    0.18    0.57
  -9   4   3   18.01    2.09
  -8   4   3    3.63    0.87
  -7   4   3    4.39    0.94
  -6   4   3    7.33    1.19
  -5   4   3   11.46    1.38
  -4   4   3   41.35    2.00
  -3   4   3    1.66    0.34
  -2   4   3   18.91    1.14
  -1   4   3   18.11    1.06
   0   4   3    2.69    0.38
   1   4   3   15.95    0.99
   2   4   3   22.02    1.29
   3   4   3    1.09    0.37
   4   4   3   41.09    2.33
   5   4   3   12.10    1.40
   6   4   3    8.68    1.20
   7   4   3    4.92    0.88
   8   4   3    4.16    0.94
   9   4   3   13.92    1.78
  10   4   3    0.52    0.56
  11   4   3    1.21    0.69
  12   4   3   -0.29    0.53
  13   4   3   -0.02    0.57
  14   4   3   17.35    2.25
  15   4   3    0.58    1.17
 -15   5   3   -0.03    0.89
 -14   5   3    3.56    1.20
 -13   5   3   -0.25    0.74
 -12   5   3    0.75    0.71
 -11   5   3    6.10    1.29
 -10   5   3   16.14    2.05
  -9   5   3    7.15    1.26
  -8   5   3    0.32    0.49
  -7   5   3   27.11    2.49
  -6   5   3   31.62    2.66
  -5   5   3   13.96    1.35
  -4   5   3   -0.20    0.24
  -3   5   3   35.61    1.67
  -2   5   3   44.69    1.91
  -1   5   3    0.38    0.23
   0   5   3   -0.11    0.19
   1   5   3    0.38    0.27
   2   5   3   48.40    2.13
   3   5   3   37.52    2.14
   4   5   3    0.35    0.34
   5   5   3   14.99    1.35
   6   5   3   30.42    2.65
   7   5   3   29.44    2.66
   8   5   3   -0.02    0.52
   9   5   3    9.21    1.42
  10   5   3   15.96    1.93
  11   5   3    5.73    1.23
  12   5   3    0.79    0.66
  13   5   3   -0.13    0.59
  14   5   3    3.45    1.77
  15   5   3   -1.69    1.16
 -15   6   3   -1.03    1.04
 -14   6   3   -1.03    0.71
 -13   6   3   23.20    2.74
 -12   6   3    3.86    1.07
 -11   6   3   34.67    3.36
 -10   6   3    6.96    1.49
  -9   6   3    4.99    1.10
  -8   6   3    4.14    0.99
  -7   6   3    8.40    1.26
  -6   6   3    0.11    0.37
  -5   6   3   10.82    1.15
  -4   6   3    0.48    0.34
  -3   6   3    4.53    0.61
  -2   6   3    1.87    0.37
  -1   6   3   85.00    3.26
   0   6   3   16.37    1.04
   1   6   3   88.19    3.65
   2   6   3    1.35    0.35
   3   6   3    6.00    0.81
   4   6   3    0.68    0.43
   5   6   3   10.84    1.18
   6   6   3   -0.04    0.43
   7   6   3   10.78    1.50
   8   6   3    3.03    0.90
   9   6   3    5.96    1.17
  10   6   3    7.99    1.36
  11   6   3   31.04    3.22
  12   6   3    4.24    1.16
  13   6   3   18.45    3.55
  14   6   3    0.71    1.16
  15   6   3    0.32    1.23
 -14   7   3    1.45    1.39
 -13   7   3   36.16    5.16
 -12   7   3    0.67    1.02
 -11   7   3    0.14    0.83
 -10   7   3   -0.47    0.62
  -9   7   3    3.92    0.94
  -8   7   3    8.02    1.33
  -7   7   3    5.06    0.83
  -6   7   3    3.23    0.69
  -5   7   3   75.50    3.94
  -4   7   3   -0.01    0.34
  -3   7   3    0.65    0.34
  -2   7   3    6.30    0.69
  -1   7   3   17.18    1.27
   0   7   3    0.34    0.31
   1   7   3   16.09    1.22
   2   7   3    4.85    0.61
   3   7   3    0.76    0.45
   4   7   3   -0.23    0.34
   5   7   3   75.90    3.99
   6   7   3    4.10    0.80
   7   7   3    4.98    1.07
   8   7   3   10.95    1.60
   9   7   3    3.23    0.96
  10   7   3   -0.18    0.57
  11   7   3   -0.81    0.78
  12   7   3    0.61    1.06
  13   7   3   37.48    5.17
  14   7   3   -0.83    1.05
 -14   8   3    1.60    1.43
 -13   8   3    1.54    1.45
 -12   8   3    2.36    1.29
 -11   8   3    3.64    1.60
 -10   8   3    2.89    1.35
  -9   8   3   10.73    2.31
  -8   8   3    3.10    0.99
  -7   8   3    2.66    0.88
  -6   8   3    4.78    1.08
  -5   8   3   17.83    2.10
  -4   8   3   16.39    1.95
  -3   8   3    8.31    1.02
  -2   8   3    9.42    1.14
  -1   8   3   13.20    1.32
   0   8   3   25.66    1.92
   1   8   3   14.33    1.29
   2   8   3    8.64    1.33
   3   8   3    6.72    1.23
   4   8   3   15.12    1.82
   5   8   3   17.92    2.07
   6   8   3    5.56    1.14
   7   8   3    3.49    1.39
   8   8   3    2.81    1.23
   9   8   3   15.88    2.94
  10   8   3    4.85    1.66
  11   8   3    5.21    1.97
  12   8   3    0.34    0.96
  13   8   3    0.96    1.27
  14   8   3   -0.16    1.26
 -13   9   3   -0.14    1.13
 -12   9   3   -0.27    0.96
 -11   9   3    1.39    1.16
 -10   9   3    1.82    1.23
  -9   9   3   31.91    4.45
  -8   9   3    8.23    1.47
  -7   9   3    8.53    1.50
  -6   9   3    8.60    1.51
  -5   9   3   50.31    4.05
  -4   9   3    2.65    0.73
  -3   9   3    1.98    0.64
  -2   9   3   54.48    3.12
  -1   9   3    6.24    0.94
   0   9   3    0.21    0.39
   1   9   3    7.36    0.95
   2   9   3   47.26    3.77
   3   9   3    1.89    0.75
   4   9   3    4.94    1.02
   5   9   3   53.67    3.64
   6   9   3    9.72    1.56
   7   9   3    7.28    1.33
   8   9   3   17.11    3.05
   9   9   3   38.62    4.86
  10   9   3    2.18    1.32
  11   9   3    0.31    1.05
  12   9   3    1.44    1.33
  13   9   3    2.47    1.49
 -12  10   3    1.13    1.35
 -11  10   3   12.27    2.97
 -10  10   3    2.56    1.30
  -9  10   3    1.06    0.83
  -8  10   3   -0.45    0.62
  -7  10   3    0.09    0.67
  -6  10   3    5.40    1.31
  -5  10   3    7.56    1.42
  -4  10   3   18.11    1.81
  -3  10   3    9.60    1.22
  -2  10   3    3.11    0.72
  -1  10   3   21.71    1.89
   0  10   3    9.67    1.18
   1  10   3   18.06    1.64
   2  10   3    2.21    0.84
   3  10   3    9.88    1.54
   4  10   3   17.91    2.20
   5  10   3    6.45    1.29
   6  10   3    7.96    1.40
   7  10   3    0.75    0.74
   8  10   3    0.65    0.93
   9  10   3    0.91    1.06
  10  10   3    2.21    1.45
  11  10   3   20.24    3.62
  12  10   3   -1.57    1.06
 -12  11   3    0.91    1.33
 -11  11   3    1.44    1.37
 -10  11   3    0.99    1.12
  -9  11   3    8.43    1.67
  -8  11   3    0.93    0.83
  -7  11   3   44.25    3.96
  -6  11   3    1.49    0.82
  -5  11   3    1.71    0.81
  -4  11   3    3.47    0.86
  -3  11   3    0.14    0.50
  -2  11   3   13.35    1.53
  -1  11   3   27.31    2.24
   0  11   3   -0.48    0.40
   1  11   3   25.37    2.74
   2  11   3   12.69    1.87
   3  11   3    0.19    0.60
   4  11   3    2.42    0.94
   5  11   3    0.89    0.69
   6  11   3    3.90    1.05
   7  11   3   41.45    3.80
   8  11   3    1.25    1.11
   9  11   3    8.15    2.45
  10  11   3    0.05    1.17
  11  11   3    0.59    1.09
  12  11   3   -1.09    1.08
 -11  12   3    2.21    1.61
 -10  12   3    2.79    1.22
  -9  12   3    0.89    0.97
  -8  12   3    3.40    1.18
  -7  12   3    4.46    1.27
  -6  12   3    1.66    0.79
  -5  12   3    6.94    1.48
  -4  12   3   10.46    1.74
  -3  12   3    3.40    0.87
  -2  12   3    0.63    0.61
  -1  12   3    1.49    0.70
   0  12   3    1.54    0.64
   1  12   3    1.97    0.85
   2  12   3   -0.12    0.63
   3  12   3    5.02    1.23
   4  12   3    9.00    1.61
   5  12   3    2.55    1.02
   6  12   3    0.92    0.75
   7  12   3    8.62    1.57
   8  12   3    7.29    1.73
   9  12   3    4.56    1.78
  10  12   3    1.22    1.26
  11  12   3    2.61    1.50
 -10  13   3   10.07    1.96
  -9  13   3    3.78    1.33
  -8  13   3   13.22    1.97
  -7  13   3   -0.26    0.87
  -6  13   3    1.43    0.89
  -5  13   3   -0.13    0.73
  -4  13   3    2.26    1.02
  -3  13   3   28.47    2.60
  -2  13   3    4.50    0.92
  -1  13   3    1.16    0.69
   0  13   3   -0.37    0.57
   1  13   3    0.84    0.77
   2  13   3    3.66    1.15
   3  13   3   34.43    3.44
   4  13   3    0.68    0.76
   5  13   3   -0.24    0.69
   6  13   3    0.42    0.79
   7  13   3    2.78    1.11
   8  13   3   10.47    1.87
   9  13   3    3.14    1.60
  10  13   3   12.61    3.19
  -9  14   3    2.56    1.70
  -8  14   3   10.74    2.05
  -7  14   3   -0.40    0.79
  -6  14   3    0.79    0.82
  -5  14   3    0.34    0.84
  -4  14   3   21.06    2.68
  -3  14   3    0.09    0.61
  -2  14   3    0.72    0.79
  -1  14   3    4.56    1.11
   0  14   3    9.99    1.85
   1  14   3   11.56    1.83
   2  14   3    1.38    0.95
   3  14   3    0.73    0.87
   4  14   3   21.11    2.58
   5  14   3   -0.40    0.68
   6  14   3   -0.23    0.83
   7  14   3    1.52    0.94
   8  14   3    7.93    1.70
  -7  15   3    1.61    1.17
  -6  15   3    5.37    1.52
  -5  15   3   13.19    2.11
  -4  15   3    4.99    1.41
  -3  15   3    4.65    1.17
  -2  15   3    0.10    0.74
  -1  15   3    0.77    0.88
   0  15   3    0.14    0.79
   1  15   3    1.27    0.87
   2  15   3    0.11    0.76
   3  15   3    3.73    1.23
   4  15   3    5.61    1.51
   5  15   3   11.01    2.02
   6  15   3    6.62    1.57
   7  15   3    2.93    1.23
   8  15   3    1.22    1.62
  -6  16   3    0.55    1.77
  -5  16   3    1.48    1.15
  -4  16   3   -0.23    0.89
  -3  16   3   10.16    1.64
  -2  16   3    6.89    1.43
  -1  16   3    0.31    0.88
   0  16   3   24.35    3.09
   1  16   3    2.23    1.08
   2  16   3    4.10    1.40
   3  16   3    9.71    1.93
   4  16   3    0.66    0.96
   5  16   3    0.30    1.01
   6  16   3    0.35    1.41
  -3  17   3   -0.52    1.72
   0  17   3   -0.09    1.41
   1  17   3   12.30    3.46
   2  17   3    5.70    3.21
  -6 -14   4   -0.10    2.12
  -5 -14   4    4.37    2.61
  -4 -14   4    6.56    2.83
  -3 -14   4   -1.27    1.68
  -2 -14   4    3.80    2.33
  -1 -14   4    2.22    2.07
   0 -14   4   40.13    6.32
   1 -14   4    2.25    1.93
   2 -14   4   -0.30    1.52
   3 -14   4    1.31    1.45
   4 -14   4    0.55    1.57
  -6 -13   4   11.03    3.21
  -5 -13   4   14.68    3.89
  -4 -13   4    8.63    2.98
  -3 -13   4   -1.75    1.54
  -2 -13   4    1.50    1.64
  -1 -13   4    0.27    1.45
   0 -13   4    0.09    1.45
   1 -13   4    1.37    1.50
   2 -13   4    1.74    1.78
   3 -13   4    0.59    1.40
   4 -13   4    6.11    2.39
   5 -13   4   24.22    4.28
   6 -13   4    1.98    1.65
   7 -13   4    3.11    3.14
  -6 -12   4    5.94    2.44
  -5 -12   4    2.73    1.90
  -4 -12   4    8.90    2.89
  -3 -12   4    1.79    1.68
  -2 -12   4    6.57    2.34
  -1 -12   4    7.08    2.64
   0 -12   4   11.21    3.11
   1 -12   4    7.35    2.44
   2 -12   4    5.81    2.14
   3 -12   4    0.72    1.31
   4 -12   4   13.32    3.04
   5 -12   4    0.87    1.47
   6 -12   4    7.91    2.56
   7 -12   4    6.48    2.20
   8 -12   4   -0.21    1.26
 -10 -11   4    2.75    1.82
  -9 -11   4   12.46    2.60
  -8 -11   4    0.60    1.25
  -7 -11   4    0.48    1.22
  -6 -11   4   -0.10    0.79
  -5 -11   4    4.48    1.27
  -4 -11   4    2.37    1.05
  -3 -11   4    5.81    1.38
  -2 -11   4    1.93    0.98
  -1 -11   4   21.89    2.40
   0 -11   4    0.44    1.23
   1 -11   4   19.21    3.73
   2 -11   4    0.22    1.14
   3 -11   4    5.52    2.11
   4 -11   4   -0.07    1.01
   5 -11   4    5.13    1.96
   6 -11   4    3.23    1.75
   7 -11   4   -0.73    1.11
   8 -11   4    1.35    1.57
   9 -11   4    6.64    2.34
  10 -11   4    5.67    2.41
 -11 -10   4   -1.06    1.26
 -10 -10   4   -0.42    1.06
  -9 -10   4    1.31    1.21
  -8 -10   4   -0.41    1.01
  -7 -10   4    0.26    1.10
  -6 -10   4    1.53    0.97
  -5 -10   4    0.48    0.70
  -4 -10   4    5.42    1.30
  -3 -10   4   16.78    2.11
  -2 -10   4    8.05    1.47
  -1 -10   4   13.41    1.86
   0 -10   4   -0.16    0.68
   1 -10   4    9.43    2.68
   2 -10   4    6.97    2.40
   3 -10   4    8.86    2.57
   4 -10   4    7.22    2.29
   5 -10   4    1.36    1.29
   6 -10   4    3.69    1.68
   7 -10   4    2.03    1.42
   8 -10   4   -0.54    1.07
   9 -10   4    0.60    1.35
  10 -10   4    1.04    1.21
  11 -10   4    0.43    1.64
 -11  -9   4   11.27    2.65
 -10  -9   4    6.62    2.06
  -9  -9   4    1.95    1.31
  -8  -9   4   -0.34    0.92
  -7  -9   4    3.22    1.35
  -6  -9   4   17.16    2.33
  -5  -9   4    7.19    1.38
  -4  -9   4    0.17    0.66
  -3  -9   4   14.30    1.95
  -2  -9   4    2.82    0.98
  -1  -9   4    0.99    0.70
   0  -9   4    0.50    0.68
   1  -9   4    0.10    1.12
   2  -9   4    1.45    1.20
   3  -9   4   10.08    2.51
   4  -9   4   -0.53    0.95
   5  -9   4    6.28    2.03
   6  -9   4    8.65    2.47
   7  -9   4    1.57    1.41
   8  -9   4   -0.42    1.07
   9  -9   4    1.60    1.26
  10  -9   4   10.33    2.68
  11  -9   4    5.68    2.03
 -12  -8   4    2.42    1.63
 -11  -8   4   -0.23    1.16
 -10  -8   4    2.15    1.50
  -9  -8   4    2.09    1.27
  -8  -8   4   17.17    3.11
  -7  -8   4    4.65    1.64
  -6  -8   4    3.82    1.45
  -5  -8   4    6.18    1.22
  -4  -8   4    0.70    0.72
  -3  -8   4   14.35    1.93
  -2  -8   4    0.45    0.61
  -1  -8   4   11.18    1.70
   0  -8   4   18.91    2.17
   1  -8   4   10.97    1.74
   2  -8   4    2.02    1.17
   3  -8   4   15.59    3.24
   4  -8   4    0.41    0.84
   5  -8   4    5.18    1.70
   6  -8   4    7.86    2.41
   7  -8   4    5.92    1.96
   8  -8   4   18.17    3.47
   9  -8   4    2.12    1.31
  10  -8   4    8.97    2.47
  11  -8   4    3.20    1.76
  12  -8   4    0.76    1.55
 -12  -7   4   -0.28    1.28
 -11  -7   4    0.42    1.15
 -10  -7   4   -0.38    1.00
  -9  -7   4   20.05    3.40
  -8  -7   4    3.78    1.49
  -7  -7   4   24.67    3.80
  -6  -7   4    1.67    1.07
  -5  -7   4    0.73    0.62
  -4  -7   4    0.54    0.60
  -3  -7   4   12.35    1.73
  -2  -7   4    4.18    1.01
  -1  -7   4   11.42    1.57
   0  -7   4   -0.29    0.47
   1  -7   4    9.03    1.47
   2  -7   4    3.65    1.64
   3  -7   4   12.92    2.73
   4  -7   4   -0.36    0.71
   5  -7   4    2.06    1.18
   6  -7   4    1.98    1.31
   7  -7   4   20.65    3.75
   8  -7   4    5.57    1.96
   9  -7   4   17.29    3.37
  10  -7   4    1.28    1.20
  11  -7   4    1.34    1.17
  12  -7   4    0.71    1.41
 -12  -6   4    3.74    1.73
 -11  -6   4   -0.08    1.02
 -10  -6   4   14.22    2.81
  -9  -6   4    2.06    1.25
  -8  -6   4    9.80    2.29
  -7  -6   4   12.07    2.51
  -6  -6   4    0.47    0.90
  -5  -6   4   17.51    2.01
  -4  -6   4   -0.04    0.49
  -3  -6   4   85.27    5.38
  -2  -6   4   27.22    2.62
  -1  -6   4   -0.04    0.54
   0  -6   4   12.14    1.74
   1  -6   4    1.43    0.66
   2  -6   4   17.87    3.37
   3  -6   4   80.52    7.80
   4  -6   4   -0.78    0.61
   5  -6   4   17.05    3.15
   6  -6   4    0.43    0.87
   7  -6   4   11.31    2.65
   8  -6   4   11.37    2.49
   9  -6   4    5.64    1.83
  10  -6   4    8.34    2.27
  11  -6   4    1.16    1.28
  12  -6   4    5.30    1.92
  13  -6   4    1.25    1.51
 -13  -5   4    1.05    1.45
 -12  -5   4   -0.96    0.92
 -11  -5   4    3.30    1.49
 -10  -5   4    3.50    1.62
  -9  -5   4    3.51    1.63
  -8  -5   4    1.07    1.01
  -7  -5   4   13.20    2.49
  -6  -5   4   22.37    3.36
  -5  -5   4    0.26    0.46
  -4  -5   4    1.06    0.58
  -3  -5   4    0.06    0.47
  -2  -5   4   36.90    2.98
  -1  -5   4    6.45    1.19
   0  -5   4    0.30    0.51
   1  -5   4    7.80    1.28
   2  -5   4   30.57    4.26
   3  -5   4    3.12    1.26
   4  -5   4    0.79    0.96
   5  -5   4   -0.60    0.57
   6  -5   4   16.30    3.06
   7  -5   4   12.66    2.62
   8  -5   4   -0.41    0.79
   9  -5   4    1.14    1.25
  10  -5   4    5.57    1.86
  11  -5   4    4.38    1.69
  12  -5   4   -0.41    1.10
  13  -5   4   -0.36    1.32
 -13  -4   4    1.28    1.56
 -12  -4   4   27.90    4.64
 -11  -4   4   -0.54    0.98
 -10  -4   4    1.04    1.14
  -9  -4   4    1.82    1.29
  -8  -4   4    0.93    0.97
  -7  -4   4    0.56    0.89
  -6  -4   4   21.77    3.40
  -5  -4   4    1.71    0.64
  -4  -4   4    9.55    1.38
  -3  -4   4   -0.32    0.43
  -2  -4   4   34.83    2.94
  -1  -4   4    8.39    1.30
   0  -4   4    4.86    0.94
   1  -4   4    9.78    1.44
   2  -4   4   28.57    4.17
   3  -4   4    0.26    0.65
   4  -4   4    9.16    2.19
   5  -4   4    3.28    1.27
   6  -4   4   20.39    3.48
   7  -4   4   -0.20    0.75
   8  -4   4    0.85    0.98
   9  -4   4    2.48    1.29
  10  -4   4    1.26    1.17
  11  -4   4    2.35    1.61
  12  -4   4   26.06    4.37
  13  -4   4    1.14    1.61
 -13  -3   4    4.00    2.08
 -12  -3   4    0.38    1.09
 -11  -3   4    7.77    2.49
 -10  -3   4    0.69    0.96
  -9  -3   4   37.86    4.97
  -8  -3   4   21.95    3.64
  -7  -3   4    4.40    1.52
  -6  -3   4   55.57    6.24
  -5  -3   4    0.43    0.53
  -4  -3   4    1.84    0.68
  -3  -3   4   23.51    2.26
  -2  -3   4    0.96    0.57
  -1  -3   4   14.24    1.68
   0  -3   4    0.29    0.46
   1  -3   4   13.33    1.67
   2  -3   4    0.76    0.84
   3  -3   4   25.38    3.47
   4  -3   4    2.77    1.25
   5  -3   4    0.62    0.73
   6  -3   4   45.35    5.96
   7  -3   4    1.75    1.15
   8  -3   4   24.48    3.75
   9  -3   4   35.51    4.88
  10  -3   4   -0.43    0.95
  11  -3   4   12.19    2.76
  12  -3   4   -0.03    1.10
  13  -3   4    4.89    1.84
 -13  -2   4   -0.29    1.27
 -12  -2   4   -0.71    1.04
 -11  -2   4    5.65    1.98
 -10  -2   4   14.37    2.84
  -9  -2   4    4.45    1.76
  -8  -2   4    2.51    1.31
  -7  -2   4    8.00    1.94
  -6  -2   4   12.14    2.45
  -5  -2   4    3.93    1.51
  -4  -2   4   64.03    4.21
  -3  -2   4    8.85    1.26
  -2  -2   4    0.77    0.48
  -1  -2   4    0.07    0.45
   0  -2   4    0.21    0.40
   1  -2   4   -0.44    0.38
   2  -2   4    1.13    0.90
   3  -2   4    8.48    1.96
   4  -2   4   70.48    6.35
   5  -2   4    8.61    2.07
   6  -2   4   10.50    2.35
   7  -2   4    6.92    1.99
   8  -2   4    1.51    1.01
   9  -2   4    7.56    2.04
  10  -2   4    8.37    2.32
  11  -2   4    8.20    2.30
  12  -2   4    0.22    0.99
  13  -2   4    0.70    1.23
  14  -2   4    1.00    1.64
 -14  -1   4   -0.44    2.32
 -13  -1   4    1.31    1.74
 -12  -1   4   10.46    2.85
 -11  -1   4    3.35    1.65
 -10  -1   4    7.38    2.21
  -9  -1   4    3.23    1.65
  -8  -1   4    1.62    1.25
  -7  -1   4   -0.05    0.87
  -6  -1   4   13.23    2.62
  -5  -1   4    4.24    1.48
  -4  -1   4   40.97    2.99
  -3  -1   4   14.00    1.62
  -2  -1   4    2.87    0.75
  -1  -1   4    1.01    0.50
   0  -1   4    0.40    0.44
   1  -1   4    0.37    0.47
   2  -1   4    2.08    0.95
   3  -1   4   12.35    2.39
   4  -1   4   37.18    4.74
   5  -1   4    6.99    1.81
   6  -1   4   14.67    2.75
   7  -1   4   -0.79    0.74
   8  -1   4    1.98    1.19
   9  -1   4    2.66    1.25
  10  -1   4    1.78    1.20
  11  -1   4    1.44    1.28
  12  -1   4    8.52    2.37
  13  -1   4    7.21    2.17
  14  -1   4    0.41    1.42
 -14   0   4   23.85    5.31
 -13   0   4    1.50    1.62
 -12   0   4    8.62    2.77
 -11   0   4    0.17    1.28
 -10   0   4   32.65    4.97
  -9   0   4    0.30    1.10
  -8   0   4   27.19    4.41
  -7   0   4   -0.80    0.69
  -6   0   4    0.81    0.86
  -5   0   4    0.47    0.81
  -4   0   4    1.26    0.57
  -3   0   4   -0.21    0.38
  -2   0   4    0.12    0.40
  -1   0   4   -0.17    0.45
   0   0   4  399.51   22.05
   1   0   4    0.30    0.48
   2   0   4    0.34    0.69
   3   0   4    0.31    0.64
   4   0   4    1.64    0.93
   5   0   4   -0.78    0.53
   6   0   4    1.11    0.99
   7   0   4    0.27    0.63
   8   0   4   35.44    4.81
   9   0   4   -0.19    0.69
  10   0   4   35.32    4.70
  11   0   4    0.50    0.89
  12   0   4    3.85    1.71
  13   0   4    1.13    1.13
  14   0   4   26.91    4.18
 -14   1   4    0.89    1.74
 -13   1   4    4.45    2.19
 -12   1   4    6.77    2.53
 -11   1   4    1.88    1.50
 -10   1   4    3.22    1.48
  -9   1   4    3.42    1.64
  -8   1   4    1.26    1.26
  -7   1   4    0.95    0.98
  -6   1   4   14.16    2.73
  -5   1   4    5.39    1.64
  -4   1   4   35.48    2.85
  -3   1   4   10.13    1.41
  -2   1   4    3.69    0.82
  -1   1   4    2.08    0.68
   0   1   4   -0.17    0.38
   1   1   4    0.77    0.54
   2   1   4    1.38    0.94
   3   1   4   10.51    2.18
   4   1   4   30.80    4.43
   5   1   4    3.23    1.34
   6   1   4   12.43    2.48
   7   1   4    0.71    0.89
   8   1   4    0.67    0.91
   9   1   4    0.92    1.04
  10   1   4    1.85    1.19
  11   1   4    4.62    1.70
  12   1   4   10.03    2.52
  13   1   4    7.01    2.15
  14   1   4   -2.17    1.07
 -14   2   4   -0.31    1.50
 -13   2   4    2.65    1.77
 -12   2   4    0.53    1.61
 -11   2   4    6.65    2.38
 -10   2   4    9.59    2.58
  -9   2   4    4.00    1.64
  -8   2   4    0.77    0.99
  -7   2   4    7.58    1.96
  -6   2   4   15.77    2.79
  -5   2   4    5.68    1.55
  -4   2   4   68.94    6.20
  -3   2   4    9.89    1.32
  -2   2   4    0.98    0.48
  -1   2   4    0.11    0.39
   0   2   4    0.31    0.47
   1   2   4    0.32    0.48
   2   2   4    1.25    0.81
   3   2   4    8.60    1.95
   4   2   4   66.39    6.15
   5   2   4    7.21    1.33
   6   2   4   11.25    1.53
   7   2   4    9.51    1.41
   8   2   4    0.83    0.64
   9   2   4    4.39    1.09
  10   2   4   11.28    1.69
  11   2   4    6.04    1.36
  12   2   4    1.61    0.98
  13   2   4   -0.14    1.21
  14   2   4   -0.30    1.21
 -14   3   4    1.66    1.90
 -13   3   4    5.25    2.28
 -12   3   4   -0.11    1.42
 -11   3   4    5.67    2.23
 -10   3   4   -0.19    1.07
  -9   3   4   32.96    4.80
  -8   3   4   21.73    2.49
  -7   3   4    4.51    1.05
  -6   3   4   56.56    3.93
  -5   3   4    0.86    0.59
  -4   3   4    6.90    1.80
  -3   3   4   22.26    2.12
  -2   3   4   -0.01    0.43
  -1   3   4   14.86    1.31
   0   3   4    0.11    0.32
   1   3   4   14.26    1.33
   2   3   4    2.06    0.62
   3   3   4   22.21    2.17
   4   3   4    2.88    0.72
   5   3   4    0.55    0.52
   6   3   4   60.56    3.96
   7   3   4    3.32    0.91
   8   3   4   20.01    2.33
   9   3   4   46.26    3.67
  10   3   4   -0.17    0.62
  11   3   4    8.04    1.58
  12   3   4    1.79    0.87
  13   3   4    2.22    1.10
  14   3   4    2.33    1.26
 -14   4   4    2.46    1.85
 -13   4   4    0.59    1.65
 -12   4   4   26.41    3.03
 -11   4   4    1.36    0.85
 -10   4   4    1.00    0.79
  -9   4   4    0.75    0.71
  -8   4   4    0.29    0.56
  -7   4   4    0.33    0.61
  -6   4   4   16.89    2.11
  -5   4   4    2.51    0.80
  -4   4   4    8.53    1.30
  -3   4   4   -0.17    0.32
  -2   4   4   33.75    1.94
  -1   4   4   11.34    1.03
   0   4   4    6.65    0.75
   1   4   4   11.51    1.46
   2   4   4   35.95    2.94
   3   4   4    0.70    0.53
   4   4   4    9.30    1.36
   5   4   4    2.14    0.71
   6   4   4   26.08    2.50
   7   4   4    0.54    0.55
   8   4   4    2.19    0.79
   9   4   4    1.37    0.75
  10   4   4    1.11    0.83
  11   4   4    1.18    0.81
  12   4   4   29.05    3.09
  13   4   4    2.39    1.08
  14   4   4    2.39    1.22
 -13   5   4   -0.07    1.00
 -12   5   4    1.34    0.89
 -11   5   4    5.54    1.28
 -10   5   4    7.24    1.51
  -9   5   4    1.49    0.88
  -8   5   4    0.83    0.65
  -7   5   4    9.38    1.49
  -6   5   4   22.94    2.32
  -5   5   4   -0.06    0.45
  -4   5   4    1.13    0.59
  -3   5   4    0.30    0.35
  -2   5   4   33.01    1.76
  -1   5   4    6.99    0.70
   0   5   4    0.01    0.28
   1   5   4   10.71    1.39
   2   5   4   30.45    2.73
   3   5   4    0.37    0.47
   4   5   4    0.87    0.55
   5   5   4   -0.45    0.45
   6   5   4   24.76    2.46
   7   5   4   10.73    1.64
   8   5   4    0.48    0.60
   9   5   4    2.44    0.93
  10   5   4    9.90    1.70
  11   5   4    3.91    1.15
  12   5   4    1.26    0.91
  13   5   4   -0.06    0.86
 -12   6   4    0.98    1.42
 -11   6   4    1.64    1.05
 -10   6   4    5.34    1.32
  -9   6   4    3.48    1.12
  -8   6   4    9.31    1.58
  -7   6   4   11.42    1.70
  -6   6   4    1.49    0.67
  -5   6   4   19.58    2.07
  -4   6   4    0.22    0.41
  -3   6   4   85.82    3.73
  -2   6   4   27.45    1.58
  -1   6   4    0.14    0.29
   0   6   4   12.79    1.12
   1   6   4    0.25    0.41
   2   6   4   32.92    2.78
   3   6   4   83.24    5.33
   4   6   4   -0.23    0.51
   5   6   4   20.83    2.19
   6   6   4    0.94    0.64
   7   6   4   16.33    2.05
   8   6   4   12.06    1.82
   9   6   4    3.41    1.03
  10   6   4    5.14    1.24
  11   6   4    0.95    0.86
  12   6   4    3.62    1.22
  13   6   4    2.33    1.15
 -12   7   4    0.57    1.42
 -11   7   4   -0.56    0.95
 -10   7   4    0.43    1.08
  -9   7   4   19.60    3.35
  -8   7   4    1.13    1.08
  -7   7   4   21.10    3.51
  -6   7   4    1.56    1.15
  -5   7   4    0.79    0.65
  -4   7   4    0.92    0.51
  -3   7   4   12.47    1.18
  -2   7   4    3.25    0.56
  -1   7   4   11.93    0.97
   0   7   4   -0.32    0.36
   1   7   4    8.95    1.12
   2   7   4    4.36    0.93
   3   7   4   12.83    1.71
   4   7   4   -0.59    0.49
   5   7   4   -0.09    0.60
   6   7   4    0.89    0.64
   7   7   4   25.38    2.66
   8   7   4    2.19    0.88
   9   7   4   20.80    2.51
  10   7   4   -0.16    0.69
  11   7   4   -0.17    0.75
  12   7   4    1.11    1.54
 -11   8   4    3.63    1.73
 -10   8   4    3.12    1.67
  -9   8   4    2.65    1.53
  -8   8   4   17.91    3.22
  -7   8   4    4.02    1.51
  -6   8   4    8.96    1.59
  -5   8   4    4.56    1.20
  -4   8   4    0.97    0.68
  -3   8   4   14.52    1.60
  -2   8   4    0.28    0.48
  -1   8   4   15.59    1.54
   0   8   4   16.78    2.04
   1   8   4   14.47    1.47
   2   8   4    0.83    0.54
   3   8   4   16.10    2.03
   4   8   4    1.74    0.80
   5   8   4    6.06    1.29
   6   8   4    7.76    1.31
   7   8   4    6.97    1.37
   8   8   4   20.56    2.49
   9   8   4    1.33    0.92
  10   8   4    7.34    2.32
  11   8   4    4.77    1.92
  12   8   4   -0.34    1.14
 -11   9   4    5.10    2.08
 -10   9   4    4.66    2.03
  -9   9   4    2.66    1.57
  -8   9   4   -1.77    0.81
  -7   9   4    2.54    1.40
  -6   9   4   20.03    2.42
  -5   9   4    8.26    1.52
  -4   9   4    0.28    0.62
  -3   9   4   15.87    1.66
  -2   9   4    5.86    0.93
  -1   9   4    0.61    0.55
   0   9   4    0.14    0.64
   1   9   4    1.23    0.74
   2   9   4    3.57    0.99
   3   9   4   15.77    2.82
   4   9   4    0.18    0.95
   5   9   4    6.36    2.01
   6   9   4   16.39    3.06
   7   9   4    0.30    0.97
   8   9   4    0.03    1.03
   9   9   4    2.19    1.26
  10   9   4    3.12    1.62
  11   9   4    9.54    2.70
 -10  10   4   -0.77    1.35
  -9  10   4   -0.38    1.15
  -8  10   4   -0.48    1.03
  -7  10   4    0.97    0.94
  -6  10   4    2.01    1.02
  -5  10   4    0.24    0.74
  -4  10   4    5.73    1.36
  -3  10   4   14.89    1.65
  -2  10   4   11.41    1.38
  -1  10   4   12.59    1.90
   0  10   4    0.05    0.70
   1  10   4   11.22    1.77
   2  10   4   10.57    1.81
   3  10   4   17.10    3.09
   4  10   4    8.39    2.32
   5  10   4   -1.01    0.86
   6  10   4    3.36    1.52
   7  10   4    2.15    1.36
   8  10   4    1.47    1.26
   9  10   4   -0.94    1.07
  10  10   4   -0.64    1.10
  -9  11   4   10.70    2.78
  -8  11   4    0.24    1.14
  -7  11   4    0.65    0.97
  -6  11   4    1.54    0.92
  -5  11   4    5.40    1.34
  -4  11   4    2.60    1.14
  -3  11   4    9.30    1.34
  -2  11   4    0.31    0.63
  -1  11   4   16.78    2.34
   0  11   4    0.15    0.83
   1  11   4   18.52    2.41
   2  11   4    0.94    0.87
   3  11   4    7.10    2.07
   4  11   4    1.85    1.19
   5  11   4    1.22    1.39
   6  11   4    1.42    1.28
   7  11   4    0.61    1.20
   8  11   4    1.79    1.58
   9  11   4   11.88    2.85
  -8  12   4    0.74    1.00
  -7  12   4    4.75    1.49
  -6  12   4    4.37    1.34
  -5  12   4   -0.14    0.90
  -4  12   4    9.28    1.81
  -3  12   4    1.54    0.77
  -2  12   4    7.87    1.69
  -1  12   4    8.65    1.69
   0  12   4    8.47    1.62
   1  12   4   11.58    1.95
   2  12   4    5.88    1.51
   3  12   4    0.90    0.91
   4  12   4    5.59    1.98
   5  12   4    1.11    1.32
   6  12   4    8.64    2.33
   7  12   4    4.67    2.00
   8  12   4    1.24    1.57
  -7  13   4    5.90    2.17
  -6  13   4    7.83    1.76
  -5  13   4   21.14    2.83
  -4  13   4    9.02    1.83
  -3  13   4   -1.64    0.76
  -2  13   4    0.41    1.01
  -1  13   4    2.70    1.17
   0  13   4    0.28    0.83
   1  13   4    2.16    1.11
   2  13   4   -0.50    0.81
   3  13   4   -0.05    0.78
   4  13   4   13.81    3.01
   5  13   4   19.68    3.79
   6  13   4    6.79    2.28
   7  13   4    7.49    2.97
  -6  14   4   -1.30    1.60
  -5  14   4    2.23    1.37
  -4  14   4    1.45    1.10
  -3  14   4    0.72    1.46
  -2  14   4   -0.19    0.93
  -1  14   4   -0.26    0.89
   0  14   4   31.10    3.62
   1  14   4    0.19    0.90
   2  14   4    0.89    1.05
   3  14   4   -0.78    0.98
   4  14   4    1.43    1.51
  -2  15   4   -0.27    1.41
  -1  15   4   -0.67    1.31
   0  15   4    1.95    1.74
   1  15   4    0.43    1.66
   2  15   4    0.51    1.91
   3  15   4    1.41    1.83
  -5 -11   5    0.92    1.45
  -4 -11   5    0.04    0.93
  -3 -11   5    0.38    0.92
  -2 -11   5    5.21    1.57
  -1 -11   5    7.61    2.72
   0 -11   5    0.17    1.81
   1 -11   5    5.05    2.22
   2 -11   5    2.09    1.98
   3 -11   5    3.12    2.30
  -6 -10   5    5.23    1.87
  -5 -10   5    3.01    1.65
  -4 -10   5    9.61    1.82
  -3 -10   5    3.68    1.33
  -2 -10   5   -0.58    0.91
  -1 -10   5    9.77    1.74
   0 -10   5    2.95    1.73
   1 -10   5    6.62    2.61
   2 -10   5    1.44    1.64
   3 -10   5    1.27    1.82
   4 -10   5    9.56    3.03
   5 -10   5    3.00    1.91
  -7  -9   5    3.15    1.65
  -6  -9   5    4.38    1.70
  -5  -9   5   12.92    2.94
  -4  -9   5    0.82    0.97
  -3  -9   5    0.78    0.90
  -2  -9   5   24.20    2.77
  -1  -9   5    1.49    0.99
   0  -9   5    1.18    1.55
   1  -9   5    0.49    1.12
   2  -9   5   25.25    4.61
   3  -9   5   -0.05    1.45
   4  -9   5    2.13    1.71
   5  -9   5   11.79    3.18
   6  -9   5    2.76    1.68
  -8  -8   5    3.99    1.78
  -7  -8   5    2.49    1.56
  -6  -8   5   -0.58    1.03
  -5  -8   5    5.76    1.85
  -4  -8   5    6.40    1.46
  -3  -8   5    2.06    0.96
  -2  -8   5    3.67    1.15
  -1  -8   5    5.23    1.30
   0  -8   5    7.33    1.54
   1  -8   5    6.74    2.31
   2  -8   5    2.86    1.64
   3  -8   5    5.73    2.11
   4  -8   5    1.99    1.55
   5  -8   5    7.53    2.29
   6  -8   5    1.48    1.42
   7  -8   5    2.08    1.59
  -8  -7   5    3.69    1.82
  -7  -7   5    1.56    1.29
  -6  -7   5    3.27    1.60
  -5  -7   5   36.75    4.70
  -4  -7   5    0.64    0.99
  -3  -7   5    1.26    0.85
  -2  -7   5    1.06    0.81
  -1  -7   5    4.26    1.13
   0  -7   5   -0.36    0.64
   1  -7   5    2.77    1.66
   2  -7   5    0.99    1.35
   3  -7   5    0.70    1.09
   4  -7   5   -0.09    0.96
   5  -7   5   28.57    4.73
   6  -7   5    1.76    1.51
   7  -7   5    3.78    1.77
   8  -7   5    4.80    2.05
  -9  -6   5    0.43    1.08
  -8  -6   5    3.36    1.70
  -7  -6   5    2.01    1.36
  -6  -6   5   -0.99    0.95
  -5  -6   5    3.65    1.48
  -4  -6   5   -0.18    0.94
  -3  -6   5    0.28    0.70
  -2  -6   5    0.04    0.66
  -1  -6   5   24.39    2.73
   0  -6   5    6.23    1.32
   1  -6   5   23.98    4.05
   2  -6   5    0.02    1.01
   3  -6   5   -0.87    0.81
   4  -6   5   -1.03    0.88
   5  -6   5    4.27    1.67
   6  -6   5   -0.83    1.04
   7  -6   5   -0.70    1.17
   8  -6   5    1.69    1.42
   9  -6   5    2.44    1.58
  -9  -5   5    3.30    1.55
  -8  -5   5    0.27    1.06
  -7  -5   5    6.53    2.29
  -6  -5   5    8.44    2.30
  -5  -5   5    7.25    2.08
  -4  -5   5   -0.47    0.78
  -3  -5   5    7.29    1.43
  -2  -5   5   19.27    2.22
  -1  -5   5    0.76    0.68
   0  -5   5   -0.53    0.58
   1  -5   5   -0.04    0.93
   2  -5   5   17.80    3.34
   3  -5   5   11.91    2.68
   4  -5   5    0.07    1.01
   5  -5   5    6.46    2.12
   6  -5   5    5.78    1.99
   7  -5   5    8.62    2.56
   8  -5   5    1.22    1.19
   9  -5   5    2.37    1.68
  10  -5   5    7.90    3.81
 -10  -4   5    0.35    1.32
  -9  -4   5    2.43    1.59
  -8  -4   5    1.69    1.42
  -7  -4   5    0.06    1.29
  -6  -4   5    5.75    1.87
  -5  -4   5    2.52    1.49
  -4  -4   5   12.45    2.72
  -3  -4   5    1.07    0.78
  -2  -4   5    5.49    1.15
  -1  -4   5    2.65    0.96
   0  -4   5    1.39    0.83
   1  -4   5    4.84    1.20
   2  -4   5    3.50    1.56
   3  -4   5    0.10    0.84
   4  -4   5   14.79    3.06
   5  -4   5    0.10    0.97
   6  -4   5    1.11    1.24
   7  -4   5    2.05    1.36
   8  -4   5    1.88    1.32
   9  -4   5    4.69    2.05
  10  -4   5   -0.34    1.29
 -10  -3   5   11.97    2.87
  -9  -3   5    2.63    1.68
  -8  -3   5    7.21    2.12
  -7  -3   5   26.81    4.26
  -6  -3   5   -0.40    0.93
  -5  -3   5   15.02    2.97
  -4  -3   5    4.13    1.55
  -3  -3   5    0.50    0.65
  -2  -3   5   33.86    3.11
  -1  -3   5   37.90    3.55
   0  -3   5    0.25    0.57
   1  -3   5   40.78    3.67
   2  -3   5   25.72    4.17
   3  -3   5   -0.23    0.81
   4  -3   5    3.10    1.58
   5  -3   5   14.70    3.04
   6  -3   5    0.40    0.93
   7  -3   5   28.63    4.36
   8  -3   5   10.13    2.55
   9  -3   5    5.69    2.25
  10  -3   5    3.80    1.95
 -10  -2   5    0.52    1.56
  -9  -2   5   -1.12    1.25
  -8  -2   5    2.88    1.60
  -7  -2   5    6.86    2.17
  -6  -2   5   -0.13    0.99
  -5  -2   5    1.54    1.22
  -4  -2   5    1.47    1.13
  -3  -2   5    6.26    1.17
  -2  -2   5    7.16    1.23
  -1  -2   5   13.13    1.86
   0  -2   5    2.30    0.93
   1  -2   5   13.58    1.90
   2  -2   5    6.19    1.91
   3  -2   5    3.68    1.63
   4  -2   5    1.46    1.28
   5  -2   5    0.57    1.00
   6  -2   5   -0.13    0.96
   7  -2   5   12.23    2.80
   8  -2   5    1.23    1.26
   9  -2   5    0.55    1.45
  10  -2   5    1.86    1.39
 -10  -1   5   11.27    3.01
  -9  -1   5    0.06    1.42
  -8  -1   5    4.18    1.75
  -7  -1   5   -0.98    1.00
  -6  -1   5    2.12    1.34
  -5  -1   5   22.54    3.82
  -4  -1   5    4.89    1.74
  -3  -1   5   15.09    2.30
  -2  -1   5   -0.47    0.50
  -1  -1   5    0.52    0.61
   0  -1   5   -0.23    0.49
   1  -1   5   -0.24    0.75
   2  -1   5    1.04    0.98
   3  -1   5   11.85    2.60
   4  -1   5    3.79    1.47
   5  -1   5   22.70    3.81
   6  -1   5    0.84    1.21
   7  -1   5    0.15    0.99
   8  -1   5    9.85    2.39
   9  -1   5   -0.55    1.14
  10  -1   5    7.62    2.38
  11  -1   5    2.33    2.29
 -11   0   5   -0.14    2.70
 -10   0   5    3.08    1.82
  -9   0   5   -1.84    0.98
  -8   0   5   32.55    4.89
  -7   0   5    0.31    1.18
  -6   0   5    3.73    1.67
  -5   0   5    1.12    1.10
  -4   0   5   38.56    5.21
  -3   0   5    1.47    1.12
  -2   0   5   14.83    1.89
  -1   0   5   -0.16    0.53
   0   0   5    0.04    0.58
   1   0   5    0.14    0.89
   2   0   5   10.17    2.48
   3   0   5   -0.21    0.80
   4   0   5   29.22    4.79
   5   0   5    0.29    1.03
   6   0   5    7.94    2.14
   7   0   5   -0.57    1.03
   8   0   5   34.06    5.03
   9   0   5    0.88    1.46
  10   0   5    1.37    1.49
  11   0   5    0.67    1.47
 -11   1   5    3.24    2.31
 -10   1   5   13.30    3.37
  -9   1   5   -0.35    1.26
  -8   1   5    6.81    2.24
  -7   1   5    0.18    1.06
  -6   1   5    1.22    1.16
  -5   1   5   23.96    3.95
  -4   1   5    1.90    1.28
  -3   1   5   12.91    2.81
  -2   1   5    0.35    0.63
  -1   1   5   -0.52    0.50
   0   1   5    0.18    0.63
   1   1   5   -0.82    0.59
   2   1   5    0.34    0.87
   3   1   5   10.51    2.40
   4   1   5    1.42    1.20
   5   1   5   26.63    3.95
   6   1   5    3.31    1.47
   7   1   5   -0.37    1.16
   8   1   5    8.85    2.23
   9   1   5    0.32    1.13
  10   1   5    9.38    2.57
  11   1   5    1.52    2.42
 -11   2   5    3.65    2.14
 -10   2   5    2.00    1.70
  -9   2   5   -0.87    1.11
  -8   2   5    1.15    1.43
  -7   2   5   10.71    2.51
  -6   2   5    0.76    1.15
  -5   2   5    0.23    0.92
  -4   2   5    3.12    1.39
  -3   2   5    7.47    1.83
  -2   2   5    7.01    1.25
  -1   2   5   14.13    1.85
   0   2   5    0.57    0.61
   1   2   5   17.51    2.96
   2   2   5    4.48    1.62
   3   2   5    8.43    2.13
   4   2   5    3.53    1.41
   5   2   5    1.73    1.02
   6   2   5    1.65    1.22
   7   2   5    5.15    2.05
   8   2   5    3.89    1.74
   9   2   5   -0.08    1.18
  10   2   5    0.69    1.43
 -11   3   5    9.22    2.78
 -10   3   5    7.34    2.84
  -9   3   5    8.21    2.44
  -8   3   5    8.06    2.40
  -7   3   5   20.92    3.92
  -6   3   5    0.16    1.09
  -5   3   5    9.64    2.39
  -4   3   5    2.83    1.50
  -3   3   5    1.60    1.16
  -2   3   5   31.83    2.98
  -1   3   5   43.88    3.55
   0   3   5    0.19    0.56
   1   3   5   40.29    4.90
   2   3   5   36.50    4.52
   3   3   5    0.63    0.87
   4   3   5    3.70    1.49
   5   3   5   12.87    2.77
   6   3   5   -0.37    0.82
   7   3   5   24.20    3.97
   8   3   5    7.75    2.36
   9   3   5    4.70    1.86
  10   3   5    5.10    2.07
 -11   4   5   -0.19    1.69
 -10   4   5   -1.17    1.44
  -9   4   5    3.44    1.95
  -8   4   5   -1.61    1.00
  -7   4   5    2.56    1.42
  -6   4   5    3.37    1.72
  -5   4   5    0.50    1.14
  -4   4   5   14.01    2.93
  -3   4   5    1.23    1.04
  -2   4   5    3.55    1.41
  -1   4   5    4.73    1.08
   0   4   5    1.21    0.88
   1   4   5    6.65    1.84
   2   4   5    5.72    1.75
   3   4   5    0.01    0.79
   4   4   5   24.10    3.57
   5   4   5    4.10    1.59
   6   4   5    1.52    1.26
   7   4   5    4.12    1.63
   8   4   5    0.88    1.22
   9   4   5    0.90    1.27
  10   4   5    2.02    1.61
 -10   5   5    7.16    2.49
  -9   5   5    2.09    1.69
  -8   5   5    1.03    1.36
  -7   5   5    8.87    2.46
  -6   5   5    8.13    2.31
  -5   5   5    1.40    1.16
  -4   5   5    0.64    1.03
  -3   5   5   16.08    2.84
  -2   5   5   13.59    2.74
  -1   5   5    0.17    0.65
   0   5   5    0.65    1.02
   1   5   5   -0.62    0.91
   2   5   5   23.50    3.45
   3   5   5   11.65    2.47
   4   5   5   -0.69    0.88
   5   5   5    2.73    1.56
   6   5   5    9.50    2.43
   7   5   5   12.50    2.77
   8   5   5   -0.38    1.10
   9   5   5    3.00    1.70
  -5   6   5    2.04    1.43
  -4   6   5    1.34    1.20
  -3   6   5    0.24    0.92
  -2   6   5    0.41    1.06
  -1   6   5   27.29    3.78
   0   6   5    6.80    1.83
   1   6   5   29.95    4.13
   2   6   5    0.38    0.97
   3   6   5   -0.39    0.85
   4   6   5   -0.28    0.88
   5   6   5    6.38    1.97
   6   6   5    0.84    1.08
   7   6   5    3.40    1.69
   8   6   5    1.29    1.43
   9   6   5   -0.53    1.03
  -8   7   5    0.41    1.25
  -7   7   5    1.92    1.45
  -6   7   5    0.19    1.26
  -5   7   5   25.23    3.93
  -4   7   5   -0.25    1.03
  -1   7   5    5.64    1.71
   0   7   5   -0.04    0.89
   1   7   5    4.96    1.54
   2   7   5    0.74    0.91
   3   7   5    1.61    1.25
   4   7   5   -0.56    0.80
   5   7   5   25.43    4.13
   6   7   5    1.95    1.45
   7   7   5    0.48    1.28
   8   7   5    0.42    1.30
  -8   8   5    1.72    1.40
  -7   8   5    2.26    1.36
  -6   8   5    0.81    1.24
  -5   8   5    4.67    1.75
  -4   8   5    7.66    1.92
   1   8   5    2.49    1.44
   2   8   5    2.49    1.57
   3   8   5    1.74    1.47
   4   8   5    8.28    2.25
   5   8   5    4.29    1.85
   6   8   5   -0.18    1.24
   7   8   5    0.54    1.34
  -7   9   5    1.80    1.61
  -6   9   5    5.53    1.97
  -5   9   5   18.75    3.29
   1   9   5    1.61    1.65
   2   9   5   27.26    4.72
   3   9   5    1.75    1.54
   4   9   5    2.25    1.50
   5   9   5   23.64    3.92
   6   9   5    7.20    2.36
   7   9   5    2.64    1.96
  -6  10   5    5.55    2.18
  -5  10   5   -0.18    1.36
  -4  10   5    5.83    2.45
  -3  10   5    1.55    1.98
  -2  10   5   -1.90    1.42
  -1  10   5    5.23    2.15
   0  10   5    3.28    1.76
   1  10   5    3.09    1.70
   2  10   5    0.53    1.36
   3  10   5    3.70    1.86
   4  10   5   12.15    2.77
   5  10   5    2.97    1.67
   6  10   5    6.55    2.40
  -5  11   5    0.35    1.57
  -4  11   5    2.56    1.91
  -3  11   5    1.68    1.72
  -1  11   5    6.62    2.22
   0  11   5    1.13    1.41
   1  11   5   14.37    3.13
   2  11   5    5.37    2.01
   3  11   5    1.10    1.48
   4  11   5    2.30    1.66
   5  11   5    4.09    1.88
  -1  12   5   -0.66    1.33
   0  12   5    0.86    1.57
   1  12   5    0.62    1.52
   2  12   5    0.25    1.39
  -1  -6   6   -0.52    1.55
   0  -6   6    3.53    2.00
   1  -6   6   -0.11    1.63
  -1  -5   6   -0.04    1.01
   0  -5   6   -0.98    1.35
   1  -5   6    1.04    1.64
   2  -5   6    8.37    2.52
  -2  -4   6    2.30    1.66
  -1  -4   6    1.61    1.10
   0  -4   6    2.98    1.92
   1  -4   6   -0.20    1.34
   2  -4   6    5.87    2.34
   3  -4   6   -1.10    1.17
  -3  -3   6    3.10    1.63
  -2  -3   6    0.64    1.37
  -1  -3   6    6.18    1.49
   0  -3   6    1.25    1.24
   1  -3   6    4.59    2.00
   2  -3   6    0.38    1.40
   3  -3   6    6.36    2.35
   4  -3   6    1.61    1.38
  -4  -2   6   12.39    2.94
  -3  -2   6    5.45    2.03
  -2  -2   6   -0.05    1.23
  -1  -2   6   -0.70    0.82
   0  -2   6    0.24    1.08
   1  -2   6   -0.10    0.99
   2  -2   6    0.86    1.48
   3  -2   6    3.38    1.89
   4  -2   6   12.11    3.24
  -4  -1   6    8.91    2.49
  -3  -1   6    3.17    1.66
  -2  -1   6    0.93    1.28
  -1  -1   6    0.45    1.00
   0  -1   6    0.17    1.28
   1  -1   6    0.26    1.27
   2  -1   6    0.70    1.53
   3  -1   6    5.25    2.04
   4  -1   6   14.12    3.12
   5  -1   6    3.68    2.67
  -5   0   6   -1.84    1.36
  -4   0   6    0.31    1.26
  -3   0   6    0.80    1.30
  -2   0   6    0.28    1.17
  -1   0   6   -0.32    1.14
   0   0   6  131.91   11.17
   1   0   6   -0.19    0.98
   2   0   6    0.82    1.09
   3   0   6    1.86    1.43
   4   0   6    0.31    1.44
   5   0   6   -0.07    1.39
  -5   1   6    1.39    1.43
  -4   1   6   11.99    2.91
  -3   1   6    6.49    2.14
  -2   1   6    0.61    1.33
  -1   1   6    0.19    1.24
   0   1   6    1.08    1.35
   1   1   6   -0.27    1.17
   2   1   6    2.80    1.59
   3   1   6    4.79    1.87
   4   1   6    9.72    2.59
   5   1   6    1.20    2.08
  -5   2   6    3.84    1.85
  -4   2   6   14.61    3.26
  -3   2   6    3.51    1.72
  -2   2   6   -0.05    1.24
   0   2   6    0.26    1.15
   1   2   6   -1.07    1.16
   2   2   6    1.93    1.35
   3   2   6    5.40    2.03
   4   2   6   16.23    3.28
  -5   3   6    0.57    1.40
  -4   3   6    0.14    1.39
  -3   3   6    5.48    1.98
  -2   3   6    0.48    1.40
   0   3   6    0.16    1.29
   1   3   6    7.17    2.20
   2   3   6   -0.64    1.21
   3   3   6    4.32    1.91
   4   3   6   -0.14    1.30
  -5   4   6    0.06    1.44
  -4   4   6    2.96    1.86
  -3   4   6   -0.96    1.17
  -2   4   6    9.50    2.60
   1   4   6   -0.02    1.32
   2   4   6    9.33    2.40
   3   4   6   -0.31    1.28
   4   4   6    3.21    2.09
  -4   5   6   -1.24    1.41
  -3   5   6    0.56    1.59
   1   5   6    2.09    1.53
   2   5   6    3.30    1.81
   3   5   6   -1.06    1.35
   1   6   6    1.45    1.50
   2   6   6    6.67    2.09
   0   0   0    0.00    0.00
;
_shelx_hkl_checksum              49394
loop_
_space_group_symop_operation_xyz
'x, y, z'
'-x, -y, z'
'-x+1/2, y+1/2, -z'
'x+1/2, -y+1/2, -z'
'-x, -y, -z'
'x, y, -z'
'x-1/2, -y-1/2, z'
'-x-1/2, y-1/2, z'
loop_
_atom_site_label
_atom_site_type_symbol
_atom_site_fract_x
_atom_site_fract_y
_atom_site_fract_z
_atom_site_U_iso_or_equiv
_atom_site_adp_type
_atom_site_occupancy
_atom_site_site_symmetry_order
_atom_site_calc_flag
_atom_site_refinement_flags_posn
_atom_site_refinement_flags_adp
_atom_site_refinement_flags_occupancy
Ba Ba 0.0000 0.5000 0.5000 0.0226(2) Uani 1 4 d S T P
Nd Nd 0.11659(5) 0.14121(4) 0.5000 0.01612(14) Uani 1 2 d S T P
In In 0.28615(6) 0.37645(6) 0.0000 0.01717(17) Uani 1 2 d S T P
Se1 Se 0.36180(9) 0.28109(8) 0.5000 0.0180(2) Uani 1 2 d S T P
Se2 Se 0.08085(9) 0.30288(8) 0.0000 0.0155(2) Uani 1 2 d S T P
Se3 Se 0.28535(9) 0.06494(8) 0.0000 0.0161(2) Uani 1 2 d S T P
Se4 Se 0.0000 0.0000 0.0000 0.0164(3) Uani 1 4 d S T P
loop_
_atom_site_aniso_label
_atom_site_aniso_U_11
_atom_site_aniso_U_22
_atom_site_aniso_U_33
_atom_site_aniso_U_23
_atom_site_aniso_U_13
_atom_site_aniso_U_12
Ba 0.0225(5) 0.0308(5) 0.0145(4) 0.000 0.000 0.0074(4)
Nd 0.0191(3) 0.0175(3) 0.0118(2) 0.000 0.000 0.0014(2)
In 0.0199(4) 0.0176(4) 0.0140(3) 0.000 0.000 0.0027(3)
Se1 0.0223(5) 0.0190(5) 0.0127(4) 0.000 0.000 0.0046(4)
Se2 0.0154(5) 0.0156(5) 0.0156(5) 0.000 0.000 -0.0001(4)
Se3 0.0155(5) 0.0152(5) 0.0177(5) 0.000 0.000 -0.0004(4)
Se4 0.0157(7) 0.0175(7) 0.0161(6) 0.000 0.000 -0.0015(5)
loop_
_atom_type_symbol
_atom_type_description
_atom_type_scat_dispersion_real
_atom_type_scat_dispersion_imag
_atom_type_scat_source
Se Se -0.0929 2.2259 'International Tables Vol C Tables 4.2.6.8 and 6.1.1.4'
In In -0.7276 1.3100 'International Tables Vol C Tables 4.2.6.8 and 6.1.1.4'
Ba Ba -0.3244 2.2819 'International Tables Vol C Tables 4.2.6.8 and 6.1.1.4'
Nd Nd -0.1943 3.0179 'International Tables Vol C Tables 4.2.6.8 and 6.1.1.4'
loop_
_geom_angle_atom_site_label_1
_geom_angle_atom_site_label_2
_geom_angle_atom_site_label_3
_geom_angle
_geom_angle_site_symmetry_1
_geom_angle_site_symmetry_3
Se2 Ba Se2 74.57(2) 5_566 5_565
Se2 Ba Se2 105.43(2) 5_566 1_556
Se2 Ba Se2 180.0 5_565 1_556
Se2 Ba Se2 180.0 5_566 .
Se2 Ba Se2 105.43(2) 5_565 .
Se2 Ba Se2 74.57(2) 1_556 .
Se2 Ba Se3 109.12(2) 5_566 7_565
Se2 Ba Se3 66.23(2) 5_565 7_565
Se2 Ba Se3 113.77(2) 1_556 7_565
Se2 Ba Se3 70.88(2) . 7_565
Se2 Ba Se3 70.88(2) 5_566 3_556
Se2 Ba Se3 113.77(2) 5_565 3_556
Se2 Ba Se3 66.23(2) 1_556 3_556
Se2 Ba Se3 109.12(2) . 3_556
Se3 Ba Se3 180.0 7_565 3_556
Se2 Ba Se3 66.23(2) 5_566 7_566
Se2 Ba Se3 109.12(2) 5_565 7_566
Se2 Ba Se3 70.88(2) 1_556 7_566
Se2 Ba Se3 113.77(2) . 7_566
Se3 Ba Se3 74.19(2) 7_565 7_566
Se3 Ba Se3 105.81(2) 3_556 7_566
Se2 Ba Se3 113.77(2) 5_566 3
Se2 Ba Se3 70.88(2) 5_565 3
Se2 Ba Se3 109.12(2) 1_556 3
Se2 Ba Se3 66.23(2) . 3
Se3 Ba Se3 105.81(2) 7_565 3
Se3 Ba Se3 74.19(2) 3_556 3
Se3 Ba Se3 180.0 7_566 3
Se2 Ba Ba 52.717(11) 5_566 1_556
Se2 Ba Ba 127.283(11) 5_565 1_556
Se2 Ba Ba 52.717(11) 1_556 1_556
Se2 Ba Ba 127.283(11) . 1_556
Se3 Ba Ba 127.093(11) 7_565 1_556
Se3 Ba Ba 52.907(11) 3_556 1_556
Se3 Ba Ba 52.907(11) 7_566 1_556
Se3 Ba Ba 127.093(11) 3 1_556
Se2 Ba Ba 127.283(11) 5_566 1_554
Se2 Ba Ba 52.717(11) 5_565 1_554
Se2 Ba Ba 127.283(11) 1_556 1_554
Se2 Ba Ba 52.717(11) . 1_554
Se3 Ba Ba 52.907(11) 7_565 1_554
Se3 Ba Ba 127.093(11) 3_556 1_554
Se3 Ba Ba 127.093(11) 7_566 1_554
Se3 Ba Ba 52.907(11) 3 1_554
Ba Ba Ba 180.0 1_556 1_554
Se2 Nd Se2 88.51(3) . 1_556
Se2 Nd Se3 81.45(2) . .
Se2 Nd Se3 142.31(3) 1_556 .
Se2 Nd Se3 142.31(3) . 1_556
Se2 Nd Se3 81.45(2) 1_556 1_556
Se3 Nd Se3 84.66(3) . 1_556
Se2 Nd Se4 82.980(19) . .
Se2 Nd Se4 144.17(3) 1_556 .
Se3 Nd Se4 70.588(19) . .
Se3 Nd Se4 124.61(3) 1_556 .
Se2 Nd Se4 144.17(3) . 1_556
Se2 Nd Se4 82.980(19) 1_556 1_556
Se3 Nd Se4 124.61(3) . 1_556
Se3 Nd Se4 70.589(19) 1_556 1_556
Se4 Nd Se4 83.897(16) . 1_556
Se2 Nd Se1 69.22(3) . 7_565
Se2 Nd Se1 69.22(3) 1_556 7_565
Se3 Nd Se1 137.109(16) . 7_565
Se3 Nd Se1 137.110(16) 1_556 7_565
Se4 Nd Se1 75.229(19) . 7_565
Se4 Nd Se1 75.229(19) 1_556 7_565
Se2 Nd Se1 76.28(3) . .
Se2 Nd Se1 76.28(3) 1_556 .
Se3 Nd Se1 66.06(3) . .
Se3 Nd Se1 66.06(3) 1_556 .
Se4 Nd Se1 134.005(12) . .
Se4 Nd Se1 134.005(12) 1_556 .
Se1 Nd Se1 130.968(19) 7_565 .
Se3 In Se1 124.65(3) 3 1_554
Se3 In Se1 124.65(3) 3 .
Se1 In Se1 106.97(5) 1_554 .
Se3 In Se2 91.07(4) 3 .
Se1 In Se2 99.48(3) 1_554 .
Se1 In Se2 99.48(3) . .
Se3 In Se4 78.25(3) 3 3
Se1 In Se4 86.80(3) 1_554 3
Se1 In Se4 86.80(3) . 3
Se2 In Se4 169.32(4) . 3
In Se1 In 106.97(5) 1_556 .
In Se1 Nd 101.14(3) 1_556 7_665
In Se1 Nd 101.14(3) . 7_665
In Se1 Nd 86.61(3) 1_556 .
In Se1 Nd 86.61(3) . .
Nd Se1 Nd 166.76(4) 7_665 .
In Se2 Nd 96.42(3) . .
In Se2 Nd 96.42(3) . 1_554
Nd Se2 Nd 88.51(3) . 1_554
In Se2 Ba 90.31(3) . .
Nd Se2 Ba 98.019(11) . .
Nd Se2 Ba 170.06(3) 1_554 .
In Se2 Ba 90.31(3) . 1_554
Nd Se2 Ba 170.06(3) . 1_554
Nd Se2 Ba 98.020(11) 1_554 1_554
Ba Se2 Ba 74.57(2) . 1_554
In Se3 Nd 94.33(3) 3_545 1_554
In Se3 Nd 94.33(3) 3_545 .
Nd Se3 Nd 84.66(3) 1_554 .
In Se3 Ba 91.55(3) 3_545 3_546
Nd Se3 Ba 172.04(3) 1_554 3_546
Nd Se3 Ba 100.259(11) . 3_546
In Se3 Ba 91.55(3) 3_545 3_545
Nd Se3 Ba 100.259(11) 1_554 3_545
Nd Se3 Ba 172.04(3) . 3_545
Ba Se3 Ba 74.18(2) 3_546 3_545
In Se4 In 180.00(3) 7_565 3_545
In Se4 Nd 85.181(16) 7_565 5
In Se4 Nd 94.819(16) 3_545 5
In Se4 Nd 94.819(16) 7_565 1_554
In Se4 Nd 85.181(16) 3_545 1_554
Nd Se4 Nd 96.103(16) 5 1_554
In Se4 Nd 85.181(16) 7_565 5_556
In Se4 Nd 94.819(16) 3_545 5_556
Nd Se4 Nd 83.897(16) 5 5_556
Nd Se4 Nd 180.00(3) 1_554 5_556
In Se4 Nd 94.818(16) 7_565 .
In Se4 Nd 85.182(16) 3_545 .
Nd Se4 Nd 180.0 5 .
Nd Se4 Nd 83.897(16) 1_554 .
Nd Se4 Nd 96.103(16) 5_556 .
loop_
_geom_bond_atom_site_label_1
_geom_bond_atom_site_label_2
_geom_bond_distance
_geom_bond_site_symmetry_2
Ba Se2 3.4142(9) 5_566
Ba Se2 3.4142(9) 5_565
Ba Se2 3.4142(9) 1_556
Ba Se2 3.4142(9) .
Ba Se3 3.4292(9) 7_565
Ba Se3 3.4292(9) 3_556
Ba Se3 3.4292(9) 7_566
Ba Se3 3.4292(9) 3
Ba Ba 4.1363(4) 1_556
Ba Ba 4.1363(4) 1_554
Nd Se2 2.9635(9) .
Nd Se2 2.9635(9) 1_556
Nd Se3 3.0712(9) .
Nd Se3 3.0712(9) 1_556
Nd Se4 3.0939(5) .
Nd Se4 3.0939(5) 1_556
Nd Se1 3.2493(13) 7_565
Nd Se1 3.4767(13) .
In Se3 2.5731(13) 3
In Se1 2.5732(8) 1_554
In Se1 2.5732(8) .
In Se2 2.6648(13) .
In Se4 3.0424(8) 3
Se1 In 2.5732(8) 1_556
Se1 Nd 3.2493(13) 7_665
Se2 Nd 2.9635(9) 1_554
Se2 Ba 3.4142(9) 1_554
Se3 In 2.5731(13) 3_545
Se3 Nd 3.0712(9) 1_554
Se3 Ba 3.4292(9) 3_546
Se3 Ba 3.4292(9) 3_545
Se4 In 3.0425(8) 7_565
Se4 In 3.0425(8) 3_545
Se4 Nd 3.0939(5) 5
Se4 Nd 3.0939(5) 1_554
Se4 Nd 3.0939(5) 5_556
