#------------------------------------------------------------------------------
#$Date: 2017-01-09 05:31:29 +0200 (Mon, 09 Jan 2017) $
#$Revision: 190176 $
#$URL: file:///home/coder/svn-repositories/cod/cif/7/04/08/7040838.cif $
#------------------------------------------------------------------------------
#
# This file is available in the Crystallography Open Database (COD),
# http://www.crystallography.net/
#
# All data on this site have been placed in the public domain by the
# contributors.
#
data_7040838
loop_
_publ_author_name
'Farinella, F.'
'Maini, L.'
'Mazzeo, P. P.'
'Fattori, V.'
'Monti, F.'
'Braga, D.'
_publ_section_title
;
 White luminescence achieved by a multiple thermochromic emission in a
 hybrid organic-inorganic compound based on 3-picolylamine and copper(i)
 iodide.
;
_journal_issue                   44
_journal_name_full
'Dalton transactions (Cambridge, England : 2003)'
_journal_page_first              17939
_journal_page_last               17947
_journal_paper_doi               10.1039/c6dt03049a
_journal_volume                  45
_journal_year                    2016
_chemical_formula_moiety         'Cu I C6 H8 N2'
_chemical_formula_sum            'C6 H8 Cu I N2'
_chemical_formula_weight         298.59
_space_group_IT_number           14
_symmetry_cell_setting           monoclinic
_symmetry_space_group_name_Hall  '-P 2ybc'
_symmetry_space_group_name_H-M   'P 1 21/c 1'
_audit_update_record
;
2016-08-01 deposited with the CCDC.
2016-10-10 downloaded from the CCDC.
;
_cell_angle_alpha                90
_cell_angle_beta                 98.5544(11)
_cell_angle_gamma                90
_cell_formula_units_Z            4
_cell_length_a                   8.3526(2)
_cell_length_b                   13.8271(3)
_cell_length_c                   7.27148(18)
_cell_measurement_temperature    298
_cell_volume                     830.46(3)
_diffrn_ambient_temperature      298
_diffrn_measurement_device_type  'Debye Scherrer'
_diffrn_radiation_probe          x-ray
_diffrn_radiation_type           synchrotron
_diffrn_radiation_wavelength     0.775311
_exptl_crystal_colour            white
_exptl_crystal_density_diffrn    2.388
_exptl_crystal_description       powder
_exptl_crystal_preparation       ', Luminescent'
_pd_char_colour                  white
_pd_meas_number_of_points        13057
_pd_proc_2theta_range_inc        0.0036
_pd_proc_2theta_range_max        50.00
_pd_proc_2theta_range_min        3.00
_pd_proc_ls_prof_R_factor        0.0543
_pd_proc_ls_prof_wR_expected     0.0038
_pd_proc_ls_prof_wR_factor       0.0673
_pd_spec_mounting                'glass capillary'
_pd_spec_mount_mode              transmission
_refine_ls_goodness_of_fit_all   17.54328
_refine_ls_number_parameters     52
_refine_ls_R_I_factor            0.0399
_refine_ls_shift/su_max          0
_cod_data_source_file            c6dt03049a2.cif
_cod_data_source_block           Y_finale
_cod_depositor_comments
;
The following automatic conversions were performed:

'_symmetry_cell_setting' value 'Monoclinic' changed to 'monoclinic'
according to
/usr/data/users/saulius/crontab/automatic-downloads/rss-feeds/RSC/lib/dictionaries/cif_core.dic
dictionary named 'cif_core.dic' version 2.4.2 from 2011-04-26.

Automatic conversion script
Id: cif_fix_values 4268 2015-11-12 08:31:59Z antanas 

 Adding full bibliography for 7040837--7040839.cif.
;
_cod_original_cell_volume        830.45(4)
_cod_original_sg_symbol_H-M      P21/c
_cod_original_formula_sum        'Cu I C6 H8 N2'
_cod_database_code               7040838
loop_
_symmetry_equiv_pos_as_xyz
'x, y, z '
'-x, y+1/2, -z+1/2 '
'x, -y+1/2, z+1/2 '
'-x, -y, -z '
loop_
_atom_site_label
_atom_site_type_symbol
_atom_site_symmetry_multiplicity
_atom_site_fract_x
_atom_site_fract_y
_atom_site_fract_z
_atom_site_occupancy
_atom_site_B_iso_or_equiv
I1 I 4 0.02596(12) 0.35879(7) 0.13464(13) 1 2.86(2)
Cu1 Cu 4 0.0415(2) 0.54821(15) 0.1926(2) 1 2.86(2)
N1 N 4 0.2704(7) 0.5910(10) 0.3335(11) 1 3.29(3)
N2 N 4 0.8485(6) 0.5961(11) 0.3433(11) 1 3.29(3)
C1 C 4 0.3960(7) 0.5655(6) 0.2503(8) 1 3.29(3)
C2 C 4 0.5491(6) 0.5971(2) 0.3210(5) 1 3.29(3)
C3 C 4 0.5674(8) 0.6535(3) 0.4802(6) 1 3.29(3)
C4 C 4 0.4343(10) 0.6776(5) 0.5626(8) 1 3.29(3)
C5 C 4 0.2841(8) 0.6450(9) 0.4862(11) 1 3.29(3)
C6 C 4 0.6925(7) 0.5675(5) 0.2321(7) 1 3.29(3)
H1 H 4 0.3775(9) 0.5198(8) 0.1269(9) 1 4.71(4)
H2 H 4 0.8762(10) 0.6671(12) 0.3636(14) 1 4.71(4)
H3 H 4 0.6872(9) 0.6788(7) 0.5405(9) 1 4.71(4)
H4 H 4 0.4485(13) 0.7221(6) 0.6875(10) 1 4.71(4)
H5 H 4 0.1778(9) 0.6632(12) 0.5495(14) 1 4.71(4)
H6 H 4 0.6831(9) 0.6016(5) 0.0958(8) 1 4.71(4)
H22 H 4 0.8408(8) 0.5643(12) 0.4675(10) 1 4.71(4)
H66 H 4 0.6908(11) 0.4892(5) 0.2159(9) 1 4.71(4)
loop_
_pd_proc_point_id
_pd_meas_2theta_scan
_pd_proc_intensity_total
_pd_calc_intensity_total
_pd_proc_ls_weight
1 2.99880 313.82804 314.93407 0.57299
2 3.00240 313.78221 316.81970 0.56855
3 3.00600 313.73685 316.05595 0.57053
4 3.00960 313.69194 316.93131 0.56916
5 3.01320 313.64748 316.73797 0.56949
6 3.01680 313.60346 315.11328 0.57379
7 3.02040 313.55987 313.50018 0.57617
8 3.02400 313.51669 314.91888 0.57451
9 3.02760 313.47393 313.15990 0.57585
10 3.03120 313.43157 315.72863 0.57277
11 3.03480 313.38961 315.37348 0.57245
12 3.03840 313.34803 315.26883 0.57319
13 3.04200 313.30683 316.00492 0.56889
14 3.04560 313.26599 315.66533 0.57368
15 3.04920 313.22552 315.46519 0.57142
16 3.05280 313.18540 315.34984 0.57366
17 3.05640 313.14562 313.69053 0.57471
18 3.06000 313.10617 313.96502 0.57647
19 3.06360 313.06705 313.44578 0.57523
20 3.06720 313.02825 315.20793 0.57460
21 3.07080 312.98975 312.08898 0.57834
22 3.07440 312.95156 313.60846 0.57746
23 3.07800 312.91366 313.34119 0.57574
24 3.08160 312.87605 314.08128 0.57440
25 3.08520 312.83872 315.12803 0.57261
26 3.08880 312.80165 314.49614 0.57410
27 3.09240 312.76485 313.61671 0.57734
28 3.09600 312.72830 313.55824 0.57624
29 3.09960 312.69199 313.85409 0.57523
30 3.10320 312.65593 312.61999 0.57719
31 3.10680 312.62009 312.60964 0.57944
32 3.11040 312.58448 313.59403 0.57621
33 3.11400 312.54908 314.08450 0.57558
34 3.11760 312.51389 313.14148 0.57578
35 3.12120 312.47890 313.25468 0.57771
36 3.12480 312.44411 312.08772 0.57910
37 3.12840 312.40950 310.50425 0.58335
38 3.13200 312.37506 309.94498 0.58212
39 3.13560 312.34080 314.66570 0.57512
40 3.13920 312.30670 315.66547 0.57180
41 3.14280 312.27276 313.14164 0.57753
42 3.14640 312.23897 312.21368 0.57921
43 3.15000 312.20532 313.08208 0.57872
44 3.15360 312.17181 313.11310 0.57704
45 3.15720 312.13843 313.77247 0.57629
46 3.16080 312.10517 311.39170 0.57884
47 3.16440 312.07202 312.73682 0.57829
48 3.16800 312.03898 313.38742 0.57600
49 3.17160 312.00604 311.66333 0.57935
50 3.17520 311.97320 314.72891 0.57480
51 3.17880 311.94045 313.74128 0.57519
52 3.18240 311.90777 313.45914 0.57868
53 3.18600 311.87518 313.35058 0.57610
54 3.18960 311.84265 311.33297 0.57746
55 3.19320 311.81018 310.18953 0.58197
56 3.19680 311.77777 311.10128 0.58162
57 3.20040 311.74541 310.98609 0.57981
58 3.20400 311.71309 310.95131 0.58204
59 3.20760 311.68082 312.71016 0.57704
60 3.21120 311.64857 312.58439 0.57557
61 3.21480 311.61634 312.09701 0.57614
62 3.21840 311.58414 314.34888 0.57642
63 3.22200 311.55195 311.08504 0.57742
64 3.22560 311.51977 309.50158 0.58334
65 3.22920 311.48759 310.82307 0.57870
66 3.23280 311.45540 311.34723 0.58129
67 3.23640 311.42320 311.28281 0.58083
68 3.24000 311.39099 311.67353 0.57823
69 3.24360 311.35876 311.46301 0.57800
70 3.24720 311.32650 310.48258 0.58243
71 3.25080 311.29421 312.42087 0.57797
72 3.25440 311.26188 312.27357 0.57849
73 3.25800 311.22950 312.33498 0.57874
74 3.26160 311.19708 310.96301 0.58151
75 3.26520 311.16460 312.12205 0.57986
76 3.26880 311.13206 312.71363 0.57671
77 3.27240 311.09946 311.40127 0.57932
78 3.27600 311.06679 310.09224 0.58300
79 3.27960 311.03405 311.86936 0.58096
80 3.28320 311.00122 312.55710 0.57784
81 3.28680 310.96831 312.19668 0.57769
82 3.29040 310.93531 311.40214 0.57804
83 3.29400 310.90221 311.01628 0.58116
84 3.29760 310.86902 310.74152 0.57808
85 3.30120 310.83572 310.89859 0.58084
86 3.30480 310.80231 311.40126 0.57805
87 3.30840 310.76879 309.49825 0.58266
88 3.31200 310.73514 309.22089 0.58227
89 3.31560 310.70138 310.98047 0.58088
90 3.31920 310.66749 309.72115 0.58185
91 3.32280 310.63346 310.54050 0.58212
92 3.32640 310.59930 311.70004 0.57790
93 3.33000 310.56500 311.13738 0.57855
94 3.33360 310.53055 311.43258 0.57907
95 3.33720 310.49595 309.83204 0.58162
96 3.34080 310.46120 310.31787 0.58068
97 3.34440 310.42629 310.13123 0.58122
98 3.34800 310.39122 309.12060 0.58382
99 3.35160 310.35598 309.99496 0.58095
100 3.35520 310.32057 309.80217 0.58201
101 3.35880 310.28499 311.21392 0.57902
102 3.36240 310.24923 308.43421 0.58482
103 3.36600 310.21328 309.10952 0.58244
104 3.36960 310.17715 309.85025 0.58381
105 3.37320 310.14083 308.88935 0.58344
106 3.37680 310.10432 309.14677 0.58407
107 3.38040 310.06761 308.78431 0.58210
108 3.38400 310.03070 307.29215 0.58638
109 3.38760 309.99358 307.06518 0.58689
110 3.39120 309.95626 308.47872 0.58499
111 3.39480 309.91873 309.45165 0.58272
112 3.39840 309.88098 308.11614 0.58817
113 3.40200 309.84301 307.63353 0.58698
114 3.40560 309.80482 308.48483 0.58696
115 3.40920 309.76640 308.21121 0.58590
116 3.41280 309.72776 308.76527 0.58580
117 3.41640 309.68889 307.36445 0.58857
118 3.42000 309.64978 309.63316 0.58239
119 3.42360 309.61043 307.60491 0.58728
120 3.42720 309.57085 307.93480 0.58686
121 3.43080 309.53101 308.63128 0.58467
122 3.43440 309.49094 308.12638 0.58663
123 3.43800 309.45061 309.44973 0.58478
124 3.44160 309.41003 310.15978 0.58119
125 3.44520 309.36920 307.69317 0.58895
126 3.44880 309.32810 306.20392 0.59104
127 3.45240 309.28675 308.13762 0.58771
128 3.45600 309.24513 307.43935 0.58706
129 3.45960 309.20325 306.09857 0.59160
130 3.46320 309.16110 306.85792 0.58899
131 3.46680 309.11867 307.61730 0.58712
132 3.47040 309.07597 306.01668 0.58809
133 3.47400 309.03300 306.55614 0.59027
134 3.47760 308.98975 307.50501 0.58813
135 3.48120 308.94622 306.23119 0.59156
136 3.48480 308.90240 306.31540 0.59009
137 3.48840 308.85830 305.86110 0.58977
138 3.49200 308.81391 306.46954 0.58757
139 3.49560 308.76923 307.38523 0.58833
140 3.49920 308.72425 306.46320 0.59457
141 3.50280 308.67899 307.25862 0.59238
142 3.50640 308.63342 305.00244 0.59497
143 3.51000 308.58756 306.25252 0.58986
144 3.51360 308.54140 306.54289 0.58843
145 3.51720 308.49494 305.70753 0.59222
146 3.52080 308.44817 305.36890 0.59003
147 3.52440 308.40109 306.06675 0.58907
148 3.52800 308.35371 305.93865 0.59089
149 3.53160 308.30602 304.97117 0.59166
150 3.53520 308.25802 306.99278 0.58995
151 3.53880 308.20970 307.64150 0.58602
152 3.54240 308.16107 308.62356 0.58521
153 3.54600 308.11212 306.33140 0.58915
154 3.54960 308.06286 306.96642 0.59077
155 3.55320 308.01327 306.71887 0.58803
156 3.55680 307.96337 307.54632 0.58938
157 3.56040 307.91314 307.93106 0.58525
158 3.56400 307.86259 306.86527 0.59007
159 3.56760 307.81171 304.99647 0.59172
160 3.57120 307.76051 306.28269 0.58978
161 3.57480 307.70898 306.13768 0.58961
162 3.57840 307.65712 305.74940 0.59224
163 3.58200 307.60494 304.92314 0.59306
164 3.58560 307.55242 306.00080 0.59253
165 3.58920 307.50014 307.33456 0.58756
166 3.59280 307.45747 306.60594 0.58945
167 3.59640 307.43214 306.33746 0.59045
168 3.60000 307.43146 305.67378 0.59054
169 3.60360 307.46979 306.31897 0.58952
170 3.60720 307.58481 306.76322 0.58872
171 3.61080 308.00881 305.03048 0.59258
172 3.61440 308.05716 305.65891 0.58898
173 3.61800 308.00553 305.36665 0.59457
174 3.62160 307.95358 304.33912 0.59274
175 3.62520 307.90131 305.07534 0.59333
176 3.62880 307.84873 304.44882 0.59155
177 3.63240 307.79583 306.78836 0.58909
178 3.63600 307.74261 304.07499 0.59338
179 3.63960 307.68908 302.99451 0.59668
180 3.64320 307.63522 304.12101 0.59247
181 3.64680 307.58105 306.92912 0.58899
182 3.65040 307.52656 305.38772 0.59049
183 3.65400 307.47175 305.79491 0.59130
184 3.65760 307.41662 303.67887 0.59317
185 3.66120 307.36117 303.72225 0.59407
186 3.66480 307.30540 303.82628 0.59393
187 3.66840 307.24931 301.86874 0.59855
188 3.67200 307.19290 305.42050 0.59049
189 3.67560 307.13617 304.71823 0.59222
190 3.67920 307.07912 306.46741 0.58779
191 3.68280 307.02176 305.04752 0.59051
192 3.68640 306.96407 303.83787 0.59333
193 3.69000 306.90606 303.86364 0.59320
194 3.69360 306.84773 305.75660 0.59008
195 3.69720 306.78909 304.24113 0.59406
196 3.70080 306.73012 303.19679 0.59685
197 3.70440 306.67084 302.40912 0.59632
198 3.70800 306.61124 303.66941 0.59507
199 3.71160 306.55132 302.02179 0.59673
200 3.71520 306.49109 303.67224 0.59509
201 3.71880 306.43053 303.72976 0.59275
202 3.72240 306.36966 304.59673 0.59303
203 3.72600 306.30848 302.65285 0.59564
204 3.72960 306.24698 302.44418 0.59805
205 3.73320 306.18516 305.30350 0.58951
206 3.73680 306.12303 304.22623 0.59398
207 3.74040 306.06059 302.97186 0.59388
208 3.74400 305.99783 301.96787 0.59914
209 3.74760 305.93476 303.07404 0.59648
210 3.75120 305.87138 303.13148 0.59916
211 3.75480 305.80769 304.56525 0.59215
212 3.75840 305.74369 305.26562 0.59089
213 3.76200 305.67938 303.60438 0.59271
214 3.76560 305.61476 302.95149 0.59420
215 3.76920 305.54984 303.58273 0.59275
216 3.77280 305.48461 301.45799 0.59713
217 3.77640 305.41907 301.66132 0.59814
218 3.78000 305.35323 301.05218 0.59807
219 3.78360 305.28708 305.26720 0.59157
220 3.78720 305.22063 303.87373 0.59408
221 3.79080 305.15388 303.99631 0.59258
222 3.79440 305.08683 302.61137 0.59446
223 3.79800 305.01948 303.13752 0.59700
224 3.80160 304.95184 302.45882 0.59552
225 3.80520 304.88389 303.22419 0.59713
226 3.80880 304.81566 303.32088 0.59425
227 3.81240 304.74712 304.02827 0.59456
228 3.81600 304.67830 303.75290 0.59417
229 3.81960 304.60918 303.54065 0.59380
230 3.82320 304.53977 302.03124 0.59376
231 3.82680 304.47008 303.66107 0.59387
232 3.83040 304.40009 303.76789 0.59245
233 3.83400 304.32982 302.64816 0.59713
234 3.83760 304.25927 302.31292 0.59470
235 3.84120 304.18843 300.20870 0.59830
236 3.84480 304.11731 302.37630 0.59531
237 3.84840 304.04592 302.59260 0.59521
238 3.85200 303.97424 301.77478 0.59884
239 3.85560 303.90229 300.79588 0.60020
240 3.85920 303.83006 301.74316 0.59679
241 3.86280 303.75756 301.57070 0.59433
242 3.86640 303.68478 303.10360 0.59601
243 3.87000 303.61174 300.47046 0.59992
244 3.87360 303.53843 302.15625 0.59682
245 3.87720 303.46485 301.16020 0.59862
246 3.88080 303.39101 301.38198 0.59727
247 3.88440 303.31691 300.92065 0.59992
248 3.88800 303.24254 303.64804 0.59485
249 3.89160 303.16792 301.39426 0.59584
250 3.89520 303.09304 299.93202 0.60054
251 3.89880 303.01790 300.13081 0.60204
252 3.90240 302.94251 302.80300 0.59811
253 3.90600 302.86687 300.04988 0.60181
254 3.90960 302.79099 300.61358 0.60029
255 3.91320 302.71485 301.28370 0.59745
256 3.91680 302.63847 300.85267 0.59997
257 3.92040 302.56185 301.08877 0.59907
258 3.92400 302.48498 301.24978 0.59815
259 3.92760 302.40788 302.28073 0.59795
260 3.93120 302.33054 301.14296 0.60017
261 3.93480 302.25297 300.07045 0.60128
262 3.93840 302.17517 302.25316 0.59524
263 3.94200 302.09713 303.33431 0.59392
264 3.94560 302.01887 302.05872 0.59752
265 3.94920 301.94039 300.38476 0.60149
266 3.95280 301.86168 302.61764 0.59448
267 3.95640 301.78275 302.16597 0.59747
268 3.96000 301.70361 299.97451 0.60045
269 3.96360 301.62425 300.32965 0.60126
270 3.96720 301.54467 300.92552 0.59724
271 3.97080 301.46489 300.31701 0.59881
272 3.97440 301.38490 301.19305 0.59505
273 3.97800 301.30470 300.85918 0.59833
274 3.98160 301.22430 299.40713 0.59953
275 3.98520 301.14370 301.02478 0.59861
276 3.98880 301.06290 301.15635 0.59791
277 3.99240 300.98191 300.58327 0.60082
278 3.99600 300.90072 300.67809 0.59964
279 3.99960 300.81935 301.55386 0.59804
280 4.00320 300.73779 302.64375 0.59431
281 4.00680 300.65604 299.82084 0.60146
282 4.01040 300.57411 300.03015 0.60104
283 4.01400 300.49201 301.59974 0.59781
284 4.01760 300.40972 301.46403 0.59733
285 4.02120 300.32727 301.05239 0.59733
286 4.02480 300.24464 300.66754 0.59886
287 4.02840 300.16185 300.00115 0.60083
288 4.03200 300.07889 301.29393 0.59757
289 4.03560 299.99577 300.81562 0.59882
290 4.03920 299.91250 300.06541 0.60066
291 4.04280 299.82906 300.87349 0.59669
292 4.04640 299.74548 301.09728 0.59886
293 4.05000 299.66174 299.66886 0.60490
294 4.05360 299.57786 299.65865 0.60389
295 4.05720 299.49383 299.36281 0.60148
296 4.06080 299.40966 301.48293 0.59632
297 4.06440 299.32536 299.26347 0.60112
298 4.06800 299.24092 299.04513 0.60300
299 4.07160 299.15635 298.37584 0.60149
300 4.07520 299.07166 297.73314 0.60519
301 4.07880 298.98683 299.55605 0.59985
302 4.08240 298.90189 300.39494 0.60063
303 4.08600 298.81683 300.79949 0.59830
304 4.08960 298.73165 298.75192 0.60256
305 4.09320 298.64637 298.41956 0.60114
306 4.09680 298.56097 299.74459 0.60157
307 4.10040 298.47547 299.72375 0.60071
308 4.10400 298.38987 300.39972 0.59913
309 4.10760 298.30416 300.49343 0.59832
310 4.11120 298.21837 299.13484 0.60007
311 4.11480 298.13248 300.39188 0.59895
312 4.11840 298.04651 298.63013 0.60124
313 4.12200 297.96045 299.21759 0.60016
314 4.12560 297.87431 299.17133 0.60078
315 4.12920 297.78810 297.82033 0.60550
316 4.13280 297.70181 298.03854 0.60245
317 4.13640 297.61545 299.11793 0.60123
318 4.14000 297.52902 298.27239 0.60055
319 4.14360 297.44253 300.19194 0.59899
320 4.14720 297.35598 299.83458 0.59961
321 4.15080 297.26938 300.82502 0.59893
322 4.15440 297.18273 298.10696 0.60391
323 4.15800 297.09603 300.20338 0.59901
324 4.16160 297.00928 297.90069 0.60235
325 4.16520 296.92250 298.09978 0.60405
326 4.16880 296.83567 299.53575 0.59977
327 4.17240 296.74882 298.70458 0.60204
328 4.17600 296.66194 298.62427 0.60128
329 4.17960 296.57503 298.15673 0.60352
330 4.18320 296.48811 298.36364 0.60166
331 4.18680 296.40116 298.13194 0.60033
332 4.19040 296.31421 297.40205 0.60386
333 4.19400 296.22724 298.88694 0.60050
334 4.19760 296.14027 300.52683 0.59746
335 4.20120 296.05331 299.94870 0.59918
336 4.20480 295.96634 298.35048 0.60209
337 4.20840 295.87938 298.69009 0.59875
338 4.21200 295.79244 299.29722 0.60146
339 4.21560 295.70551 298.68271 0.60039
340 4.21920 295.61861 299.50487 0.59987
341 4.22280 295.53173 299.60779 0.59745
342 4.22640 295.44487 300.42715 0.59791
343 4.23000 295.35806 298.33924 0.59959
344 4.23360 295.27128 297.88503 0.60447
345 4.23720 295.18454 297.92991 0.60265
346 4.24080 295.09785 297.56825 0.60318
347 4.24440 295.01121 297.56778 0.60284
348 4.24800 294.92463 299.60825 0.60189
349 4.25160 294.83811 297.45858 0.60363
350 4.25520 294.75166 297.95069 0.60487
351 4.25880 294.66527 298.06218 0.60313
352 4.26240 294.57896 297.42255 0.60454
353 4.26600 294.49273 296.86809 0.60361
354 4.26960 294.40658 296.78660 0.60470
355 4.27320 294.32052 299.40730 0.59721
356 4.27680 294.23456 299.30780 0.59853
357 4.28040 294.14870 298.99869 0.59876
358 4.28400 294.06293 298.46922 0.59969
359 4.28760 293.97728 294.94173 0.60954
360 4.29120 293.89174 297.49772 0.60176
361 4.29480 293.80632 299.32610 0.59970
362 4.29840 293.72102 296.38555 0.60292
363 4.30200 293.63586 299.00427 0.59958
364 4.30560 293.55082 298.86586 0.59925
365 4.30920 293.46593 298.63740 0.60107
366 4.31280 293.38118 296.90784 0.60211
367 4.31640 293.29661 296.61938 0.60405
368 4.32000 293.21225 296.65098 0.60185
369 4.32360 293.12814 299.15077 0.59843
370 4.32720 293.04435 296.72840 0.60159
371 4.33080 292.96136 296.85571 0.60485
372 4.33440 292.87798 297.57066 0.60115
373 4.33800 292.79440 296.91539 0.60537
374 4.34160 292.71100 296.71885 0.60317
375 4.34520 292.62781 298.70385 0.60080
376 4.34880 292.54481 297.68415 0.60315
377 4.35240 292.46202 298.36134 0.60039
378 4.35600 292.37944 298.05079 0.60259
379 4.35960 292.29707 298.49530 0.60076
380 4.36320 292.21494 296.76172 0.60583
381 4.36680 292.13303 298.78653 0.60072
382 4.37040 292.05135 297.53421 0.60381
383 4.37400 291.96992 294.97750 0.60721
384 4.37760 291.88874 296.94437 0.60529
385 4.38120 291.80781 296.79844 0.60274
386 4.38480 291.72714 298.37614 0.60450
387 4.38840 291.64674 296.08403 0.60583
388 4.39200 291.56661 298.14466 0.60235
389 4.39560 291.48676 298.06822 0.60037
390 4.39920 291.40720 300.87799 0.59923
391 4.40280 291.32794 298.38181 0.60435
392 4.40640 291.24897 296.34918 0.60662
393 4.41000 291.17031 297.98153 0.59916
394 4.41360 291.09197 297.47922 0.60115
395 4.41720 291.01395 296.18375 0.60419
396 4.42080 290.93626 297.34511 0.60121
397 4.42440 290.85890 298.49740 0.59975
398 4.42800 290.78189 298.78832 0.60134
399 4.43160 290.70522 295.31154 0.60632
400 4.43520 290.62892 297.63879 0.60283
401 4.43880 290.55298 296.65315 0.60377
402 4.44240 290.47742 296.53460 0.60521
403 4.44600 290.40267 297.07078 0.60463
404 4.44960 290.33010 297.84441 0.60302
405 4.45320 290.26074 296.97237 0.60512
406 4.45680 290.19659 296.77747 0.60415
407 4.46040 290.14455 296.52766 0.60479
408 4.46400 290.11252 296.62519 0.60530
409 4.46760 290.04016 297.00548 0.60626
410 4.47120 289.96818 297.28886 0.60194
411 4.47480 289.89664 297.11411 0.60451
412 4.47840 289.82556 294.15488 0.60955
413 4.48200 289.75495 296.95679 0.60506
414 4.48560 289.68482 296.63410 0.60406
415 4.48920 289.61517 296.04522 0.60614
416 4.49280 289.54601 297.60193 0.60184
417 4.49640 289.47736 298.48262 0.60330
418 4.50000 289.40922 295.89972 0.60627
419 4.50360 289.34161 294.28590 0.60965
420 4.50720 289.27453 294.72388 0.60702
421 4.51080 289.20799 296.06985 0.60735
422 4.51440 289.14201 294.98345 0.60859
423 4.51800 289.07659 295.53994 0.60793
424 4.52160 289.01174 297.83271 0.60249
425 4.52520 288.94749 296.57824 0.60445
426 4.52880 288.88382 296.50295 0.60337
427 4.53240 288.82077 294.56974 0.60893
428 4.53600 288.75833 294.37649 0.61001
429 4.53960 288.69652 295.68313 0.60723
430 4.54320 288.63536 295.70535 0.60625
431 4.54680 288.57484 296.11823 0.60318
432 4.55040 288.51500 296.15985 0.60589
433 4.55400 288.45583 296.27937 0.60464
434 4.55760 288.39735 296.86748 0.60455
435 4.56120 288.33958 294.44872 0.60728
436 4.56480 288.28252 294.53740 0.60774
437 4.56840 288.22619 295.12704 0.60629
438 4.57200 288.17060 297.73066 0.60176
439 4.57560 288.11577 297.17858 0.60084
440 4.57920 288.06171 296.30247 0.60546
441 4.58280 288.00843 297.74102 0.60083
442 4.58640 287.95596 298.50974 0.60127
443 4.59000 287.90429 297.03227 0.60170
444 4.59360 287.85346 295.14301 0.60674
445 4.59720 287.80347 296.57717 0.60290
446 4.60080 287.75434 297.27387 0.60308
447 4.60440 287.70609 296.44880 0.60379
448 4.60800 287.65872 297.58917 0.60328
449 4.61160 287.61227 299.21042 0.59866
450 4.61520 287.56674 296.28602 0.60471
451 4.61880 287.52216 295.45237 0.60570
452 4.62240 287.47854 295.17019 0.60646
453 4.62600 287.43589 295.35475 0.60539
454 4.62960 287.39424 294.80465 0.60744
455 4.63320 287.35361 294.98042 0.60899
456 4.63680 287.31402 294.59510 0.60720
457 4.64040 287.27548 294.45778 0.60916
458 4.64400 287.23801 293.09549 0.61061
459 4.64760 287.20164 296.25667 0.60628
460 4.65120 287.16639 294.49036 0.60771
461 4.65480 287.13228 295.07676 0.60739
462 4.65840 287.09932 296.45971 0.60281
463 4.66200 287.06755 297.38461 0.60275
464 4.66560 287.03699 295.51228 0.60504
465 4.66920 287.00766 294.18527 0.60899
466 4.67280 286.97958 295.52936 0.60507
467 4.67640 286.95278 294.97891 0.60820
468 4.68000 286.92729 296.35818 0.60311
469 4.68360 286.90312 298.53062 0.60052
470 4.68720 286.88031 295.37866 0.60727
471 4.69080 286.85889 295.50230 0.60729
472 4.69440 286.83888 296.82816 0.60348
473 4.69800 286.82031 296.61658 0.60494
474 4.70160 286.80322 297.24377 0.60190
475 4.70520 286.78762 296.28389 0.60533
476 4.70880 286.77356 297.77769 0.60161
477 4.71240 286.76106 294.64809 0.60780
478 4.71600 286.75015 295.32743 0.60795
479 4.71960 286.74088 294.17233 0.60808
480 4.72320 286.73327 295.70957 0.60505
481 4.72680 286.72736 295.84691 0.60563
482 4.73040 286.72319 295.38853 0.60705
483 4.73400 286.72079 293.75378 0.60959
484 4.73760 286.72021 295.77843 0.60831
485 4.74120 286.72148 296.90114 0.60381
486 4.74480 286.72464 295.91390 0.60596
487 4.74840 286.72973 295.78635 0.60383
488 4.75200 286.73680 295.20093 0.60800
489 4.75560 286.74589 296.45127 0.60330
490 4.75920 286.75705 296.58680 0.60498
491 4.76280 286.77033 295.39241 0.60586
492 4.76640 286.78576 296.78460 0.60551
493 4.77000 286.80341 294.49033 0.60597
494 4.77360 286.82332 295.00785 0.60696
495 4.77720 286.84555 296.54664 0.60339
496 4.78080 286.87015 295.61519 0.60871
497 4.78440 286.89717 295.02686 0.60777
498 4.78800 286.92668 296.64718 0.60379
499 4.79160 286.95873 294.96602 0.60760
500 4.79520 286.99338 295.88648 0.60567
501 4.79880 287.03071 296.59127 0.60671
502 4.80240 287.07077 296.10054 0.60506
503 4.80600 287.11363 296.57150 0.60569
504 4.80960 287.15936 297.89434 0.60134
505 4.81320 287.20803 295.47764 0.60683
506 4.81680 287.25972 294.84260 0.60900
507 4.82040 287.31451 295.26210 0.61124
508 4.82400 287.37247 294.30553 0.61082
509 4.82760 287.43369 294.81258 0.61443
510 4.83120 287.49825 296.93589 0.61230
511 4.83480 287.56623 297.44994 0.59289
512 4.83840 287.63774 296.85402 0.54726
513 4.84200 287.71287 296.07392 0.55066
514 4.84560 287.79170 296.54439 0.54709
515 4.84920 287.87435 296.69791 0.54914
516 4.85280 287.96092 297.69309 0.54513
517 4.85640 288.05152 297.82435 0.54689
518 4.86000 288.14625 297.10665 0.54784
519 4.86360 288.24524 294.01700 0.55567
520 4.86720 288.34861 295.25142 0.54976
521 4.87080 288.45648 296.58530 0.54883
522 4.87440 288.56898 298.76081 0.54437
523 4.87800 288.68625 297.39674 0.54775
524 4.88160 288.80843 297.30275 0.55120
525 4.88520 288.93566 295.95233 0.55321
526 4.88880 289.06819 296.28617 0.55697
527 4.89240 289.20742 295.76385 0.55864
528 4.89600 289.35465 296.67402 0.56660
529 4.89960 289.51183 296.38712 0.51325
530 4.90320 289.68554 298.62501 0.45009
531 4.90680 289.88044 298.39689 0.44950
532 4.91040 290.04792 296.81396 0.45307
533 4.91400 290.22180 295.97169 0.45411
534 4.91760 290.40235 297.48812 0.45213
535 4.92120 290.58977 296.94746 0.45117
536 4.92480 290.78429 298.22042 0.44997
537 4.92840 290.98615 298.59143 0.44897
538 4.93200 291.19559 298.68716 0.44907
539 4.93560 291.41288 300.24355 0.44781
540 4.93920 291.63827 297.28201 0.45180
541 4.94280 291.87205 295.57405 0.45438
542 4.94640 292.11452 298.19259 0.45009
543 4.95000 292.36597 298.54157 0.44885
544 4.95360 292.62673 297.33329 0.45051
545 4.95720 292.89714 298.20834 0.45002
546 4.96080 293.17754 296.15582 0.45115
547 4.96440 293.46830 295.45489 0.45310
548 4.96800 293.76980 297.52646 0.44905
549 4.97160 294.08246 299.25981 0.44758
550 4.97520 294.40668 298.19572 0.44947
551 4.97880 294.74293 298.55245 0.45215
552 4.98240 295.09165 298.31891 0.44988
553 4.98600 295.45334 299.63523 0.44990
554 4.98960 295.82851 298.25856 0.45157
555 4.99320 296.21771 299.76007 0.44914
556 4.99680 296.62150 297.73184 0.45209
557 5.00040 297.04047 298.77637 0.45155
558 5.00400 297.47526 302.19382 0.44367
559 5.00760 297.92653 301.40083 0.44583
560 5.01120 298.39498 299.73678 0.44825
561 5.01480 298.88134 301.44954 0.44827
562 5.01840 299.38638 300.16147 0.44861
563 5.02200 299.91094 300.48964 0.44785
564 5.02560 300.45587 300.82956 0.44771
565 5.02920 301.02209 301.07096 0.44678
566 5.03280 301.61057 301.76339 0.44446
567 5.03640 302.22233 302.36926 0.44520
568 5.04000 302.85846 300.78136 0.44821
569 5.04360 303.52010 301.36452 0.44654
570 5.04720 304.20848 300.76695 0.44858
571 5.05080 304.92490 300.00338 0.44750
572 5.05440 305.67071 303.96801 0.44401
573 5.05800 306.44740 303.09771 0.44336
574 5.06160 307.25650 302.87994 0.44584
575 5.06520 308.09967 302.20330 0.44460
576 5.06880 308.97867 301.95331 0.44771
577 5.07240 309.89538 302.23105 0.44467
578 5.07600 310.85180 302.35497 0.44871
579 5.07960 311.85006 305.45516 0.44751
580 5.08320 312.89246 304.16837 0.45365
581 5.08680 313.98144 303.87994 0.39764
582 5.09040 315.11961 305.02211 0.40911
583 5.09400 316.30978 303.88033 0.50252
584 5.09760 317.55496 305.17820 0.49251
585 5.10120 318.85837 304.49369 0.48925
586 5.10480 320.22350 304.66910 0.48581
587 5.10840 321.65406 305.72311 0.48334
588 5.11200 323.15410 304.34129 0.48385
589 5.11560 324.72794 306.69143 0.48077
590 5.11920 326.38027 307.42695 0.47822
591 5.12280 328.11616 307.03817 0.47913
592 5.12640 329.94109 308.44917 0.47773
593 5.13000 331.86098 310.85487 0.47558
594 5.13360 333.88229 308.67601 0.47934
595 5.13720 336.01200 309.99609 0.47908
596 5.14080 338.25774 309.79280 0.48011
597 5.14440 340.62778 312.75768 0.48316
598 5.14800 343.13119 312.38484 0.48776
599 5.15160 345.77784 313.15938 0.37965
600 5.15520 348.57855 312.89701 0.37894
601 5.15880 351.54518 314.77888 0.40794
602 5.16240 354.69076 315.59352 0.42817
603 5.16600 358.02959 318.77426 0.42118
604 5.16960 361.57747 319.13132 0.42004
605 5.17320 365.35182 320.71212 0.41584
606 5.17680 369.37191 320.11856 0.41473
607 5.18040 373.65910 320.27680 0.41403
608 5.18400 378.23712 322.74475 0.41107
609 5.18760 383.13239 325.64535 0.40708
610 5.19120 388.37438 328.11978 0.40395
611 5.19480 393.99604 326.88156 0.40487
612 5.19840 400.03434 328.19331 0.40301
613 5.20200 406.53082 334.66494 0.39555
614 5.20560 413.53230 337.36933 0.39288
615 5.20920 421.09172 340.69921 0.38951
616 5.21280 429.26907 341.57291 0.38892
617 5.21640 438.13260 343.85990 0.38550
618 5.22000 447.76017 347.90873 0.38080
619 5.22360 458.24090 351.63312 0.37668
620 5.22720 469.67722 357.31438 0.37121
621 5.23080 482.18722 364.13836 0.36429
622 5.23440 495.90770 370.79287 0.35759
623 5.23800 510.99776 376.75215 0.35190
624 5.24160 527.64347 384.10528 0.34528
625 5.24520 546.06386 395.37025 0.33520
626 5.24880 566.51918 410.10944 0.32335
627 5.25240 589.32295 425.24251 0.31115
628 5.25600 614.86128 442.19020 0.25681
629 5.25960 643.62595 462.35401 0.27573
630 5.26320 676.27376 489.93731 0.21649
631 5.26680 713.73495 521.09049 0.16807
632 5.27040 757.40904 562.98637 0.16169
633 5.27400 809.50806 608.02486 0.13625
634 5.27760 873.63202 664.21521 0.10335
635 5.28120 955.68111 733.91950 0.08274
636 5.28480 1065.20594 824.41642 0.05990
637 5.28840 1217.24588 943.42252 0.04458
638 5.29200 1434.57313 1108.32826 0.02788
639 5.29560 1750.02444 1348.42642 0.01793
640 5.29920 2208.26996 1713.40196 0.00984
641 5.30280 2866.00329 2299.06497 0.00518
642 5.30640 3789.27411 3220.50593 0.00278
643 5.31000 5046.71811 4706.12979 0.00140
644 5.31360 6697.94658 6958.49947 0.00078
645 5.31720 8777.42372 10084.75827 0.00047
646 5.32080 11275.68229 13923.69665 0.00035
647 5.32440 14121.39507 18022.84467 0.00029
648 5.32800 17169.12031 21950.71223 0.00028
649 5.33160 20197.88880 25322.66034 0.00030
650 5.33520 22925.12754 27760.99689 0.00048
651 5.33880 25039.56860 28973.87021 0.00081
652 5.34240 26255.23315 29088.40510 0.00117
653 5.34600 26380.88154 28445.92783 0.00087
654 5.34960 25381.86977 27282.18905 0.00062
655 5.35320 23399.36506 25314.16237 0.00044
656 5.35680 20709.61685 22632.66315 0.00040
657 5.36040 17644.81523 19741.82049 0.00040
658 5.36400 14517.42081 16252.72142 0.00041
659 5.36760 11574.02052 12653.96167 0.00044
660 5.37120 8978.66961 8930.07987 0.00057
661 5.37480 6815.11358 5827.95079 0.00101
662 5.37840 5099.60591 3813.18722 0.00205
663 5.38200 3799.30320 2625.12036 0.00414
664 5.38560 2852.18419 1986.22620 0.00827
665 5.38920 2184.91066 1570.09370 0.01315
666 5.39280 1726.19792 1284.43255 0.02147
667 5.39640 1414.85308 1099.82034 0.03257
668 5.40000 1203.03464 955.64178 0.04329
669 5.40360 1056.08914 858.47832 0.05995
670 5.40720 950.48284 782.23618 0.07693
671 5.41080 871.07473 722.94604 0.10189
672 5.41440 808.53099 668.85066 0.12598
673 5.41800 757.25790 633.69208 0.16293
674 5.42160 713.93186 602.03055 0.17336
675 5.42520 676.54499 571.41592 0.17812
676 5.42880 643.82991 545.96540 0.18252
677 5.43240 614.93343 522.27005 0.20454
678 5.43600 589.23971 505.65031 0.24154
679 5.43960 566.27680 489.82827 0.29619
680 5.44320 545.66716 476.76465 0.31393
681 5.44680 527.10034 462.91829 0.32477
682 5.45040 510.31671 449.14571 0.32557
683 5.45400 495.09685 439.41615 0.29829
684 5.45760 481.25401 431.33410 0.30324
685 5.46120 468.62831 418.33798 0.31447
686 5.46480 457.08223 413.81517 0.31722
687 5.46840 446.49703 407.17307 0.32223
688 5.47200 436.76971 401.80394 0.32773
689 5.47560 427.81063 394.97381 0.33184
690 5.47920 419.54148 388.51722 0.33901
691 5.48280 411.89364 381.65390 0.34452
692 5.48640 404.80673 378.29960 0.34778
693 5.49000 398.22754 375.42803 0.34941
694 5.49360 392.10896 372.54016 0.35269
695 5.49720 386.40920 367.47338 0.35625
696 5.50080 381.09111 363.63184 0.36370
697 5.50440 376.12153 359.70996 0.36527
698 5.50800 371.47083 356.50471 0.36999
699 5.51160 367.11243 354.63197 0.37112
700 5.51520 363.02249 352.20022 0.37397
701 5.51880 359.17951 347.96428 0.37770
702 5.52240 355.56412 346.52128 0.38004
703 5.52600 352.15880 344.20279 0.38165
704 5.52960 348.94769 343.40359 0.38424
705 5.53320 345.91639 340.11876 0.38719
706 5.53680 343.05180 342.19121 0.38473
707 5.54040 340.34201 338.24964 0.38849
708 5.54400 337.77614 336.12425 0.39166
709 5.54760 335.34427 334.94697 0.39332
710 5.55120 333.03729 331.80257 0.39701
711 5.55480 330.84687 331.25444 0.39764
712 5.55840 328.76537 332.05339 0.39556
713 5.56200 326.78576 329.20483 0.40030
714 5.56560 324.90156 328.76562 0.39951
715 5.56920 323.10680 328.45841 0.40121
716 5.57280 321.39600 325.89287 0.40271
717 5.57640 319.76405 325.77024 0.40448
718 5.58000 318.20626 325.34709 0.40399
719 5.58360 316.71826 322.55411 0.40908
720 5.58720 315.29602 318.68717 0.41238
721 5.59080 313.93578 321.01831 0.41056
722 5.59440 312.63405 320.21577 0.41127
723 5.59800 311.38761 320.72397 0.41214
724 5.60160 310.19341 318.64935 0.41285
725 5.60520 309.04866 319.05693 0.41285
726 5.60880 307.95072 316.97233 0.41520
727 5.61240 306.89713 317.27415 0.41605
728 5.61600 305.88562 318.04346 0.41351
729 5.61960 304.91402 317.34800 0.41517
730 5.62320 303.98034 316.31237 0.41579
731 5.62680 303.08269 316.07539 0.41729
732 5.63040 302.21930 313.58958 0.42139
733 5.63400 301.38851 314.58088 0.42041
734 5.63760 300.58877 311.14472 0.42404
735 5.64120 299.81862 311.74591 0.45246
736 5.64480 299.07668 312.29188 0.53282
737 5.64840 298.36164 309.83088 0.52910
738 5.65200 297.67230 309.23301 0.52846
739 5.65560 297.00749 311.15123 0.51869
740 5.65920 296.36612 311.14234 0.52127
741 5.66280 295.74718 310.90346 0.51664
742 5.66640 295.14970 307.48404 0.52663
743 5.67000 294.57275 306.89774 0.52396
744 5.67360 294.01547 308.75299 0.52306
745 5.67720 293.47704 307.61416 0.52224
746 5.68080 292.95668 307.36929 0.52531
747 5.68440 292.45366 307.41559 0.52280
748 5.68800 291.96728 306.29167 0.52677
749 5.69160 291.49687 306.95855 0.52363
750 5.69520 291.04182 308.69978 0.52182
751 5.69880 290.60151 305.79368 0.52633
752 5.70240 290.17539 303.81387 0.53076
753 5.70600 289.76291 302.60247 0.53195
754 5.70960 289.36357 303.78178 0.56710
755 5.71320 288.97688 304.65966 0.58183
756 5.71680 288.60237 303.33811 0.58261
757 5.72040 288.23960 304.12057 0.58183
758 5.72400 287.88814 303.28686 0.58033
759 5.72760 287.54761 303.20163 0.58394
760 5.73120 287.21761 301.14185 0.58982
761 5.73480 286.89779 302.43918 0.58204
762 5.73840 286.58778 302.78124 0.52230
763 5.74200 286.28727 301.26197 0.52645
764 5.74560 285.99593 301.13293 0.52382
765 5.74920 285.71346 300.48052 0.52914
766 5.75280 285.43957 298.50439 0.52928
767 5.75640 285.17398 298.03468 0.53287
768 5.76000 284.91643 300.12005 0.52577
769 5.76360 284.66666 302.40437 0.52509
770 5.76720 284.42444 301.97975 0.52258
771 5.77080 284.18952 300.15671 0.52892
772 5.77440 283.96169 298.82171 0.53023
773 5.77800 283.74074 299.24866 0.53177
774 5.78160 283.52645 299.75540 0.53110
775 5.78520 283.31864 299.82398 0.53365
776 5.78880 283.11711 300.22240 0.53272
777 5.79240 282.92170 297.34560 0.54402
778 5.79600 282.73222 298.63072 0.54699
779 5.79960 282.54850 298.95047 0.51834
780 5.80320 282.37040 298.68888 0.43543
781 5.80680 282.19776 297.82448 0.43626
782 5.81040 282.03044 298.49161 0.43600
783 5.81400 281.86828 298.25666 0.43604
784 5.81760 281.71117 296.67034 0.43804
785 5.82120 281.55896 296.62454 0.43798
786 5.82480 281.41155 298.38392 0.43659
787 5.82840 281.26880 296.16093 0.43959
788 5.83200 281.13060 297.81800 0.43956
789 5.83560 280.99685 296.16531 0.43933
790 5.83920 280.86744 294.88879 0.44338
791 5.84280 280.74226 294.83952 0.44169
792 5.84640 280.62123 297.05895 0.44054
793 5.85000 280.50424 296.61103 0.43866
794 5.85360 280.39121 296.21529 0.44106
795 5.85720 280.28206 296.89915 0.43876
796 5.86080 280.17669 296.66000 0.44047
797 5.86440 280.07504 294.94285 0.44176
798 5.86800 279.97703 294.95188 0.44325
799 5.87160 279.88258 293.20104 0.44437
800 5.87520 279.79163 295.51351 0.44126
801 5.87880 279.70411 293.21504 0.44414
802 5.88240 279.61995 295.27542 0.44274
803 5.88600 279.53910 294.34822 0.44264
804 5.88960 279.46149 295.13702 0.44107
805 5.89320 279.38708 292.29270 0.44550
806 5.89680 279.31580 291.43435 0.44691
807 5.90040 279.24762 295.41868 0.44122
808 5.90400 279.18248 294.82054 0.44178
809 5.90760 279.12033 294.85028 0.44246
810 5.91120 279.06114 291.48728 0.44629
811 5.91480 279.00486 291.51226 0.44737
812 5.91840 278.95146 294.35726 0.44259
813 5.92200 278.90090 295.23590 0.44303
814 5.92560 278.85314 296.55336 0.43783
815 5.92920 278.80815 296.20499 0.44168
816 5.93280 278.76591 291.96336 0.44537
817 5.93640 278.73151 294.14722 0.44338
818 5.94000 278.71655 293.86079 0.44129
819 5.94360 278.73549 293.33978 0.44352
820 5.94720 278.86718 293.66023 0.44139
821 5.95080 278.95656 295.36821 0.44221
822 5.95440 278.93146 294.91612 0.43982
823 5.95800 278.90895 294.50166 0.44274
824 5.96160 278.88905 292.31749 0.44380
825 5.96520 278.87172 294.89998 0.44176
826 5.96880 278.85697 294.80199 0.44131
827 5.97240 278.84479 295.71553 0.44101
828 5.97600 278.83518 293.21634 0.44322
829 5.97960 278.82814 293.22907 0.44375
830 5.98320 278.82366 293.79593 0.44256
831 5.98680 278.82177 295.57380 0.43855
832 5.99040 278.82245 291.84937 0.45399
833 5.99400 278.82572 291.78341 0.55570
834 5.99760 278.83160 293.21872 0.55554
835 6.00120 278.84010 293.12214 0.55008
836 6.00480 278.85124 294.79462 0.54519
837 6.00840 278.86505 292.91487 0.54389
838 6.01200 278.88154 295.15658 0.54116
839 6.01560 278.90074 292.69288 0.54390
840 6.01920 278.92270 294.33632 0.54198
841 6.02280 278.94744 292.42641 0.54428
842 6.02640 278.97500 293.06585 0.54474
843 6.03000 279.00544 291.27405 0.54631
844 6.03360 279.03880 292.17347 0.54624
845 6.03720 279.07514 291.28822 0.54544
846 6.04080 279.11451 292.87855 0.54405
847 6.04440 279.15699 292.24950 0.54332
848 6.04800 279.20264 293.50710 0.54310
849 6.05160 279.25154 293.60675 0.54031
850 6.05520 279.30379 292.16373 0.54625
851 6.05880 279.35947 293.40706 0.56427
852 6.06240 279.41868 294.50413 0.59566
853 6.06600 279.48155 295.56310 0.58976
854 6.06960 279.54819 295.31387 0.59014
855 6.07320 279.61930 293.95189 0.59234
856 6.07680 279.69594 293.89978 0.59162
857 6.08040 279.77974 294.21878 0.59084
858 6.08400 279.88031 295.09895 0.58883
859 6.08760 279.97113 294.05687 0.59054
860 6.09120 280.06375 293.82103 0.59087
861 6.09480 280.16138 297.02225 0.58562
862 6.09840 280.26428 296.08792 0.58636
863 6.10200 280.37273 294.70862 0.58973
864 6.10560 280.48702 293.83740 0.58915
865 6.10920 280.60752 294.47645 0.58977
866 6.11280 280.73460 296.52357 0.58598
867 6.11640 280.86869 299.47772 0.58091
868 6.12000 281.01026 297.28358 0.58415
869 6.12360 281.15986 296.51142 0.58678
870 6.12720 281.31810 297.08620 0.58490
871 6.13080 281.48567 296.00897 0.58917
872 6.13440 281.66337 296.02522 0.58690
873 6.13800 281.85215 296.13092 0.58742
874 6.14160 282.05312 296.14427 0.58588
875 6.14520 282.26768 297.14993 0.58679
876 6.14880 282.49766 296.99328 0.58540
877 6.15240 282.74555 297.46446 0.58687
878 6.15600 283.01498 298.48702 0.58240
879 6.15960 283.31142 299.70959 0.58194
880 6.16320 283.64334 297.84944 0.58599
881 6.16680 284.02390 296.94639 0.58663
882 6.17040 284.47327 299.50906 0.58283
883 6.17400 285.02161 300.15035 0.57919
884 6.17760 285.71244 298.76899 0.58388
885 6.18120 286.60574 298.83082 0.58319
886 6.18480 287.77994 302.76370 0.57642
887 6.18840 289.33125 303.34303 0.57236
888 6.19200 291.36876 303.86585 0.57262
889 6.19560 294.00395 305.27307 0.56940
890 6.19920 297.33400 306.48221 0.56929
891 6.20280 301.41943 308.98753 0.56297
892 6.20640 306.25847 311.39097 0.56007
893 6.21000 311.76177 314.42815 0.55247
894 6.21360 317.73262 316.67104 0.54976
895 6.21720 323.85804 316.07516 0.54891
896 6.22080 329.71708 318.80054 0.54742
897 6.22440 334.81350 321.53798 0.54015
898 6.22800 338.63952 323.37227 0.53789
899 6.23160 340.77125 326.96648 0.53113
900 6.23520 340.97632 325.52544 0.53453
901 6.23880 339.28930 324.19379 0.53632
902 6.24240 336.00945 322.95735 0.53806
903 6.24600 331.61717 321.33885 0.54127
904 6.24960 326.65372 324.44050 0.53521
905 6.25320 321.61963 322.98451 0.53904
906 6.25680 316.91638 320.77224 0.54161
907 6.26040 312.82552 320.19888 0.54323
908 6.26400 309.51098 321.98128 0.53767
909 6.26760 307.03450 320.15098 0.54312
910 6.27120 305.37874 323.49619 0.53533
911 6.27480 304.47381 324.24375 0.53539
912 6.27840 304.22295 324.37337 0.53584
913 6.28200 304.52396 324.61619 0.53621
914 6.28560 305.28460 327.53978 0.52783
915 6.28920 306.43152 330.65358 0.52418
916 6.29280 307.91400 331.19570 0.52278
917 6.29640 309.70417 336.41604 0.51647
918 6.30000 311.79568 341.74071 0.50657
919 6.30360 314.20267 346.27748 0.50230
920 6.30720 316.96084 352.31861 0.49306
921 6.31080 320.13235 361.56797 0.47997
922 6.31440 323.81714 369.97790 0.46770
923 6.31800 328.17384 381.11045 0.45574
924 6.32160 333.45449 391.55405 0.44297
925 6.32520 340.05816 406.60016 0.41598
926 6.32880 348.60770 425.24127 0.40759
927 6.33240 360.05158 446.89434 0.31492
928 6.33600 375.78603 475.50183 0.27446
929 6.33960 397.78254 512.03666 0.23164
930 6.34320 428.69134 556.74867 0.18907
931 6.34680 471.87578 615.69904 0.14150
932 6.35040 531.32072 685.72228 0.12278
933 6.35400 611.35679 776.13638 0.08528
934 6.35760 716.15865 888.23321 0.06805
935 6.36120 849.01250 1018.15143 0.05267
936 6.36480 1011.40202 1171.81693 0.04221
937 6.36840 1202.02037 1343.25062 0.03578
938 6.37200 1415.86526 1526.63562 0.03303
939 6.37560 1643.60567 1702.58740 0.03157
940 6.37920 1871.43241 1864.11064 0.03940
941 6.38280 2081.63755 1991.75396 0.04013
942 6.38640 2254.21095 2091.99184 0.06116
943 6.39000 2369.69716 2141.80501 0.07501
944 6.39360 2413.15910 2138.63934 0.07098
945 6.39720 2378.18346 2098.96548 0.05422
946 6.40080 2269.05663 2025.69912 0.04652
947 6.40440 2099.70339 1913.47012 0.03930
948 6.40800 1889.84574 1774.39663 0.03750
949 6.41160 1660.39668 1620.25630 0.03366
950 6.41520 1429.96119 1445.44977 0.03739
951 6.41880 1213.00836 1268.66034 0.04078
952 6.42240 1019.32704 1098.65888 0.04707
953 6.42600 854.23832 946.10544 0.06190
954 6.42960 719.24600 812.49825 0.07350
955 6.43320 612.94114 703.30233 0.09706
956 6.43680 532.00385 616.93712 0.14703
957 6.44040 472.15078 555.96452 0.17282
958 6.44400 428.90900 503.56793 0.23408
959 6.44760 398.15404 465.74297 0.27509
960 6.45120 376.40892 434.68262 0.34311
961 6.45480 360.94495 411.27775 0.38168
962 6.45840 349.74558 391.23885 0.44271
963 6.46200 341.39517 377.50743 0.45286
964 6.46560 334.94220 363.30334 0.47755
965 6.46920 329.76887 355.72588 0.49029
966 6.47280 325.48350 347.38663 0.49945
967 6.47640 321.84013 340.91836 0.51016
968 6.48000 318.68304 334.01951 0.52010
969 6.48360 315.91080 329.67221 0.52762
970 6.48720 313.45425 325.71071 0.53339
971 6.49080 311.26350 321.12716 0.54209
972 6.49440 309.30064 317.68322 0.54790
973 6.49800 307.53550 314.02738 0.55457
974 6.50160 305.94331 313.44208 0.55523
975 6.50520 304.50333 310.33305 0.55984
976 6.50880 303.19793 308.75637 0.56439
977 6.51240 302.01198 307.87096 0.56495
978 6.51600 300.93246 306.71282 0.56782
979 6.51960 299.94806 307.02398 0.56653
980 6.52320 299.04896 303.59142 0.57499
981 6.52680 298.22656 302.26073 0.57571
982 6.53040 297.47337 301.19017 0.57852
983 6.53400 296.78279 298.59321 0.58186
984 6.53760 296.14888 299.31246 0.58148
985 6.54120 295.56656 297.18707 0.58330
986 6.54480 295.03125 296.51289 0.58738
987 6.54840 294.53891 294.43885 0.58920
988 6.55200 294.08592 295.60281 0.58817
989 6.55560 293.66905 294.87811 0.58922
990 6.55920 293.28541 295.04742 0.58993
991 6.56280 292.93243 292.75343 0.59294
992 6.56640 292.60777 293.70246 0.59156
993 6.57000 292.30936 293.28693 0.59139
994 6.57360 292.03530 293.14457 0.59262
995 6.57720 291.78390 290.76441 0.59690
996 6.58080 291.55363 289.00679 0.60145
997 6.58440 291.34310 289.69231 0.59861
998 6.58800 291.15105 290.18554 0.59680
999 6.59160 290.97636 288.82323 0.60131
1000 6.59520 290.81798 289.95249 0.59815
1001 6.59880 290.67499 290.07387 0.59884
1002 6.60240 290.54654 290.30063 0.59666
1003 6.60600 290.43185 290.34129 0.59931
1004 6.60960 290.33024 288.69521 0.60142
1005 6.61320 290.24107 288.04162 0.60374
1006 6.61680 290.16378 290.85566 0.59647
1007 6.62040 290.09784 289.08606 0.60066
1008 6.62400 290.04281 286.49906 0.60420
1009 6.62760 289.99826 289.46737 0.60145
1010 6.63120 289.96382 287.25087 0.60537
1011 6.63480 289.93916 287.90710 0.60531
1012 6.63840 289.92399 287.95093 0.59975
1013 6.64200 289.91807 288.22549 0.60312
1014 6.64560 289.92116 289.23600 0.60094
1015 6.64920 289.93309 287.67674 0.60520
1016 6.65280 289.95370 288.50549 0.60292
1017 6.65640 289.98286 290.64245 0.59917
1018 6.66000 290.02049 287.69616 0.60287
1019 6.66360 290.06652 288.26321 0.60217
1020 6.66720 290.12092 287.31162 0.60445
1021 6.67080 290.18367 287.28773 0.60540
1022 6.67440 290.25481 289.31923 0.60086
1023 6.67800 290.33438 288.52348 0.60159
1024 6.68160 290.42247 288.20334 0.60411
1025 6.68520 290.51919 288.01071 0.60505
1026 6.68880 290.62468 288.10351 0.60507
1027 6.69240 290.73911 287.39008 0.60149
1028 6.69600 290.86269 287.99335 0.60493
1029 6.69960 290.99567 288.39626 0.60168
1030 6.70320 291.13832 287.06306 0.60687
1031 6.70680 291.29097 286.81374 0.60356
1032 6.71040 291.45397 290.61867 0.59813
1033 6.71400 291.62774 287.65158 0.60327
1034 6.71760 291.81272 289.21796 0.60138
1035 6.72120 292.00942 289.00225 0.59894
1036 6.72480 292.21840 289.14379 0.60069
1037 6.72840 292.44029 287.84980 0.60381
1038 6.73200 292.67578 289.35082 0.60241
1039 6.73560 292.92564 289.21780 0.60176
1040 6.73920 293.19070 288.43984 0.60358
1041 6.74280 293.47192 290.20812 0.59944
1042 6.74640 293.77031 290.03099 0.59940
1043 6.75000 294.08702 290.54810 0.59737
1044 6.75360 294.42333 291.71094 0.59544
1045 6.75720 294.78063 290.40712 0.59845
1046 6.76080 295.16047 290.40893 0.59771
1047 6.76440 295.56458 291.57684 0.59585
1048 6.76800 295.99488 291.88528 0.59400
1049 6.77160 296.45349 292.45220 0.59516
1050 6.77520 296.94279 292.17997 0.59336
1051 6.77880 297.46544 293.92478 0.59262
1052 6.78240 298.02440 293.81054 0.59119
1053 6.78600 298.62299 294.84869 0.58927
1054 6.78960 299.26496 295.44227 0.58653
1055 6.79320 299.95451 296.01143 0.58745
1056 6.79680 300.69638 295.32756 0.58700
1057 6.80040 301.49595 297.11824 0.58462
1058 6.80400 302.35930 298.80476 0.58013
1059 6.80760 303.29339 300.45232 0.57966
1060 6.81120 304.30612 299.86970 0.57843
1061 6.81480 305.40656 303.32961 0.57231
1062 6.81840 306.60517 304.75127 0.56863
1063 6.82200 307.91400 304.34183 0.56997
1064 6.82560 309.34714 306.20696 0.56564
1065 6.82920 310.92115 309.15802 0.56261
1066 6.83280 312.65590 311.78160 0.55636
1067 6.83640 314.57570 312.97420 0.55125
1068 6.84000 316.71142 316.21680 0.54669
1069 6.84360 319.10392 319.77280 0.54061
1070 6.84720 321.80999 324.56612 0.53368
1071 6.85080 324.91222 329.39441 0.52541
1072 6.85440 328.53508 335.41704 0.51586
1073 6.85800 332.86997 342.86495 0.50471
1074 6.86160 338.21237 350.46282 0.49465
1075 6.86520 345.01382 360.66161 0.47858
1076 6.86880 353.94968 373.34170 0.46386
1077 6.87240 365.99972 388.51844 0.44498
1078 6.87600 382.53229 410.66235 0.40593
1079 6.87960 405.37481 435.46771 0.31147
1080 6.88320 436.84348 470.48503 0.27062
1081 6.88680 479.70077 512.28027 0.19226
1082 6.89040 537.00085 573.52024 0.13656
1083 6.89400 611.79794 650.36034 0.10788
1084 6.89760 706.72059 750.43287 0.07100
1085 6.90120 823.24697 874.11404 0.05802
1086 6.90480 961.39457 1028.63453 0.04136
1087 6.90840 1118.84344 1200.26957 0.03748
1088 6.91200 1290.49359 1385.16009 0.03353
1089 6.91560 1468.17589 1562.46226 0.03411
1090 6.91920 1640.71844 1726.09393 0.03789
1091 6.92280 1794.55110 1853.05482 0.04947
1092 6.92640 1915.07371 1938.24764 0.06512
1093 6.93000 1988.92168 1985.49944 0.07115
1094 6.93360 2006.84447 1986.58327 0.07858
1095 6.93720 1966.24117 1947.30582 0.06471
1096 6.94080 1872.07083 1862.97383 0.05389
1097 6.94440 1735.52414 1752.75526 0.04462
1098 6.94800 1571.12980 1612.93718 0.04074
1099 6.95160 1393.71948 1457.16832 0.04124
1100 6.95520 1216.28851 1281.81118 0.03970
1101 6.95880 1048.93742 1107.19218 0.04336
1102 6.96240 898.58287 939.67050 0.05024
1103 6.96600 769.11333 795.82510 0.06563
1104 6.96960 661.80596 680.91198 0.09245
1105 6.97320 575.90172 595.98111 0.12259
1106 6.97680 509.24975 525.39687 0.16068
1107 6.98040 458.93125 475.68966 0.23909
1108 6.98400 421.78809 438.51194 0.30261
1109 6.98760 394.81115 411.29291 0.38804
1110 6.99120 375.37818 390.79705 0.44223
1111 6.99480 361.35899 373.27369 0.46475
1112 6.99840 351.12143 358.93170 0.48236
1113 7.00200 343.47606 349.26737 0.49747
1114 7.00560 337.59256 340.72358 0.50813
1115 7.00920 332.91156 332.78175 0.52025
1116 7.01280 329.06635 329.11147 0.52637
1117 7.01640 325.82039 321.60014 0.53801
1118 7.02000 323.02152 317.29476 0.54834
1119 7.02360 320.57048 314.51080 0.55031
1120 7.02720 318.40046 309.74871 0.56300
1121 7.03080 316.46443 307.24636 0.56535
1122 7.03440 314.72755 305.73987 0.56997
1123 7.03800 313.16280 303.70164 0.57250
1124 7.04160 311.74835 302.98086 0.57415
1125 7.04520 310.46608 299.24105 0.58029
1126 7.04880 309.30071 298.26947 0.58423
1127 7.05240 308.23913 297.03634 0.58474
1128 7.05600 307.27005 295.83657 0.58894
1129 7.05960 306.38367 294.78672 0.58893
1130 7.06320 305.57137 293.41647 0.59261
1131 7.06680 304.81887 292.80076 0.59250
1132 7.07040 304.11030 292.94649 0.59354
1133 7.07400 303.43357 293.73281 0.59125
1134 7.07760 302.77190 294.90300 0.58955
1135 7.08120 302.09277 292.32044 0.59446
1136 7.08480 301.24728 290.97632 0.59674
1137 7.08840 300.51294 289.49876 0.59933
1138 7.09200 300.09075 288.86657 0.59988
1139 7.09560 299.70001 288.39452 0.60153
1140 7.09920 299.33771 289.47032 0.59915
1141 7.10280 299.00155 288.32450 0.60116
1142 7.10640 298.68944 288.85021 0.60031
1143 7.11000 298.39950 289.67145 0.60020
1144 7.11360 298.13005 289.21291 0.59987
1145 7.11720 297.87953 289.21864 0.60080
1146 7.12080 297.64655 287.87010 0.60261
1147 7.12440 297.42984 287.01906 0.60398
1148 7.12800 297.22824 285.31503 0.60705
1149 7.13160 297.04070 288.10049 0.60268
1150 7.13520 296.86624 287.52532 0.60179
1151 7.13880 296.70399 286.79365 0.60586
1152 7.14240 296.55313 285.83021 0.60605
1153 7.14600 296.41291 287.03790 0.60563
1154 7.14960 296.28266 287.11828 0.60309
1155 7.15320 296.16174 286.17099 0.60632
1156 7.15680 296.04956 283.75051 0.61053
1157 7.16040 295.94561 285.87594 0.60722
1158 7.16400 295.84937 285.45012 0.60687
1159 7.16760 295.76039 285.52448 0.60677
1160 7.17120 295.67824 283.47061 0.61120
1161 7.17480 295.60254 284.65640 0.60812
1162 7.17840 295.53290 284.64284 0.60951
1163 7.18200 295.46901 285.19974 0.60877
1164 7.18560 295.41053 283.19909 0.61343
1165 7.18920 295.35718 284.17858 0.60930
1166 7.19280 295.30867 283.92768 0.61192
1167 7.19640 295.26476 284.06986 0.60986
1168 7.20000 295.22521 285.06572 0.60894
1169 7.20360 295.18978 284.97376 0.60845
1170 7.20720 295.15828 282.77363 0.61580
1171 7.21080 295.13050 282.36678 0.61226
1172 7.21440 295.10627 282.43343 0.61441
1173 7.21800 295.08541 282.72720 0.61351
1174 7.22160 295.06776 283.91508 0.61241
1175 7.22520 295.05317 283.81706 0.60949
1176 7.22880 295.04150 281.97397 0.61467
1177 7.23240 295.03261 285.28445 0.60717
1178 7.23600 295.02638 284.86378 0.60889
1179 7.23960 295.02269 285.11837 0.60685
1180 7.24320 295.02143 284.90390 0.60803
1181 7.24680 295.02249 282.69177 0.61370
1182 7.25040 295.02578 282.34616 0.61394
1183 7.25400 295.03120 283.90144 0.61022
1184 7.25760 295.03866 282.69092 0.61352
1185 7.26120 295.04808 283.42619 0.61169
1186 7.26480 295.05938 284.37923 0.60951
1187 7.26840 295.07249 283.34458 0.61364
1188 7.27200 295.08734 282.66001 0.61273
1189 7.27560 295.10386 285.02756 0.60994
1190 7.27920 295.12199 283.45098 0.61256
1191 7.28280 295.14166 283.25590 0.61352
1192 7.28640 295.16283 284.85676 0.60909
1193 7.29000 295.18544 284.84603 0.60966
1194 7.29360 295.20943 284.58046 0.60942
1195 7.29720 295.23477 283.11842 0.61649
1196 7.30080 295.26140 281.05039 0.61772
1197 7.30440 295.28929 282.83911 0.61431
1198 7.30800 295.31839 282.93632 0.61278
1199 7.31160 295.34866 281.56442 0.61723
1200 7.31520 295.38007 282.39199 0.61385
1201 7.31880 295.41258 283.46709 0.61397
1202 7.32240 295.44616 283.35537 0.61235
1203 7.32600 295.48078 283.53295 0.61289
1204 7.32960 295.51641 284.24004 0.61123
1205 7.33320 295.55303 284.38285 0.61095
1206 7.33680 295.59059 281.83588 0.61614
1207 7.34040 295.62909 282.27065 0.61498
1208 7.34400 295.66850 282.15257 0.61440
1209 7.34760 295.70879 283.79808 0.61134
1210 7.35120 295.74994 286.18102 0.60769
1211 7.35480 295.79194 285.68423 0.60631
1212 7.35840 295.83476 285.23931 0.60916
1213 7.36200 295.87839 285.83915 0.60610
1214 7.36560 295.92281 285.64594 0.60873
1215 7.36920 295.96800 283.89526 0.61014
1216 7.37280 296.01396 283.75930 0.61116
1217 7.37640 296.06066 283.20774 0.61230
1218 7.38000 296.10875 283.89038 0.61249
1219 7.38360 296.16076 283.74011 0.61000
1220 7.38720 296.22096 283.55359 0.61155
1221 7.39080 296.30204 284.41438 0.60910
1222 7.39440 296.35252 283.79400 0.61190
1223 7.39800 296.40360 284.19999 0.60903
1224 7.40160 296.45535 284.45831 0.60932
1225 7.40520 296.50776 286.25062 0.60564
1226 7.40880 296.56084 285.21493 0.60926
1227 7.41240 296.61456 286.01446 0.60613
1228 7.41600 296.66894 285.75235 0.60597
1229 7.41960 296.72396 284.97336 0.60852
1230 7.42320 296.77961 282.37257 0.61555
1231 7.42680 296.83590 282.18842 0.61410
1232 7.43040 296.89282 281.78966 0.61462
1233 7.43400 296.95037 285.05270 0.60814
1234 7.43760 297.00855 283.48923 0.61116
1235 7.44120 297.06735 285.07412 0.60875
1236 7.44480 297.12677 283.24767 0.61056
1237 7.44840 297.18682 283.73618 0.61148
1238 7.45200 297.24750 283.80719 0.60922
1239 7.45560 297.30879 284.53222 0.60957
1240 7.45920 297.37072 285.40614 0.60546
1241 7.46280 297.43327 284.98970 0.60839
1242 7.46640 297.49645 285.34446 0.60630
1243 7.47000 297.56027 284.01251 0.61106
1244 7.47360 297.62472 284.78019 0.60623
1245 7.47720 297.68980 284.84135 0.60775
1246 7.48080 297.75554 284.42946 0.60871
1247 7.48440 297.82192 286.81001 0.60461
1248 7.48800 297.88895 285.83344 0.60444
1249 7.49160 297.95665 287.46795 0.60209
1250 7.49520 298.02501 287.87855 0.60099
1251 7.49880 298.09404 287.17471 0.60287
1252 7.50240 298.16375 289.38542 0.59918
1253 7.50600 298.23414 287.22328 0.60401
1254 7.50960 298.30524 286.85613 0.60464
1255 7.51320 298.37703 288.67352 0.60016
1256 7.51680 298.44954 287.64304 0.60213
1257 7.52040 298.52278 287.73474 0.60167
1258 7.52400 298.59674 286.70448 0.60566
1259 7.52760 298.67146 288.07839 0.60133
1260 7.53120 298.74692 289.31466 0.59951
1261 7.53480 298.82316 290.13768 0.59775
1262 7.53840 298.90018 288.63276 0.60206
1263 7.54200 298.97799 287.43963 0.60199
1264 7.54560 299.05660 290.81357 0.59778
1265 7.54920 299.13604 290.61524 0.59531
1266 7.55280 299.21632 289.71069 0.60051
1267 7.55640 299.29745 288.51891 0.60146
1268 7.56000 299.37945 288.95757 0.60050
1269 7.56360 299.46234 289.63297 0.59765
1270 7.56720 299.54613 289.36417 0.60112
1271 7.57080 299.63084 288.67360 0.60208
1272 7.57440 299.71649 288.99144 0.60216
1273 7.57800 299.80311 289.47133 0.59977
1274 7.58160 299.89070 288.54747 0.60247
1275 7.58520 299.97930 288.87540 0.60178
1276 7.58880 300.06893 288.69522 0.60226
1277 7.59240 300.15960 290.03276 0.59772
1278 7.59600 300.25135 289.49717 0.60139
1279 7.59960 300.34420 288.32210 0.60506
1280 7.60320 300.43816 289.06530 0.59979
1281 7.60680 300.53328 290.88131 0.59562
1282 7.61040 300.62957 290.98453 0.59610
1283 7.61400 300.72707 288.16701 0.60316
1284 7.61760 300.82581 287.49868 0.60430
1285 7.62120 300.92581 289.90476 0.59943
1286 7.62480 301.02711 290.42177 0.59589
1287 7.62840 301.12973 289.86531 0.59986
1288 7.63200 301.23373 290.10333 0.59711
1289 7.63560 301.33912 290.50389 0.59720
1290 7.63920 301.44595 290.45564 0.59567
1291 7.64280 301.55425 290.72141 0.59743
1292 7.64640 301.66407 289.38440 0.59909
1293 7.65000 301.77544 289.48432 0.59921
1294 7.65360 301.88841 290.86900 0.59428
1295 7.65720 302.00302 290.69962 0.59624
1296 7.66080 302.11931 289.78367 0.59768
1297 7.66440 302.23733 290.34131 0.59703
1298 7.66800 302.35714 290.69187 0.59525
1299 7.67160 302.47877 292.11193 0.59255
1300 7.67520 302.60229 293.27713 0.58960
1301 7.67880 302.72775 292.03457 0.59552
1302 7.68240 302.85519 289.23955 0.60074
1303 7.68600 302.98469 290.95302 0.59496
1304 7.68960 303.11630 290.56860 0.59743
1305 7.69320 303.25008 292.88853 0.59186
1306 7.69680 303.38611 293.21801 0.59191
1307 7.70040 303.52443 295.68474 0.58596
1308 7.70400 303.66514 291.21612 0.59720
1309 7.70760 303.80829 289.31500 0.59920
1310 7.71120 303.95396 291.00055 0.59640
1311 7.71480 304.10224 290.81634 0.59463
1312 7.71840 304.25320 293.76095 0.58946
1313 7.72200 304.40692 293.84980 0.58960
1314 7.72560 304.56350 292.82240 0.59394
1315 7.72920 304.72303 291.69053 0.59377
1316 7.73280 304.88560 291.28355 0.59672
1317 7.73640 305.05131 294.56534 0.58744
1318 7.74000 305.22026 294.48283 0.58853
1319 7.74360 305.39256 294.21840 0.58827
1320 7.74720 305.56832 292.97145 0.59172
1321 7.75080 305.74765 294.41456 0.58844
1322 7.75440 305.93068 296.17776 0.58705
1323 7.75800 306.11753 294.86571 0.58931
1324 7.76160 306.30834 293.26403 0.59155
1325 7.76520 306.50323 296.46917 0.58566
1326 7.76880 306.70235 294.90901 0.58933
1327 7.77240 306.90586 296.02722 0.58726
1328 7.77600 307.11390 297.00294 0.58209
1329 7.77960 307.32663 295.30252 0.58704
1330 7.78320 307.54423 295.89905 0.58535
1331 7.78680 307.76686 295.59502 0.58768
1332 7.79040 307.99472 295.23192 0.58678
1333 7.79400 308.22800 294.97141 0.58944
1334 7.79760 308.46690 295.34236 0.58749
1335 7.80120 308.71163 297.97895 0.58305
1336 7.80480 308.96240 298.26359 0.58090
1337 7.80840 309.21945 296.95896 0.58564
1338 7.81200 309.48303 299.02651 0.57981
1339 7.81560 309.75337 298.91203 0.58114
1340 7.81920 310.03076 298.16431 0.58170
1341 7.82280 310.31547 300.57424 0.57807
1342 7.82640 310.60778 299.85673 0.57758
1343 7.83000 310.90801 300.07529 0.57791
1344 7.83360 311.21647 299.24955 0.57971
1345 7.83720 311.53352 299.24082 0.58084
1346 7.84080 311.85949 298.50512 0.58206
1347 7.84440 312.19476 300.46548 0.57679
1348 7.84800 312.53973 298.79552 0.58095
1349 7.85160 312.89481 301.08218 0.57687
1350 7.85520 313.26044 303.43655 0.57327
1351 7.85880 313.63708 307.13366 0.56558
1352 7.86240 314.02520 305.26027 0.56984
1353 7.86600 314.42533 305.55181 0.56756
1354 7.86960 314.83799 303.65818 0.57259
1355 7.87320 315.26376 302.97829 0.57306
1356 7.87680 315.70324 304.92176 0.57065
1357 7.88040 316.15708 306.13915 0.56614
1358 7.88400 316.62593 305.49672 0.56879
1359 7.88760 317.11051 305.49777 0.56672
1360 7.89120 317.61159 308.26753 0.56305
1361 7.89480 318.12995 306.86562 0.56448
1362 7.89840 318.66646 307.74856 0.56404
1363 7.90200 319.22201 308.15629 0.56183
1364 7.90560 319.79755 308.59511 0.56182
1365 7.90920 320.39412 310.88985 0.55617
1366 7.91280 321.01279 310.70355 0.55694
1367 7.91640 321.65472 310.71302 0.55808
1368 7.92000 322.32114 312.92579 0.55399
1369 7.92360 323.01335 314.22896 0.55133
1370 7.92720 323.73277 314.31204 0.55167
1371 7.93080 324.48089 315.72940 0.54912
1372 7.93440 325.25931 315.50016 0.54885
1373 7.93800 326.06973 316.40031 0.54738
1374 7.94160 326.91400 318.34264 0.54481
1375 7.94520 327.79408 319.34138 0.54514
1376 7.94880 328.71209 320.06749 0.54454
1377 7.95240 329.67028 321.71814 0.53962
1378 7.95600 330.67110 322.16341 0.53758
1379 7.95960 331.71717 322.57203 0.53797
1380 7.96320 332.81133 325.31620 0.53293
1381 7.96680 333.95663 324.51770 0.53517
1382 7.97040 335.15636 328.81692 0.52710
1383 7.97400 336.41409 330.67634 0.52473
1384 7.97760 337.73368 328.71440 0.52631
1385 7.98120 339.11932 331.28612 0.52314
1386 7.98480 340.57555 334.64837 0.51708
1387 7.98840 342.10731 335.77777 0.51609
1388 7.99200 343.71999 336.15546 0.51485
1389 7.99560 345.41943 340.06115 0.50924
1390 7.99920 347.21204 340.19648 0.50887
1391 8.00280 349.10482 343.59126 0.50404
1392 8.00640 351.10541 346.09450 0.49928
1393 8.01000 353.22223 349.70552 0.49424
1394 8.01360 355.46450 351.64998 0.49144
1395 8.01720 357.84238 353.75251 0.48877
1396 8.02080 360.36706 359.05063 0.48201
1397 8.02440 363.05092 361.89911 0.47784
1398 8.02800 365.90764 365.75593 0.47409
1399 8.03160 368.95239 370.45535 0.46766
1400 8.03520 372.20206 374.60344 0.46237
1401 8.03880 375.67541 377.82281 0.45717
1402 8.04240 379.39341 384.52927 0.45009
1403 8.04600 383.37951 390.38400 0.44222
1404 8.04960 387.66001 399.49557 0.43213
1405 8.05320 392.26448 403.23797 0.42873
1406 8.05680 397.22623 409.89103 0.42350
1407 8.06040 402.58297 419.77874 0.41244
1408 8.06400 408.37744 428.83477 0.40355
1409 8.06760 414.65834 439.64637 0.39304
1410 8.07120 421.48142 449.92213 0.38581
1411 8.07480 428.91097 459.76810 0.37593
1412 8.07840 437.02179 475.52537 0.36377
1413 8.08200 445.90229 494.46210 0.34661
1414 8.08560 455.65902 516.22831 0.32341
1415 8.08920 466.42510 537.97556 0.32075
1416 8.09280 478.38184 559.62635 0.24527
1417 8.09640 491.77626 591.64380 0.24464
1418 8.10000 507.00218 622.14703 0.21605
1419 8.10360 524.24746 663.62230 0.19007
1420 8.10720 544.32408 705.79252 0.17250
1421 8.11080 568.22073 759.80617 0.15256
1422 8.11440 597.39181 819.49068 0.12308
1423 8.11800 633.96061 897.03536 0.10296
1424 8.12160 680.96314 986.63356 0.07932
1425 8.12520 742.62306 1090.49044 0.06565
1426 8.12880 824.62447 1213.79365 0.05022
1427 8.13240 934.32715 1363.13034 0.03983
1428 8.13600 1080.84523 1546.02114 0.02937
1429 8.13960 1274.89374 1765.56571 0.02354
1430 8.14320 1528.30555 2027.32562 0.01830
1431 8.14680 1853.13972 2342.32416 0.01381
1432 8.15040 2260.34804 2724.90243 0.01073
1433 8.15400 2758.04887 3180.59243 0.00836
1434 8.15760 3349.52423 3696.68621 0.00681
1435 8.16120 4031.13994 4287.15784 0.00546
1436 8.16480 4790.42552 4917.89024 0.00502
1437 8.16840 5604.55604 5569.82186 0.00445
1438 8.17200 6439.49494 6205.39455 0.00472
1439 8.17560 7250.16816 6795.09124 0.00476
1440 8.17920 7982.31058 7285.01761 0.00615
1441 8.18280 8576.90634 7666.48383 0.00769
1442 8.18640 8977.93447 7905.73151 0.01149
1443 8.19000 9142.76978 7989.34383 0.01432
1444 8.19360 9052.27952 7940.80823 0.01168
1445 8.19720 8716.18021 7752.48652 0.00868
1446 8.20080 8170.71991 7408.81325 0.00709
1447 8.20440 7469.49748 6969.56592 0.00608
1448 8.20800 6672.61581 6446.47969 0.00563
1449 8.21160 5837.08750 5854.75039 0.00527
1450 8.21520 5011.30545 5234.83996 0.00559
1451 8.21880 4232.63965 4623.76061 0.00582
1452 8.22240 3527.02454 4024.80751 0.00671
1453 8.22600 2909.66671 3490.81818 0.00814
1454 8.22960 2386.43454 3026.12019 0.01011
1455 8.23320 1955.69148 2629.97449 0.01264
1456 8.23680 1610.35739 2284.23155 0.01520
1457 8.24040 1339.96463 1994.76022 0.01962
1458 8.24400 1132.49502 1753.24340 0.02494
1459 8.24760 975.84488 1552.25454 0.02956
1460 8.25120 858.85061 1383.06520 0.04014
1461 8.25480 771.88494 1247.72030 0.04785
1462 8.25840 707.09295 1124.79395 0.05982
1463 8.26200 658.36483 1028.73037 0.07968
1464 8.26560 621.14662 948.34733 0.09631
1465 8.26920 592.17562 882.14073 0.12701
1466 8.27280 569.20460 825.40965 0.13535
1467 8.27640 550.75494 775.40526 0.18257
1468 8.28000 535.91794 738.20379 0.19442
1469 8.28360 524.20883 712.63345 0.24165
1470 8.28720 515.46783 689.50990 0.24827
1471 8.29080 509.79741 669.96732 0.25722
1472 8.29440 507.52258 663.30587 0.25893
1473 8.29800 509.15983 663.24229 0.25943
1474 8.30160 515.38161 661.79046 0.25855
1475 8.30520 526.96448 667.22353 0.25751
1476 8.30880 544.71242 686.56070 0.24992
1477 8.31240 569.35168 706.97266 0.24305
1478 8.31600 601.39853 732.70694 0.23383
1479 8.31960 641.01030 765.45791 0.17303
1480 8.32320 687.83312 804.82549 0.17056
1481 8.32680 740.86008 850.73464 0.14116
1482 8.33040 798.31279 888.28045 0.16217
1483 8.33400 857.61731 928.46787 0.15334
1484 8.33760 915.39935 963.20314 0.17283
1485 8.34120 967.54610 991.22423 0.17230
1486 8.34480 1009.61770 1006.02161 0.16994
1487 8.34840 1037.38478 1016.68548 0.16845
1488 8.35200 1047.59416 1015.39339 0.16814
1489 8.35560 1038.72005 999.75201 0.17047
1490 8.35920 1011.37750 972.05492 0.17431
1491 8.36280 968.17297 940.67080 0.18155
1492 8.36640 913.06002 900.56458 0.16437
1493 8.37000 850.50878 852.75243 0.14775
1494 8.37360 784.80656 796.57773 0.14677
1495 8.37720 719.62659 742.60442 0.15094
1496 8.38080 657.83654 690.89397 0.16262
1497 8.38440 601.45853 642.81146 0.18606
1498 8.38800 551.71455 600.30216 0.20640
1499 8.39160 509.12304 558.47568 0.21905
1500 8.39520 473.62912 521.88637 0.26762
1501 8.39880 444.75355 494.55643 0.29456
1502 8.40240 421.74365 469.06261 0.36793
1503 8.40600 403.71082 445.88453 0.36835
1504 8.40960 389.74266 429.22190 0.40266
1505 8.41320 378.98391 413.98043 0.41701
1506 8.41680 370.68586 402.64600 0.42816
1507 8.42040 364.22848 391.08962 0.44056
1508 8.42400 359.12185 378.79963 0.45555
1509 8.42760 354.99427 372.62438 0.46379
1510 8.43120 351.57340 364.61524 0.47344
1511 8.43480 348.66546 358.73706 0.48224
1512 8.43840 346.13563 353.84981 0.48805
1513 8.44200 343.89152 348.89378 0.49533
1514 8.44560 341.87014 344.25171 0.50183
1515 8.44920 340.02823 341.27145 0.50651
1516 8.45280 338.33555 336.51616 0.51197
1517 8.45640 336.77026 333.75937 0.51710
1518 8.46000 335.31599 329.56621 0.52234
1519 8.46360 333.95995 329.53069 0.52438
1520 8.46720 332.69180 324.98698 0.53193
1521 8.47080 331.50288 324.27743 0.53369
1522 8.47440 330.38581 322.59104 0.53537
1523 8.47800 329.33419 319.29559 0.54333
1524 8.48160 328.34241 319.06319 0.54102
1525 8.48520 327.40548 319.22127 0.54067
1526 8.48880 326.51900 316.03192 0.54560
1527 8.49240 325.67915 314.78977 0.55030
1528 8.49600 324.88339 313.11430 0.55298
1529 8.49960 324.13058 313.55302 0.55243
1530 8.50320 323.42100 312.31968 0.55405
1531 8.50680 322.73512 308.19329 0.56221
1532 8.51040 322.08120 308.12642 0.56171
1533 8.51400 321.45714 307.89427 0.56359
1534 8.51760 320.86099 307.50627 0.56266
1535 8.52120 320.29097 307.75991 0.56216
1536 8.52480 319.74545 307.04839 0.56265
1537 8.52840 319.22296 305.42506 0.56601
1538 8.53200 318.72211 305.31911 0.56696
1539 8.53560 318.24165 306.11194 0.56454
1540 8.53920 317.78041 305.66854 0.56513
1541 8.54280 317.33733 305.18195 0.56448
1542 8.54640 316.91141 303.79897 0.56968
1543 8.55000 316.50173 303.82760 0.56719
1544 8.55360 316.10743 304.06089 0.56857
1545 8.55720 315.72773 301.90806 0.57077
1546 8.56080 315.36189 302.61356 0.57062
1547 8.56440 315.00921 302.11031 0.57147
1548 8.56800 314.66905 303.13767 0.56967
1549 8.57160 314.34082 300.87981 0.57283
1550 8.57520 314.02395 299.05781 0.57678
1551 8.57880 313.71791 300.74719 0.57266
1552 8.58240 313.42222 301.44233 0.57374
1553 8.58600 313.13641 299.53684 0.57657
1554 8.58960 312.86005 299.43447 0.57595
1555 8.59320 312.59273 299.42233 0.57710
1556 8.59680 312.33406 298.08907 0.57920
1557 8.60040 312.08368 299.63052 0.57621
1558 8.60400 311.84126 297.91698 0.57853
1559 8.60760 311.60646 299.10193 0.57718
1560 8.61120 311.37899 298.68537 0.57690
1561 8.61480 311.15855 298.36698 0.57990
1562 8.61840 310.94488 299.06302 0.57696
1563 8.62200 310.73772 299.80707 0.57763
1564 8.62560 310.53683 298.27651 0.57911
1565 8.62920 310.34197 297.42363 0.58159
1566 8.63280 310.15292 297.00432 0.58144
1567 8.63640 309.96949 296.70944 0.58329
1568 8.64000 309.79147 295.58749 0.58381
1569 8.64360 309.61867 296.50060 0.58394
1570 8.64720 309.45093 296.47339 0.58213
1571 8.65080 309.28806 294.90864 0.58662
1572 8.65440 309.12992 295.84812 0.58300
1573 8.65800 308.97635 296.09894 0.58226
1574 8.66160 308.82720 294.34698 0.58677
1575 8.66520 308.68233 294.88027 0.58465
1576 8.66880 308.54163 296.50104 0.58120
1577 8.67240 308.40496 295.74502 0.58328
1578 8.67600 308.27220 295.44898 0.58343
1579 8.67960 308.14324 295.64700 0.58439
1580 8.68320 308.01799 295.40343 0.58433
1581 8.68680 307.89650 296.82401 0.58093
1582 8.69040 307.77901 296.69572 0.58301
1583 8.69400 307.66593 298.31601 0.57772
1584 8.69760 307.55448 296.81550 0.58134
1585 8.70120 307.44626 295.70969 0.58186
1586 8.70480 307.34119 296.48460 0.58119
1587 8.70840 307.23920 295.22400 0.58375
1588 8.71200 307.14022 294.32601 0.58801
1589 8.71560 307.04417 296.67133 0.58191
1590 8.71920 306.95101 297.35031 0.58200
1591 8.72280 306.86066 296.69780 0.57854
1592 8.72640 306.77307 294.65025 0.58627
1593 8.73000 306.68818 296.75005 0.58048
1594 8.73360 306.60595 297.48821 0.58098
1595 8.73720 306.52634 297.46853 0.57929
1596 8.74080 306.44929 295.72564 0.58442
1597 8.74440 306.37477 295.65199 0.58449
1598 8.74800 306.30274 295.67569 0.58523
1599 8.75160 306.23317 297.19928 0.58074
1600 8.75520 306.16603 296.57001 0.58386
1601 8.75880 306.10129 296.61477 0.58399
1602 8.76240 306.03893 296.10623 0.58434
1603 8.76600 305.97894 295.08534 0.58684
1604 8.76960 305.92130 295.47126 0.58352
1605 8.77320 305.86600 295.72284 0.58449
1606 8.77680 305.81304 297.17519 0.58134
1607 8.78040 305.76242 296.25220 0.58410
1608 8.78400 305.71416 297.97501 0.57952
1609 8.78760 305.66829 295.46505 0.58314
1610 8.79120 305.62483 294.59019 0.58492
1611 8.79480 305.58387 295.68280 0.58505
1612 8.79840 305.54550 298.19403 0.57814
1613 8.80200 305.50990 296.87685 0.58160
1614 8.80560 305.47729 296.03368 0.58180
1615 8.80920 305.44804 298.70994 0.57817
1616 8.81280 305.42267 298.74559 0.57676
1617 8.81640 305.40192 296.42539 0.58377
1618 8.82000 305.38681 296.01117 0.58401
1619 8.82360 305.37870 298.41472 0.58093
1620 8.82720 305.37934 299.16575 0.57778
1621 8.83080 305.39091 297.47171 0.57825
1622 8.83440 305.41599 297.21963 0.57598
1623 8.83800 305.45745 297.53873 0.57715
1624 8.84160 305.51833 298.11460 0.57696
1625 8.84520 305.60150 298.67905 0.57627
1626 8.84880 305.70935 299.11354 0.57517
1627 8.85240 305.84337 298.83924 0.57627
1628 8.85600 306.00362 296.84826 0.58051
1629 8.85960 306.18832 298.93014 0.57565
1630 8.86320 306.39343 298.31487 0.57933
1631 8.86680 306.61232 298.31912 0.57878
1632 8.87040 306.83567 298.40438 0.57744
1633 8.87400 307.05154 299.10393 0.57452
1634 8.87760 307.24589 299.62417 0.57521
1635 8.88120 307.40377 301.19149 0.57174
1636 8.88480 307.51126 300.42790 0.57463
1637 8.88840 307.55802 300.51745 0.57226
1638 8.89200 307.53966 301.75752 0.57130
1639 8.89560 307.45896 301.70716 0.57027
1640 8.89920 307.32513 300.43343 0.57456
1641 8.90280 307.15173 300.58695 0.57393
1642 8.90640 306.95392 299.43642 0.57581
1643 8.91000 306.74626 300.66105 0.57139
1644 8.91360 306.54133 301.43607 0.57168
1645 8.91720 306.34910 299.22469 0.57448
1646 8.92080 306.17680 300.35673 0.57404
1647 8.92440 306.02904 300.10244 0.57439
1648 8.92800 305.90809 298.13793 0.57798
1649 8.93160 305.81427 297.96214 0.57857
1650 8.93520 305.74641 299.76652 0.57482
1651 8.93880 305.70233 298.79585 0.57581
1652 8.94240 305.67926 300.49259 0.57311
1653 8.94600 305.67425 299.66227 0.57522
1654 8.94960 305.68442 300.01722 0.57361
1655 8.95320 305.70623 298.98205 0.57679
1656 8.95680 305.73625 300.15054 0.57351
1657 8.96040 305.77132 297.34658 0.58175
1658 8.96400 305.80570 299.24548 0.57736
1659 8.96760 305.82328 299.17687 0.57664
1660 8.97120 305.88356 298.52748 0.57501
1661 8.97480 305.95056 300.06208 0.57250
1662 8.97840 306.02257 300.04618 0.57403
1663 8.98200 306.09947 299.51638 0.57628
1664 8.98560 306.18120 301.63321 0.56986
1665 8.98920 306.26780 300.65314 0.57390
1666 8.99280 306.35934 299.61461 0.57580
1667 8.99640 306.45593 301.86837 0.57158
1668 9.00000 306.55769 301.50999 0.57178
1669 9.00360 306.66479 301.48678 0.57022
1670 9.00720 306.77739 303.40563 0.56580
1671 9.01080 306.89570 302.73900 0.56991
1672 9.01440 307.01992 301.25127 0.57187
1673 9.01800 307.15027 303.33105 0.56914
1674 9.02160 307.28700 302.69387 0.56907
1675 9.02520 307.43038 301.70363 0.57218
1676 9.02880 307.58068 304.10639 0.56913
1677 9.03240 307.73821 304.63418 0.56663
1678 9.03600 307.90328 303.10286 0.56958
1679 9.03960 308.07624 301.40453 0.57349
1680 9.04320 308.25747 304.09049 0.57082
1681 9.04680 308.44735 302.51777 0.57105
1682 9.05040 308.64630 303.19072 0.56981
1683 9.05400 308.85479 305.44933 0.56478
1684 9.05760 309.07329 302.60435 0.57340
1685 9.06120 309.30232 303.19281 0.57013
1686 9.06480 309.54243 303.50407 0.57173
1687 9.06840 309.79422 304.44981 0.56910
1688 9.07200 310.05833 306.79258 0.56529
1689 9.07560 310.33545 306.06736 0.56504
1690 9.07920 310.62630 307.54542 0.56223
1691 9.08280 310.93169 307.49148 0.55802
1692 9.08640 311.25246 306.66898 0.55977
1693 9.09000 311.58954 306.67926 0.56111
1694 9.09360 311.94391 306.35010 0.56286
1695 9.09720 312.31665 307.94381 0.55989
1696 9.10080 312.70890 309.76937 0.55621
1697 9.10440 313.12193 309.96173 0.55592
1698 9.10800 313.55709 310.12983 0.55570
1699 9.11160 314.01584 311.50492 0.55274
1700 9.11520 314.49979 311.58609 0.55331
1701 9.11880 315.01066 311.23580 0.55356
1702 9.12240 315.55035 312.83076 0.55031
1703 9.12600 316.12093 313.26398 0.55158
1704 9.12960 316.72462 315.02118 0.54725
1705 9.13320 317.36391 316.88964 0.54483
1706 9.13680 318.04147 317.48167 0.54201
1707 9.14040 318.76026 315.70260 0.54696
1708 9.14400 319.52353 318.47449 0.54027
1709 9.14760 320.33485 321.27981 0.53622
1710 9.15120 321.19815 321.40825 0.53584
1711 9.15480 322.11777 322.80987 0.53492
1712 9.15840 323.09854 325.03284 0.52847
1713 9.16200 324.14577 324.52248 0.53141
1714 9.16560 325.26539 326.68524 0.52681
1715 9.16920 326.46400 330.76633 0.52116
1716 9.17280 327.74898 331.16673 0.52069
1717 9.17640 329.13445 335.10658 0.51555
1718 9.18000 330.64653 336.49896 0.51296
1719 9.18360 332.36208 338.84600 0.50945
1720 9.18720 334.09165 342.36998 0.50265
1721 9.19080 335.95445 345.77236 0.49778
1722 9.19440 337.97143 350.17141 0.49198
1723 9.19800 340.15988 356.15246 0.48452
1724 9.20160 342.53983 358.97781 0.48055
1725 9.20520 345.13483 363.87962 0.47473
1726 9.20880 347.97309 368.59318 0.46895
1727 9.21240 351.08931 373.42403 0.46384
1728 9.21600 354.52750 382.00170 0.45158
1729 9.21960 358.34542 390.75152 0.43903
1730 9.22320 362.62146 402.32366 0.42806
1731 9.22680 367.46497 414.18722 0.41482
1732 9.23040 373.03155 427.38358 0.40355
1733 9.23400 379.54465 441.65071 0.38973
1734 9.23760 387.32514 462.64894 0.37200
1735 9.24120 396.82959 480.42500 0.35805
1736 9.24480 408.69750 505.29708 0.28191
1737 9.24840 423.80510 531.87467 0.32271
1738 9.25200 443.32126 565.57678 0.21601
1739 9.25560 468.75695 604.10543 0.19642
1740 9.25920 501.99636 652.94570 0.16417
1741 9.26280 545.29394 705.84771 0.13451
1742 9.26640 601.22031 772.58751 0.10880
1743 9.27000 672.54045 848.37685 0.10272
1744 9.27360 762.01326 935.80504 0.07358
1745 9.27720 872.10993 1045.04163 0.06428
1746 9.28080 1004.66124 1170.40326 0.05231
1747 9.28440 1160.45657 1317.31358 0.04856
1748 9.28800 1338.82961 1482.57487 0.03661
1749 9.29160 1537.26940 1674.31807 0.03262
1750 9.29520 1751.09522 1872.96557 0.02988
1751 9.29880 1973.23102 2064.82088 0.02903
1752 9.30240 2194.13243 2248.29642 0.02673
1753 9.30600 2401.96565 2414.67479 0.03130
1754 9.30960 2583.21200 2542.29225 0.03417
1755 9.31320 2723.90717 2643.13201 0.04183
1756 9.31680 2811.59226 2694.33331 0.06179
1757 9.32040 2837.66527 2685.93805 0.06195
1758 9.32400 2799.36913 2646.87279 0.04724
1759 9.32760 2700.51962 2561.42053 0.03641
1760 9.33120 2550.59354 2435.19200 0.03012
1761 9.33480 2362.60154 2275.67133 0.02659
1762 9.33840 2150.68765 2095.81154 0.02501
1763 9.34200 1928.22639 1901.65721 0.02675
1764 9.34560 1706.69146 1707.64593 0.02720
1765 9.34920 1495.16286 1510.79231 0.03020
1766 9.35280 1300.23017 1327.79422 0.03590
1767 9.35640 1126.11481 1168.59451 0.04377
1768 9.36000 974.92394 1028.15099 0.05668
1769 9.36360 846.99152 909.15735 0.07132
1770 9.36720 741.27497 811.71794 0.09425
1771 9.37080 655.77009 731.93346 0.12733
1772 9.37440 587.90637 668.22207 0.15137
1773 9.37800 534.89042 613.85005 0.18193
1774 9.38160 493.97740 571.32675 0.23438
1775 9.38520 462.67444 534.18883 0.26602
1776 9.38880 438.71078 503.60072 0.27061
1777 9.39240 420.30309 475.19760 0.31653
1778 9.39600 406.02371 454.18134 0.37736
1779 9.39960 394.76808 436.85304 0.39416
1780 9.40320 385.71438 421.15491 0.41006
1781 9.40680 378.26692 408.46569 0.42247
1782 9.41040 372.00273 398.58048 0.43337
1783 9.41400 366.62592 386.64827 0.44647
1784 9.41760 361.93090 378.36136 0.45733
1785 9.42120 357.77455 371.69702 0.46305
1786 9.42480 354.05602 365.54260 0.47334
1787 9.42840 350.70267 357.57587 0.48241
1788 9.43200 347.66058 353.21665 0.48963
1789 9.43560 344.88831 349.02050 0.49484
1790 9.43920 342.35293 347.16631 0.49780
1791 9.44280 340.02748 342.52816 0.50388
1792 9.44640 337.88932 337.63330 0.51206
1793 9.45000 335.91911 335.54858 0.51495
1794 9.45360 334.10009 334.77748 0.51596
1795 9.45720 332.41765 331.43180 0.52120
1796 9.46080 330.85891 330.24639 0.52131
1797 9.46440 329.41251 328.16796 0.52670
1798 9.46800 328.06949 327.85370 0.52564
1799 9.47160 326.82470 322.54489 0.53730
1800 9.47520 325.68480 320.80853 0.53850
1801 9.47880 324.59862 323.18578 0.53539
1802 9.48240 323.58282 320.66058 0.53861
1803 9.48600 322.63293 321.28749 0.53771
1804 9.48960 321.74376 319.92824 0.53872
1805 9.49320 320.91063 319.47263 0.54151
1806 9.49680 320.12931 317.59616 0.54324
1807 9.50040 319.39598 318.36688 0.54337
1808 9.50400 318.70716 317.09688 0.54385
1809 9.50760 318.05971 315.49404 0.54875
1810 9.51120 317.45077 315.43217 0.54892
1811 9.51480 316.87772 315.38922 0.55074
1812 9.51840 316.33818 315.40683 0.54804
1813 9.52200 315.83000 312.38544 0.55267
1814 9.52560 315.35118 310.73962 0.55599
1815 9.52920 314.89990 312.91031 0.55382
1816 9.53280 314.47451 310.35553 0.55810
1817 9.53640 314.07348 312.37632 0.55288
1818 9.54000 313.69541 313.68251 0.55119
1819 9.54360 313.33902 312.27489 0.55450
1820 9.54720 313.00312 313.22425 0.55208
1821 9.55080 312.68663 310.87785 0.55605
1822 9.55440 312.38855 310.91059 0.55731
1823 9.55800 312.10797 310.88421 0.55520
1824 9.56160 311.84404 311.41051 0.55743
1825 9.56520 311.59599 310.14851 0.55538
1826 9.56880 311.36310 309.26221 0.55917
1827 9.57240 311.14472 309.79160 0.55890
1828 9.57600 310.94024 310.92379 0.55955
1829 9.57960 310.74913 310.10839 0.55925
1830 9.58320 310.57086 310.34526 0.56028
1831 9.58680 310.40500 307.39388 0.56313
1832 9.59040 310.25110 310.74382 0.55962
1833 9.59400 310.10881 308.91598 0.56079
1834 9.59760 309.97776 309.01515 0.56051
1835 9.60120 309.85766 310.01236 0.55763
1836 9.60480 309.74823 310.36567 0.55763
1837 9.60840 309.64923 309.97293 0.55906
1838 9.61200 309.56044 310.77943 0.55737
1839 9.61560 309.48168 308.34643 0.56228
1840 9.61920 309.41286 307.51343 0.56369
1841 9.62280 309.35401 309.60674 0.55802
1842 9.62640 309.30542 309.41161 0.55793
1843 9.63000 309.26553 307.99747 0.56341
1844 9.63360 309.23517 309.67026 0.55836
1845 9.63720 309.21434 310.99195 0.55550
1846 9.64080 309.20304 308.91704 0.56016
1847 9.64440 309.20132 310.48627 0.55861
1848 9.64800 309.20923 309.59094 0.55962
1849 9.65160 309.22687 310.64881 0.55883
1850 9.65520 309.25437 311.01391 0.55685
1851 9.65880 309.29189 311.41928 0.55787
1852 9.66240 309.33962 310.62481 0.55680
1853 9.66600 309.39776 311.15906 0.55775
1854 9.66960 309.46660 308.84801 0.56012
1855 9.67320 309.54641 311.36483 0.55660
1856 9.67680 309.63755 310.76169 0.55627
1857 9.68040 309.74037 311.59188 0.55604
1858 9.68400 309.85533 311.36207 0.55536
1859 9.68760 309.98287 310.15479 0.55761
1860 9.69120 310.12354 310.91065 0.55591
1861 9.69480 310.27793 311.54288 0.55653
1862 9.69840 310.44667 311.93951 0.55458
1863 9.70200 310.63050 313.46913 0.55170
1864 9.70560 310.83019 312.56734 0.55339
1865 9.70920 311.04664 312.83182 0.55279
1866 9.71280 311.28081 313.79062 0.55182
1867 9.71640 311.53377 314.84774 0.54931
1868 9.72000 311.80670 315.32224 0.55092
1869 9.72360 312.10090 315.80557 0.54926
1870 9.72720 312.41782 317.28736 0.54663
1871 9.73080 312.75905 317.88426 0.54206
1872 9.73440 313.12636 317.65974 0.54184
1873 9.73800 313.52170 318.54623 0.53905
1874 9.74160 313.94725 318.10145 0.54209
1875 9.74520 314.40544 320.45572 0.53704
1876 9.74880 314.89894 319.30562 0.54052
1877 9.75240 315.43076 321.97498 0.53471
1878 9.75600 316.00427 322.50574 0.53486
1879 9.75960 316.62320 324.60106 0.53103
1880 9.76320 317.29179 328.16260 0.52596
1881 9.76680 318.01478 328.02024 0.52528
1882 9.77040 318.79755 329.10271 0.52380
1883 9.77400 319.64619 329.17783 0.52393
1884 9.77760 320.56767 332.15023 0.52111
1885 9.78120 321.57006 334.27945 0.51716
1886 9.78480 322.66301 337.49274 0.51203
1887 9.78840 323.85844 341.39478 0.50569
1888 9.79200 325.17159 343.14574 0.50418
1889 9.79560 326.61369 345.77672 0.49961
1890 9.79920 328.21061 351.72812 0.49089
1891 9.80280 329.99222 355.24209 0.48782
1892 9.80640 331.99948 358.95328 0.47963
1893 9.81000 334.28974 364.72674 0.47388
1894 9.81360 336.94416 371.85160 0.46361
1895 9.81720 340.07777 378.06433 0.45771
1896 9.82080 343.85259 384.74337 0.45065
1897 9.82440 348.49788 394.73846 0.44115
1898 9.82800 354.33309 406.40650 0.43006
1899 9.83160 361.79862 418.19473 0.38876
1900 9.83520 371.30957 430.55607 0.36578
1901 9.83880 383.59916 447.10306 0.32857
1902 9.84240 399.47329 466.86148 0.33728
1903 9.84600 419.86709 487.28089 0.31897
1904 9.84960 445.81349 512.86985 0.24889
1905 9.85320 478.38593 544.21200 0.23185
1906 9.85680 518.61279 572.72368 0.22577
1907 9.86040 567.36462 611.81416 0.16389
1908 9.86400 625.21958 657.13089 0.19023
1909 9.86760 692.31630 699.86432 0.16585
1910 9.87120 768.20648 750.73211 0.13308
1911 9.87480 851.72013 807.86723 0.11828
1912 9.87840 940.85505 863.11550 0.13390
1913 9.88200 1032.70275 917.07799 0.11665
1914 9.88560 1123.42987 971.68620 0.12577
1915 9.88920 1208.35415 1016.82907 0.13624
1916 9.89280 1282.18197 1055.20580 0.14435
1917 9.89640 1339.48634 1085.35889 0.14641
1918 9.90000 1375.45232 1104.82791 0.14544
1919 9.90360 1386.78050 1110.01412 0.13175
1920 9.90720 1372.24237 1104.61574 0.11602
1921 9.91080 1333.25922 1086.99495 0.11747
1922 9.91440 1273.41708 1058.34551 0.11504
1923 9.91800 1197.69268 1018.99780 0.10115
1924 9.92160 1111.57451 974.19727 0.08509
1925 9.92520 1020.33169 922.06808 0.08608
1926 9.92880 928.56212 868.19779 0.09553
1927 9.93240 839.98342 819.07956 0.10056
1928 9.93600 757.37918 765.80485 0.09134
1929 9.93960 682.63134 714.55782 0.11389
1930 9.94320 616.80206 670.96646 0.13104
1931 9.94680 560.24851 628.35468 0.14062
1932 9.95040 512.75992 589.27770 0.15337
1933 9.95400 473.70569 557.26618 0.19108
1934 9.95760 442.18173 527.59782 0.21665
1935 9.96120 417.14292 501.25259 0.22828
1936 9.96480 397.51283 478.67961 0.27106
1937 9.96840 382.26577 463.44124 0.28065
1938 9.97200 370.48055 443.16875 0.29204
1939 9.97560 361.36892 427.92227 0.30312
1940 9.97920 354.28363 417.36649 0.31033
1941 9.98280 348.71195 402.41977 0.32336
1942 9.98640 344.26030 394.79496 0.32728
1943 9.99000 340.63470 385.51224 0.33741
1944 9.99360 337.62056 380.64000 0.34029
1945 9.99720 335.06405 373.13325 0.34849
1946 10.00080 332.85623 367.92832 0.35274
1947 10.00440 330.92033 362.34126 0.35771
1948 10.00800 329.20210 356.50458 0.36393
1949 10.01160 327.66269 353.07353 0.36803
1950 10.01520 326.27371 348.65449 0.37131
1951 10.01880 325.01382 346.54058 0.37435
1952 10.02240 323.86645 345.21850 0.37617
1953 10.02600 322.81834 341.39577 0.38138
1954 10.02960 321.85856 339.09342 0.38370
1955 10.03320 320.97791 334.52339 0.38878
1956 10.03680 320.16848 331.82828 0.39132
1957 10.04040 319.42343 331.36532 0.39186
1958 10.04400 318.73676 329.28271 0.39373
1959 10.04760 318.10315 329.11449 0.39352
1960 10.05120 317.51792 325.16411 0.39968
1961 10.05480 316.97768 326.59450 0.39752
1962 10.05840 316.48514 325.38316 0.39830
1963 10.06200 316.06213 322.12374 0.40245
1964 10.06560 315.64686 325.29134 0.40044
1965 10.06920 315.24921 323.19832 0.40384
1966 10.07280 314.88061 325.36734 0.40209
1967 10.07640 314.53888 321.45086 0.40885
1968 10.08000 314.22204 319.22062 0.40744
1969 10.08360 313.92831 318.89051 0.36050
1970 10.08720 313.65607 318.80034 0.36153
1971 10.09080 313.40385 319.78672 0.39370
1972 10.09440 313.17032 319.69860 0.46445
1973 10.09800 312.95424 317.99894 0.46066
1974 10.10160 312.75452 319.89618 0.45481
1975 10.10520 312.57014 318.38143 0.45440
1976 10.10880 312.40016 316.47596 0.45745
1977 10.11240 312.24374 318.23456 0.45276
1978 10.11600 312.10010 318.43216 0.45171
1979 10.11960 311.96853 317.58305 0.45224
1980 10.12320 311.84836 317.19145 0.45582
1981 10.12680 311.73900 316.91666 0.45543
1982 10.13040 311.64078 317.97144 0.45365
1983 10.13400 311.56139 314.93981 0.45987
1984 10.13760 311.53147 317.76455 0.45479
1985 10.14120 311.48260 317.00777 0.45797
1986 10.14480 311.41996 314.45563 0.46354
1987 10.14840 311.36538 314.67208 0.46843
1988 10.15200 311.31852 314.91829 0.47206
1989 10.15560 311.27907 316.34999 0.36651
1990 10.15920 311.24674 314.86738 0.36522
1991 10.16280 311.22126 316.24802 0.36283
1992 10.16640 311.20238 318.09712 0.36066
1993 10.17000 311.18987 315.71920 0.38451
1994 10.17360 311.18353 315.67631 0.41946
1995 10.17720 311.18316 316.88849 0.41629
1996 10.18080 311.18858 318.42675 0.41282
1997 10.18440 311.19964 315.65681 0.41384
1998 10.18800 311.21617 313.94192 0.41356
1999 10.19160 311.23805 314.69345 0.41328
2000 10.19520 311.26515 315.03814 0.41158
2001 10.19880 311.29734 316.54948 0.41046
2002 10.20240 311.33454 314.05212 0.41196
2003 10.20600 311.37665 316.72201 0.40914
2004 10.20960 311.42357 317.21939 0.40752
2005 10.21320 311.47525 317.99926 0.40818
2006 10.21680 311.53160 316.87079 0.40847
2007 10.22040 311.59258 316.11686 0.41070
2008 10.22400 311.65812 315.61908 0.41111
2009 10.22760 311.72820 316.43994 0.40994
2010 10.23120 311.80276 315.52191 0.41180
2011 10.23480 311.88179 316.63081 0.41085
2012 10.23840 311.96625 316.34905 0.41139
2013 10.24200 312.06047 315.13162 0.41360
2014 10.24560 312.17774 317.11264 0.41090
2015 10.24920 312.27526 316.14256 0.40921
2016 10.25280 312.37647 316.44000 0.41178
2017 10.25640 312.48211 314.80610 0.41363
2018 10.26000 312.59219 317.64687 0.40970
2019 10.26360 312.70673 316.87319 0.41055
2020 10.26720 312.82575 316.01054 0.41292
2021 10.27080 312.94929 314.17128 0.41462
2022 10.27440 313.07738 314.16889 0.41457
2023 10.27800 313.21006 317.88199 0.40882
2024 10.28160 313.34739 316.43670 0.41117
2025 10.28520 313.48943 317.20545 0.40921
2026 10.28880 313.63622 315.58362 0.41267
2027 10.29240 313.78783 318.59187 0.40801
2028 10.29600 313.94435 317.95955 0.40942
2029 10.29960 314.10584 316.27321 0.41159
2030 10.30320 314.27239 316.36699 0.41301
2031 10.30680 314.44409 319.75821 0.40711
2032 10.31040 314.62104 317.63086 0.40981
2033 10.31400 314.80334 319.99625 0.40561
2034 10.31760 314.99111 317.13697 0.40987
2035 10.32120 315.18445 316.29608 0.41047
2036 10.32480 315.38350 316.77776 0.41116
2037 10.32840 315.58839 315.91636 0.41203
2038 10.33200 315.79925 318.04673 0.40929
2039 10.33560 316.01623 317.35145 0.40998
2040 10.33920 316.23950 318.29953 0.40944
2041 10.34280 316.46922 318.87400 0.49913
2042 10.34640 316.70556 318.61382 0.50856
2043 10.35000 316.94870 319.57000 0.50410
2044 10.35360 317.19884 320.83129 0.49807
2045 10.35720 317.45619 319.83860 0.49811
2046 10.36080 317.72095 320.76056 0.49530
2047 10.36440 317.99336 318.97112 0.49913
2048 10.36800 318.27366 318.12122 0.50010
2049 10.37160 318.56209 317.98408 0.50356
2050 10.37520 318.85893 318.81325 0.50124
2051 10.37880 319.16444 319.55034 0.50446
2052 10.38240 319.47893 320.28964 0.46554
2053 10.38600 319.80269 318.72613 0.45248
2054 10.38960 320.13607 319.15990 0.44928
2055 10.39320 320.47940 318.42222 0.45059
2056 10.39680 320.83304 320.91154 0.44734
2057 10.40040 321.19738 320.59378 0.44706
2058 10.40400 321.57281 319.74087 0.44902
2059 10.40760 321.95976 320.01086 0.44925
2060 10.41120 322.35867 320.44481 0.44802
2061 10.41480 322.77003 321.54367 0.44520
2062 10.41840 323.19432 320.21430 0.44955
2063 10.42200 323.63207 323.55458 0.49521
2064 10.42560 324.08153 322.12601 0.50152
2065 10.42920 324.53192 320.17090 0.50128
2066 10.43280 324.97229 321.64286 0.49781
2067 10.43640 325.36443 320.60019 0.49700
2068 10.44000 325.68734 322.70101 0.49592
2069 10.44360 326.21750 322.07966 0.49774
2070 10.44720 326.76813 323.46531 0.49927
2071 10.45080 327.33769 323.81472 0.50257
2072 10.45440 327.92705 324.36313 0.44972
2073 10.45800 328.53716 324.82872 0.39860
2074 10.46160 329.16901 325.53402 0.40040
2075 10.46520 329.82364 321.43177 0.40278
2076 10.46880 330.50220 325.77945 0.39782
2077 10.47240 331.20587 324.96009 0.39894
2078 10.47600 331.93594 327.07733 0.39785
2079 10.47960 332.69377 327.03298 0.39670
2080 10.48320 333.48080 324.36507 0.40103
2081 10.48680 334.29860 324.57626 0.40035
2082 10.49040 335.14883 325.39766 0.40076
2083 10.49400 336.03327 324.21746 0.40101
2084 10.49760 336.95381 327.29730 0.39638
2085 10.50120 337.91251 329.03529 0.39671
2086 10.50480 338.91156 328.74028 0.39766
2087 10.50840 339.95332 327.76104 0.39884
2088 10.51200 341.04032 328.66825 0.39620
2089 10.51560 342.17541 327.93990 0.39760
2090 10.51920 343.36258 328.77081 0.39620
2091 10.52280 344.60940 331.56391 0.39330
2092 10.52640 345.90774 332.83313 0.39087
2093 10.53000 347.26646 333.48959 0.39182
2094 10.53360 348.69043 331.27405 0.39358
2095 10.53720 350.18399 332.66585 0.39180
2096 10.54080 351.75188 331.72044 0.39181
2097 10.54440 353.39925 332.88153 0.39114
2098 10.54800 355.13168 335.19158 0.38741
2099 10.55160 356.95529 334.88422 0.38925
2100 10.55520 358.87674 333.89965 0.38971
2101 10.55880 360.90332 338.61077 0.38635
2102 10.56240 363.04302 337.82752 0.38361
2103 10.56600 365.30461 339.65906 0.38378
2104 10.56960 367.69771 338.60036 0.38459
2105 10.57320 370.23294 341.28119 0.38292
2106 10.57680 372.92198 341.80649 0.38167
2107 10.58040 375.77777 343.57932 0.37995
2108 10.58400 378.81463 344.89046 0.37835
2109 10.58760 382.04844 343.88457 0.37911
2110 10.59120 385.49689 347.62734 0.37502
2111 10.59480 389.17969 348.95242 0.37390
2112 10.59840 393.11891 354.38178 0.36804
2113 10.60200 397.33936 354.51015 0.36713
2114 10.60560 401.86905 357.95726 0.36421
2115 10.60920 406.73986 359.61590 0.36227
2116 10.61280 411.98839 363.78125 0.35815
2117 10.61640 417.65658 367.78872 0.35421
2118 10.62000 423.79414 372.44169 0.34957
2119 10.62360 430.46047 373.90424 0.34769
2120 10.62720 437.72377 376.74499 0.34550
2121 10.63080 445.71053 382.77934 0.33987
2122 10.63440 454.53333 386.23887 0.33793
2123 10.63800 464.36503 391.82032 0.33050
2124 10.64160 475.44412 399.33392 0.35987
2125 10.64520 488.10135 403.28770 0.40272
2126 10.64880 502.79658 411.44618 0.39209
2127 10.65240 520.16607 415.98576 0.38392
2128 10.65600 541.08066 425.44625 0.37552
2129 10.65960 566.71318 438.97411 0.36243
2130 10.66320 598.61128 453.91155 0.34967
2131 10.66680 638.76812 471.19829 0.33597
2132 10.67040 689.67983 491.88502 0.31866
2133 10.67400 754.37451 519.86358 0.23824
2134 10.67760 836.39461 558.84101 0.19901
2135 10.68120 939.71338 608.49500 0.16888
2136 10.68480 1068.56788 673.36216 0.10575
2137 10.68840 1227.19672 766.45726 0.07268
2138 10.69200 1419.48011 893.49795 0.04750
2139 10.69560 1648.49232 1073.19903 0.02964
2140 10.69920 1915.99056 1326.46689 0.01838
2141 10.70280 2221.87562 1694.35198 0.01122
2142 10.70640 2563.66508 2196.43173 0.00730
2143 10.71000 2936.01901 2855.93585 0.00511
2144 10.71360 3330.35359 3638.56692 0.00397
2145 10.71720 3734.58151 4492.66703 0.00349
2146 10.72080 4133.04918 5329.22657 0.00379
2147 10.72440 4506.81805 6039.84777 0.00356
2148 10.72800 4834.54203 6689.57395 0.00442
2149 10.73160 5094.23028 7140.87717 0.00744
2150 10.73520 5265.99895 7355.27859 0.01069
2151 10.73880 5335.41622 7401.98161 0.01015
2152 10.74240 5296.46819 7267.53834 0.00719
2153 10.74600 5152.95431 6966.07191 0.00558
2154 10.74960 4917.66726 6512.38646 0.00465
2155 10.75320 4609.71481 5938.01233 0.00427
2156 10.75680 4251.11738 5247.31758 0.00406
2157 10.76040 3863.81048 4483.33063 0.00415
2158 10.76400 3467.63263 3657.92887 0.00454
2159 10.76760 3079.29334 2882.50983 0.00597
2160 10.77120 2712.02747 2271.37679 0.00858
2161 10.77480 2375.64565 1825.59421 0.01351
2162 10.77840 2076.80339 1523.76343 0.02096
2163 10.78200 1819.40433 1322.69371 0.03303
2164 10.78560 1605.09503 1194.65463 0.05477
2165 10.78920 1433.81192 1116.03031 0.08449
2166 10.79280 1304.33483 1069.38145 0.14560
2167 10.79640 1214.79650 1057.81921 0.15030
2168 10.80000 1163.10080 1073.08041 0.14506
2169 10.80360 1147.21374 1101.22933 0.10361
2170 10.80720 1165.30789 1154.51240 0.06832
2171 10.81080 1215.75936 1229.07251 0.05453
2172 10.81440 1297.01301 1322.84286 0.04411
2173 10.81800 1407.34534 1436.12817 0.03589
2174 10.82160 1544.56264 1576.19046 0.02859
2175 10.82520 1705.67420 1733.90372 0.02768
2176 10.82880 1886.57684 1899.63342 0.02308
2177 10.83240 2081.78153 2076.12780 0.02297
2178 10.83600 2284.21366 2257.14454 0.02076
2179 10.83960 2485.13622 2433.61694 0.02230
2180 10.84320 2674.15496 2585.80402 0.02716
2181 10.84680 2839.71208 2707.90819 0.02958
2182 10.85040 2970.02844 2799.27297 0.03252
2183 10.85400 3054.42226 2852.59791 0.03798
2184 10.85760 3085.07309 2855.27934 0.04427
2185 10.86120 3058.57822 2823.37148 0.03660
2186 10.86480 2976.70318 2744.99917 0.03188
2187 10.86840 2845.97949 2636.31920 0.02525
2188 10.87200 2676.32081 2482.61285 0.01947
2189 10.87560 2479.23724 2317.16712 0.02064
2190 10.87920 2266.24203 2133.30042 0.01854
2191 10.88280 2047.76421 1931.13681 0.01991
2192 10.88640 1832.57583 1743.36740 0.02299
2193 10.89000 1627.58259 1561.36999 0.02427
2194 10.89360 1437.82512 1391.50443 0.02982
2195 10.89720 1266.59511 1247.08905 0.03696
2196 10.90080 1115.62128 1109.40261 0.04111
2197 10.90440 985.30445 993.75096 0.05517
2198 10.90800 874.98499 904.31632 0.06814
2199 10.91160 783.22371 825.96064 0.08515
2200 10.91520 708.07498 759.17782 0.09914
2201 10.91880 647.33260 704.36768 0.12507
2202 10.92240 598.73387 659.01874 0.13757
2203 10.92600 560.11412 615.73082 0.17035
2204 10.92960 529.51052 583.42091 0.19841
2205 10.93320 505.22005 556.32079 0.23338
2206 10.93680 485.81982 532.48366 0.23711
2207 10.94040 470.15940 509.06149 0.25402
2208 10.94400 457.33521 491.34344 0.26411
2209 10.94760 446.65526 476.57653 0.27214
2210 10.95120 437.60079 462.66410 0.28139
2211 10.95480 429.78962 450.40139 0.28880
2212 10.95840 422.94365 441.37668 0.29509
2213 10.96200 416.86187 430.05627 0.30135
2214 10.96560 411.39892 424.16828 0.30647
2215 10.96920 406.44894 414.69670 0.31336
2216 10.97280 401.93356 410.34022 0.31749
2217 10.97640 397.79354 406.05751 0.32098
2218 10.98000 393.98284 398.83636 0.32777
2219 10.98360 390.46465 394.39285 0.33011
2220 10.98720 387.20876 392.77178 0.33162
2221 10.99080 384.18974 388.71348 0.34614
2222 10.99440 381.38580 385.80097 0.42307
2223 10.99800 378.77798 377.34949 0.42788
2224 11.00160 376.34958 375.64177 0.42832
2225 11.00520 374.08578 376.78599 0.42366
2226 11.00880 371.97341 374.47048 0.42604
2227 11.01240 370.00064 370.65595 0.43002
2228 11.01600 368.15693 368.53110 0.43123
2229 11.01960 366.43286 368.15459 0.43156
2230 11.02320 364.82007 366.84909 0.43281
2231 11.02680 363.31118 363.92411 0.43699
2232 11.03040 361.89971 364.73912 0.43510
2233 11.03400 360.57994 362.64426 0.43784
2234 11.03760 359.34686 361.21149 0.43894
2235 11.04120 358.19605 360.98508 0.43976
2236 11.04480 357.12361 359.59249 0.43998
2237 11.04840 356.12608 357.23500 0.44564
2238 11.05200 355.20045 355.86798 0.44633
2239 11.05560 354.34410 354.37950 0.44954
2240 11.05920 353.55478 354.58614 0.44691
2241 11.06280 352.83110 353.58246 0.44918
2242 11.06640 352.17600 351.97439 0.45030
2243 11.07000 351.60783 352.77451 0.46013
2244 11.07360 351.07435 352.02578 0.50002
2245 11.07720 350.59985 352.15993 0.49866
2246 11.08080 350.18701 347.57441 0.50381
2247 11.08440 349.83654 349.48115 0.50001
2248 11.08800 349.54974 351.50911 0.49445
2249 11.09160 349.32872 349.21798 0.49802
2250 11.09520 349.17663 349.87154 0.49642
2251 11.09880 349.09796 352.22005 0.49186
2252 11.10240 349.09915 351.97502 0.49122
2253 11.10600 349.18931 352.50542 0.49134
2254 11.10960 349.38137 350.83069 0.49443
2255 11.11320 349.69361 350.68388 0.49484
2256 11.11680 350.15180 350.73446 0.49602
2257 11.12040 350.79219 352.73117 0.49130
2258 11.12400 351.67281 355.86376 0.48733
2259 11.12760 352.88709 355.21533 0.48897
2260 11.13120 354.55908 358.45642 0.48554
2261 11.13480 356.62036 358.50023 0.48473
2262 11.13840 359.33196 361.62582 0.48083
2263 11.14200 362.87504 362.54961 0.47936
2264 11.14560 367.46534 368.50382 0.47284
2265 11.14920 373.35077 376.12138 0.46017
2266 11.15280 380.80427 379.56056 0.45842
2267 11.15640 390.11115 386.52920 0.44911
2268 11.16000 401.55039 393.00844 0.44467
2269 11.16360 415.36994 407.77472 0.42459
2270 11.16720 431.75692 424.23099 0.40937
2271 11.17080 450.80435 440.96944 0.39368
2272 11.17440 472.47663 462.66275 0.37524
2273 11.17800 496.57637 492.73535 0.30680
2274 11.18160 522.71464 520.46876 0.27680
2275 11.18520 550.28698 556.19679 0.27446
2276 11.18880 578.45720 590.37550 0.25965
2277 11.19240 606.15403 622.28830 0.27826
2278 11.19600 632.08995 651.74303 0.25846
2279 11.19960 654.81921 675.19153 0.25677
2280 11.20320 672.85305 694.34361 0.24889
2281 11.20680 684.83921 703.86564 0.24681
2282 11.21040 689.78065 705.12909 0.24521
2283 11.21400 687.23222 698.92379 0.24785
2284 11.21760 677.39932 688.18730 0.25124
2285 11.22120 661.09420 668.68585 0.25126
2286 11.22480 639.56844 639.78330 0.24319
2287 11.22840 614.29113 610.86144 0.25347
2288 11.23200 586.74641 579.60345 0.25118
2289 11.23560 558.29194 543.33426 0.21999
2290 11.23920 530.08186 508.95074 0.29626
2291 11.24280 503.03687 481.62565 0.30116
2292 11.24640 477.84210 456.15412 0.36648
2293 11.25000 454.95997 432.09091 0.40295
2294 11.25360 434.65215 417.17201 0.41704
2295 11.25720 417.00719 403.00550 0.43134
2296 11.26080 401.97291 389.76363 0.44503
2297 11.26440 389.39068 380.52780 0.45699
2298 11.26800 379.02940 374.96527 0.46330
2299 11.27160 370.61685 369.94226 0.46958
2300 11.27520 363.86635 365.39507 0.47624
2301 11.27880 358.49775 359.38164 0.48380
2302 11.28240 354.25218 356.42932 0.48883
2303 11.28600 350.90113 354.76294 0.48994
2304 11.28960 348.25050 349.20722 0.49801
2305 11.29320 346.14089 349.57460 0.49644
2306 11.29680 344.44514 349.45414 0.49783
2307 11.30040 343.06463 346.49241 0.50198
2308 11.30400 341.92449 344.96423 0.50628
2309 11.30760 340.96906 343.26921 0.50741
2310 11.31120 340.15761 345.22523 0.50445
2311 11.31480 339.46076 343.95777 0.50473
2312 11.31840 338.85752 343.41920 0.50739
2313 11.32200 338.33307 342.19134 0.50765
2314 11.32560 337.87706 340.39363 0.51123
2315 11.32920 337.48254 340.85235 0.50953
2316 11.33280 337.14520 341.29348 0.51093
2317 11.33640 336.86304 340.23123 0.51151
2318 11.34000 336.63627 340.75157 0.51081
2319 11.34360 336.46745 340.43782 0.50966
2320 11.34720 336.36186 341.10410 0.50834
2321 11.35080 336.32796 340.47840 0.51066
2322 11.35440 336.37798 341.29880 0.50900
2323 11.35800 336.52855 339.38445 0.51184
2324 11.36160 336.80124 341.89532 0.50923
2325 11.36520 337.22293 341.63474 0.51107
2326 11.36880 337.82577 343.85960 0.50521
2327 11.37240 338.64668 344.25190 0.50524
2328 11.37600 339.72623 344.56564 0.50465
2329 11.37960 341.10990 348.52620 0.49932
2330 11.38320 342.85268 348.84530 0.49691
2331 11.38680 344.97185 351.90540 0.49363
2332 11.39040 347.47245 355.02494 0.48899
2333 11.39400 350.38692 356.31126 0.48766
2334 11.39760 353.70692 361.63363 0.48018
2335 11.40120 357.39964 365.41269 0.47620
2336 11.40480 361.40344 371.51866 0.46774
2337 11.40840 365.62442 378.75933 0.45933
2338 11.41200 369.93406 380.79188 0.45624
2339 11.41560 374.16883 390.71204 0.44587
2340 11.41920 378.13312 394.63062 0.44019
2341 11.42280 381.60804 403.25926 0.43116
2342 11.42640 384.36878 405.32706 0.42754
2343 11.43000 386.21138 403.80267 0.43189
2344 11.43360 386.98534 409.37789 0.42403
2345 11.43720 386.62275 408.81528 0.42412
2346 11.44080 385.15314 402.52730 0.42973
2347 11.44440 382.69719 402.65463 0.43114
2348 11.44800 379.44209 398.73469 0.43587
2349 11.45160 375.60870 393.94667 0.43878
2350 11.45520 371.42122 388.83973 0.44571
2351 11.45880 367.08573 379.91550 0.45818
2352 11.46240 362.77838 374.35341 0.46423
2353 11.46600 358.64062 368.05712 0.47126
2354 11.46960 354.77870 363.20565 0.47878
2355 11.47320 351.26559 357.74321 0.48428
2356 11.47680 348.14741 354.34204 0.49191
2357 11.48040 345.45598 352.81684 0.49314
2358 11.48400 343.15667 350.22940 0.49720
2359 11.48760 341.22521 346.45921 0.50125
2360 11.49120 339.64089 345.41237 0.50181
2361 11.49480 338.36352 344.41010 0.50359
2362 11.49840 337.35011 343.71308 0.50692
2363 11.50200 336.55813 342.11040 0.50811
2364 11.50560 335.94782 343.33827 0.50730
2365 11.50920 335.48374 340.53969 0.51016
2366 11.51280 335.13545 341.72646 0.50846
2367 11.51640 334.87774 340.96665 0.50966
2368 11.52000 334.69027 340.84122 0.50861
2369 11.52360 334.55710 341.62422 0.50909
2370 11.52720 334.46604 338.71859 0.51459
2371 11.53080 334.40789 338.34215 0.51391
2372 11.53440 334.37586 339.24491 0.51273
2373 11.53800 334.36500 337.38087 0.51564
2374 11.54160 334.37169 339.57535 0.51209
2375 11.54520 334.39332 339.91414 0.51210
2376 11.54880 334.42797 338.22197 0.51507
2377 11.55240 334.47423 337.63023 0.51718
2378 11.55600 334.53104 339.04144 0.51281
2379 11.55960 334.59759 339.69917 0.51253
2380 11.56320 334.67323 339.64051 0.51279
2381 11.56680 334.75746 339.57476 0.51413
2382 11.57040 334.84985 338.50655 0.51315
2383 11.57400 334.95006 337.88249 0.51561
2384 11.57760 335.05780 339.58557 0.51138
2385 11.58120 335.17284 340.20238 0.51120
2386 11.58480 335.29498 337.32796 0.51546
2387 11.58840 335.42406 339.67505 0.51205
2388 11.59200 335.55995 340.02874 0.50982
2389 11.59560 335.70255 339.09925 0.51312
2390 11.59920 335.85178 339.72497 0.51095
2391 11.60280 336.00758 337.71916 0.51494
2392 11.60640 336.16993 337.12921 0.51687
2393 11.61000 336.33881 337.39389 0.51517
2394 11.61360 336.51424 339.35876 0.51231
2395 11.61720 336.69624 338.99813 0.51329
2396 11.62080 336.88484 339.14587 0.51307
2397 11.62440 337.08012 338.68552 0.51209
2398 11.62800 337.28214 340.93408 0.51108
2399 11.63160 337.49100 341.17267 0.50993
2400 11.63520 337.70679 340.93655 0.51092
2401 11.63880 337.92965 337.01685 0.51575
2402 11.64240 338.15971 340.01534 0.51213
2403 11.64600 338.39711 339.56122 0.51215
2404 11.64960 338.64203 338.87938 0.51446
2405 11.65320 338.89465 340.08998 0.51121
2406 11.65680 339.15516 342.76963 0.50708
2407 11.66040 339.42377 340.99836 0.50860
2408 11.66400 339.70073 340.21513 0.51171
2409 11.66760 339.98627 341.82146 0.50823
2410 11.67120 340.28066 341.24106 0.50957
2411 11.67480 340.58419 342.54446 0.50588
2412 11.67840 340.89715 342.01220 0.50940
2413 11.68200 341.21988 340.99733 0.50929
2414 11.68560 341.55272 343.11757 0.50587
2415 11.68920 341.89603 344.11124 0.50416
2416 11.69280 342.25021 342.03998 0.50753
2417 11.69640 342.61658 343.41954 0.50550
2418 11.70000 343.00028 345.19476 0.50346
2419 11.70360 343.40478 345.11495 0.50353
2420 11.70720 343.80694 345.22818 0.50131
2421 11.71080 344.22234 343.81238 0.50788
2422 11.71440 344.65154 344.34878 0.50355
2423 11.71800 345.09516 343.94793 0.50429
2424 11.72160 345.55384 345.54145 0.50156
2425 11.72520 346.02825 343.92761 0.50487
2426 11.72880 346.51915 347.46994 0.50006
2427 11.73240 347.02730 345.19800 0.50434
2428 11.73600 347.55341 347.76392 0.49916
2429 11.73960 348.09490 348.34424 0.49777
2430 11.74320 348.64766 346.69296 0.49929
2431 11.74680 349.19758 349.28203 0.49754
2432 11.75040 349.75030 349.86353 0.49523
2433 11.75400 350.38169 351.13659 0.49404
2434 11.75760 351.03767 349.23504 0.49777
2435 11.76120 351.71940 351.51201 0.49474
2436 11.76480 352.42829 351.35235 0.49370
2437 11.76840 353.16587 350.20604 0.49625
2438 11.77200 353.93378 352.06093 0.49159
2439 11.77560 354.73380 351.08661 0.49305
2440 11.77920 355.56783 354.34583 0.48953
2441 11.78280 356.43791 354.70872 0.48855
2442 11.78640 357.34626 353.89096 0.48881
2443 11.79000 358.29525 356.24723 0.48719
2444 11.79360 359.28748 357.12432 0.48600
2445 11.79720 360.32574 356.47108 0.48719
2446 11.80080 361.41304 359.81644 0.48312
2447 11.80440 362.55269 361.47678 0.47880
2448 11.80800 363.74823 362.54680 0.47842
2449 11.81160 365.00355 363.24746 0.47663
2450 11.81520 366.32287 362.59619 0.47861
2451 11.81880 367.71081 363.27295 0.47694
2452 11.82240 369.17240 368.29865 0.47104
2453 11.82600 370.71314 368.20268 0.47072
2454 11.82960 372.33910 369.56705 0.46961
2455 11.83320 374.05899 370.22104 0.46861
2456 11.83680 375.88984 372.13220 0.46707
2457 11.84040 377.82200 374.56735 0.46228
2458 11.84400 379.86189 376.59202 0.46182
2459 11.84760 382.02750 376.89989 0.46014
2460 11.85120 384.32964 381.92545 0.45519
2461 11.85480 386.78034 384.06230 0.45154
2462 11.85840 389.39299 388.38561 0.44652
2463 11.86200 392.18259 389.36965 0.44606
2464 11.86560 395.16598 393.04083 0.44177
2465 11.86920 398.36222 395.92450 0.43850
2466 11.87280 401.79311 401.45161 0.43325
2467 11.87640 405.48381 407.36690 0.42772
2468 11.88000 409.46388 409.72188 0.42449
2469 11.88360 413.76869 417.70078 0.41643
2470 11.88720 418.44167 423.91780 0.40925
2471 11.89080 423.53770 428.94388 0.40407
2472 11.89440 429.12513 439.27516 0.39358
2473 11.89800 435.29640 447.59224 0.38793
2474 11.90160 442.17420 457.15766 0.37888
2475 11.90520 449.92432 470.83671 0.36914
2476 11.90880 458.77202 480.31476 0.36025
2477 11.91240 469.02304 497.37287 0.34909
2478 11.91600 481.08954 513.82598 0.33695
2479 11.91960 495.52090 536.10628 0.32389
2480 11.92320 513.03813 558.05787 0.30994
2481 11.92680 534.56969 584.98118 0.26029
2482 11.93040 561.28512 615.11929 0.23476
2483 11.93400 594.62081 650.18229 0.18898
2484 11.93760 636.29141 691.62153 0.16809
2485 11.94120 688.27864 746.16968 0.13403
2486 11.94480 752.78902 806.01853 0.12388
2487 11.94840 832.17370 878.03214 0.09430
2488 11.95200 928.80387 966.87548 0.08494
2489 11.95560 1044.90172 1067.83825 0.06547
2490 11.95920 1182.32973 1192.62878 0.05637
2491 11.96280 1342.34660 1336.45791 0.04408
2492 11.96640 1525.34606 1511.42877 0.03646
2493 11.97000 1730.59177 1715.88593 0.03118
2494 11.97360 1955.96855 1942.65263 0.02427
2495 11.97720 2197.76358 2201.60761 0.02104
2496 11.98080 2450.48806 2477.52576 0.01882
2497 11.98440 2706.76398 2757.49017 0.01679
2498 11.98800 2957.30910 3031.04512 0.01709
2499 11.99160 3191.10943 3270.92171 0.01759
2500 11.99520 3395.90983 3482.99105 0.01936
2501 11.99880 3559.16305 3629.43833 0.02501
2502 12.00240 3669.48460 3728.75512 0.03352
2503 12.00600 3718.40629 3750.35818 0.03540
2504 12.00960 3701.95990 3724.48181 0.03031
2505 12.01320 3621.50854 3628.53024 0.02198
2506 12.01680 3483.46962 3482.81650 0.02108
2507 12.02040 3298.04453 3290.50134 0.01770
2508 12.02400 3077.46219 3060.99913 0.01688
2509 12.02760 2834.31487 2796.60747 0.01645
2510 12.03120 2580.33721 2524.26537 0.01755
2511 12.03480 2325.70499 2258.32836 0.01976
2512 12.03840 2078.73091 1995.93684 0.02170
2513 12.04200 1845.80755 1767.59156 0.02827
2514 12.04560 1631.48607 1566.58420 0.03452
2515 12.04920 1438.62649 1396.38747 0.04162
2516 12.05280 1268.60047 1243.64378 0.05361
2517 12.05640 1121.52683 1118.70931 0.06246
2518 12.06000 996.53015 1011.61321 0.08097
2519 12.06360 892.00700 923.82457 0.08744
2520 12.06720 805.87949 845.26756 0.11479
2521 12.07080 735.82443 787.95114 0.13250
2522 12.07440 679.46351 732.66395 0.15517
2523 12.07800 634.50939 688.33606 0.18860
2524 12.08160 598.86745 647.35367 0.21278
2525 12.08520 570.69526 618.59900 0.26198
2526 12.08880 548.42794 592.00129 0.28527
2527 12.09240 530.77652 570.38340 0.29783
2528 12.09600 516.70807 548.02208 0.30184
2529 12.09960 505.41509 535.34717 0.32305
2530 12.10320 496.28025 522.82799 0.33018
2531 12.10680 488.84097 511.78830 0.33784
2532 12.11040 482.75699 500.40576 0.34617
2533 12.11400 477.78236 494.63770 0.35059
2534 12.11760 473.74276 489.97326 0.35352
2535 12.12120 470.51791 486.52850 0.35609
2536 12.12480 468.02890 485.41872 0.35635
2537 12.12840 466.22975 484.55726 0.35751
2538 12.13200 465.10274 485.58993 0.35629
2539 12.13560 464.65720 489.93659 0.35244
2540 12.13920 464.93128 491.33608 0.35288
2541 12.14280 465.99681 495.10803 0.34920
2542 12.14640 467.96698 503.78058 0.34507
2543 12.15000 471.00688 514.75759 0.33628
2544 12.15360 475.34657 526.40948 0.32947
2545 12.15720 481.29610 537.88819 0.32109
2546 12.16080 489.26157 553.75329 0.31293
2547 12.16440 499.76046 569.36112 0.30267
2548 12.16800 513.43394 589.21359 0.29344
2549 12.17160 531.05318 612.05882 0.25532
2550 12.17520 553.51614 640.48881 0.26014
2551 12.17880 581.83098 671.13137 0.18773
2552 12.18240 617.08460 710.63265 0.18337
2553 12.18600 660.39573 750.53192 0.15452
2554 12.18960 712.81228 802.60542 0.12126
2555 12.19320 775.24014 857.93835 0.13238
2556 12.19680 848.36022 915.18833 0.10995
2557 12.20040 932.47161 982.67021 0.09290
2558 12.20400 1027.38298 1061.83712 0.08211
2559 12.20760 1132.29560 1143.60643 0.08406
2560 12.21120 1245.69813 1223.12152 0.07661
2561 12.21480 1365.27863 1309.46958 0.08009
2562 12.21840 1487.86086 1396.06302 0.06783
2563 12.22200 1609.37921 1478.83486 0.07755
2564 12.22560 1724.92293 1558.08290 0.07955
2565 12.22920 1828.90356 1624.92988 0.08539
2566 12.23280 1915.41395 1679.39139 0.08873
2567 12.23640 1978.82150 1724.50202 0.09630
2568 12.24000 2014.55117 1744.97211 0.09717
2569 12.24360 2019.88154 1753.92726 0.09701
2570 12.24720 1994.49797 1734.63955 0.09194
2571 12.25080 1940.57360 1706.39599 0.09316
2572 12.25440 1862.35212 1657.62769 0.07362
2573 12.25800 1765.39575 1596.40844 0.08075
2574 12.26160 1655.77769 1527.42854 0.07281
2575 12.26520 1539.42684 1452.01705 0.07483
2576 12.26880 1421.71649 1371.08816 0.07213
2577 12.27240 1307.25673 1289.06952 0.07523
2578 12.27600 1199.74482 1208.07612 0.07981
2579 12.27960 1102.15146 1136.05277 0.09031
2580 12.28320 1016.63693 1068.01601 0.10101
2581 12.28680 944.65541 1009.72212 0.11068
2582 12.29040 887.03002 958.50305 0.14428
2583 12.29400 844.04490 920.57836 0.18689
2584 12.29760 815.51964 889.71567 0.19364
2585 12.30120 800.88497 874.06516 0.19636
2586 12.30480 799.24387 863.20870 0.19906
2587 12.30840 809.41666 867.20706 0.19756
2588 12.31200 829.96910 892.62189 0.19288
2589 12.31560 859.22497 931.58637 0.14973
2590 12.31920 895.26569 986.84475 0.12314
2591 12.32280 935.92249 1054.19581 0.08887
2592 12.32640 978.76973 1129.81539 0.09063
2593 12.33000 1021.13600 1203.03829 0.07929
2594 12.33360 1060.15854 1276.04490 0.08478
2595 12.33720 1092.91372 1328.34127 0.09670
2596 12.34080 1116.64635 1370.26871 0.10421
2597 12.34440 1129.08570 1383.32114 0.12279
2598 12.34800 1128.77869 1383.03546 0.12300
2599 12.35160 1115.33292 1357.31637 0.09805
2600 12.35520 1089.46556 1318.84733 0.09953
2601 12.35880 1052.83610 1258.06949 0.07888
2602 12.36240 1007.72386 1184.60911 0.07521
2603 12.36600 956.67089 1098.63686 0.07376
2604 12.36960 902.18219 1003.69164 0.07151
2605 12.37320 846.49359 907.90942 0.07539
2606 12.37680 791.53040 812.93958 0.08813
2607 12.38040 738.82406 726.23985 0.10681
2608 12.38400 689.52509 657.85590 0.14996
2609 12.38760 644.42514 602.52014 0.17089
2610 12.39120 603.99090 557.15817 0.23383
2611 12.39480 568.40646 523.89502 0.25989
2612 12.39840 537.62159 493.76418 0.31728
2613 12.40200 511.40348 473.69868 0.36553
2614 12.40560 489.38865 457.37278 0.37650
2615 12.40920 471.13204 442.22240 0.39028
2616 12.41280 456.14896 431.62120 0.39992
2617 12.41640 443.95051 421.71648 0.41072
2618 12.42000 434.06743 413.05488 0.41821
2619 12.42360 426.08261 407.91618 0.42385
2620 12.42720 419.66170 401.72354 0.43134
2621 12.43080 414.47013 395.02265 0.43885
2622 12.43440 410.25368 393.26140 0.43890
2623 12.43800 406.81020 390.55985 0.44356
2624 12.44160 403.98343 387.01035 0.44719
2625 12.44520 401.65620 384.34349 0.45080
2626 12.44880 399.74359 384.06486 0.45188
2627 12.45240 398.18647 381.30026 0.45486
2628 12.45600 396.94585 379.34742 0.45648
2629 12.45960 395.99792 377.85606 0.45805
2630 12.46320 395.32978 378.87274 0.45805
2631 12.46680 394.93571 378.34360 0.45745
2632 12.47040 394.81391 377.70341 0.45851
2633 12.47400 394.96348 379.32852 0.45549
2634 12.47760 395.38171 379.57068 0.45648
2635 12.48120 396.06151 379.93370 0.45428
2636 12.48480 396.98916 381.51205 0.45425
2637 12.48840 398.14231 379.83010 0.45535
2638 12.49200 399.48824 382.64877 0.45252
2639 12.49560 400.98258 384.56444 0.45016
2640 12.49920 402.56837 386.30677 0.44854
2641 12.50280 404.17596 385.51592 0.44770
2642 12.50640 405.72409 388.00113 0.44765
2643 12.51000 407.12332 388.85049 0.44621
2644 12.51360 408.28244 391.30298 0.44455
2645 12.51720 409.11846 392.96642 0.44169
2646 12.52080 409.56865 390.07909 0.44457
2647 12.52440 409.60158 391.85929 0.44374
2648 12.52800 409.22333 389.69328 0.44563
2649 12.53160 408.47614 386.32934 0.44981
2650 12.53520 407.43023 385.64334 0.45061
2651 12.53880 406.17182 385.77462 0.44859
2652 12.54240 404.79141 383.38141 0.45251
2653 12.54600 403.37490 382.78210 0.45406
2654 12.54960 401.99817 379.86429 0.45719
2655 12.55320 400.72469 377.61718 0.45951
2656 12.55680 399.60481 375.72430 0.46259
2657 12.56040 398.67624 374.48710 0.46293
2658 12.56400 397.96499 372.83343 0.46371
2659 12.56760 397.48666 375.61379 0.46220
2660 12.57120 397.24804 374.28624 0.46308
2661 12.57480 397.24882 374.57270 0.46407
2662 12.57840 397.48342 372.33142 0.46348
2663 12.58200 397.94282 374.24494 0.46421
2664 12.58560 398.61625 374.49201 0.46284
2665 12.58920 399.49262 371.79015 0.46701
2666 12.59280 400.56186 372.74533 0.46480
2667 12.59640 401.81580 373.24571 0.46535
2668 12.60000 403.24899 377.51155 0.45856
2669 12.60360 404.85923 376.78964 0.45963
2670 12.60720 406.64798 377.68684 0.45753
2671 12.61080 408.62084 381.34558 0.45525
2672 12.61440 410.78792 383.86601 0.45179
2673 12.61800 413.16445 382.76661 0.45211
2674 12.62160 415.77159 386.51515 0.44675
2675 12.62520 418.63711 391.19358 0.44194
2676 12.62880 421.79596 396.24340 0.43720
2677 12.63240 425.29355 397.59665 0.43546
2678 12.63600 429.18585 397.38762 0.43696
2679 12.63960 433.54175 404.02933 0.42782
2680 12.64320 438.44526 411.05649 0.42037
2681 12.64680 443.99794 415.00075 0.41746
2682 12.65040 450.32168 423.75110 0.40944
2683 12.65400 457.56203 430.84464 0.40114
2684 12.65760 465.89209 438.38922 0.39549
2685 12.66120 475.51748 449.59904 0.38356
2686 12.66480 486.68245 461.86504 0.37553
2687 12.66840 499.67751 475.61713 0.36386
2688 12.67200 514.84848 495.62014 0.34092
2689 12.67560 532.60669 522.06203 0.25363
2690 12.67920 553.43939 554.32355 0.24756
2691 12.68280 577.91860 599.37258 0.14982
2692 12.68640 606.70624 670.82583 0.09821
2693 12.69000 640.55229 758.30702 0.10214
2694 12.69360 680.28340 809.06444 0.21293
2695 12.69720 726.77959 838.40987 0.16440
2696 12.70080 780.93927 886.46957 0.11198
2697 12.70440 843.63414 931.97637 0.15672
2698 12.70800 915.65687 977.30999 0.10080
2699 12.71160 997.66167 1037.38511 0.10900
2700 12.71520 1090.09333 1089.70258 0.10293
2701 12.71880 1193.09710 1158.81484 0.07140
2702 12.72240 1306.40301 1257.41351 0.05473
2703 12.72600 1429.18855 1390.49427 0.04576
2704 12.72960 1559.93329 1544.68199 0.03445
2705 12.73320 1696.28669 1740.91358 0.02659
2706 12.73680 1834.96988 1969.97916 0.02243
2707 12.74040 1971.73583 2197.79166 0.02286
2708 12.74400 2101.42439 2422.39246 0.02035
2709 12.74760 2218.16869 2635.57993 0.02179
2710 12.75120 2315.82038 2802.05460 0.02823
2711 12.75480 2388.62867 2920.71484 0.03794
2712 12.75840 2432.11123 2995.35681 0.04496
2713 12.76200 2443.91932 3010.98197 0.05124
2714 12.76560 2424.42766 2981.17342 0.04221
2715 12.76920 2376.81343 2905.26251 0.03234
2716 12.77280 2306.60890 2788.79833 0.02694
2717 12.77640 2220.90342 2642.94912 0.02572
2718 12.78000 2127.39615 2471.26913 0.02499
2719 12.78360 2033.68344 2285.55300 0.02437
2720 12.78720 1946.81312 2093.66520 0.02638
2721 12.79080 1872.87411 1918.42906 0.03172
2722 12.79440 1816.84467 1782.96159 0.05069
2723 12.79800 1782.48032 1695.55279 0.07935
2724 12.80160 1772.23656 1654.67909 0.10269
2725 12.80520 1787.21423 1656.39486 0.10230
2726 12.80880 1827.12706 1701.28666 0.08228
2727 12.81240 1890.29351 1793.03249 0.05109
2728 12.81600 1973.65385 1910.28526 0.04253
2729 12.81960 2072.81124 2058.83272 0.03266
2730 12.82320 2182.10151 2217.10300 0.03130
2731 12.82680 2294.71295 2371.14445 0.03243
2732 12.83040 2402.90170 2528.15139 0.02942
2733 12.83400 2498.37577 2656.52989 0.03331
2734 12.83760 2572.91582 2750.06373 0.04050
2735 12.84120 2619.23585 2806.89411 0.05242
2736 12.84480 2631.95410 2820.27786 0.05647
2737 12.84840 2608.41821 2788.76311 0.04358
2738 12.85200 2549.08921 2723.18617 0.04234
2739 12.85560 2457.33019 2620.21613 0.02874
2740 12.85920 2338.67729 2474.72990 0.02629
2741 12.86280 2199.86921 2300.51257 0.02348
2742 12.86640 2047.92785 2119.27531 0.02615
2743 12.87000 1889.47589 1920.05132 0.02353
2744 12.87360 1730.33087 1713.08556 0.02791
2745 12.87720 1575.31869 1523.28638 0.03054
2746 12.88080 1428.22653 1346.67356 0.03887
2747 12.88440 1291.83264 1195.45826 0.04682
2748 12.88800 1167.97892 1065.50134 0.06169
2749 12.89160 1057.67004 956.65178 0.07719
2750 12.89520 961.19152 873.71899 0.09720
2751 12.89880 878.24168 803.60544 0.13997
2752 12.90240 808.06982 746.69775 0.16003
2753 12.90600 749.61294 701.85376 0.18904
2754 12.90960 701.62309 663.59606 0.21663
2755 12.91320 662.77855 637.41793 0.26186
2756 12.91680 631.77506 614.28816 0.28066
2757 12.92040 607.39524 595.47965 0.29025
2758 12.92400 588.55688 581.59588 0.29668
2759 12.92760 574.34289 571.78021 0.30267
2760 12.93120 564.01643 564.17593 0.30600
2761 12.93480 557.02530 559.15292 0.31015
2762 12.93840 552.99954 559.30143 0.30860
2763 12.94200 551.74595 562.57088 0.30664
2764 12.94560 553.24289 567.37406 0.30392
2765 12.94920 557.61728 576.44377 0.30028
2766 12.95280 565.15196 587.00086 0.29366
2767 12.95640 576.27374 599.30890 0.28802
2768 12.96000 591.52945 617.19183 0.27943
2769 12.96360 611.56785 635.33032 0.27268
2770 12.96720 637.10917 662.30791 0.22791
2771 12.97080 668.90424 697.02056 0.20203
2772 12.97440 707.68197 731.37816 0.19134
2773 12.97800 754.08585 775.92868 0.15004
2774 12.98160 808.60105 825.41031 0.14507
2775 12.98520 871.47529 884.69645 0.11360
2776 12.98880 942.63798 954.33528 0.10464
2777 12.99240 1021.62208 1030.65021 0.09173
2778 12.99600 1107.49269 1111.87412 0.08219
2779 12.99960 1198.78599 1200.17226 0.06848
2780 13.00320 1293.46230 1290.70251 0.06676
2781 13.00680 1388.88050 1383.94644 0.05708
2782 13.01040 1481.80925 1476.68596 0.06416
2783 13.01400 1568.50553 1563.02208 0.06240
2784 13.01760 1644.90373 1632.75346 0.07621
2785 13.02120 1706.95539 1689.78921 0.09142
2786 13.02480 1751.12273 1730.61687 0.09828
2787 13.02840 1774.95154 1751.91795 0.09679
2788 13.03200 1777.57524 1748.69421 0.09704
2789 13.03560 1759.97492 1732.72347 0.09722
2790 13.03920 1724.89539 1710.91345 0.09906
2791 13.04280 1676.45085 1666.35859 0.07002
2792 13.04640 1619.56841 1608.92134 0.09076
2793 13.05000 1559.44288 1557.26740 0.08221
2794 13.05360 1501.10710 1498.34313 0.09180
2795 13.05720 1449.14941 1443.02674 0.10337
2796 13.06080 1407.51999 1392.73183 0.12001
2797 13.06440 1379.46471 1365.64632 0.12551
2798 13.06800 1367.42779 1344.77064 0.12689
2799 13.07160 1373.00099 1351.57891 0.12706
2800 13.07520 1396.87781 1374.70264 0.12485
2801 13.07880 1438.81953 1419.44030 0.10182
2802 13.08240 1497.63558 1483.70220 0.08368
2803 13.08600 1571.17869 1563.14784 0.06746
2804 13.08960 1656.35572 1661.73108 0.05343
2805 13.09320 1749.15548 1770.34357 0.04860
2806 13.09680 1844.70721 1883.46992 0.04447
2807 13.10040 1937.39915 1986.66156 0.04934
2808 13.10400 2021.10827 2084.28239 0.04825
2809 13.10760 2089.59821 2158.51160 0.06607
2810 13.11120 2137.10822 2212.32809 0.06629
2811 13.11480 2159.07356 2246.97050 0.07487
2812 13.11840 2152.80842 2244.53281 0.07564
2813 13.12200 2117.93475 2216.90265 0.06988
2814 13.12560 2056.38334 2163.33518 0.05670
2815 13.12920 1971.96994 2094.52718 0.04604
2816 13.13280 1869.70277 1993.48069 0.04368
2817 13.13640 1755.05565 1879.90327 0.04236
2818 13.14000 1633.37798 1754.32750 0.04425
2819 13.14360 1509.51367 1626.04299 0.04745
2820 13.14720 1387.60681 1503.65700 0.05129
2821 13.15080 1271.03692 1379.88471 0.05768
2822 13.15440 1162.42789 1270.52181 0.06646
2823 13.15800 1063.69778 1173.62199 0.07899
2824 13.16160 976.13039 1095.05975 0.09203
2825 13.16520 900.46112 1021.72336 0.10006
2826 13.16880 836.97222 963.48807 0.12472
2827 13.17240 785.59063 911.94294 0.14543
2828 13.17600 745.98339 874.05433 0.19631
2829 13.17960 717.64213 845.76099 0.20289
2830 13.18320 699.95210 820.73466 0.20842
2831 13.18680 692.24046 802.95704 0.21481
2832 13.19040 693.80291 798.54704 0.21658
2833 13.19400 703.90905 798.06810 0.21595
2834 13.19760 721.78948 808.89512 0.21394
2835 13.20120 746.60911 819.23503 0.21034
2836 13.20480 777.43134 836.53815 0.20631
2837 13.20840 813.17824 856.05290 0.20110
2838 13.21200 852.59081 883.32058 0.19481
2839 13.21560 894.19400 907.08073 0.19008
2840 13.21920 936.27276 935.66794 0.17474
2841 13.22280 976.87062 962.33432 0.17840
2842 13.22640 1013.82885 982.84630 0.17525
2843 13.23000 1044.88892 998.06668 0.17172
2844 13.23360 1067.87432 1007.08753 0.17085
2845 13.23720 1080.94307 1011.14617 0.17001
2846 13.24080 1082.86008 1009.73441 0.16981
2847 13.24440 1073.21057 998.99362 0.17219
2848 13.24800 1052.47116 977.52036 0.17481
2849 13.25160 1021.91204 955.56621 0.18003
2850 13.25520 983.36373 919.52478 0.14533
2851 13.25880 938.93513 885.01501 0.14188
2852 13.26240 890.75940 846.69713 0.15488
2853 13.26600 840.81343 808.56019 0.16313
2854 13.26960 790.81492 768.55006 0.17038
2855 13.27320 742.17849 730.10813 0.19690
2856 13.27680 696.00840 688.29829 0.17671
2857 13.28040 653.11907 658.01163 0.22113
2858 13.28400 614.09102 625.40041 0.22051
2859 13.28760 579.10033 594.68863 0.26299
2860 13.29120 548.26269 569.04262 0.29214
2861 13.29480 521.49587 546.83688 0.28973
2862 13.29840 498.57246 525.19647 0.31565
2863 13.30200 479.17228 508.14061 0.33981
2864 13.30560 462.91879 492.74361 0.34977
2865 13.30920 449.41071 478.05958 0.36112
2866 13.31280 438.24794 465.46768 0.37127
2867 13.31640 429.05104 453.04942 0.38231
2868 13.32000 421.47438 445.05096 0.38969
2869 13.32360 415.21478 433.98675 0.40020
2870 13.32720 410.02052 427.32844 0.40745
2871 13.33080 405.67162 416.71466 0.41514
2872 13.33440 401.97093 412.48530 0.42046
2873 13.33800 398.79400 407.85431 0.42312
2874 13.34160 396.03112 401.99442 0.43050
2875 13.34520 393.59771 396.38817 0.43609
2876 13.34880 391.42925 394.64730 0.43968
2877 13.35240 389.47694 390.31940 0.44437
2878 13.35600 387.70396 384.23278 0.45137
2879 13.35960 386.08251 382.62964 0.45220
2880 13.36320 384.59144 377.86358 0.45758
2881 13.36680 383.21449 375.31881 0.46034
2882 13.37040 381.93895 374.82197 0.46211
2883 13.37400 380.75223 372.10267 0.46465
2884 13.37760 379.63232 371.15065 0.46606
2885 13.38120 378.54535 368.94274 0.46760
2886 13.38480 377.45353 367.64206 0.47110
2887 13.38840 376.56310 363.76341 0.47615
2888 13.39200 375.73656 361.36700 0.47780
2889 13.39560 374.96792 361.79537 0.47931
2890 13.39920 374.25403 359.34800 0.48159
2891 13.40280 373.59221 360.58791 0.48085
2892 13.40640 372.98014 358.44826 0.48309
2893 13.41000 372.41584 356.83775 0.48736
2894 13.41360 371.89771 355.36194 0.48858
2895 13.41720 371.42445 356.34871 0.48837
2896 13.42080 370.99508 354.96457 0.48893
2897 13.42440 370.60898 355.71001 0.48933
2898 13.42800 370.26589 355.96659 0.48664
2899 13.43160 369.96596 353.04546 0.49223
2900 13.43520 369.70984 353.05340 0.49210
2901 13.43880 369.49881 356.11859 0.48797
2902 13.44240 369.33490 354.61242 0.48931
2903 13.44600 369.22122 354.33594 0.49079
2904 13.44960 369.16223 354.74688 0.48903
2905 13.45320 369.16423 357.58519 0.48590
2906 13.45680 369.23598 355.98165 0.48732
2907 13.46040 369.38943 355.65658 0.48875
2908 13.46400 369.64072 357.41892 0.48672
2909 13.46760 370.01124 358.44528 0.48620
2910 13.47120 370.52896 358.65577 0.48508
2911 13.47480 371.22976 360.62873 0.48173
2912 13.47840 372.15878 361.48333 0.48094
2913 13.48200 373.37158 363.53696 0.47807
2914 13.48560 374.93528 365.16409 0.47697
2915 13.48920 376.92998 370.29337 0.46927
2916 13.49280 379.44111 372.88020 0.46649
2917 13.49640 382.56695 374.69781 0.46382
2918 13.50000 386.41197 378.11998 0.46002
2919 13.50360 391.08040 383.43456 0.45266
2920 13.50720 396.67080 387.20719 0.45056
2921 13.51080 403.26704 394.27824 0.44102
2922 13.51440 410.92382 402.92085 0.43230
2923 13.51800 419.65641 409.88615 0.42544
2924 13.52160 429.43045 419.51107 0.41333
2925 13.52520 440.29783 429.27419 0.40392
2926 13.52880 452.05709 440.92428 0.39395
2927 13.53240 464.50840 454.20014 0.38146
2928 13.53600 477.37700 466.38358 0.37337
2929 13.53960 490.30765 479.26715 0.36187
2930 13.54320 502.86504 494.30269 0.35225
2931 13.54680 514.54199 503.03566 0.34517
2932 13.55040 524.78115 516.65827 0.33583
2933 13.55400 533.01529 523.40505 0.33162
2934 13.55760 538.72730 528.77324 0.32765
2935 13.56120 541.52218 531.60086 0.32478
2936 13.56480 541.19323 532.50885 0.32497
2937 13.56840 537.76101 531.38262 0.32658
2938 13.57200 531.46949 525.77487 0.33037
2939 13.57560 522.74141 516.17089 0.32803
2940 13.57920 512.10900 504.60073 0.34417
2941 13.58280 500.14276 494.59982 0.35013
2942 13.58640 487.39424 480.21202 0.36061
2943 13.59000 474.35914 467.24878 0.37187
2944 13.59360 461.45863 453.45172 0.38197
2945 13.59720 449.03298 438.95381 0.39534
2946 13.60080 437.34236 425.57483 0.40766
2947 13.60440 426.57151 418.70759 0.41402
2948 13.60800 416.83656 407.79852 0.42614
2949 13.61160 408.19323 398.36720 0.43691
2950 13.61520 400.64621 394.14646 0.44105
2951 13.61880 394.15913 386.35449 0.45057
2952 13.62240 388.66476 383.80331 0.45225
2953 13.62600 384.07487 378.09640 0.45984
2954 13.62960 380.28915 372.89627 0.46495
2955 13.63320 377.20296 370.28321 0.46835
2956 13.63680 374.71343 369.93095 0.46866
2957 13.64040 372.72404 364.86622 0.47715
2958 13.64400 371.14759 364.35955 0.47605
2959 13.64760 369.90785 360.56771 0.48205
2960 13.65120 368.94004 360.98274 0.48020
2961 13.65480 368.19055 358.99841 0.48352
2962 13.65840 367.61598 355.78058 0.48739
2963 13.66200 367.18197 354.47351 0.48957
2964 13.66560 366.86181 355.24039 0.48749
2965 13.66920 366.63509 353.91018 0.48898
2966 13.67280 366.48647 353.16847 0.49276
2967 13.67640 366.40497 351.55818 0.49466
2968 13.68000 366.38315 352.13133 0.49276
2969 13.68360 366.41180 353.89408 0.49092
2970 13.68720 366.48840 352.70977 0.49160
2971 13.69080 366.60988 351.60707 0.49145
2972 13.69440 366.77416 351.41362 0.49365
2973 13.69800 366.97987 350.02345 0.49481
2974 13.70160 367.22619 350.45914 0.49506
2975 13.70520 367.51275 350.07879 0.49490
2976 13.70880 367.83956 350.86496 0.49625
2977 13.71240 368.20692 352.15225 0.49475
2978 13.71600 368.61541 352.36180 0.49491
2979 13.71960 369.06590 350.70886 0.49578
2980 13.72320 369.55949 352.30479 0.49480
2981 13.72680 370.09768 355.09386 0.48932
2982 13.73040 370.68229 354.73091 0.49037
2983 13.73400 371.31437 353.81399 0.49174
2984 13.73760 371.99656 356.04719 0.48959
2985 13.74120 372.73131 354.48746 0.49126
2986 13.74480 373.52138 356.39344 0.48819
2987 13.74840 374.36987 355.53973 0.49049
2988 13.75200 375.28025 358.84053 0.48400
2989 13.75560 376.25638 356.11067 0.48917
2990 13.75920 377.30255 358.15309 0.48571
2991 13.76280 378.42358 363.28410 0.47987
2992 13.76640 379.62478 364.29913 0.47751
2993 13.77000 380.91210 363.33197 0.47954
2994 13.77360 382.29218 366.25544 0.47476
2995 13.77720 383.77245 368.97039 0.47206
2996 13.78080 385.36127 370.42062 0.46848
2997 13.78440 387.06813 374.33104 0.46480
2998 13.78800 388.90384 376.21715 0.46208
2999 13.79160 390.88091 376.49347 0.46317
3000 13.79520 393.01400 379.84762 0.45856
3001 13.79880 395.32058 383.60842 0.45438
3002 13.80240 397.82226 388.71185 0.44740
3003 13.80600 400.54903 391.57204 0.44521
3004 13.80960 403.53288 393.73964 0.44060
3005 13.81320 406.80630 401.43988 0.43246
3006 13.81680 410.43210 406.13902 0.42857
3007 13.82040 414.48311 412.86532 0.42053
3008 13.82400 419.05539 417.89465 0.41544
3009 13.82760 424.27543 423.60603 0.40995
3010 13.83120 430.30908 432.73118 0.40071
3011 13.83480 437.37188 442.32337 0.39118
3012 13.83840 445.74065 454.32506 0.38271
3013 13.84200 455.76570 466.86065 0.37158
3014 13.84560 467.88277 481.41647 0.36047
3015 13.84920 482.62321 497.80543 0.34835
3016 13.85280 500.62074 517.46133 0.32880
3017 13.85640 522.61252 538.26955 0.31984
3018 13.86000 549.43228 564.01723 0.26314
3019 13.86360 581.99308 593.35186 0.23773
3020 13.86720 621.25846 626.56915 0.20961
3021 13.87080 668.19668 667.34899 0.18035
3022 13.87440 723.72235 716.09316 0.16795
3023 13.87800 788.63209 767.08194 0.14174
3024 13.88160 863.51679 828.70164 0.09983
3025 13.88520 948.67440 906.76872 0.09769
3026 13.88880 1044.01847 994.79382 0.06959
3027 13.89240 1148.98803 1099.16129 0.06600
3028 13.89600 1262.46380 1216.86381 0.05795
3029 13.89960 1382.69358 1343.79312 0.04857
3030 13.90320 1507.23116 1488.77206 0.04556
3031 13.90680 1632.89615 1627.37437 0.04299
3032 13.91040 1755.77035 1771.23761 0.04405
3033 13.91400 1871.26124 1907.17714 0.04194
3034 13.91760 1974.27462 2021.26047 0.04632
3035 13.92120 2059.54364 2118.24061 0.05449
3036 13.92480 2122.12418 2177.59961 0.06572
3037 13.92840 2158.04600 2207.64267 0.06702
3038 13.93200 2164.86514 2209.84072 0.06500
3039 13.93560 2142.12327 2180.06790 0.06168
3040 13.93920 2091.42420 2120.91167 0.05448
3041 13.94280 2016.14954 2032.39495 0.04267
3042 13.94640 1920.91098 1917.49661 0.04076
3043 13.95000 1810.91164 1792.77016 0.03717
3044 13.95360 1691.37968 1656.44129 0.03785
3045 13.95720 1567.16140 1515.62179 0.03972
3046 13.96080 1442.48435 1369.29626 0.04250
3047 13.96440 1320.85307 1238.09178 0.04935
3048 13.96800 1205.02895 1121.08818 0.06190
3049 13.97160 1097.05844 1016.57558 0.07178
3050 13.97520 998.32651 927.93393 0.09217
3051 13.97880 909.62652 852.98197 0.10158
3052 13.98240 831.24023 786.18066 0.12575
3053 13.98600 763.02583 730.72007 0.15642
3054 13.98960 704.50921 685.03232 0.18453
3055 13.99320 654.97469 643.62146 0.21050
3056 13.99680 613.55035 608.63281 0.25901
3057 14.00040 579.28384 580.98720 0.27452
3058 14.00400 551.20603 556.64436 0.31093
3059 14.00760 528.38056 531.31531 0.32559
3060 14.01120 509.93951 511.91787 0.33942
3061 14.01480 495.10574 497.28654 0.34905
3062 14.01840 483.20413 487.41366 0.35688
3063 14.02200 473.66366 475.60647 0.36558
3064 14.02560 466.01703 465.28247 0.37338
3065 14.02920 459.89829 458.83664 0.37773
3066 14.03280 454.96231 449.45652 0.38629
3067 14.03640 450.99718 444.51063 0.39011
3068 14.04000 447.82355 439.29838 0.39567
3069 14.04360 445.30575 433.44966 0.40049
3070 14.04720 443.34287 432.05367 0.40274
3071 14.05080 441.86092 429.94661 0.40305
3072 14.05440 440.80654 426.67057 0.40827
3073 14.05800 440.14222 425.54666 0.40946
3074 14.06160 439.84270 425.59566 0.40918
3075 14.06520 439.89255 425.58648 0.40927
3076 14.06880 440.28463 425.62560 0.40886
3077 14.07240 441.01939 426.76969 0.40616
3078 14.07600 442.10487 427.68961 0.40446
3079 14.07960 443.55774 432.35572 0.40115
3080 14.08320 445.40720 433.49662 0.40030
3081 14.08680 447.68815 435.25660 0.39952
3082 14.09040 450.44740 442.86410 0.39240
3083 14.09400 453.75981 447.89250 0.38926
3084 14.09760 457.71771 450.07244 0.38667
3085 14.10120 462.44028 457.56645 0.38015
3086 14.10480 468.07850 465.95868 0.37228
3087 14.10840 474.82005 474.81333 0.36573
3088 14.11200 482.89356 484.88601 0.35761
3089 14.11560 492.57159 496.50888 0.35004
3090 14.11920 504.17146 509.70687 0.34087
3091 14.12280 518.05300 525.88755 0.33015
3092 14.12640 534.61250 539.25133 0.32128
3093 14.13000 554.27205 555.25792 0.31205
3094 14.13360 577.46387 580.65882 0.27624
3095 14.13720 604.60968 606.82700 0.28562
3096 14.14080 636.09578 635.14319 0.25415
3097 14.14440 672.24497 664.49643 0.26104
3098 14.14800 713.28706 700.35700 0.18371
3099 14.15160 759.33015 744.55546 0.16227
3100 14.15520 810.33481 794.18342 0.15176
3101 14.15880 866.09309 846.70345 0.14050
3102 14.16240 926.21375 905.68109 0.13322
3103 14.16600 990.11496 974.21911 0.10076
3104 14.16960 1057.02634 1046.28167 0.11204
3105 14.17320 1126.00456 1116.73777 0.09843
3106 14.17680 1195.97231 1192.32036 0.09274
3107 14.18040 1265.79484 1267.07786 0.08453
3108 14.18400 1334.41744 1334.85946 0.09288
3109 14.18760 1401.05274 1400.77801 0.08017
3110 14.19120 1465.42920 1462.35335 0.09588
3111 14.19480 1528.02374 1520.16633 0.07956
3112 14.19840 1590.21128 1576.35090 0.08528
3113 14.20200 1654.25485 1625.15350 0.08369
3114 14.20560 1723.11369 1676.37165 0.07304
3115 14.20920 1800.10372 1738.83836 0.06496
3116 14.21280 1888.49067 1812.32207 0.05731
3117 14.21640 1991.09070 1894.23798 0.05098
3118 14.22000 2109.93518 2002.14003 0.04075
3119 14.22360 2246.00582 2125.54942 0.03446
3120 14.22720 2399.03748 2293.12212 0.02444
3121 14.23080 2567.37329 2485.89855 0.02326
3122 14.23440 2747.85981 2704.43451 0.01818
3123 14.23800 2935.78303 2945.69206 0.01755
3124 14.24160 3124.86174 3199.08572 0.01570
3125 14.24520 3307.33955 3447.22568 0.01696
3126 14.24880 3474.24613 3684.02893 0.01538
3127 14.25240 3615.91172 3888.10485 0.02252
3128 14.25600 3722.79471 4035.99686 0.02179
3129 14.25960 3786.58198 4139.43344 0.03479
3130 14.26320 3801.37112 4170.86127 0.03432
3131 14.26680 3764.63094 4139.88955 0.03142
3132 14.27040 3677.61422 4043.55040 0.02655
3133 14.27400 3545.08264 3902.59743 0.01884
3134 14.27760 3374.44110 3701.30049 0.01605
3135 14.28120 3174.59477 3469.08298 0.01370
3136 14.28480 2954.85591 3194.62612 0.01330
3137 14.28840 2724.09550 2895.94332 0.01302
3138 14.29200 2490.19767 2601.13430 0.01407
3139 14.29560 2259.86356 2312.79917 0.01598
3140 14.29920 2038.48502 2045.04106 0.01820
3141 14.30280 1830.17963 1799.85935 0.02189
3142 14.30640 1637.86903 1587.88771 0.02755
3143 14.31000 1463.38557 1404.21860 0.03417
3144 14.31360 1307.60259 1255.24144 0.04327
3145 14.31720 1170.57788 1126.56791 0.05778
3146 14.32080 1051.70975 1019.52293 0.06955
3147 14.32440 949.89402 932.19473 0.08810
3148 14.32800 863.67836 855.93025 0.10416
3149 14.33160 791.40246 787.58949 0.13064
3150 14.33520 731.32096 740.50537 0.15921
3151 14.33880 681.70287 695.17604 0.16823
3152 14.34240 640.90706 652.67568 0.22162
3153 14.34600 607.43398 623.47483 0.23810
3154 14.34960 579.95578 596.03192 0.28971
3155 14.35320 557.32867 570.74746 0.27171
3156 14.35680 538.59115 549.01384 0.31574
3157 14.36040 522.95248 531.25872 0.32496
3158 14.36400 509.77492 515.48845 0.33598
3159 14.36760 498.55296 500.40573 0.34699
3160 14.37120 488.89180 488.56662 0.35550
3161 14.37480 480.48693 478.91633 0.36200
3162 14.37840 473.10555 469.32400 0.37082
3163 14.38200 466.57101 461.14295 0.37651
3164 14.38560 460.74951 453.40310 0.38315
3165 14.38920 455.53962 443.51249 0.39021
3166 14.39280 450.86407 438.55313 0.39591
3167 14.39640 446.66348 438.14626 0.39591
3168 14.40000 442.89174 432.35653 0.40067
3169 14.40360 439.51257 428.53739 0.40371
3170 14.40720 436.49708 424.00711 0.40984
3171 14.41080 433.82213 421.75737 0.41242
3172 14.41440 431.46912 418.09797 0.41663
3173 14.41800 429.42332 416.57210 0.41707
3174 14.42160 427.67352 416.58762 0.41689
3175 14.42520 426.21192 415.58039 0.41806
3176 14.42880 425.03449 414.54551 0.41824
3177 14.43240 424.14151 417.94900 0.41529
3178 14.43600 423.53867 416.34143 0.41764
3179 14.43960 423.23865 418.17007 0.41490
3180 14.44320 423.26332 417.00836 0.41631
3181 14.44680 423.64658 420.05038 0.41569
3182 14.45040 424.43791 424.46243 0.40876
3183 14.45400 425.70649 426.97879 0.40653
3184 14.45760 427.54568 431.27711 0.40228
3185 14.46120 430.07801 436.13282 0.39804
3186 14.46480 433.46022 442.13400 0.39221
3187 14.46840 437.88822 447.49959 0.38737
3188 14.47200 443.60151 456.03258 0.37998
3189 14.47560 450.88637 465.18461 0.37372
3190 14.47920 460.07684 475.53552 0.36384
3191 14.48280 471.55267 490.09270 0.35285
3192 14.48640 485.73285 500.89637 0.34525
3193 14.49000 503.06418 520.74032 0.30162
3194 14.49360 524.00380 540.74748 0.31981
3195 14.49720 548.99559 563.14416 0.30752
3196 14.50080 578.44060 588.30907 0.26537
3197 14.50440 612.66253 619.85106 0.24295
3198 14.50800 651.86778 654.58599 0.20607
3199 14.51160 696.10684 691.58503 0.19465
3200 14.51520 745.23221 736.67532 0.18906
3201 14.51880 798.85958 789.14177 0.13865
3202 14.52240 856.33216 849.51610 0.13481
3203 14.52600 916.68946 911.81560 0.11572
3204 14.52960 978.64244 979.17713 0.11008
3205 14.53320 1040.55920 1049.10199 0.09121
3206 14.53680 1100.47016 1121.11461 0.09343
3207 14.54040 1156.10882 1185.35525 0.08440
3208 14.54400 1205.01002 1243.87364 0.10336
3209 14.54760 1244.68579 1290.60071 0.10228
3210 14.55120 1272.88108 1326.84451 0.12904
3211 14.55480 1287.87574 1344.58890 0.12746
3212 14.55840 1288.76255 1350.60791 0.12636
3213 14.56200 1275.61703 1339.52308 0.12732
3214 14.56560 1249.49596 1314.37514 0.10743
3215 14.56920 1212.26855 1275.46214 0.10035
3216 14.57280 1166.33963 1228.26476 0.09860
3217 14.57640 1114.35405 1169.04369 0.10005
3218 14.58000 1058.94889 1111.44592 0.10057
3219 14.58360 1002.58657 1051.29543 0.10961
3220 14.58720 947.46408 990.92360 0.11341
3221 14.59080 895.47682 931.25572 0.11781
3222 14.59440 848.21412 882.92209 0.17513
3223 14.59800 806.96975 842.06862 0.16917
3224 14.60160 772.75818 806.23513 0.21345
3225 14.60520 746.33198 786.57123 0.21960
3226 14.60880 728.19841 771.84344 0.22314
3227 14.61240 718.63437 767.14224 0.22430
3228 14.61600 717.69839 767.27928 0.22401
3229 14.61960 725.23947 776.01622 0.22160
3230 14.62320 740.90170 792.42252 0.21676
3231 14.62680 764.12493 814.39912 0.21080
3232 14.63040 794.14148 841.25143 0.18779
3233 14.63400 829.96930 873.35822 0.16574
3234 14.63760 870.40275 909.12717 0.15696
3235 14.64120 914.00231 950.30659 0.14739
3236 14.64480 959.08759 989.70619 0.14992
3237 14.64840 1003.74109 1030.90359 0.12628
3238 14.65200 1045.83710 1074.46766 0.15401
3239 14.65560 1083.11412 1103.53325 0.15008
3240 14.65920 1113.30927 1132.42685 0.15074
3241 14.66280 1134.35924 1151.32389 0.14926
3242 14.66640 1144.64373 1158.64544 0.14785
3243 14.67000 1143.21561 1163.05080 0.14727
3244 14.67360 1129.94889 1146.16703 0.14917
3245 14.67720 1105.54702 1122.25825 0.15264
3246 14.68080 1071.41008 1090.29952 0.15670
3247 14.68440 1029.40408 1047.08306 0.13972
3248 14.68800 981.60741 999.33004 0.12901
3249 14.69160 930.09205 951.48094 0.14642
3250 14.69520 876.77117 896.71691 0.13812
3251 14.69880 823.31323 841.96075 0.14303
3252 14.70240 771.10540 786.79053 0.13921
3253 14.70600 721.24703 734.33621 0.17983
3254 14.70960 674.56286 690.90129 0.17929
3255 14.71320 631.62185 647.72782 0.21026
3256 14.71680 592.76331 614.15409 0.24389
3257 14.72040 558.12619 585.03737 0.24653
3258 14.72400 527.68140 556.95270 0.27041
3259 14.72760 501.26549 529.61163 0.29439
3260 14.73120 478.61460 507.06172 0.32676
3261 14.73480 459.39677 489.65836 0.35120
3262 14.73840 443.24133 477.35759 0.36132
3263 14.74200 429.76404 460.33273 0.37395
3264 14.74560 418.58736 447.87034 0.38242
3265 14.74920 409.35562 437.71208 0.39431
3266 14.75280 401.74518 428.42675 0.40200
3267 14.75640 395.47031 419.77560 0.41124
3268 14.76000 390.28530 414.50774 0.41704
3269 14.76360 385.98384 405.21889 0.42682
3270 14.76720 382.39640 400.53973 0.43112
3271 14.77080 379.38646 395.04558 0.43756
3272 14.77440 376.84600 390.08526 0.44308
3273 14.77800 374.69111 387.17093 0.44643
3274 14.78160 372.85769 385.11661 0.44889
3275 14.78520 371.29782 384.15938 0.45145
3276 14.78880 369.97988 379.14625 0.44604
3277 14.79240 368.90269 377.84789 0.42795
3278 14.79600 367.99395 376.14509 0.46043
3279 14.79960 367.27126 375.50292 0.46159
3280 14.80320 366.73441 374.95240 0.46096
3281 14.80680 366.38747 375.41022 0.45911
3282 14.81040 366.24140 374.67318 0.45824
3283 14.81400 366.31493 376.20525 0.45745
3284 14.81760 366.63587 377.54890 0.45528
3285 14.82120 367.24292 378.35514 0.45501
3286 14.82480 368.18741 379.93035 0.45466
3287 14.82840 369.52734 384.16182 0.45047
3288 14.83200 371.32695 385.87305 0.45184
3289 14.83560 373.65074 390.00758 0.44748
3290 14.83920 376.79751 389.76424 0.41642
3291 14.84280 380.81221 395.53642 0.39924
3292 14.84640 385.86041 401.44538 0.39374
3293 14.85000 392.12917 407.65446 0.38653
3294 14.85360 399.81959 415.39563 0.37912
3295 14.85720 409.13961 425.27365 0.36975
3296 14.86080 420.29405 431.70013 0.36558
3297 14.86440 433.47203 442.48060 0.35517
3298 14.86800 448.83195 454.64901 0.34621
3299 14.87160 466.48461 468.58024 0.33534
3300 14.87520 486.47521 480.57136 0.32775
3301 14.87880 508.76506 493.14936 0.31806
3302 14.88240 533.21372 512.79822 0.30818
3303 14.88600 559.56243 529.87399 0.29749
3304 14.88960 587.41922 548.52758 0.27361
3305 14.89320 616.24640 571.18401 0.27317
3306 14.89680 645.35166 589.75262 0.26876
3307 14.90040 673.88603 610.54403 0.24016
3308 14.90400 700.85419 628.96772 0.20574
3309 14.90760 725.14639 644.72290 0.19988
3310 14.91120 745.60167 659.28078 0.19545
3311 14.91480 761.10787 671.93589 0.19186
3312 14.91840 770.73142 678.01059 0.19068
3313 14.92200 773.85145 681.36140 0.18919
3314 14.92560 770.26358 680.36373 0.18908
3315 14.92920 760.21611 676.26176 0.19068
3316 14.93280 744.36770 667.53153 0.19411
3317 14.93640 723.67933 658.32261 0.19707
3318 14.94000 699.27906 646.33281 0.19922
3319 14.94360 672.33377 630.60923 0.20499
3320 14.94720 643.95229 610.16995 0.21146
3321 14.95080 615.12559 592.11785 0.21851
3322 14.95440 586.69799 574.29532 0.22482
3323 14.95800 559.35912 561.22780 0.23063
3324 14.96160 533.64795 540.56881 0.23953
3325 14.96520 509.96330 526.92583 0.24663
3326 14.96880 488.57812 514.37185 0.25069
3327 14.97240 469.65635 505.74030 0.25548
3328 14.97600 453.27164 489.25496 0.26296
3329 14.97960 439.42765 480.60614 0.26770
3330 14.98320 428.07885 475.85103 0.27103
3331 14.98680 419.15102 473.56704 0.27377
3332 14.99040 412.56034 468.25650 0.27634
3333 14.99400 408.23011 462.59961 0.27960
3334 14.99760 406.10411 463.66213 0.27924
3335 15.00120 406.15601 460.39073 0.28139
3336 15.00480 408.39433 464.94345 0.27853
3337 15.00840 412.86262 468.27277 0.27606
3338 15.01200 419.63499 473.95537 0.27274
3339 15.01560 428.80697 481.58429 0.26890
3340 15.01920 440.48234 487.65085 0.26521
3341 15.02280 454.75637 498.37117 0.25858
3342 15.02640 471.69648 508.11955 0.25516
3343 15.03000 491.32126 519.72842 0.24875
3344 15.03360 513.57888 534.87407 0.24168
3345 15.03720 538.32604 555.01822 0.23284
3346 15.04080 565.30950 570.73464 0.22732
3347 15.04440 594.14788 589.11094 0.21957
3348 15.04800 624.30203 610.10015 0.21223
3349 15.05160 655.09226 629.05746 0.20551
3350 15.05520 685.66999 650.61596 0.19757
3351 15.05880 715.02830 669.35313 0.19174
3352 15.06240 742.02552 685.49908 0.18219
3353 15.06600 765.43816 701.14355 0.18277
3354 15.06960 784.05151 712.48735 0.18011
3355 15.07320 796.78635 713.77170 0.17985
3356 15.07680 802.84230 713.67305 0.18082
3357 15.08040 801.82373 718.33630 0.18037
3358 15.08400 793.80867 711.42710 0.18378
3359 15.08760 779.33556 703.40092 0.17992
3360 15.09120 759.31239 691.02759 0.15704
3361 15.09480 734.87866 678.64573 0.20975
3362 15.09840 707.25735 659.08096 0.22065
3363 15.10200 677.62775 637.89153 0.21562
3364 15.10560 647.11125 619.14045 0.23178
3365 15.10920 616.67247 602.14670 0.23746
3366 15.11280 587.04357 582.23427 0.24474
3367 15.11640 558.81615 566.79402 0.25207
3368 15.12000 532.41682 545.87310 0.25200
3369 15.12360 508.12029 530.14170 0.27069
3370 15.12720 486.06656 515.32837 0.27562
3371 15.13080 466.28263 504.86455 0.28288
3372 15.13440 448.71677 491.41303 0.29044
3373 15.13800 433.23653 479.51751 0.29939
3374 15.14160 419.63563 469.42915 0.30721
3375 15.14520 407.75042 460.61930 0.31595
3376 15.14880 397.39581 445.79210 0.32822
3377 15.15240 388.40720 436.94641 0.28004
3378 15.15600 380.55120 427.09722 0.26678
3379 15.15960 373.70335 418.49985 0.27362
3380 15.16320 367.72746 410.79733 0.27772
3381 15.16680 362.50178 403.52367 0.29133
3382 15.17040 357.92113 396.33132 0.33850
3383 15.17400 353.89585 391.22894 0.34119
3384 15.17760 350.35044 383.34030 0.34472
3385 15.18120 347.22177 375.10832 0.35084
3386 15.18480 344.45711 371.18816 0.35454
3387 15.18840 342.01221 367.58000 0.35596
3388 15.19200 339.84948 361.90862 0.36147
3389 15.19560 337.93657 359.79960 0.36278
3390 15.19920 336.24514 357.10784 0.36663
3391 15.20280 334.75007 351.97512 0.37055
3392 15.20640 333.42886 347.86185 0.37446
3393 15.21000 332.26128 347.73494 0.37408
3394 15.21360 331.22914 345.94910 0.37891
3395 15.21720 330.31439 342.21642 0.38059
3396 15.22080 329.49808 341.17477 0.38192
3397 15.22440 328.75906 338.46211 0.38367
3398 15.22800 328.12422 338.54981 0.38461
3399 15.23160 327.56197 339.52594 0.38270
3400 15.23520 327.06382 336.45254 0.38750
3401 15.23880 326.62316 334.38079 0.38936
3402 15.24240 326.23452 332.18063 0.39344
3403 15.24600 325.89345 330.86579 0.39363
3404 15.24960 325.59634 330.71048 0.39606
3405 15.25320 325.34028 330.27075 0.39629
3406 15.25680 325.12300 332.59836 0.39335
3407 15.26040 324.94272 331.16890 0.39441
3408 15.26400 324.79806 329.86182 0.39541
3409 15.26760 324.68803 330.83297 0.39416
3410 15.27120 324.61193 328.46096 0.39859
3411 15.27480 324.56931 329.02025 0.39782
3412 15.27840 324.55996 328.69569 0.39770
3413 15.28200 324.58389 328.73962 0.39919
3414 15.28560 324.64130 327.84357 0.39980
3415 15.28920 324.73256 328.85334 0.39701
3416 15.29280 324.85826 326.04891 0.40087
3417 15.29640 325.01916 327.17613 0.39940
3418 15.30000 325.21620 330.63840 0.39495
3419 15.30360 325.45052 327.94075 0.39874
3420 15.30720 325.72348 330.21572 0.39609
3421 15.31080 326.03665 332.88160 0.39337
3422 15.31440 326.39186 329.49357 0.39720
3423 15.31800 326.79119 331.31422 0.39433
3424 15.32160 327.23702 332.36211 0.39266
3425 15.32520 327.73209 331.60325 0.39484
3426 15.32880 328.27952 331.39369 0.39442
3427 15.33240 328.88294 332.31753 0.39445
3428 15.33600 329.54696 333.59679 0.39339
3429 15.33960 330.28070 335.76720 0.39059
3430 15.34320 331.08230 337.21192 0.46126
3431 15.34680 331.96037 338.16715 0.48113
3432 15.35040 332.92547 340.84607 0.47403
3433 15.35400 333.98856 342.14738 0.46828
3434 15.35760 335.16351 341.37139 0.46560
3435 15.36120 336.46799 345.48689 0.45922
3436 15.36480 337.92467 348.50956 0.45526
3437 15.36840 339.56269 352.73294 0.44935
3438 15.37200 341.41951 355.13408 0.44520
3439 15.37560 343.54301 357.39874 0.44458
3440 15.37920 345.99391 364.24434 0.43740
3441 15.38280 348.84847 365.85175 0.43884
3442 15.38640 352.20121 372.62125 0.43137
3443 15.39000 356.16841 377.13892 0.39157
3444 15.39360 360.89418 384.47959 0.37583
3445 15.39720 366.52748 386.98698 0.37214
3446 15.40080 373.26249 397.17661 0.36269
3447 15.40440 381.31003 406.63881 0.35286
3448 15.40800 390.89987 416.48087 0.34572
3449 15.41160 402.27488 428.28572 0.33600
3450 15.41520 415.68189 440.61401 0.32607
3451 15.41880 431.35952 453.91446 0.34755
3452 15.42240 449.52300 469.53003 0.34776
3453 15.42600 470.34940 489.08138 0.31011
3454 15.42960 493.95422 510.35455 0.30615
3455 15.43320 520.37423 534.96969 0.24126
3456 15.43680 549.54694 563.20076 0.26667
3457 15.44040 581.29123 590.68878 0.20092
3458 15.44400 615.28962 626.14127 0.16733
3459 15.44760 651.07268 661.71026 0.18777
3460 15.45120 688.00658 695.96078 0.17668
3461 15.45480 725.28375 738.25063 0.12059
3462 15.45840 761.92400 780.67157 0.13926
3463 15.46200 796.79098 812.06151 0.13153
3464 15.46560 828.63206 842.17427 0.15596
3465 15.46920 856.15631 868.02723 0.14619
3466 15.47280 878.15375 893.00348 0.14605
3467 15.47640 893.64729 904.78471 0.14440
3468 15.48000 902.04891 915.37466 0.14242
3469 15.48360 903.28141 920.37977 0.14175
3470 15.48720 897.82469 916.61771 0.14221
3471 15.49080 886.67358 907.41152 0.14348
3472 15.49440 871.21999 892.04189 0.14670
3473 15.49800 853.10026 883.21520 0.14815
3474 15.50160 834.04492 861.99267 0.15145
3475 15.50520 815.75795 847.07978 0.15448
3476 15.50880 799.83309 836.52202 0.15652
3477 15.51240 787.70060 824.65182 0.15834
3478 15.51600 780.59417 821.18130 0.15853
3479 15.51960 779.53161 820.00596 0.15942
3480 15.52320 785.27101 829.80022 0.15836
3481 15.52680 798.32280 846.40653 0.15482
3482 15.53040 818.91715 871.26085 0.15085
3483 15.53400 846.98433 895.37320 0.13909
3484 15.53760 882.14267 935.95118 0.10751
3485 15.54120 923.68672 980.19149 0.11871
3486 15.54480 970.57881 1030.27076 0.09135
3487 15.54840 1021.44384 1088.30954 0.08265
3488 15.55200 1074.57073 1148.28739 0.08378
3489 15.55560 1127.92630 1201.65498 0.08703
3490 15.55920 1179.19458 1258.31691 0.07407
3491 15.56280 1225.85849 1311.57779 0.08578
3492 15.56640 1265.34248 1351.50866 0.08523
3493 15.57000 1295.22254 1377.50043 0.09422
3494 15.57360 1313.47870 1389.10308 0.09364
3495 15.57720 1318.75652 1399.36882 0.09307
3496 15.58080 1310.54924 1387.48415 0.09315
3497 15.58440 1289.25488 1363.92588 0.09127
3498 15.58800 1256.08951 1327.53950 0.08065
3499 15.59160 1212.88530 1280.21689 0.08209
3500 15.59520 1161.84334 1219.36770 0.06679
3501 15.59880 1105.29838 1155.54616 0.06851
3502 15.60240 1045.53552 1091.45324 0.06643
3503 15.60600 984.66793 1015.17351 0.06795
3504 15.60960 924.56604 945.40283 0.08333
3505 15.61320 866.82350 883.15940 0.08402
3506 15.61680 812.74706 826.50717 0.10040
3507 15.62040 763.36702 773.27439 0.11562
3508 15.62400 719.41624 728.74491 0.14365
3509 15.62760 681.39911 687.17104 0.16024
3510 15.63120 649.58337 658.20381 0.19926
3511 15.63480 624.02788 636.37204 0.20711
3512 15.63840 604.60859 616.69073 0.21364
3513 15.64200 591.04150 604.39961 0.23353
3514 15.64560 582.91615 601.61825 0.27282
3515 15.64920 579.69730 603.33265 0.26965
3516 15.65280 580.75454 611.12537 0.26371
3517 15.65640 585.37293 620.46380 0.25916
3518 15.66000 592.76263 634.82865 0.25323
3519 15.66360 602.06666 654.93519 0.24448
3520 15.66720 612.36962 676.59878 0.23653
3521 15.67080 622.71210 690.49657 0.23158
3522 15.67440 632.11756 707.80812 0.22560
3523 15.67800 639.63744 722.34690 0.22126
3524 15.68160 644.41653 731.81107 0.21923
3525 15.68520 645.77083 733.83312 0.21805
3526 15.68880 643.25598 729.01225 0.22012
3527 15.69240 636.71220 721.32740 0.22227
3528 15.69600 626.28627 705.94792 0.22090
3529 15.69960 612.47787 688.08202 0.23193
3530 15.70320 595.82567 662.28909 0.21011
3531 15.70680 577.02156 635.94428 0.21505
3532 15.71040 556.77694 603.99862 0.18943
3533 15.71400 535.76487 571.75263 0.23806
3534 15.71760 514.58505 539.32745 0.25031
3535 15.72120 493.74681 509.77503 0.22664
3536 15.72480 473.66414 480.77111 0.30816
3537 15.72840 454.65753 456.14072 0.31249
3538 15.73200 436.95951 431.70067 0.39070
3539 15.73560 420.72224 414.31770 0.43266
3540 15.73920 406.02643 401.94295 0.42126
3541 15.74280 392.89111 390.38490 0.41455
3542 15.74640 381.28423 377.95283 0.42704
3543 15.75000 371.13346 369.53897 0.43687
3544 15.75360 362.33685 360.10576 0.44639
3545 15.75720 354.77288 351.56989 0.45848
3546 15.76080 348.30949 347.72595 0.46378
3547 15.76440 342.81174 343.14397 0.47064
3548 15.76800 338.14799 339.20524 0.47448
3549 15.77160 334.19442 334.15507 0.48279
3550 15.77520 330.83816 329.67773 0.48969
3551 15.77880 327.97905 328.45589 0.49244
3552 15.78240 325.52952 324.46621 0.49843
3553 15.78600 323.40712 324.42594 0.49974
3554 15.78960 321.52153 323.59571 0.50328
3555 15.79320 319.86589 320.75345 0.51015
3556 15.79680 318.43845 319.22907 0.51507
3557 15.80040 317.16300 316.73159 0.51578
3558 15.80400 316.01390 316.96407 0.38394
3559 15.80760 314.97107 313.53750 0.42562
3560 15.81120 314.01884 313.99935 0.42555
3561 15.81480 313.14496 313.26374 0.42599
3562 15.81840 312.33983 312.67133 0.42758
3563 15.82200 311.59591 309.64093 0.43303
3564 15.82560 310.90720 308.99416 0.43454
3565 15.82920 310.26887 309.06069 0.43296
3566 15.83280 309.67699 309.97034 0.43532
3567 15.83640 309.12833 306.89458 0.43695
3568 15.84000 308.62019 306.58172 0.43717
3569 15.84360 308.15032 306.62133 0.43697
3570 15.84720 307.71683 304.26940 0.44051
3571 15.85080 307.31816 304.86901 0.44028
3572 15.85440 306.95532 307.14771 0.43884
3573 15.85800 306.63507 305.00992 0.43929
3574 15.86160 306.33421 305.06687 0.44004
3575 15.86520 306.06461 304.44147 0.43898
3576 15.86880 305.82756 307.39830 0.43658
3577 15.87240 305.63943 303.08156 0.44278
3578 15.87600 305.47152 301.75806 0.44502
3579 15.87960 305.32927 302.96898 0.44190
3580 15.88320 305.22144 302.69842 0.44385
3581 15.88680 305.15004 304.09409 0.44119
3582 15.89040 305.11772 304.81859 0.43976
3583 15.89400 305.12773 301.31271 0.44431
3584 15.89760 305.18395 303.41328 0.44165
3585 15.90120 305.29092 303.81886 0.44174
3586 15.90480 305.45372 302.84555 0.44250
3587 15.90840 305.67791 303.12732 0.44223
3588 15.91200 305.96931 305.98613 0.43875
3589 15.91560 306.33384 303.27345 0.44278
3590 15.91920 306.77716 302.06253 0.44517
3591 15.92280 307.30436 302.98168 0.44296
3592 15.92640 307.91952 303.79841 0.44021
3593 15.93000 308.62533 306.85135 0.43843
3594 15.93360 309.42258 307.81283 0.43636
3595 15.93720 310.30975 305.67893 0.44009
3596 15.94080 311.28261 305.74739 0.43948
3597 15.94440 312.33375 307.44461 0.43678
3598 15.94800 313.45231 308.39478 0.43479
3599 15.95160 314.62365 308.60739 0.43590
3600 15.95520 315.82921 308.13480 0.43485
3601 15.95880 317.04647 309.45768 0.43376
3602 15.96240 318.24942 310.18365 0.43206
3603 15.96600 319.40953 312.25331 0.42989
3604 15.96960 320.49760 311.00217 0.43124
3605 15.97320 321.48650 313.66225 0.42826
3606 15.97680 322.35462 313.26885 0.42809
3607 15.98040 323.08928 312.91553 0.42839
3608 15.98400 323.68927 313.03860 0.42883
3609 15.98760 324.16569 313.51360 0.42742
3610 15.99120 324.54055 314.60379 0.43596
3611 15.99480 324.83967 312.12678 0.52914
3612 15.99840 325.08287 310.41408 0.53389
3613 16.00200 325.32561 309.68531 0.52875
3614 16.00560 325.63904 311.12375 0.52721
3615 16.00920 326.02822 309.81057 0.52638
3616 16.01280 326.52596 308.70897 0.52730
3617 16.01640 327.16281 306.35671 0.53048
3618 16.02000 327.96758 308.39055 0.52647
3619 16.02360 328.96832 304.63216 0.53345
3620 16.02720 330.19364 305.40515 0.53376
3621 16.03080 331.67437 305.47557 0.53247
3622 16.03440 333.44577 306.12841 0.53268
3623 16.03800 335.55033 306.92919 0.52958
3624 16.04160 338.04176 309.20666 0.52545
3625 16.04520 340.98396 310.65177 0.52199
3626 16.04880 344.46358 310.51829 0.52334
3627 16.05240 348.58945 310.62907 0.52342
3628 16.05600 353.49932 313.72049 0.51697
3629 16.05960 359.36551 314.56626 0.51558
3630 16.06320 366.40035 316.53455 0.51353
3631 16.06680 374.86096 320.89309 0.50853
3632 16.07040 385.05276 326.35498 0.55125
3633 16.07400 397.33094 328.46781 0.55077
3634 16.07760 412.09907 334.13947 0.53876
3635 16.08120 429.80503 340.50184 0.52697
3636 16.08480 450.92867 351.14406 0.51007
3637 16.08840 475.96487 362.35499 0.49305
3638 16.09200 505.41003 376.34797 0.47396
3639 16.09560 539.72152 393.25980 0.43193
3640 16.09920 579.27064 418.18779 0.35762
3641 16.10280 624.47758 449.95165 0.32917
3642 16.10640 675.46389 490.62650 0.24260
3643 16.11000 732.22831 542.71307 0.16486
3644 16.11360 794.56012 610.80883 0.13077
3645 16.11720 861.99554 697.28336 0.08938
3646 16.12080 933.78270 810.38657 0.06597
3647 16.12440 1008.84961 950.26855 0.05024
3648 16.12800 1085.77756 1116.62989 0.03706
3649 16.13160 1162.78345 1310.68784 0.03265
3650 16.13520 1237.71927 1508.41900 0.02914
3651 16.13880 1308.10320 1702.68691 0.02930
3652 16.14240 1371.20248 1882.53754 0.03274
3653 16.14600 1424.18847 2016.92500 0.04263
3654 16.14960 1464.37287 2122.46814 0.04848
3655 16.15320 1489.50568 2186.88348 0.05908
3656 16.15680 1498.07820 2204.54738 0.06744
3657 16.16040 1489.55786 2181.69045 0.05817
3658 16.16400 1464.47514 2115.73552 0.04879
3659 16.16760 1424.33834 2015.69079 0.03911
3660 16.17120 1371.39915 1875.43546 0.03442
3661 16.17480 1308.34918 1711.63454 0.03460
3662 16.17840 1238.02085 1528.56423 0.03235
3663 16.18200 1163.15015 1323.20858 0.03440
3664 16.18560 1086.22115 1134.75270 0.04200
3665 16.18920 1009.38306 961.83612 0.05262
3666 16.19280 934.41970 826.44688 0.07634
3667 16.19640 862.75017 720.92124 0.09200
3668 16.20000 795.44678 639.48954 0.13279
3669 16.20360 733.26200 577.29764 0.16776
3670 16.20720 676.66041 528.00383 0.20782
3671 16.21080 625.85434 489.00569 0.27209
3672 16.21440 580.84229 459.27905 0.30499
3673 16.21800 541.44880 436.54252 0.38830
3674 16.22160 507.36471 417.05626 0.41433
3675 16.22520 478.18612 398.79319 0.44833
3676 16.22880 453.45244 386.06838 0.46387
3677 16.23240 432.67153 378.09432 0.47391
3678 16.23600 415.34674 368.73108 0.48711
3679 16.23960 400.99399 360.91618 0.49636
3680 16.24320 389.21889 354.53599 0.50526
3681 16.24680 379.61987 351.61733 0.50825
3682 16.25040 371.85874 347.44979 0.51564
3683 16.25400 365.65637 345.25565 0.51875
3684 16.25760 360.78792 344.09444 0.51976
3685 16.26120 357.07995 341.31595 0.52352
3686 16.26480 354.40620 339.89718 0.52699
3687 16.26840 352.68233 339.88993 0.52675
3688 16.27200 351.86010 339.83738 0.52558
3689 16.27560 351.92114 339.10882 0.52799
3690 16.27920 352.87056 342.90381 0.52160
3691 16.28280 354.73018 344.80340 0.52037
3692 16.28640 357.53168 345.91301 0.51732
3693 16.29000 361.30949 351.88953 0.50838
3694 16.29360 366.09351 355.71225 0.50367
3695 16.29720 371.90181 360.64642 0.49675
3696 16.30080 378.73334 364.81381 0.49054
3697 16.30440 386.56096 371.67995 0.48162
3698 16.30800 395.32477 374.22215 0.47753
3699 16.31160 404.92600 381.47958 0.45997
3700 16.31520 415.22147 388.34889 0.45950
3701 16.31880 426.01886 398.37807 0.44960
3702 16.32240 437.07290 407.45090 0.43821
3703 16.32600 448.08352 414.21056 0.43081
3704 16.32960 458.69736 420.58893 0.42550
3705 16.33320 468.51536 429.84986 0.41603
3706 16.33680 477.10939 438.50718 0.40804
3707 16.34040 484.05086 442.01997 0.40544
3708 16.34400 488.95086 447.04954 0.39913
3709 16.34760 491.50694 447.79327 0.39841
3710 16.35120 491.54635 448.88108 0.39707
3711 16.35480 489.05424 447.13499 0.40033
3712 16.35840 484.17703 444.80637 0.40126
3713 16.36200 477.20053 439.22859 0.40607
3714 16.36560 468.50958 432.68942 0.41348
3715 16.36920 458.54191 426.93659 0.41875
3716 16.37280 447.74633 420.10127 0.42624
3717 16.37640 436.55200 412.64356 0.43362
3718 16.38000 425.34982 404.63215 0.44188
3719 16.38360 414.48375 396.85248 0.45039
3720 16.38720 404.24854 388.34703 0.46181
3721 16.39080 394.89117 384.10019 0.46512
3722 16.39440 386.61396 374.30511 0.47743
3723 16.39800 379.57831 369.78694 0.48333
3724 16.40160 373.90846 368.77963 0.48553
3725 16.40520 369.69515 366.01302 0.48902
3726 16.40880 366.99880 363.72370 0.49219
3727 16.41240 365.85218 363.03411 0.49199
3728 16.41600 366.26226 362.48957 0.49336
3729 16.41960 368.21119 365.59018 0.48852
3730 16.42320 371.65630 367.81469 0.48672
3731 16.42680 376.52905 371.47472 0.48101
3732 16.43040 382.73326 377.01331 0.47485
3733 16.43400 390.15036 385.66282 0.46348
3734 16.43760 398.63968 394.86423 0.45185
3735 16.44120 407.94264 406.97418 0.43852
3736 16.44480 417.86938 424.89737 0.39237
3737 16.44840 428.14138 447.23461 0.39847
3738 16.45200 438.41319 464.80031 0.38455
3739 16.45560 448.37611 483.60503 0.36940
3740 16.45920 457.61536 501.54575 0.34376
3741 16.46280 465.69561 519.33876 0.34378
3742 16.46640 472.25072 529.38964 0.33674
3743 16.47000 476.92154 537.87989 0.33186
3744 16.47360 479.42447 544.89696 0.32703
3745 16.47720 479.58764 545.65117 0.32756
3746 16.48080 477.37696 541.36251 0.33026
3747 16.48440 472.90232 531.30453 0.33746
3748 16.48800 466.40207 520.05680 0.34381
3749 16.49160 458.21230 506.15204 0.35278
3750 16.49520 448.73995 486.80600 0.36665
3751 16.49880 438.33606 467.61373 0.37264
3752 16.50240 427.40709 446.06493 0.36453
3753 16.50600 416.29908 425.54016 0.42099
3754 16.50960 405.30872 407.06788 0.43971
3755 16.51320 394.68109 391.66274 0.45627
3756 16.51680 384.61011 379.43164 0.47171
3757 16.52040 375.24143 367.71405 0.48805
3758 16.52400 366.67643 359.65068 0.49919
3759 16.52760 358.97686 352.43045 0.50909
3760 16.53120 352.16996 347.51117 0.51565
3761 16.53480 346.25385 341.19033 0.52586
3762 16.53840 341.20313 336.17433 0.53362
3763 16.54200 336.97440 332.01896 0.53974
3764 16.54560 333.51169 331.12755 0.54143
3765 16.54920 330.75122 330.34729 0.54236
3766 16.55280 328.62571 329.37525 0.54369
3767 16.55640 327.06814 325.37822 0.55187
3768 16.56000 326.01457 325.83277 0.55075
3769 16.56360 325.40622 326.50579 0.54778
3770 16.56720 325.19087 324.57563 0.55237
3771 16.57080 325.32370 326.46364 0.54881
3772 16.57440 325.76758 324.89120 0.55082
3773 16.57800 326.49305 325.54888 0.55067
3774 16.58160 327.47807 327.62333 0.54854
3775 16.58520 328.70760 329.51804 0.54485
3776 16.58880 330.17328 330.25634 0.54497
3777 16.59240 331.87314 331.81072 0.54021
3778 16.59600 333.81152 333.29947 0.53713
3779 16.59960 335.99906 338.37863 0.52935
3780 16.60320 338.45253 338.49393 0.53126
3781 16.60680 341.19462 341.22500 0.52442
3782 16.61040 344.27277 345.98191 0.51656
3783 16.61400 347.72863 348.09980 0.51454
3784 16.61760 351.62465 353.78102 0.50510
3785 16.62120 356.04209 359.02411 0.49917
3786 16.62480 361.08523 363.15345 0.49357
3787 16.62840 366.88664 371.22527 0.48322
3788 16.63200 373.61305 376.81484 0.47537
3789 16.63560 381.47177 385.61649 0.46508
3790 16.63920 390.71719 393.12433 0.45549
3791 16.64280 401.65694 405.31981 0.44227
3792 16.64640 414.65692 419.35620 0.42598
3793 16.65000 430.14465 431.09867 0.41507
3794 16.65360 448.60972 445.02846 0.40217
3795 16.65720 470.61112 462.65420 0.38739
3796 16.66080 496.79499 483.89770 0.36913
3797 16.66440 527.67229 511.81595 0.28784
3798 16.66800 563.96343 541.28185 0.27519
3799 16.67160 606.31296 578.04872 0.23769
3800 16.67520 655.32278 613.99401 0.21444
3801 16.67880 711.51428 662.16084 0.15749
3802 16.68240 775.28708 723.49921 0.12574
3803 16.68600 846.87368 793.52131 0.12176
3804 16.68960 926.27522 872.85905 0.09086
3805 16.69320 1013.24930 971.03362 0.07243
3806 16.69680 1107.24003 1085.81567 0.06349
3807 16.70040 1207.34286 1219.60274 0.05140
3808 16.70400 1312.26619 1377.44136 0.04291
3809 16.70760 1420.29841 1547.54239 0.03630
3810 16.71120 1529.28516 1727.24448 0.03375
3811 16.71480 1636.62746 1906.52485 0.03179
3812 16.71840 1739.31916 2080.70989 0.03182
3813 16.72200 1834.04814 2236.80059 0.03180
3814 16.72560 1917.38580 2361.98142 0.04101
3815 16.72920 1986.07339 2456.74278 0.04352
3816 16.73280 2037.37994 2524.68456 0.06794
3817 16.73640 2069.46121 2539.24628 0.06801
3818 16.74000 2081.63280 2527.55171 0.06081
3819 16.74360 2074.46154 2488.83638 0.05138
3820 16.74720 2049.64829 2403.46113 0.03834
3821 16.75080 2009.72757 2296.58294 0.03801
3822 16.75440 1957.68226 2171.06141 0.03530
3823 16.75800 1896.56103 2027.64063 0.03226
3824 16.76160 1829.17189 1871.33804 0.03368
3825 16.76520 1757.88113 1722.80500 0.03831
3826 16.76880 1684.51505 1586.57092 0.04280
3827 16.77240 1610.34712 1455.97865 0.05130
3828 16.77600 1536.15345 1348.06348 0.06320
3829 16.77960 1462.32214 1254.35148 0.07669
3830 16.78320 1389.00180 1174.96977 0.08848
3831 16.78680 1316.22061 1103.02564 0.09900
3832 16.79040 1244.07932 1040.63486 0.11304
3833 16.79400 1172.79679 980.45232 0.12340
3834 16.79760 1102.74368 930.58573 0.15778
3835 16.80120 1034.40960 877.64896 0.13305
3836 16.80480 968.33856 830.67427 0.15433
3837 16.80840 905.05893 781.97767 0.15918
3838 16.81200 845.02878 739.49528 0.17278
3839 16.81560 788.60531 701.13643 0.21983
3840 16.81920 736.03576 663.54187 0.18906
3841 16.82280 687.46316 629.35838 0.22786
3842 16.82640 642.93885 596.03555 0.25726
3843 16.83000 602.43672 567.10724 0.30171
3844 16.83360 565.86628 544.46408 0.28677
3845 16.83720 533.08422 517.26527 0.29731
3846 16.84080 503.90432 496.09904 0.34177
3847 16.84440 478.10647 474.36027 0.35913
3848 16.84800 455.44529 459.20262 0.38828
3849 16.85160 435.66326 443.51708 0.40245
3850 16.85520 418.50462 427.89463 0.41789
3851 16.85880 403.65528 415.92903 0.42898
3852 16.86240 390.87503 405.57794 0.43994
3853 16.86600 379.91316 395.52232 0.45209
3854 16.86960 370.53719 383.35644 0.46733
3855 16.87320 362.53676 376.76284 0.47543
3856 16.87680 355.72599 369.88154 0.48389
3857 16.88040 349.94466 363.87076 0.49219
3858 16.88400 345.05809 358.96696 0.49906
3859 16.88760 340.95616 352.19847 0.50888
3860 16.89120 337.55148 349.38789 0.51326
3861 16.89480 334.77694 343.85911 0.51966
3862 16.89840 332.58289 341.37666 0.52480
3863 16.90200 330.93396 338.67109 0.52839
3864 16.90560 329.80572 335.68766 0.53451
3865 16.90920 329.18128 333.89941 0.53639
3866 16.91280 329.04798 335.11597 0.53327
3867 16.91640 329.39517 332.40360 0.53696
3868 16.92000 330.20621 332.18415 0.53857
3869 16.92360 331.46111 332.14334 0.53901
3870 16.92720 333.13243 332.63896 0.53881
3871 16.93080 335.18114 335.37862 0.53354
3872 16.93440 337.55510 334.31314 0.53537
3873 16.93800 340.18713 334.30008 0.53518
3874 16.94160 342.99337 335.28308 0.53379
3875 16.94520 345.87220 337.33876 0.52880
3876 16.94880 348.70409 340.67088 0.52518
3877 16.95240 351.35315 342.07869 0.52473
3878 16.95600 353.67124 342.99573 0.52332
3879 16.95960 355.50579 345.98719 0.51854
3880 16.96320 356.71178 343.90579 0.52009
3881 16.96680 357.16868 345.86079 0.51858
3882 16.97040 356.78634 346.53422 0.51686
3883 16.97400 355.53035 343.44238 0.52023
3884 16.97760 353.42044 340.11688 0.52598
3885 16.98120 350.52702 340.10932 0.52602
3886 16.98480 346.96091 337.15396 0.53001
3887 16.98840 342.85835 331.30366 0.53993
3888 16.99200 338.36563 330.49272 0.54039
3889 16.99560 333.62643 328.36148 0.54565
3890 16.99920 328.77312 324.22629 0.55073
3891 17.00280 323.92244 319.73827 0.56078
3892 17.00640 319.17209 315.65093 0.56753
3893 17.01000 314.59899 311.85371 0.57389
3894 17.01360 310.26547 309.31118 0.57792
3895 17.01720 306.21380 304.51850 0.58938
3896 17.02080 302.45955 300.70422 0.59561
3897 17.02440 299.02416 298.80430 0.59924
3898 17.02800 295.91888 298.91837 0.60024
3899 17.03160 293.17203 295.93950 0.60554
3900 17.03520 290.74016 294.07825 0.60933
3901 17.03880 288.60343 292.85619 0.61200
3902 17.04240 286.73885 291.05749 0.61474
3903 17.04600 285.12117 289.68936 0.61917
3904 17.04960 283.72438 289.37264 0.61940
3905 17.05320 282.52288 288.06407 0.62046
3906 17.05680 281.49246 288.58428 0.62097
3907 17.06040 280.61102 288.65048 0.62163
3908 17.06400 279.85899 287.68537 0.62322
3909 17.06760 279.21966 286.63655 0.62535
3910 17.07120 278.67930 285.92426 0.62636
3911 17.07480 278.22715 285.19981 0.62811
3912 17.07840 277.85544 285.83407 0.62939
3913 17.08200 277.55924 283.41557 0.63274
3914 17.08560 277.33636 283.35899 0.63220
3915 17.08920 277.18730 283.48633 0.63137
3916 17.09280 277.11506 284.28433 0.62849
3917 17.09640 277.12511 283.12531 0.63189
3918 17.10000 277.22517 284.34539 0.62860
3919 17.10360 277.42510 282.72929 0.63305
3920 17.10720 277.73666 284.35547 0.62924
3921 17.11080 278.17313 283.73564 0.62963
3922 17.11440 278.74892 286.38477 0.62665
3923 17.11800 279.47971 285.32150 0.62826
3924 17.12160 280.39016 285.78498 0.62701
3925 17.12520 281.47647 286.57445 0.62550
3926 17.12880 282.75324 288.37420 0.62300
3927 17.13240 284.23355 290.67196 0.61740
3928 17.13600 285.92211 288.98468 0.62091
3929 17.13960 287.81839 292.33672 0.61348
3930 17.14320 289.91551 293.10052 0.61004
3931 17.14680 292.19918 294.75015 0.60829
3932 17.15040 294.64671 298.96322 0.59908
3933 17.15400 297.22611 302.54310 0.59207
3934 17.15760 299.89534 307.28764 0.58123
3935 17.16120 302.60178 307.82148 0.58036
3936 17.16480 305.28240 309.35216 0.57619
3937 17.16840 307.86848 314.11492 0.56933
3938 17.17200 310.27609 318.43192 0.56191
3939 17.17560 312.41563 320.79511 0.55763
3940 17.17920 314.21305 322.02128 0.55609
3941 17.18280 315.60121 321.97822 0.55757
3942 17.18640 316.53417 323.82737 0.55166
3943 17.19000 316.99441 324.21146 0.55215
3944 17.19360 316.99595 324.58914 0.55063
3945 17.19720 316.58259 323.54845 0.55176
3946 17.20080 315.82155 324.04432 0.55099
3947 17.20440 314.79465 322.34712 0.55473
3948 17.20800 313.58925 319.04804 0.56243
3949 17.21160 312.29064 319.70262 0.55957
3950 17.21520 310.97689 317.13243 0.56365
3951 17.21880 309.71616 316.58836 0.56421
3952 17.22240 308.56593 317.27315 0.56394
3953 17.22600 307.57377 316.97801 0.56208
3954 17.22960 306.77914 316.26228 0.56510
3955 17.23320 306.21630 316.85941 0.56208
3956 17.23680 305.91821 317.96988 0.56210
3957 17.24040 305.91975 317.50636 0.56235
3958 17.24400 306.26154 316.96653 0.56372
3959 17.24760 306.99568 318.93705 0.55862
3960 17.25120 308.18523 323.63201 0.55180
3961 17.25480 309.90474 325.56885 0.54942
3962 17.25840 312.23811 327.04773 0.54780
3963 17.26200 315.27506 328.79970 0.54356
3964 17.26560 319.10641 330.95019 0.54135
3965 17.26920 323.81902 333.75770 0.53705
3966 17.27280 329.49033 339.93061 0.52694
3967 17.27640 336.18554 343.17102 0.52145
3968 17.28000 343.98030 347.06127 0.51580
3969 17.28360 352.82216 351.62992 0.50898
3970 17.28720 362.71803 359.10955 0.49852
3971 17.29080 373.62135 366.10306 0.48901
3972 17.29440 385.43484 373.69939 0.47924
3973 17.29800 398.01343 380.23249 0.47036
3974 17.30160 411.16000 386.66047 0.46261
3975 17.30520 424.62199 395.38880 0.45318
3976 17.30880 438.08970 403.49255 0.44389
3977 17.31240 451.19790 411.14464 0.43575
3978 17.31600 463.53197 419.10165 0.42678
3979 17.31960 474.64046 424.93847 0.42044
3980 17.32320 484.05879 429.41883 0.41476
3981 17.32680 491.41861 433.78504 0.41201
3982 17.33040 496.35858 436.98308 0.40843
3983 17.33400 498.66904 439.74165 0.40574
3984 17.33760 498.30039 438.40539 0.40653
3985 17.34120 495.37094 438.83367 0.40572
3986 17.34480 490.15004 436.97166 0.40811
3987 17.34840 483.01907 432.12202 0.41402
3988 17.35200 474.42302 429.15050 0.41573
3989 17.35560 464.82259 426.83372 0.41802
3990 17.35920 454.65571 420.94125 0.42440
3991 17.36280 444.31129 418.96671 0.42704
3992 17.36640 434.11427 413.37054 0.43280
3993 17.37000 424.31901 407.83064 0.43764
3994 17.37360 415.10792 404.37031 0.44195
3995 17.37720 406.59338 401.21538 0.44659
3996 17.38080 398.82179 397.79037 0.45027
3997 17.38440 391.77971 394.45552 0.45330
3998 17.38800 385.40235 392.27518 0.45637
3999 17.39160 379.58498 388.93183 0.45896
4000 17.39520 374.19349 385.79602 0.46195
4001 17.39880 369.06314 381.74373 0.46752
4002 17.40240 364.04613 380.89322 0.46854
4003 17.40600 359.21801 377.19934 0.47275
4004 17.40960 354.41075 370.49425 0.48160
4005 17.41320 349.60005 365.53651 0.48756
4006 17.41680 344.79602 361.71402 0.49370
4007 17.42040 340.03308 357.72122 0.49976
4008 17.42400 335.36008 352.04376 0.50904
4009 17.42760 330.83155 345.35887 0.51802
4010 17.43120 326.50144 342.76228 0.52217
4011 17.43480 322.41930 338.26510 0.52822
4012 17.43840 318.62834 333.53479 0.53684
4013 17.44200 315.16480 330.97859 0.54127
4014 17.44560 312.05804 330.21563 0.54257
4015 17.44920 309.33102 327.16471 0.54698
4016 17.45280 307.00120 323.76285 0.55288
4017 17.45640 305.08162 322.69361 0.55346
4018 17.46000 303.58241 322.70006 0.55361
4019 17.46360 302.51260 322.52935 0.55445
4020 17.46720 301.88221 323.30845 0.55320
4021 17.47080 301.70467 325.53379 0.54998
4022 17.47440 301.99947 327.28634 0.54505
4023 17.47800 302.79483 328.63232 0.54372
4024 17.48160 304.13054 328.41443 0.54371
4025 17.48520 306.06054 332.42555 0.53697
4026 17.48880 308.65526 337.01549 0.52883
4027 17.49240 312.00352 341.43796 0.52288
4028 17.49600 316.21375 345.06564 0.51661
4029 17.49960 321.41425 350.31145 0.50993
4030 17.50320 327.75231 357.95524 0.49918
4031 17.50680 335.39666 362.68304 0.49282
4032 17.51040 344.54731 370.53204 0.48125
4033 17.51400 355.32833 381.48253 0.46875
4034 17.51760 367.95508 388.65275 0.46028
4035 17.52120 382.60214 401.16826 0.44600
4036 17.52480 399.42311 410.90642 0.43454
4037 17.52840 418.53897 427.46827 0.41769
4038 17.53200 440.02494 443.20240 0.40333
4039 17.53560 463.89690 458.85573 0.38832
4040 17.53920 490.09805 477.63282 0.37266
4041 17.54280 518.48586 496.98448 0.33510
4042 17.54640 548.81971 521.08567 0.32439
4043 17.55000 580.74965 548.16445 0.32164
4044 17.55360 613.80638 574.03700 0.29216
4045 17.55720 647.39336 598.33529 0.29790
4046 17.56080 680.78335 628.16916 0.26433
4047 17.56440 713.12309 655.66895 0.25765
4048 17.56800 743.45198 682.91399 0.26088
4049 17.57160 770.74225 709.39010 0.23870
4050 17.57520 793.96605 736.93498 0.24065
4051 17.57880 812.19079 753.65118 0.23490
4052 17.58240 824.69333 766.31539 0.23209
4053 17.58600 831.01571 772.33701 0.22940
4054 17.58960 831.11164 775.49149 0.22874
4055 17.59320 825.30294 774.96803 0.22900
4056 17.59680 814.24642 771.56422 0.23075
4057 17.60040 798.83885 763.56541 0.23302
4058 17.60400 780.10301 749.40375 0.23757
4059 17.60760 759.07776 734.43873 0.24204
4060 17.61120 736.73120 720.17998 0.24738
4061 17.61480 713.90232 703.02490 0.25271
4062 17.61840 691.26807 685.78149 0.25991
4063 17.62200 669.33008 673.78082 0.26383
4064 17.62560 648.41390 661.80496 0.26812
4065 17.62920 628.67742 648.76816 0.27457
4066 17.63280 610.12758 640.76361 0.27711
4067 17.63640 592.64551 630.67937 0.28191
4068 17.64000 576.02123 623.83964 0.28445
4069 17.64360 559.99694 613.36278 0.28966
4070 17.64720 544.31401 600.71093 0.29714
4071 17.65080 528.75648 588.81456 0.30323
4072 17.65440 513.18300 574.98008 0.31030
4073 17.65800 497.54048 559.33208 0.31793
4074 17.66160 481.85908 541.31317 0.32893
4075 17.66520 466.23324 522.84384 0.34139
4076 17.66880 450.79685 506.07931 0.35208
4077 17.67240 435.69905 486.46054 0.36628
4078 17.67600 421.08588 467.99873 0.38082
4079 17.67960 407.08855 446.78941 0.40045
4080 17.68320 393.81756 430.97842 0.41357
4081 17.68680 381.36058 413.19198 0.43248
4082 17.69040 369.78254 400.53743 0.44653
4083 17.69400 359.12664 387.12348 0.46169
4084 17.69760 349.41586 377.42913 0.47377
4085 17.70120 340.65465 367.86182 0.48540
4086 17.70480 332.83090 358.35398 0.49776
4087 17.70840 325.91818 351.79537 0.50657
4088 17.71200 319.87822 343.26902 0.52028
4089 17.71560 314.66359 338.39280 0.52601
4090 17.71920 310.22044 334.26342 0.53398
4091 17.72280 306.49119 328.59066 0.54379
4092 17.72640 303.41507 325.05259 0.55004
4093 17.73000 300.92535 320.97686 0.55628
4094 17.73360 298.95762 317.78929 0.56359
4095 17.73720 297.51028 315.60763 0.56540
4096 17.74080 296.50530 314.07130 0.56977
4097 17.74440 295.89971 311.01670 0.57355
4098 17.74800 295.65618 311.64852 0.57426
4099 17.75160 295.74244 311.86012 0.57366
4100 17.75520 296.13112 311.11478 0.57497
4101 17.75880 296.79958 310.50404 0.57467
4102 17.76240 297.72976 313.34323 0.57154
4103 17.76600 298.91257 311.81613 0.57573
4104 17.76960 300.36453 311.89306 0.57576
4105 17.77320 302.02024 313.53810 0.57206
4106 17.77680 303.91839 316.39276 0.56578
4107 17.78040 306.09040 318.58867 0.56213
4108 17.78400 308.50960 319.17418 0.56025
4109 17.78760 311.23598 322.24678 0.55429
4110 17.79120 314.32202 325.81173 0.54848
4111 17.79480 317.84140 326.87351 0.54649
4112 17.79840 321.88338 332.01071 0.53879
4113 17.80200 326.56189 335.98432 0.53207
4114 17.80560 332.00971 343.04574 0.52106
4115 17.80920 338.36991 347.40524 0.51453
4116 17.81280 345.78893 353.62059 0.50535
4117 17.81640 354.40709 361.77295 0.49447
4118 17.82000 364.34864 368.20838 0.48669
4119 17.82360 375.71181 377.09425 0.47366
4120 17.82720 388.55911 385.66371 0.46144
4121 17.83080 402.90816 397.67667 0.44918
4122 17.83440 418.72281 409.87004 0.43455
4123 17.83800 435.90500 423.94157 0.39906
4124 17.84160 454.28704 440.69379 0.40428
4125 17.84520 473.62477 455.97917 0.38660
4126 17.84880 493.59161 474.45673 0.37496
4127 17.85240 513.77393 490.71445 0.36292
4128 17.85600 533.66604 508.40403 0.35124
4129 17.85960 552.66542 528.80694 0.33697
4130 17.86320 570.17453 548.62645 0.32437
4131 17.86680 585.47403 562.29052 0.31689
4132 17.87040 597.87368 577.89602 0.30769
4133 17.87400 606.74892 587.66912 0.30276
4134 17.87760 611.60727 590.17823 0.30084
4135 17.88120 612.15126 593.68991 0.29982
4136 17.88480 608.32152 593.85961 0.29912
4137 17.88840 600.30528 589.39727 0.30096
4138 17.89200 588.50907 577.35620 0.30729
4139 17.89560 573.50238 566.51184 0.31407
4140 17.89920 555.94958 549.71650 0.32383
4141 17.90280 536.54392 534.07886 0.33342
4142 17.90640 515.95519 514.38511 0.34572
4143 17.91000 494.79486 494.26796 0.36023
4144 17.91360 473.59693 472.28416 0.37741
4145 17.91720 452.81025 453.24597 0.39423
4146 17.92080 432.79826 432.14055 0.41273
4147 17.92440 413.84272 418.15747 0.41992
4148 17.92800 396.14953 402.25336 0.44364
4149 17.93160 379.85575 390.24119 0.45825
4150 17.93520 365.03719 377.19119 0.47423
4151 17.93880 351.71660 364.86791 0.48985
4152 17.94240 339.87209 355.13418 0.50372
4153 17.94600 329.44578 346.62253 0.51494
4154 17.94960 320.35226 338.37120 0.52839
4155 17.95320 312.48666 329.67309 0.54227
4156 17.95680 305.73207 325.30928 0.54817
4157 17.96040 299.96595 319.10391 0.56085
4158 17.96400 295.06568 315.48836 0.56752
4159 17.96760 290.91288 309.44172 0.57732
4160 17.97120 287.39675 304.98530 0.58637
4161 17.97480 284.41641 302.37835 0.58948
4162 17.97840 281.88225 298.99109 0.59590
4163 17.98200 279.71654 296.75299 0.60253
4164 17.98560 277.85334 293.92921 0.60755
4165 17.98920 276.23811 289.85595 0.61710
4166 17.99280 274.83258 288.71625 0.61914
4167 17.99640 273.59121 286.85839 0.62524
4168 18.00000 272.48405 284.37155 0.62897
4169 18.00360 271.49291 284.19938 0.63021
4170 18.00720 270.60038 280.84063 0.63430
4171 18.01080 269.79300 277.73768 0.64401
4172 18.01440 269.06044 276.40963 0.64836
4173 18.01800 268.39487 276.14532 0.64866
4174 18.02160 267.79037 275.65533 0.64968
4175 18.02520 267.24256 273.84257 0.65389
4176 18.02880 266.74828 273.78825 0.65274
4177 18.03240 266.30534 272.80799 0.65545
4178 18.03600 265.91234 272.82953 0.65494
4179 18.03960 265.56856 272.55046 0.65516
4180 18.04320 265.27380 271.77987 0.65656
4181 18.04680 265.02836 270.88309 0.65893
4182 18.05040 264.83287 271.30770 0.66075
4183 18.05400 264.68822 270.00941 0.66311
4184 18.05760 264.59542 269.33221 0.66447
4185 18.06120 264.55549 266.23358 0.67271
4186 18.06480 264.56926 269.80267 0.66208
4187 18.06840 264.63719 267.84456 0.66724
4188 18.07200 264.75921 268.80628 0.66535
4189 18.07560 264.93459 268.76047 0.66481
4190 18.07920 265.17622 266.67100 0.67104
4191 18.08280 265.49428 266.84678 0.67116
4192 18.08640 265.81451 268.53487 0.66472
4193 18.09000 266.17865 270.30238 0.66053
4194 18.09360 266.56616 270.51079 0.66098
4195 18.09720 266.97435 268.25443 0.66724
4196 18.10080 267.39167 268.78011 0.66621
4197 18.10440 267.80458 269.02967 0.66479
4198 18.10800 268.19776 270.39805 0.66139
4199 18.11160 268.55459 269.20513 0.66363
4200 18.11520 268.85801 269.27493 0.66535
4201 18.11880 269.09178 268.69563 0.66645
4202 18.12240 269.24211 267.56965 0.66968
4203 18.12600 269.29924 269.09148 0.66458
4204 18.12960 269.25877 269.46110 0.66191
4205 18.13320 269.12233 268.94957 0.66408
4206 18.13680 268.89724 267.95158 0.66608
4207 18.14040 268.59393 269.79516 0.66241
4208 18.14400 268.22021 268.89292 0.66605
4209 18.14760 267.80181 265.83383 0.67250
4210 18.15120 267.36537 266.50996 0.67086
4211 18.15480 266.91619 266.87574 0.67039
4212 18.15840 266.46818 267.91260 0.66673
4213 18.16200 266.03334 268.18242 0.66733
4214 18.16560 265.62160 266.21256 0.67215
4215 18.16920 265.24092 265.66629 0.67347
4216 18.17280 264.89741 266.49737 0.66952
4217 18.17640 264.59547 266.89656 0.66889
4218 18.18000 264.33795 265.90996 0.67211
4219 18.18360 264.12637 265.07132 0.67530
4220 18.18720 263.96109 265.99259 0.67229
4221 18.19080 263.84156 266.41397 0.66994
4222 18.19440 263.76646 267.72781 0.66709
4223 18.19800 263.73398 267.33081 0.66838
4224 18.20160 263.74234 265.29717 0.67441
4225 18.20520 263.78842 266.52631 0.67116
4226 18.20880 263.87232 267.31509 0.66864
4227 18.21240 264.00878 265.79651 0.67369
4228 18.21600 264.15592 266.11878 0.67200
4229 18.21960 264.33192 267.09558 0.66847
4230 18.22320 264.53602 268.49438 0.66513
4231 18.22680 264.76712 268.26327 0.66345
4232 18.23040 265.02454 268.81453 0.66477
4233 18.23400 265.30801 268.72859 0.66536
4234 18.23760 265.61767 269.93050 0.66277
4235 18.24120 265.95410 270.93212 0.65985
4236 18.24480 266.31938 270.93127 0.66013
4237 18.24840 266.71624 270.55324 0.65976
4238 18.25200 267.14071 270.72700 0.66022
4239 18.25560 267.59858 272.13388 0.65521
4240 18.25920 268.09261 270.46061 0.65983
4241 18.26280 268.62602 270.87270 0.65913
4242 18.26640 269.20242 273.84764 0.65141
4243 18.27000 269.82586 274.91481 0.64814
4244 18.27360 270.50074 275.95743 0.64709
4245 18.27720 271.23175 274.49893 0.64970
4246 18.28080 272.02385 278.68375 0.64130
4247 18.28440 272.88211 279.33277 0.63851
4248 18.28800 273.81168 279.57648 0.63821
4249 18.29160 274.81764 280.61492 0.63559
4250 18.29520 275.90493 281.46726 0.63427
4251 18.29880 277.07825 282.81572 0.63273
4252 18.30240 278.34206 285.09553 0.62807
4253 18.30600 279.70055 286.67442 0.62373
4254 18.30960 281.15773 289.06230 0.61729
4255 18.31320 282.71759 289.60525 0.61767
4256 18.31680 284.38316 296.27063 0.60335
4257 18.32040 286.15311 296.90744 0.60242
4258 18.32400 288.03608 298.68311 0.59782
4259 18.32760 290.06012 305.18039 0.58409
4260 18.33120 292.22308 307.58715 0.58047
4261 18.33480 294.54210 309.71372 0.57723
4262 18.33840 297.04165 314.73806 0.56651
4263 18.34200 299.75642 319.56099 0.55922
4264 18.34560 302.73449 323.69414 0.55153
4265 18.34920 306.04089 330.10961 0.54091
4266 18.35280 309.76084 334.86103 0.53249
4267 18.35640 314.00224 340.30026 0.52444
4268 18.36000 318.89706 348.66602 0.51072
4269 18.36360 324.60133 354.09046 0.50367
4270 18.36720 331.29378 360.75144 0.49450
4271 18.37080 339.17306 370.02527 0.48252
4272 18.37440 348.45385 380.78904 0.46818
4273 18.37800 359.36152 391.59858 0.45505
4274 18.38160 372.12540 405.50402 0.43866
4275 18.38520 386.97048 416.59959 0.42768
4276 18.38880 404.10722 430.99772 0.41299
4277 18.39240 423.71998 447.35410 0.39776
4278 18.39600 445.95584 466.75493 0.38048
4279 18.39960 470.90689 485.75458 0.36684
4280 18.40320 498.59831 509.44728 0.35025
4281 18.40680 528.97295 536.89728 0.32736
4282 18.41040 561.87684 558.75319 0.31841
4283 18.41400 597.04521 591.79013 0.24217
4284 18.41760 634.08946 620.85693 0.26213
4285 18.42120 672.48518 654.33875 0.22422
4286 18.42480 711.56223 686.52166 0.21915
4287 18.42840 750.49840 717.93796 0.22004
4288 18.43200 788.32037 748.66596 0.21836
4289 18.43560 823.91745 784.08787 0.20219
4290 18.43920 856.07554 809.94105 0.21846
4291 18.44280 883.53826 832.16008 0.21300
4292 18.44640 905.09828 849.26519 0.20813
4293 18.45000 919.71283 862.59610 0.20508
4294 18.45360 926.62455 869.26945 0.20359
4295 18.45720 925.46257 867.14063 0.20348
4296 18.46080 916.29768 859.58854 0.20618
4297 18.46440 899.63855 845.93608 0.20987
4298 18.46800 876.32129 829.07296 0.21463
4299 18.47160 847.46422 806.57660 0.21458
4300 18.47520 814.30081 777.83894 0.21396
4301 18.47880 778.08106 744.38152 0.20728
4302 18.48240 739.98960 708.57948 0.22804
4303 18.48600 701.09375 674.90478 0.22760
4304 18.48960 662.31702 643.87143 0.25183
4305 18.49320 624.43038 611.08853 0.23600
4306 18.49680 588.05438 581.11236 0.26727
4307 18.50040 553.66717 554.43141 0.25947
4308 18.50400 521.61545 525.62374 0.33925
4309 18.50760 492.12725 504.47627 0.35094
4310 18.51120 465.32496 480.74368 0.33364
4311 18.51480 441.23963 459.34794 0.38699
4312 18.51840 419.82687 443.23428 0.40013
4313 18.52200 400.98081 427.78229 0.41573
4314 18.52560 384.54865 413.82110 0.42897
4315 18.52920 370.34488 400.76912 0.44362
4316 18.53280 358.16409 389.86767 0.45631
4317 18.53640 347.79170 379.91943 0.46957
4318 18.54000 339.01341 369.60280 0.48218
4319 18.54360 331.62250 362.49561 0.49154
4320 18.54720 325.42530 356.35907 0.50160
4321 18.55080 320.24485 349.65998 0.51090
4322 18.55440 315.92301 340.82524 0.52422
4323 18.55800 312.32122 336.91702 0.52938
4324 18.56160 309.32026 332.31274 0.53633
4325 18.56520 306.81923 328.91367 0.54159
4326 18.56880 304.73401 326.49541 0.54677
4327 18.57240 302.99543 320.61298 0.55554
4328 18.57600 301.54737 320.53153 0.55519
4329 18.57960 300.34478 316.83751 0.56271
4330 18.58320 299.35199 314.41294 0.56720
4331 18.58680 298.54099 310.55678 0.57354
4332 18.59040 297.89012 309.65766 0.57566
4333 18.59400 297.38284 309.60806 0.57556
4334 18.59760 297.00683 308.53320 0.57935
4335 18.60120 296.75323 306.91640 0.58103
4336 18.60480 296.61609 303.92923 0.58773
4337 18.60840 296.59206 303.51833 0.58736
4338 18.61200 296.68010 305.66323 0.58328
4339 18.61560 296.88146 305.08058 0.58368
4340 18.61920 297.19997 305.63220 0.58344
4341 18.62280 297.64505 303.61521 0.58662
4342 18.62640 298.21797 305.52897 0.58338
4343 18.63000 298.93380 305.70158 0.58421
4344 18.63360 299.80769 306.21141 0.58339
4345 18.63720 300.85817 307.40452 0.57990
4346 18.64080 302.10763 309.01699 0.57573
4347 18.64440 303.58265 308.67497 0.57756
4348 18.64800 305.31407 311.51151 0.57280
4349 18.65160 307.33694 312.71391 0.57166
4350 18.65520 309.69027 314.98451 0.56739
4351 18.65880 312.41645 316.97639 0.56187
4352 18.66240 315.56042 320.57489 0.55632
4353 18.66600 319.16840 323.50343 0.55247
4354 18.66960 323.28631 326.90847 0.54612
4355 18.67320 327.95783 331.86082 0.53916
4356 18.67680 333.22214 336.63950 0.52986
4357 18.68040 339.11134 341.09097 0.52298
4358 18.68400 345.64783 346.08824 0.51530
4359 18.68760 352.84142 349.84787 0.50849
4360 18.69120 360.68669 356.05231 0.50025
4361 18.69480 369.16032 364.38910 0.48885
4362 18.69840 378.21865 371.06922 0.47906
4363 18.70200 387.79554 377.01656 0.47318
4364 18.70560 397.80049 385.66824 0.46168
4365 18.70920 408.11752 398.00830 0.44764
4366 18.71280 418.60487 408.90859 0.43571
4367 18.71640 429.10152 418.69997 0.42455
4368 18.72000 439.42982 428.26285 0.41510
4369 18.72360 449.35996 439.59986 0.40314
4370 18.72720 458.72157 449.51976 0.39455
4371 18.73080 467.33349 460.57812 0.38583
4372 18.73440 475.08026 467.31136 0.38082
4373 18.73800 481.91934 474.89162 0.37426
4374 18.74160 487.90877 482.56410 0.36819
4375 18.74520 493.22202 485.86615 0.36545
4376 18.74880 498.14968 492.28726 0.36120
4377 18.75240 503.08847 499.21176 0.35621
4378 18.75600 508.52172 504.38034 0.35359
4379 18.75960 514.99609 508.08329 0.34932
4380 18.76320 523.09917 513.13553 0.34558
4381 18.76680 533.44012 521.43655 0.34121
4382 18.77040 546.63318 532.08151 0.33459
4383 18.77400 563.28025 541.40938 0.32797
4384 18.77760 583.96396 554.19497 0.32051
4385 18.78120 609.26780 572.33444 0.30933
4386 18.78480 639.67506 595.22589 0.28701
4387 18.78840 675.61834 620.60025 0.24492
4388 18.79200 717.43936 650.36362 0.23018
4389 18.79560 765.36554 687.88903 0.17095
4390 18.79920 819.48430 732.94264 0.15130
4391 18.80280 879.71637 786.38340 0.13118
4392 18.80640 945.78885 846.56981 0.11849
4393 18.81000 1017.20723 915.27642 0.09589
4394 18.81360 1093.23025 996.29262 0.08403
4395 18.81720 1172.84596 1084.55047 0.07361
4396 18.82080 1254.75629 1183.36333 0.06647
4397 18.82440 1337.37262 1285.69308 0.06171
4398 18.82800 1418.83149 1394.36970 0.05425
4399 18.83160 1497.03933 1509.42420 0.05225
4400 18.83520 1569.75244 1627.00290 0.04976
4401 18.83880 1634.67682 1740.96556 0.04810
4402 18.84240 1689.62289 1843.45640 0.04806
4403 18.84600 1732.63394 1939.23092 0.04956
4404 18.84960 1762.11856 2004.70768 0.06191
4405 18.85320 1776.96558 2060.20268 0.07233
4406 18.85680 1776.52920 2089.07507 0.08298
4407 18.86040 1760.79145 2088.26374 0.08308
4408 18.86400 1730.28957 2064.21400 0.06807
4409 18.86760 1686.11173 2013.42337 0.06273
4410 18.87120 1629.83563 1941.67182 0.05050
4411 18.87480 1563.42228 1844.17237 0.04447
4412 18.87840 1489.07412 1739.50466 0.04557
4413 18.88200 1409.07503 1619.71170 0.04155
4414 18.88560 1325.63731 1491.06880 0.04429
4415 18.88920 1240.89409 1366.99647 0.04618
4416 18.89280 1156.63199 1238.67830 0.04915
4417 18.89640 1074.38781 1119.39887 0.06221
4418 18.90000 995.40547 1010.79188 0.07091
4419 18.90360 920.64322 915.53540 0.08375
4420 18.90720 850.79455 832.24574 0.10991
4421 18.91080 786.31636 763.96649 0.13898
4422 18.91440 727.45130 698.31830 0.14598
4423 18.91800 674.26404 649.85573 0.19192
4424 18.92160 626.67171 602.56208 0.21853
4425 18.92520 584.48206 563.72058 0.27014
4426 18.92880 547.36513 535.45319 0.27447
4427 18.93240 514.97505 503.29170 0.29269
4428 18.93600 486.90725 481.21815 0.36437
4429 18.93960 462.73606 462.88743 0.33709
4430 18.94320 442.03304 443.28399 0.40215
4431 18.94680 424.38127 426.00559 0.40299
4432 18.95040 409.38652 410.02492 0.43506
4433 18.95400 396.68540 398.48733 0.44865
4434 18.95760 385.95030 389.19708 0.45797
4435 18.96120 376.89234 381.24813 0.46745
4436 18.96480 369.26192 370.87650 0.48012
4437 18.96840 362.84795 366.74924 0.48536
4438 18.97200 357.47587 360.69023 0.49387
4439 18.97560 353.00493 353.82830 0.50424
4440 18.97920 349.32498 350.87424 0.50722
4441 18.98280 346.35311 346.51314 0.51550
4442 18.98640 344.03025 343.04875 0.52010
4443 18.99000 342.31778 339.11863 0.52409
4444 18.99360 341.19430 338.63969 0.52611
4445 18.99720 340.65250 335.07570 0.53080
4446 19.00080 340.69612 336.18831 0.52985
4447 19.00440 341.33644 336.67661 0.52961
4448 19.00800 342.58708 336.21376 0.53137
4449 19.01160 344.46564 335.18048 0.53178
4450 19.01520 347.00738 337.79001 0.52716
4451 19.01880 350.21744 338.28205 0.52756
4452 19.02240 354.10530 341.60509 0.52088
4453 19.02600 358.67187 343.79680 0.51858
4454 19.02960 363.90688 346.16424 0.51374
4455 19.03320 369.78652 347.68042 0.51266
4456 19.03680 376.27136 354.11248 0.50346
4457 19.04040 383.30457 359.81695 0.49496
4458 19.04400 390.80778 363.89440 0.49001
4459 19.04760 398.68297 368.39056 0.48485
4460 19.05120 406.80897 375.13187 0.47577
4461 19.05480 415.04222 381.09402 0.46971
4462 19.05840 423.21936 389.64225 0.45759
4463 19.06200 431.16334 392.92886 0.45290
4464 19.06560 438.69419 396.79694 0.44903
4465 19.06920 445.64450 401.85608 0.44297
4466 19.07280 451.87828 405.26483 0.43926
4467 19.07640 457.30896 409.41948 0.43444
4468 19.08000 461.90862 412.84087 0.43089
4469 19.08360 465.71877 414.10028 0.42996
4470 19.08720 468.83737 416.37198 0.42854
4471 19.09080 471.40248 421.42186 0.42216
4472 19.09440 473.56921 424.33884 0.41995
4473 19.09800 475.48559 428.60991 0.41578
4474 19.10160 477.27148 431.01901 0.41415
4475 19.10520 479.00270 436.99236 0.40770
4476 19.10880 480.70102 441.01918 0.40401
4477 19.11240 482.32936 444.26919 0.40116
4478 19.11600 483.79224 450.25038 0.39606
4479 19.11960 484.94136 453.93083 0.39286
4480 19.12320 485.58753 457.69335 0.38894
4481 19.12680 485.51923 459.28068 0.38674
4482 19.13040 484.52764 459.20610 0.38762
4483 19.13400 482.43518 459.27452 0.38603
4484 19.13760 479.12265 454.26817 0.39126
4485 19.14120 474.54967 450.48406 0.39470
4486 19.14480 468.76247 448.55592 0.39671
4487 19.14840 461.88816 442.29693 0.40183
4488 19.15200 454.11707 436.92635 0.40727
4489 19.15560 445.67941 427.53790 0.41624
4490 19.15920 436.82114 417.53581 0.42695
4491 19.16280 427.78397 408.20531 0.43583
4492 19.16640 418.79140 402.29478 0.44092
4493 19.17000 410.04068 392.72553 0.45202
4494 19.17360 401.69953 387.53768 0.45789
4495 19.17720 393.90590 379.54720 0.46905
4496 19.18080 386.76960 373.32547 0.47736
4497 19.18440 380.37497 368.91732 0.48203
4498 19.18800 374.78425 363.42788 0.49003
4499 19.19160 370.04153 362.56278 0.49222
4500 19.19520 366.17718 361.07807 0.49403
4501 19.19880 363.21259 358.50476 0.49599
4502 19.20240 361.16456 357.02644 0.49793
4503 19.20600 360.04896 357.72160 0.49933
4504 19.20960 359.88264 356.10970 0.49994
4505 19.21320 360.68357 356.47196 0.49891
4506 19.21680 362.46893 357.19740 0.49917
4507 19.22040 365.25298 359.56004 0.49667
4508 19.22400 369.04199 359.29608 0.49587
4509 19.22760 373.82120 362.00463 0.49173
4510 19.23120 379.56959 367.88380 0.48393
4511 19.23480 386.24128 371.85722 0.47931
4512 19.23840 393.76584 376.65929 0.47312
4513 19.24200 402.04588 383.51958 0.46562
4514 19.24560 410.97305 388.82487 0.45937
4515 19.24920 420.35499 396.53942 0.44936
4516 19.25280 429.98894 401.55667 0.44378
4517 19.25640 439.65425 409.81763 0.43437
4518 19.26000 449.08257 418.95948 0.42462
4519 19.26360 457.97747 427.77895 0.41508
4520 19.26720 466.02672 437.28587 0.40601
4521 19.27080 472.92172 441.87997 0.40230
4522 19.27440 478.38458 447.15612 0.39761
4523 19.27800 482.20136 453.95619 0.39098
4524 19.28160 484.23021 453.81838 0.39182
4525 19.28520 484.45364 454.20378 0.39246
4526 19.28880 482.96125 453.98650 0.39300
4527 19.29240 479.94511 454.93041 0.39107
4528 19.29600 475.67663 453.39662 0.39169
4529 19.29960 470.47719 451.68184 0.39394
4530 19.30320 464.68832 449.13369 0.39652
4531 19.30680 458.64664 443.37133 0.40196
4532 19.31040 452.66581 440.19483 0.40448
4533 19.31400 447.02526 438.53821 0.40460
4534 19.31760 441.96451 435.02059 0.40892
4535 19.32120 437.68130 434.70545 0.40978
4536 19.32480 434.33251 432.81686 0.41184
4537 19.32840 432.03675 433.55170 0.41011
4538 19.33200 430.87815 434.12192 0.41009
4539 19.33560 430.91019 433.29734 0.41153
4540 19.33920 432.15884 433.89808 0.40980
4541 19.34280 434.62511 433.22807 0.41062
4542 19.34640 438.28317 436.22966 0.40722
4543 19.35000 443.07742 437.55679 0.40577
4544 19.35360 448.91858 439.41163 0.40509
4545 19.35720 455.68010 442.08664 0.40355
4546 19.36080 463.18467 442.50444 0.40208
4547 19.36440 471.21384 443.87778 0.40091
4548 19.36800 479.49786 446.89594 0.39827
4549 19.37160 487.71874 449.16987 0.39666
4550 19.37520 495.51620 452.87915 0.39263
4551 19.37880 502.49973 451.72482 0.39412
4552 19.38240 508.26868 452.91648 0.39330
4553 19.38600 512.44076 453.28267 0.39389
4554 19.38960 514.68676 451.91724 0.39425
4555 19.39320 514.76576 452.46057 0.39389
4556 19.39680 512.55403 450.88061 0.39493
4557 19.40040 508.05964 445.55289 0.40014
4558 19.40400 501.41891 437.25616 0.40712
4559 19.40760 492.87528 434.85623 0.40953
4560 19.41120 482.74738 429.94871 0.41393
4561 19.41480 471.39354 419.02417 0.42513
4562 19.41840 459.17967 412.00728 0.43312
4563 19.42200 446.45559 404.77080 0.44114
4564 19.42560 433.54387 397.89762 0.44888
4565 19.42920 420.70587 389.05013 0.45892
4566 19.43280 408.18030 379.15557 0.46990
4567 19.43640 396.15532 371.77371 0.48023
4568 19.44000 384.77737 363.08053 0.49096
4569 19.44360 374.15450 357.57986 0.49920
4570 19.44720 364.35989 352.98732 0.50579
4571 19.45080 355.43633 346.60226 0.51289
4572 19.45440 347.39707 342.14274 0.52249
4573 19.45800 340.24215 334.95681 0.53331
4574 19.46160 333.93258 330.60805 0.54044
4575 19.46520 328.42704 328.99327 0.54198
4576 19.46880 323.67652 326.55581 0.54671
4577 19.47240 319.62122 322.08985 0.55349
4578 19.47600 316.19760 318.72669 0.55927
4579 19.47960 313.34117 316.98422 0.56221
4580 19.48320 310.98887 313.39538 0.56904
4581 19.48680 309.08092 312.73102 0.56980
4582 19.49040 307.56212 310.23290 0.57618
4583 19.49400 306.38272 308.81726 0.57854
4584 19.49760 305.49895 309.23907 0.57915
4585 19.50120 304.87309 306.55508 0.58224
4586 19.50480 304.47348 306.58886 0.58258
4587 19.50840 304.27420 305.73569 0.58345
4588 19.51200 304.25473 304.08928 0.58630
4589 19.51560 304.39961 306.57147 0.58166
4590 19.51920 304.69802 306.40737 0.58301
4591 19.52280 305.14354 306.27686 0.58265
4592 19.52640 305.73411 308.01237 0.57852
4593 19.53000 306.47717 307.20472 0.58095
4594 19.53360 307.36849 308.45072 0.57902
4595 19.53720 308.40537 308.48679 0.57899
4596 19.54080 309.59405 310.11748 0.57607
4597 19.54440 311.02751 311.93865 0.57257
4598 19.54800 312.69034 313.04458 0.57057
4599 19.55160 314.61744 316.75491 0.56439
4600 19.55520 316.85315 316.88368 0.56382
4601 19.55880 319.45199 320.30981 0.55755
4602 19.56240 322.47998 323.62195 0.55096
4603 19.56600 326.01611 325.73956 0.54851
4604 19.56960 330.15353 330.94978 0.53835
4605 19.57320 335.00064 333.68165 0.53519
4606 19.57680 340.68167 339.25938 0.52534
4607 19.58040 347.33675 344.31748 0.51752
4608 19.58400 355.12124 350.60149 0.50856
4609 19.58760 364.20468 358.43051 0.49853
4610 19.59120 374.77430 364.41505 0.48951
4611 19.59480 387.00080 375.23768 0.47596
4612 19.59840 401.08023 386.18886 0.46152
4613 19.60200 417.19635 396.68388 0.44962
4614 19.60560 435.51931 413.35981 0.43167
4615 19.60920 456.19671 426.92935 0.41733
4616 19.61280 479.34301 442.64605 0.38236
4617 19.61640 505.02801 464.77765 0.36659
4618 19.62000 533.26453 486.95536 0.36454
4619 19.62360 563.99561 513.95339 0.28450
4620 19.62720 597.08164 544.00996 0.24520
4621 19.63080 632.28975 575.14169 0.24176
4622 19.63440 669.27669 614.80464 0.17856
4623 19.63800 707.57908 656.86825 0.16709
4624 19.64160 746.61823 702.95702 0.15036
4625 19.64520 785.69162 754.50086 0.10830
4626 19.64880 823.99531 813.19101 0.10241
4627 19.65240 860.58214 869.64974 0.10336
4628 19.65600 894.49461 927.81522 0.11228
4629 19.65960 924.73869 987.96637 0.12463
4630 19.66320 950.35102 1043.00488 0.12445
4631 19.66680 970.45347 1091.63253 0.13089
4632 19.67040 984.30626 1132.81393 0.14201
4633 19.67400 991.35811 1161.34198 0.15171
4634 19.67760 991.29088 1176.53012 0.14986
4635 19.68120 984.05456 1180.65860 0.14967
4636 19.68480 969.88574 1169.60768 0.14169
4637 19.68840 949.30064 1149.26120 0.14291
4638 19.69200 923.05925 1108.03219 0.10527
4639 19.69560 892.10248 1064.09150 0.12228
4640 19.69920 857.47569 1012.33668 0.11376
4641 19.70280 820.25106 950.01099 0.10861
4642 19.70640 781.46087 885.90220 0.10378
4643 19.71000 742.04935 821.75015 0.11793
4644 19.71360 702.84331 759.57379 0.11771
4645 19.71720 664.53918 699.00309 0.13569
4646 19.72080 627.70117 643.75188 0.16269
4647 19.72440 592.76688 598.22566 0.19103
4648 19.72800 560.05676 555.43607 0.22977
4649 19.73160 529.78559 522.51677 0.28285
4650 19.73520 502.07499 493.68911 0.32264
4651 19.73880 476.96605 467.44467 0.37147
4652 19.74240 454.43229 444.16992 0.38010
4653 19.74600 434.39218 423.85272 0.42187
4654 19.74960 416.72135 410.44222 0.40353
4655 19.75320 401.26299 394.98388 0.45050
4656 19.75680 387.83573 385.98381 0.46300
4657 19.76040 376.26651 373.09572 0.47862
4658 19.76400 366.35812 366.46277 0.48704
4659 19.76760 357.92376 362.57719 0.49342
4660 19.77120 350.78626 351.80121 0.50923
4661 19.77480 344.78145 346.55752 0.51466
4662 19.77840 339.76086 342.27136 0.52154
4663 19.78200 335.59410 339.45533 0.52568
4664 19.78560 332.16543 335.14900 0.53283
4665 19.78920 329.37860 330.25880 0.54127
4666 19.79280 327.15364 328.93382 0.54381
4667 19.79640 325.42516 326.31248 0.54859
4668 19.80000 324.14112 325.22289 0.55030
4669 19.80360 323.26104 324.72134 0.55008
4670 19.80720 322.75413 323.09656 0.55241
4671 19.81080 322.59753 322.10056 0.55340
4672 19.81440 322.77457 321.98464 0.55634
4673 19.81800 323.27314 320.08079 0.55835
4674 19.82160 324.08419 319.59042 0.55959
4675 19.82520 325.20036 321.63240 0.55725
4676 19.82880 326.61465 321.52115 0.56142
4677 19.83240 328.31923 320.68710 0.56542
4678 19.83600 330.30424 322.74234 0.56543
4679 19.83960 332.55663 323.73993 0.52165
4680 19.84320 335.05902 323.60295 0.50198
4681 19.84680 337.78880 325.42138 0.49873
4682 19.85040 340.71749 329.04718 0.49320
4683 19.85400 343.81067 328.48295 0.49371
4684 19.85760 347.02884 328.32778 0.49415
4685 19.86120 350.32928 330.06797 0.49018
4686 19.86480 353.66886 331.76579 0.48667
4687 19.86840 357.00747 331.87481 0.48922
4688 19.87200 360.31091 334.51499 0.48574
4689 19.87560 363.55263 336.59348 0.48228
4690 19.87920 366.71314 339.49473 0.47707
4691 19.88280 369.77767 341.55451 0.47682
4692 19.88640 372.73159 343.14138 0.47508
4693 19.89000 375.55370 343.84208 0.47534
4694 19.89360 378.21226 345.69334 0.42061
4695 19.89720 380.66010 348.32078 0.39340
4696 19.90080 382.83258 349.13033 0.37965
4697 19.90440 384.66822 350.06239 0.34564
4698 19.90800 386.07950 352.00696 0.38074
4699 19.91160 386.98618 350.77480 0.38179
4700 19.91520 387.31920 351.83983 0.37942
4701 19.91880 387.03003 352.96449 0.37862
4702 19.92240 386.09799 353.33660 0.37947
4703 19.92600 384.53321 355.15201 0.37701
4704 19.92960 382.37505 353.17136 0.37991
4705 19.93320 379.68668 351.95712 0.38089
4706 19.93680 376.54790 353.71035 0.37924
4707 19.94040 373.04805 351.51329 0.38090
4708 19.94400 369.28022 348.14072 0.38557
4709 19.94760 365.33878 347.88571 0.38510
4710 19.95120 361.32466 343.51916 0.39107
4711 19.95480 357.29743 343.53975 0.38972
4712 19.95840 353.35030 341.82288 0.39258
4713 19.96200 349.55577 341.42102 0.39230
4714 19.96560 345.98012 341.43249 0.39249
4715 19.96920 342.67928 341.18297 0.39359
4716 19.97280 339.69437 339.13056 0.39695
4717 19.97640 337.06903 338.95111 0.39702
4718 19.98000 334.83599 338.12284 0.39802
4719 19.98360 333.02253 337.72298 0.39731
4720 19.98720 331.65178 336.50858 0.39935
4721 19.99080 330.74416 337.02571 0.39880
4722 19.99440 330.31858 338.80216 0.39740
4723 19.99800 330.39341 339.29683 0.39711
4724 20.00160 330.98719 340.63483 0.39419
4725 20.00520 332.11894 343.05495 0.39136
4726 20.00880 333.80807 343.68069 0.39146
4727 20.01240 336.07387 344.94265 0.38985
4728 20.01600 338.93456 345.78164 0.38837
4729 20.01960 342.40595 354.05254 0.37958
4730 20.02320 346.49972 357.20985 0.37547
4731 20.02680 351.22138 362.73948 0.36952
4732 20.03040 356.56807 369.56491 0.36243
4733 20.03400 362.52656 374.02841 0.35871
4734 20.03760 369.06870 382.22522 0.35111
4735 20.04120 376.15220 387.78512 0.34704
4736 20.04480 383.71593 395.44905 0.34055
4737 20.04840 391.67812 404.91587 0.32993
4738 20.05200 399.93413 414.62351 0.32331
4739 20.05560 408.35468 422.96507 0.31618
4740 20.05920 416.78472 431.72274 0.30599
4741 20.06280 425.04372 440.49963 0.30480
4742 20.06640 432.92815 448.51644 0.29875
4743 20.07000 440.21744 457.83805 0.29397
4744 20.07360 446.68408 463.18336 0.29072
4745 20.07720 452.10849 466.58935 0.28993
4746 20.08080 456.29743 473.02087 0.28782
4747 20.08440 459.10326 477.93563 0.28766
4748 20.08800 460.44103 476.92401 0.28026
4749 20.09160 460.29886 478.91535 0.24557
4750 20.09520 458.73950 478.69564 0.26152
4751 20.09880 455.89241 472.94314 0.31812
4752 20.10240 451.93886 466.56993 0.31801
4753 20.10600 447.09307 463.43535 0.31775
4754 20.10960 441.58343 455.72601 0.32155
4755 20.11320 435.63649 446.84912 0.32554
4756 20.11680 429.46518 440.84086 0.33186
4757 20.12040 423.26135 433.65880 0.33629
4758 20.12400 417.19197 424.78540 0.34385
4759 20.12760 411.39792 419.92397 0.34742
4760 20.13120 405.99448 411.63007 0.35469
4761 20.13480 401.07275 407.94569 0.35781
4762 20.13840 396.70163 403.48939 0.36463
4763 20.14200 392.93006 398.70628 0.37048
4764 20.14560 389.78941 394.87509 0.37563
4765 20.14920 387.29606 394.40166 0.38092
4766 20.15280 385.45394 392.50148 0.32346
4767 20.15640 384.25727 394.14710 0.29849
4768 20.16000 383.69318 392.92527 0.29930
4769 20.16360 383.74433 389.27425 0.30218
4770 20.16720 384.39151 393.18537 0.29910
4771 20.17080 385.61602 394.58140 0.30454
4772 20.17440 387.40200 394.03829 0.34984
4773 20.17800 389.73869 399.48058 0.34124
4774 20.18160 392.62258 404.00162 0.33529
4775 20.18520 396.05898 407.13559 0.33157
4776 20.18880 400.05193 413.12739 0.32585
4777 20.19240 404.59181 420.26564 0.30418
4778 20.19600 409.84828 421.44609 0.25045
4779 20.19960 415.82465 427.60175 0.24780
4780 20.20320 422.60754 435.07799 0.24846
4781 20.20680 430.31233 445.45945 0.29881
4782 20.21040 439.08381 453.47466 0.29403
4783 20.21400 449.10012 463.67880 0.28668
4784 20.21760 460.57654 476.11134 0.27960
4785 20.22120 473.76918 493.71055 0.27023
4786 20.22480 488.97807 507.73761 0.26265
4787 20.22840 506.54949 521.62844 0.25579
4788 20.23200 526.87697 539.04828 0.23647
4789 20.23560 550.40052 559.76584 0.23455
4790 20.23920 577.60374 586.12958 0.21282
4791 20.24280 609.00789 611.64710 0.19418
4792 20.24640 645.15886 641.96080 0.14078
4793 20.25000 686.61531 675.13142 0.17022
4794 20.25360 733.98160 712.03408 0.13549
4795 20.25720 787.79020 756.32196 0.11389
4796 20.26080 848.55171 809.76566 0.10830
4797 20.26440 916.71013 865.77820 0.09405
4798 20.26800 992.61307 930.28332 0.07753
4799 20.27160 1076.47984 999.36308 0.07034
4800 20.27520 1168.36753 1080.07447 0.05778
4801 20.27880 1268.13566 1176.24802 0.05303
4802 20.28240 1375.41005 1279.63685 0.04896
4803 20.28600 1489.54722 1391.13901 0.04394
4804 20.28960 1609.60125 1515.95679 0.04057
4805 20.29320 1734.30293 1655.88032 0.03185
4806 20.29680 1862.01851 1796.34945 0.03334
4807 20.30040 1990.77425 1943.83273 0.02778
4808 20.30400 2118.28244 2101.83454 0.02474
4809 20.30760 2241.98748 2255.32098 0.02465
4810 20.31120 2359.16170 2388.40942 0.02469
4811 20.31480 2467.03366 2530.87087 0.02414
4812 20.31840 2562.92881 2657.48768 0.02361
4813 20.32200 2644.41906 2771.09571 0.02791
4814 20.32560 2709.45752 2858.50849 0.02983
4815 20.32920 2756.49101 2923.16524 0.03963
4816 20.33280 2784.54480 2963.63645 0.04361
4817 20.33640 2793.28181 2977.01717 0.04357
4818 20.34000 2783.02765 2973.17857 0.04336
4819 20.34360 2754.75332 2943.57890 0.03969
4820 20.34720 2710.01210 2877.19205 0.03864
4821 20.35080 2650.81839 2803.38295 0.03660
4822 20.35440 2579.48072 2713.30858 0.03112
4823 20.35800 2498.41043 2618.02842 0.03406
4824 20.36160 2409.93949 2511.27874 0.03436
4825 20.36520 2316.17121 2403.66564 0.03335
4826 20.36880 2218.88682 2301.01383 0.03379
4827 20.37240 2119.51437 2193.52877 0.03609
4828 20.37600 2019.15524 2082.28029 0.03734
4829 20.37960 1918.65410 1971.05882 0.03871
4830 20.38320 1818.68946 1866.98056 0.04284
4831 20.38680 1719.86324 1770.97870 0.04485
4832 20.39040 1622.76786 1685.19930 0.04394
4833 20.39400 1528.01774 1591.13559 0.04427
4834 20.39760 1436.24468 1503.93002 0.05244
4835 20.40120 1348.06824 1418.13012 0.04575
4836 20.40480 1264.05577 1328.06231 0.05322
4837 20.40840 1184.68543 1250.71866 0.05900
4838 20.41200 1110.32214 1170.54077 0.06027
4839 20.41560 1041.20901 1098.13185 0.06607
4840 20.41920 977.47195 1031.68970 0.07643
4841 20.42280 919.13326 966.55264 0.07660
4842 20.42640 866.12965 908.96096 0.08661
4843 20.43000 818.33134 858.23826 0.12377
4844 20.43360 775.56011 816.82147 0.15181
4845 20.43720 737.60578 781.76772 0.17457
4846 20.44080 704.23858 749.60490 0.17821
4847 20.44440 675.22345 722.25874 0.22249
4848 20.44800 650.32950 702.83139 0.23518
4849 20.45160 629.33910 685.38166 0.23089
4850 20.45520 612.05542 670.02420 0.19952
4851 20.45880 598.31930 657.84182 0.20274
4852 20.46240 588.00062 649.61500 0.20438
4853 20.46600 581.01484 645.31251 0.20700
4854 20.46960 577.32541 642.81379 0.20654
4855 20.47320 576.94681 648.10775 0.20570
4856 20.47680 579.94589 649.69407 0.20518
4857 20.48040 586.44115 660.81303 0.20186
4858 20.48400 596.59962 669.21830 0.19876
4859 20.48760 610.63099 679.97792 0.19585
4860 20.49120 628.78152 694.93059 0.19209
4861 20.49480 651.30723 715.51593 0.18629
4862 20.49840 678.48436 737.91261 0.18103
4863 20.50200 710.57666 763.61334 0.15581
4864 20.50560 747.81766 793.13518 0.15448
4865 20.50920 790.40431 827.60968 0.14994
4866 20.51280 838.39152 858.86228 0.13322
4867 20.51640 891.80158 899.25962 0.10626
4868 20.52000 950.52024 946.77869 0.09705
4869 20.52360 1014.27873 998.66966 0.09137
4870 20.52720 1082.63619 1052.58025 0.08238
4871 20.53080 1154.95633 1109.58088 0.08210
4872 20.53440 1230.38558 1169.12162 0.07612
4873 20.53800 1307.83312 1232.75851 0.06670
4874 20.54160 1385.95587 1305.75615 0.06360
4875 20.54520 1463.15263 1360.41761 0.05535
4876 20.54880 1537.57535 1431.32101 0.05559
4877 20.55240 1607.16711 1490.35234 0.06084
4878 20.55600 1669.73831 1546.12530 0.06844
4879 20.55960 1723.08714 1597.52830 0.07112
4880 20.56320 1765.16321 1638.38351 0.08041
4881 20.56680 1794.25511 1666.12970 0.07910
4882 20.57040 1809.16810 1691.49000 0.07783
4883 20.57400 1809.35897 1696.94827 0.07677
4884 20.57760 1794.98674 1692.05309 0.07760
4885 20.58120 1766.87229 1678.76939 0.07854
4886 20.58480 1726.37395 1647.54655 0.07889
4887 20.58840 1675.22280 1614.07138 0.08178
4888 20.59200 1615.34958 1575.63805 0.06805
4889 20.59560 1548.73779 1519.79247 0.06254
4890 20.59920 1477.31787 1465.00095 0.06969
4891 20.60280 1402.90285 1404.35216 0.06315
4892 20.60640 1327.15306 1341.83845 0.06287
4893 20.61000 1251.55900 1281.72632 0.06529
4894 20.61360 1177.43092 1223.56943 0.06948
4895 20.61720 1105.89316 1160.53224 0.06320
4896 20.62080 1037.88020 1099.74579 0.08091
4897 20.62440 974.13757 1047.18907 0.08897
4898 20.62800 915.22696 1004.33518 0.09457
4899 20.63160 861.53740 954.61524 0.11203
4900 20.63520 813.30007 916.87256 0.13549
4901 20.63880 770.60678 871.65357 0.11971
4902 20.64240 733.42941 837.83073 0.15871
4903 20.64600 701.63996 807.99165 0.17801
4904 20.64960 675.02933 784.63420 0.21169
4905 20.65320 653.32490 762.09447 0.20591
4906 20.65680 636.20558 736.91297 0.22171
4907 20.66040 623.31502 718.76017 0.22652
4908 20.66400 614.27195 705.20958 0.23022
4909 20.66760 608.67845 690.18404 0.23523
4910 20.67120 606.12575 687.99787 0.23534
4911 20.67480 606.19814 678.69190 0.23759
4912 20.67840 608.47543 672.92062 0.24074
4913 20.68200 612.53480 670.60037 0.24091
4914 20.68560 617.95164 669.22451 0.24127
4915 20.68920 624.30597 666.10887 0.24249
4916 20.69280 631.18754 668.93942 0.24192
4917 20.69640 638.20948 669.18197 0.24165
4918 20.70000 645.03038 672.31377 0.24099
4919 20.70360 651.37874 671.61645 0.24100
4920 20.70720 657.07211 669.72295 0.24146
4921 20.71080 662.04290 671.46286 0.24059
4922 20.71440 666.34696 671.82521 0.24124
4923 20.71800 670.15839 673.50816 0.24023
4924 20.72160 673.74933 670.07872 0.24892
4925 20.72520 677.45794 669.48053 0.27220
4926 20.72880 681.65120 671.88268 0.27155
4927 20.73240 686.68786 676.96467 0.26866
4928 20.73600 692.88641 676.05926 0.26947
4929 20.73960 700.49996 679.76998 0.25307
4930 20.74320 709.69814 685.94534 0.23538
4931 20.74680 720.55443 690.46249 0.23362
4932 20.75040 733.03753 701.73417 0.23003
4933 20.75400 747.00535 710.07717 0.22690
4934 20.75760 762.20090 720.29516 0.22351
4935 20.76120 778.25024 737.99052 0.21731
4936 20.76480 794.66413 749.82289 0.21307
4937 20.76840 810.84547 766.21218 0.20987
4938 20.77200 826.10376 781.87233 0.20572
4939 20.77560 839.68523 788.24666 0.20474
4940 20.77920 850.81658 800.66985 0.20114
4941 20.78280 858.76438 809.34824 0.19887
4942 20.78640 862.90345 814.61162 0.19868
4943 20.79000 862.78287 816.55217 0.19877
4944 20.79360 858.18143 814.28758 0.19976
4945 20.79720 849.13058 808.23077 0.20242
4946 20.80080 835.90656 802.28727 0.20318
4947 20.80440 818.98977 793.52330 0.17077
4948 20.80800 799.00585 781.75276 0.16962
4949 20.81160 776.66358 774.40346 0.17155
4950 20.81520 752.67016 764.36756 0.17380
4951 20.81880 727.72208 758.53557 0.17513
4952 20.82240 702.44717 759.60841 0.17464
4953 20.82600 677.39290 757.22759 0.17555
4954 20.82960 653.01880 761.48704 0.17497
4955 20.83320 629.69551 767.54357 0.17374
4956 20.83680 607.70785 755.05252 0.17653
4957 20.84040 587.26040 726.02589 0.15323
4958 20.84400 568.48484 690.23046 0.18023
4959 20.84760 551.44872 658.81411 0.17935
4960 20.85120 536.16589 627.32344 0.20417
4961 20.85480 522.60827 604.84919 0.22026
4962 20.85840 510.71758 581.43147 0.22887
4963 20.86200 500.41305 552.63831 0.23625
4964 20.86560 491.62198 532.36695 0.25038
4965 20.86920 484.26335 517.80152 0.25711
4966 20.87280 478.25507 502.34483 0.26454
4967 20.87640 473.52412 492.82573 0.27025
4968 20.88000 470.00200 486.86650 0.27369
4969 20.88360 467.61994 482.90926 0.27598
4970 20.88720 466.30448 475.30987 0.28113
4971 20.89080 465.98207 472.81601 0.28218
4972 20.89440 466.57091 470.73487 0.28335
4973 20.89800 467.98212 470.11462 0.28470
4974 20.90160 470.12032 467.79098 0.28537
4975 20.90520 472.88593 466.47235 0.28706
4976 20.90880 476.17921 469.37932 0.28461
4977 20.91240 479.90457 470.20324 0.28352
4978 20.91600 483.97768 470.93610 0.28301
4979 20.91960 488.32849 474.10730 0.28105
4980 20.92320 492.90302 479.69456 0.27709
4981 20.92680 497.66081 486.10565 0.27387
4982 20.93040 502.56863 490.42933 0.27193
4983 20.93400 507.59126 498.15182 0.26860
4984 20.93760 512.68106 507.60029 0.26304
4985 20.94120 517.76917 520.05425 0.25665
4986 20.94480 522.76517 530.67962 0.25071
4987 20.94840 527.54331 544.72790 0.24498
4988 20.95200 531.95271 559.72102 0.23777
4989 20.95560 535.82096 572.63330 0.23255
4990 20.95920 538.96351 587.63256 0.22659
4991 20.96280 541.19648 598.71313 0.22291
4992 20.96640 542.35216 608.29346 0.21894
4993 20.97000 542.29621 617.66933 0.21602
4994 20.97360 540.94477 626.50255 0.21181
4995 20.97720 538.27867 625.39382 0.21267
4996 20.98080 534.35319 620.47230 0.21429
4997 20.98440 529.29756 618.67216 0.21502
4998 20.98800 523.30378 609.47687 0.21805
4999 20.99160 516.62044 598.29835 0.22224
5000 20.99520 509.52734 585.75318 0.23266
5001 20.99880 502.31880 572.52229 0.28817
5002 21.00240 495.28780 558.76735 0.29452
5003 21.00600 488.71423 542.35176 0.30155
5004 21.00960 482.85707 529.52332 0.30758
5005 21.01320 477.94996 513.12897 0.31648
5006 21.01680 474.19888 502.95299 0.32264
5007 21.02040 471.78093 494.96601 0.32646
5008 21.02400 470.84425 488.68234 0.33119
5009 21.02760 471.51125 482.52517 0.33529
5010 21.03120 473.85420 479.95051 0.33696
5011 21.03480 477.93507 480.00906 0.33718
5012 21.03840 483.77478 479.46347 0.33716
5013 21.04200 491.34666 482.44372 0.33516
5014 21.04560 500.60410 487.79511 0.33055
5015 21.04920 511.45592 494.32024 0.32609
5016 21.05280 523.77109 500.87339 0.32255
5017 21.05640 537.37595 514.40960 0.31330
5018 21.06000 552.05376 522.91927 0.30915
5019 21.06360 567.54204 533.70428 0.30278
5020 21.06720 583.53245 547.49173 0.29510
5021 21.07080 599.67293 558.48530 0.29201
5022 21.07440 615.57427 567.75200 0.31652
5023 21.07800 630.82308 580.64148 0.31186
5024 21.08160 645.00282 590.84874 0.30394
5025 21.08520 657.72241 601.70569 0.29752
5026 21.08880 668.64957 612.80497 0.29207
5027 21.09240 677.54240 617.23663 0.28857
5028 21.09600 684.27362 622.61722 0.28510
5029 21.09960 688.83923 628.46259 0.28313
5030 21.10320 691.34968 632.58691 0.28156
5031 21.10680 692.00420 635.37278 0.27968
5032 21.11040 691.05560 634.37877 0.27991
5033 21.11400 688.77211 637.55606 0.27766
5034 21.11760 685.40326 638.51703 0.27766
5035 21.12120 681.15471 642.92594 0.27513
5036 21.12480 676.17397 644.57300 0.27446
5037 21.12840 670.54752 643.84399 0.27567
5038 21.13200 664.30832 647.29603 0.27355
5039 21.13560 657.45251 645.05099 0.27552
5040 21.13920 649.96245 646.73498 0.27464
5041 21.14280 641.82783 645.04491 0.27571
5042 21.14640 633.07863 644.16647 0.27573
5043 21.15000 623.84184 638.50261 0.27851
5044 21.15360 614.25818 634.68388 0.27955
5045 21.15720 604.55450 629.67443 0.28247
5046 21.16080 595.02247 618.81879 0.28770
5047 21.16440 585.95663 609.53706 0.29135
5048 21.16800 577.70510 598.74716 0.29614
5049 21.17160 570.61109 591.39452 0.30042
5050 21.17520 565.01049 580.94787 0.30561
5051 21.17880 561.22578 576.75771 0.30811
5052 21.18240 559.56197 569.55680 0.31277
5053 21.18600 560.30410 566.80687 0.31452
5054 21.18960 563.71461 570.68972 0.31174
5055 21.19320 570.03034 572.00135 0.31127
5056 21.19680 579.45802 576.98519 0.30891
5057 21.20040 592.16846 583.07531 0.30519
5058 21.20400 608.28975 595.60749 0.29797
5059 21.20760 627.89955 613.68194 0.28922
5060 21.21120 651.01686 634.94166 0.27206
5061 21.21480 677.59227 658.27611 0.26525
5062 21.21840 707.50191 685.29768 0.23744
5063 21.22200 740.55180 715.26721 0.18129
5064 21.22560 776.44032 748.53169 0.19287
5065 21.22920 814.77216 784.12724 0.17311
5066 21.23280 855.04192 824.29336 0.14816
5067 21.23640 896.62359 870.27909 0.13799
5068 21.24000 938.76122 920.69107 0.12358
5069 21.24360 980.56293 971.16268 0.14165
5070 21.24720 1021.00084 1014.04363 0.12473
5071 21.25080 1058.92635 1062.37511 0.13514
5072 21.25440 1093.10435 1102.11931 0.13769
5073 21.25800 1122.26892 1143.62455 0.15170
5074 21.26160 1145.20666 1173.11930 0.15000
5075 21.26520 1160.85920 1193.48218 0.14803
5076 21.26880 1168.42990 1207.16180 0.14584
5077 21.27240 1167.47531 1210.36957 0.14567
5078 21.27600 1157.96135 1201.94255 0.14679
5079 21.27960 1140.26652 1183.49741 0.14918
5080 21.28320 1115.13322 1156.56806 0.13935
5081 21.28680 1083.57899 1119.15857 0.12631
5082 21.29040 1046.79101 1074.32917 0.11160
5083 21.29400 1006.02121 1024.76830 0.11377
5084 21.29760 962.49963 972.66340 0.12399
5085 21.30120 917.37310 914.12345 0.11708
5086 21.30480 871.66769 859.83282 0.13654
5087 21.30840 826.27057 807.40039 0.12477
5088 21.31200 781.92590 753.41911 0.15203
5089 21.31560 739.23842 706.79496 0.16319
5090 21.31920 698.68138 665.22258 0.21371
5091 21.32280 660.60710 627.29185 0.20649
5092 21.32640 625.25829 590.09184 0.24088
5093 21.33000 592.77969 562.45519 0.25574
5094 21.33360 563.23047 533.87589 0.31417
5095 21.33720 536.59664 511.07859 0.34849
5096 21.34080 512.80343 491.74298 0.36307
5097 21.34440 491.72779 470.43300 0.37870
5098 21.34800 473.21047 456.42711 0.39001
5099 21.35160 457.06527 445.04987 0.40021
5100 21.35520 443.09172 432.99072 0.41264
5101 21.35880 431.08483 423.16267 0.42154
5102 21.36240 420.83922 415.26195 0.42950
5103 21.36600 412.15044 408.18860 0.43725
5104 21.36960 404.83555 399.43021 0.44595
5105 21.37320 398.72316 394.62819 0.45135
5106 21.37680 393.65933 391.98139 0.45518
5107 21.38040 389.50859 389.22055 0.45814
5108 21.38400 386.15567 386.27451 0.46281
5109 21.38760 383.50415 382.42320 0.46672
5110 21.39120 381.47655 378.07710 0.47267
5111 21.39480 380.01075 377.00847 0.47292
5112 21.39840 379.06473 375.30563 0.47480
5113 21.40200 378.61195 374.03796 0.47687
5114 21.40560 378.64175 375.81564 0.47444
5115 21.40920 379.15903 375.10085 0.47572
5116 21.41280 380.18394 375.02277 0.47598
5117 21.41640 381.75187 376.36344 0.47328
5118 21.42000 383.91355 380.87398 0.46797
5119 21.42360 386.73514 383.67193 0.46444
5120 21.42720 390.29822 386.51649 0.46060
5121 21.43080 394.69957 392.92309 0.45256
5122 21.43440 400.05059 397.91574 0.44677
5123 21.43800 406.47619 403.53781 0.44242
5124 21.44160 414.11295 408.78334 0.43528
5125 21.44520 423.10653 414.59162 0.42887
5126 21.44880 433.60818 427.63170 0.41613
5127 21.45240 445.77016 438.01476 0.40590
5128 21.45600 459.74031 449.47494 0.39529
5129 21.45960 475.65550 461.98977 0.38508
5130 21.46320 493.63415 479.93460 0.35873
5131 21.46680 513.76954 498.00548 0.35705
5132 21.47040 536.11918 514.79883 0.31558
5133 21.47400 560.69499 540.04255 0.28358
5134 21.47760 587.44928 564.81968 0.30132
5135 21.48120 616.31080 594.16247 0.24119
5136 21.48480 647.09770 630.84326 0.20517
5137 21.48840 679.56360 667.09838 0.17772
5138 21.49200 713.37737 709.83743 0.16441
5139 21.49560 748.11545 750.91542 0.14975
5140 21.49920 783.25609 796.83102 0.15468
5141 21.50280 818.17713 845.00219 0.13911
5142 21.50640 852.15902 890.66407 0.12960
5143 21.51000 884.39768 937.93607 0.15579
5144 21.51360 914.03074 980.21267 0.13434
5145 21.51720 940.18118 1016.96016 0.16009
5146 21.52080 962.01880 1049.35867 0.16007
5147 21.52440 978.83720 1073.49013 0.16434
5148 21.52800 990.12247 1088.98838 0.16180
5149 21.53160 995.62962 1091.18349 0.16094
5150 21.53520 995.41327 1084.95509 0.16309
5151 21.53880 989.82749 1070.77777 0.16498
5152 21.54240 979.48646 1057.23519 0.16703
5153 21.54600 965.19575 1025.09394 0.14811
5154 21.54960 947.87113 996.68456 0.15739
5155 21.55320 928.45800 961.29261 0.14690
5156 21.55680 907.86381 919.64006 0.14603
5157 21.56040 886.90891 880.67425 0.17517
5158 21.56400 866.29479 852.34201 0.17679
5159 21.56760 846.58697 818.38861 0.16719
5160 21.57120 828.20759 795.93955 0.22217
5161 21.57480 811.43463 784.75230 0.22588
5162 21.57840 796.40462 778.24140 0.22806
5163 21.58200 783.11813 785.38699 0.22578
5164 21.58560 771.44797 797.20972 0.22195
5165 21.58920 761.15105 816.01539 0.21381
5166 21.59280 751.88602 835.84139 0.21193
5167 21.59640 743.23749 851.59352 0.20724
5168 21.60000 734.74916 865.93317 0.20414
5169 21.60360 725.96358 872.81105 0.20295
5170 21.60720 716.46588 877.21911 0.20207
5171 21.61080 705.92416 870.51493 0.20420
5172 21.61440 694.12143 860.60272 0.20682
5173 21.61800 680.97087 841.72228 0.20917
5174 21.62160 666.51353 812.42912 0.21820
5175 21.62520 650.89897 781.94268 0.22672
5176 21.62880 634.35672 746.60371 0.16477
5177 21.63240 617.16383 699.31953 0.19553
5178 21.63600 599.61520 657.29653 0.20807
5179 21.63960 582.00045 612.31909 0.19414
5180 21.64320 564.58819 569.20343 0.23024
5181 21.64680 547.61702 533.54519 0.27568
5182 21.65040 531.29145 501.64142 0.28865
5183 21.65400 515.78106 477.96036 0.35494
5184 21.65760 501.22153 457.74245 0.39009
5185 21.66120 487.71675 443.09772 0.40240
5186 21.66480 475.34140 430.78518 0.41415
5187 21.66840 464.14397 419.75578 0.42421
5188 21.67200 454.14998 413.09674 0.43044
5189 21.67560 445.36565 404.92568 0.43976
5190 21.67920 437.78174 399.45739 0.44611
5191 21.68280 431.37765 396.86750 0.44908
5192 21.68640 426.12574 394.53771 0.45265
5193 21.69000 421.99574 392.02551 0.45558
5194 21.69360 418.95913 392.78163 0.45357
5195 21.69720 416.99343 396.39489 0.44949
5196 21.70080 416.08635 397.56200 0.44775
5197 21.70440 416.23965 397.41911 0.44709
5198 21.70800 417.47266 399.28221 0.44530
5199 21.71160 419.82547 402.15736 0.44317
5200 21.71520 423.36153 409.90351 0.43427
5201 21.71880 428.16976 413.39705 0.42938
5202 21.72240 434.36595 418.71159 0.42423
5203 21.72600 442.09348 427.16730 0.41637
5204 21.72960 451.52777 437.58608 0.40659
5205 21.73320 462.85544 447.31249 0.39775
5206 21.73680 476.29863 459.15469 0.38819
5207 21.74040 492.09358 471.83515 0.37729
5208 21.74400 510.49403 486.74230 0.36563
5209 21.74760 531.75000 502.99358 0.35330
5210 21.75120 556.11210 521.45560 0.34083
5211 21.75480 583.81775 547.08690 0.31897
5212 21.75840 615.07564 571.21376 0.25780
5213 21.76200 650.05329 601.65995 0.23291
5214 21.76560 688.86286 634.10795 0.22534
5215 21.76920 731.54568 673.72436 0.17653
5216 21.77280 778.05616 721.69147 0.15814
5217 21.77640 828.24563 778.54711 0.13508
5218 21.78000 881.84620 841.56159 0.11077
5219 21.78360 938.45472 917.88432 0.08832
5220 21.78720 997.51757 998.95274 0.09507
5221 21.79080 1058.31711 1090.39405 0.06991
5222 21.79440 1119.96126 1196.82319 0.06597
5223 21.79800 1181.37941 1303.39911 0.06818
5224 21.80160 1241.32845 1410.03702 0.05945
5225 21.80520 1298.41412 1514.51381 0.06628
5226 21.80880 1351.13377 1603.04693 0.07213
5227 21.81240 1397.93932 1679.36723 0.07295
5228 21.81600 1437.32716 1742.69319 0.08300
5229 21.81960 1467.94224 1788.61401 0.09778
5230 21.82320 1488.68135 1811.20131 0.09634
5231 21.82680 1498.78762 1819.46650 0.09577
5232 21.83040 1497.91444 1799.02767 0.09736
5233 21.83400 1486.14976 1768.27101 0.08159
5234 21.83760 1464.00014 1703.94755 0.06998
5235 21.84120 1432.33787 1627.65678 0.06651
5236 21.84480 1392.32068 1538.45592 0.06173
5237 21.84840 1345.29682 1444.87082 0.06652
5238 21.85200 1292.71204 1351.03037 0.06104
5239 21.85560 1236.02615 1250.63614 0.07188
5240 21.85920 1176.64596 1164.09378 0.08140
5241 21.86280 1115.87663 1077.81935 0.08459
5242 21.86640 1054.88954 1000.76082 0.10804
5243 21.87000 994.70397 931.73760 0.11900
5244 21.87360 936.17933 870.32981 0.12928
5245 21.87720 880.01504 810.19582 0.14288
5246 21.88080 826.75610 760.33083 0.17589
5247 21.88440 776.80279 716.34278 0.18669
5248 21.88800 730.42316 678.99954 0.22095
5249 21.89160 687.76733 642.46115 0.25054
5250 21.89520 648.88294 609.71790 0.26594
5251 21.89880 613.73092 584.33858 0.30362
5252 21.90240 582.20126 561.17342 0.29518
5253 21.90600 554.12819 539.68361 0.32049
5254 21.90960 529.30488 518.90539 0.32821
5255 21.91320 507.49688 500.74344 0.35629
5256 21.91680 488.44889 487.77524 0.36589
5257 21.92040 471.90414 476.70748 0.34384
5258 21.92400 457.60615 461.53284 0.38491
5259 21.92760 445.30732 450.29523 0.39549
5260 21.93120 434.77416 443.00895 0.40233
5261 21.93480 425.79110 437.13040 0.40770
5262 21.93840 418.16295 428.00304 0.41534
5263 21.94200 411.71627 421.48090 0.42155
5264 21.94560 406.29980 418.64301 0.42480
5265 21.94920 401.78426 414.92609 0.42837
5266 21.95280 398.06151 409.01618 0.43583
5267 21.95640 395.04343 407.59363 0.43636
5268 21.96000 392.66064 403.23959 0.44146
5269 21.96360 390.86091 401.89730 0.44318
5270 21.96720 389.60779 403.36198 0.44115
5271 21.97080 388.87954 404.61383 0.43982
5272 21.97440 388.66776 404.51562 0.43967
5273 21.97800 388.97074 404.44482 0.44045
5274 21.98160 389.80228 404.60966 0.44054
5275 21.98520 391.18254 406.42242 0.43861
5276 21.98880 393.13856 408.44450 0.43677
5277 21.99240 395.70258 412.76040 0.43236
5278 21.99600 398.91042 412.77608 0.43212
5279 21.99960 402.80434 417.72957 0.42739
5280 22.00320 407.41042 421.69269 0.42285
5281 22.00680 412.76760 428.56061 0.41500
5282 22.01040 418.90474 433.58384 0.41071
5283 22.01400 425.84303 439.87010 0.40504
5284 22.01760 433.59397 446.22774 0.39797
5285 22.02120 442.15700 455.39887 0.39164
5286 22.02480 451.51744 464.41650 0.38282
5287 22.02840 461.64453 474.71188 0.37498
5288 22.03200 472.48970 485.97043 0.36611
5289 22.03560 483.98512 496.68395 0.35775
5290 22.03920 496.04253 508.61285 0.35051
5291 22.04280 508.55267 523.73793 0.34075
5292 22.04640 521.38553 536.69445 0.33206
5293 22.05000 534.39212 549.26934 0.32383
5294 22.05360 547.40870 565.31790 0.31317
5295 22.05720 560.26451 581.67725 0.30504
5296 22.06080 572.79585 594.80003 0.29970
5297 22.06440 584.85787 612.30744 0.29051
5298 22.06800 596.35066 627.53619 0.28251
5299 22.07160 607.24523 643.27706 0.27573
5300 22.07520 617.60044 655.32495 0.27103
5301 22.07880 627.57298 667.17315 0.26592
5302 22.08240 637.43185 681.20480 0.26043
5303 22.08600 647.54202 695.03980 0.25537
5304 22.08960 658.35997 706.74777 0.25115
5305 22.09320 670.35795 718.13130 0.24675
5306 22.09680 684.05070 725.45318 0.24457
5307 22.10040 699.95132 737.52552 0.24060
5308 22.10400 718.53102 749.31995 0.23638
5309 22.10760 740.20389 762.66182 0.22489
5310 22.11120 765.30808 780.66102 0.22741
5311 22.11480 794.08926 802.16277 0.22173
5312 22.11840 826.67837 819.27972 0.21566
5313 22.12200 863.08926 842.60987 0.21026
5314 22.12560 903.25200 865.31279 0.20484
5315 22.12920 946.88444 892.05902 0.19468
5316 22.13280 993.57633 921.00918 0.19172
5317 22.13640 1042.75085 950.57619 0.17441
5318 22.14000 1093.65620 985.73026 0.17360
5319 22.14360 1145.35931 1016.30216 0.17333
5320 22.14720 1196.74707 1049.95374 0.16515
5321 22.15080 1246.53612 1077.72367 0.16412
5322 22.15440 1293.28428 1113.72228 0.14794
5323 22.15800 1335.46990 1135.63447 0.15522
5324 22.16160 1371.54361 1161.01440 0.15156
5325 22.16520 1400.03750 1178.10029 0.14964
5326 22.16880 1419.68486 1188.22350 0.14820
5327 22.17240 1429.53924 1195.04614 0.14744
5328 22.17600 1429.07495 1199.81979 0.14714
5329 22.17960 1418.24617 1195.25215 0.14744
5330 22.18320 1397.48132 1188.62875 0.14793
5331 22.18680 1367.63388 1172.95540 0.15042
5332 22.19040 1329.89132 1151.19864 0.15335
5333 22.19400 1285.65843 1123.36803 0.13903
5334 22.19760 1236.42188 1097.98551 0.15525
5335 22.20120 1183.68556 1068.56098 0.15935
5336 22.20480 1128.87447 1039.19337 0.15865
5337 22.20840 1073.29175 1004.07746 0.13831
5338 22.21200 1018.09301 969.92589 0.15661
5339 22.21560 964.27656 943.43557 0.15616
5340 22.21920 912.68443 911.16159 0.17767
5341 22.22280 864.00799 878.87321 0.18753
5342 22.22640 818.80149 854.21776 0.20743
5343 22.23000 777.49141 830.56130 0.21295
5344 22.23360 740.38964 806.06272 0.21967
5345 22.23720 707.70553 784.18777 0.22457
5346 22.24080 679.55796 762.18010 0.23242
5347 22.24440 655.98678 745.70117 0.23679
5348 22.24800 636.96355 733.11633 0.24182
5349 22.25160 622.40140 721.75934 0.24575
5350 22.25520 612.16359 715.74806 0.24780
5351 22.25880 606.07069 707.77653 0.25088
5352 22.26240 603.90628 698.43614 0.25419
5353 22.26600 605.42095 695.92392 0.25525
5354 22.26960 610.33449 696.17551 0.25558
5355 22.27320 618.33660 700.42664 0.25354
5356 22.27680 629.08617 705.02626 0.25200
5357 22.28040 642.20865 712.39096 0.24911
5358 22.28400 657.29283 717.61489 0.24764
5359 22.28760 673.88699 726.92516 0.24437
5360 22.29120 691.49515 735.66784 0.24114
5361 22.29480 709.57504 746.36577 0.23826
5362 22.29840 727.53988 757.02470 0.23445
5363 22.30200 744.76631 772.50009 0.22969
5364 22.30560 760.61039 781.69949 0.22736
5365 22.30920 774.43428 788.49666 0.22477
5366 22.31280 785.64256 797.89399 0.22323
5367 22.31640 793.72488 805.62826 0.21972
5368 22.32000 798.29748 805.50125 0.22008
5369 22.32360 799.13647 807.02488 0.21977
5370 22.32720 796.19400 806.55919 0.21954
5371 22.33080 789.59294 801.79203 0.22071
5372 22.33440 779.60066 789.49297 0.22434
5373 22.33800 766.58946 781.17071 0.22725
5374 22.34160 750.99272 773.24943 0.22951
5375 22.34520 733.26639 761.07043 0.23254
5376 22.34880 713.84955 742.63366 0.23906
5377 22.35240 693.15961 723.75025 0.22708
5378 22.35600 671.57714 704.17484 0.25121
5379 22.35960 649.44748 686.60225 0.25853
5380 22.36320 627.08488 666.94987 0.26625
5381 22.36680 604.77653 645.77839 0.27560
5382 22.37040 582.78397 623.87025 0.28501
5383 22.37400 561.34167 606.39637 0.29318
5384 22.37760 540.65408 584.40187 0.30416
5385 22.38120 520.89233 567.66885 0.31367
5386 22.38480 502.19150 548.06771 0.32425
5387 22.38840 484.64982 527.63785 0.33492
5388 22.39200 468.32988 507.88304 0.35012
5389 22.39560 453.26159 492.52781 0.36187
5390 22.39920 439.44618 477.98662 0.37253
5391 22.40280 426.86086 461.06128 0.38585
5392 22.40640 415.46371 448.67333 0.39724
5393 22.41000 405.19815 436.73565 0.40743
5394 22.41360 395.99739 425.40910 0.41934
5395 22.41720 387.78796 417.81472 0.42653
5396 22.42080 380.49285 410.20793 0.43436
5397 22.42440 374.03410 400.41330 0.44490
5398 22.42800 368.33485 394.46112 0.45156
5399 22.43160 363.32109 388.02787 0.45786
5400 22.43520 358.92220 379.45500 0.47033
5401 22.43880 355.06677 374.31589 0.47674
5402 22.44240 351.70698 370.16270 0.48228
5403 22.44600 348.78294 367.21990 0.48584
5404 22.44960 346.24688 363.75946 0.49069
5405 22.45320 344.05469 360.74459 0.49440
5406 22.45680 342.18008 356.24997 0.49960
5407 22.46040 340.57222 354.72356 0.50146
5408 22.46400 339.21561 352.59432 0.50651
5409 22.46760 338.09077 350.25285 0.50965
5410 22.47120 337.18317 349.59861 0.50958
5411 22.47480 336.48348 348.67837 0.51137
5412 22.47840 335.98857 346.56752 0.51442
5413 22.48200 335.71483 344.65544 0.51747
5414 22.48560 335.63447 343.92827 0.51777
5415 22.48920 335.77513 343.22191 0.51971
5416 22.49280 336.15361 343.53450 0.51905
5417 22.49640 336.79388 344.38556 0.51861
5418 22.50000 337.71791 345.49894 0.51610
5419 22.50360 338.95765 345.87203 0.51744
5420 22.50720 340.55007 346.55724 0.51562
5421 22.51080 342.53526 348.16328 0.51296
5422 22.51440 344.95673 350.32112 0.50876
5423 22.51800 347.86058 351.87535 0.50862
5424 22.52160 351.29416 353.39269 0.50475
5425 22.52520 355.30465 356.76315 0.50048
5426 22.52880 359.93725 361.26848 0.49419
5427 22.53240 365.23339 362.27107 0.49349
5428 22.53600 371.22703 366.33422 0.48723
5429 22.53960 377.94435 369.32523 0.48314
5430 22.54320 385.39961 373.41489 0.47831
5431 22.54680 393.59275 378.03007 0.47209
5432 22.55040 402.50639 384.92427 0.46454
5433 22.55400 412.09585 390.21104 0.45772
5434 22.55760 422.28650 395.29954 0.45237
5435 22.56120 433.04787 401.38452 0.44532
5436 22.56480 444.23771 407.71931 0.43829
5437 22.56840 455.71267 410.86299 0.43400
5438 22.57200 467.29747 419.99944 0.42570
5439 22.57560 478.77668 428.51222 0.41606
5440 22.57920 489.89497 433.72494 0.41106
5441 22.58280 500.43688 438.46494 0.40657
5442 22.58640 510.08467 443.14171 0.40309
5443 22.59000 518.53474 447.77520 0.39897
5444 22.59360 525.49657 450.34400 0.39583
5445 22.59720 530.71768 455.03725 0.39250
5446 22.60080 533.98066 455.64583 0.39139
5447 22.60440 535.16771 456.56375 0.39092
5448 22.60800 534.24674 460.72464 0.38776
5449 22.61160 531.28154 460.65732 0.38745
5450 22.61520 526.42429 457.80081 0.39029
5451 22.61880 519.90357 455.41650 0.39168
5452 22.62240 511.97450 451.41321 0.39548
5453 22.62600 502.93344 447.75479 0.39900
5454 22.62960 493.07220 444.84423 0.40071
5455 22.63320 482.66602 439.82389 0.40557
5456 22.63680 471.96397 431.93134 0.41449
5457 22.64040 461.18325 429.09558 0.41701
5458 22.64400 450.50789 422.39224 0.42294
5459 22.64760 440.08964 416.41298 0.42913
5460 22.65120 430.05079 410.73082 0.43438
5461 22.65480 420.48739 408.02929 0.43769
5462 22.65840 411.47291 404.52459 0.44114
5463 22.66200 403.06146 399.06752 0.44855
5464 22.66560 395.29088 393.45493 0.45392
5465 22.66920 388.18538 392.08291 0.45587
5466 22.67280 381.75872 387.48598 0.46068
5467 22.67640 376.01269 382.25766 0.46873
5468 22.68000 370.94422 379.40788 0.47094
5469 22.68360 366.54657 377.76311 0.47261
5470 22.68720 362.79996 374.48864 0.47736
5471 22.69080 359.69297 372.89129 0.47979
5472 22.69440 357.20330 371.10250 0.48206
5473 22.69800 355.31245 370.27610 0.48309
5474 22.70160 354.00207 368.32811 0.48635
5475 22.70520 353.25343 370.07569 0.48343
5476 22.70880 353.04837 368.18903 0.48544
5477 22.71240 353.36962 367.09003 0.48640
5478 22.71600 354.19956 368.31203 0.48410
5479 22.71960 355.51975 369.63073 0.48280
5480 22.72320 357.31174 370.27369 0.48255
5481 22.72680 359.55468 370.35082 0.48113
5482 22.73040 362.22488 374.66359 0.47628
5483 22.73400 365.29494 377.80809 0.47318
5484 22.73760 368.73285 378.60418 0.47136
5485 22.74120 372.50176 383.35804 0.46632
5486 22.74480 376.55704 387.14866 0.46300
5487 22.74840 380.84874 393.12686 0.45378
5488 22.75200 385.31969 394.68914 0.45313
5489 22.75560 389.90580 401.99529 0.44532
5490 22.75920 394.53707 403.58320 0.44262
5491 22.76280 399.13973 410.98292 0.43447
5492 22.76640 403.63979 419.49626 0.42708
5493 22.77000 407.96857 423.04180 0.42338
5494 22.77360 412.06987 427.26480 0.41826
5495 22.77720 415.90842 433.90235 0.41195
5496 22.78080 419.47827 440.29761 0.40545
5497 22.78440 422.80989 444.85101 0.40151
5498 22.78800 425.97635 446.17434 0.40135
5499 22.79160 429.08344 451.75162 0.39492
5500 22.79520 432.28052 458.27867 0.38902
5501 22.79880 435.74333 460.87093 0.38728
5502 22.80240 439.66691 463.30191 0.38557
5503 22.80600 444.25603 469.19312 0.38102
5504 22.80960 449.71598 473.69945 0.37716
5505 22.81320 456.24367 477.35015 0.37366
5506 22.81680 464.01843 482.84978 0.37039
5507 22.82040 473.21397 488.42146 0.36585
5508 22.82400 483.96221 495.16349 0.36027
5509 22.82760 496.36904 500.41670 0.35638
5510 22.83120 510.50451 511.37428 0.34778
5511 22.83480 526.39735 524.15183 0.34019
5512 22.83840 544.02982 532.43632 0.33476
5513 22.84200 563.33257 545.70838 0.32697
5514 22.84560 584.17964 559.83503 0.31876
5515 22.84920 606.38342 575.68027 0.30989
5516 22.85280 629.69002 589.56810 0.30292
5517 22.85640 653.77516 607.11054 0.29386
5518 22.86000 678.24121 624.14249 0.28573
5519 22.86360 702.61656 639.62753 0.27825
5520 22.86720 726.35911 658.56010 0.26963
5521 22.87080 748.86598 672.33237 0.26411
5522 22.87440 769.49203 686.56289 0.25085
5523 22.87800 787.57889 701.77274 0.25337
5524 22.88160 802.49297 710.42928 0.25033
5525 22.88520 813.67308 718.82148 0.24732
5526 22.88880 820.69596 720.72872 0.24665
5527 22.89240 823.28559 722.10819 0.24613
5528 22.89600 821.36657 721.74228 0.24556
5529 22.89960 815.06553 720.84407 0.24752
5530 22.90320 804.69656 711.74543 0.24939
5531 22.90680 790.72944 699.13309 0.25394
5532 22.91040 773.74674 694.38785 0.25615
5533 22.91400 754.39690 679.08289 0.26185
5534 22.91760 733.35153 668.99661 0.26649
5535 22.92120 711.27068 655.85129 0.27190
5536 22.92480 688.77786 643.67012 0.27748
5537 22.92840 666.44458 632.49489 0.28135
5538 22.93200 644.78242 620.08962 0.28704
5539 22.93560 624.24075 606.46285 0.28706
5540 22.93920 605.20789 594.50559 0.30063
5541 22.94280 588.01419 587.28650 0.30349
5542 22.94640 572.93596 581.31917 0.30737
5543 22.95000 560.19955 574.96849 0.31043
5544 22.95360 549.98519 572.04213 0.31159
5545 22.95720 542.42999 568.94031 0.31425
5546 22.96080 537.63323 567.46625 0.31422
5547 22.96440 535.65543 569.00134 0.31362
5548 22.96800 536.52190 571.49356 0.31168
5549 22.97160 540.22377 578.40417 0.30829
5550 22.97520 546.71817 588.40842 0.30253
5551 22.97880 555.92785 594.30630 0.29960
5552 22.98240 567.74012 604.79670 0.29423
5553 22.98600 582.00515 619.13762 0.28819
5554 22.98960 598.53378 637.83789 0.27994
5555 22.99320 617.09888 652.99905 0.26903
5556 22.99680 637.42177 674.91441 0.26434
5557 23.00040 659.17521 698.85132 0.24731
5558 23.00400 681.99434 721.03707 0.24721
5559 23.00760 705.46244 743.54311 0.23242
5560 23.01120 729.11815 770.58235 0.23124
5561 23.01480 752.46121 794.15292 0.22171
5562 23.01840 774.96168 817.46214 0.21804
5563 23.02200 796.07366 840.40803 0.21156
5564 23.02560 815.25496 855.55198 0.20782
5565 23.02920 831.99266 868.79129 0.20493
5566 23.03280 845.83510 886.32352 0.20065
5567 23.03640 856.42780 892.91798 0.19952
5568 23.04000 863.54849 890.55230 0.19926
5569 23.04360 867.13127 890.12403 0.19953
5570 23.04720 867.29235 884.61223 0.20073
5571 23.05080 864.31981 874.68877 0.20348
5572 23.05440 858.63365 865.15518 0.20628
5573 23.05800 850.76232 850.65825 0.20071
5574 23.06160 841.28996 833.19943 0.21306
5575 23.06520 830.80855 820.69013 0.21675
5576 23.06880 819.87708 802.23606 0.22220
5577 23.07240 808.99086 786.67687 0.22672
5578 23.07600 798.56116 778.91952 0.22918
5579 23.07960 788.90345 765.79742 0.23232
5580 23.08320 780.23191 758.54167 0.23534
5581 23.08680 772.65760 748.75016 0.23806
5582 23.09040 766.18908 744.82970 0.23914
5583 23.09400 760.73457 745.23691 0.24004
5584 23.09760 756.10660 745.89211 0.23941
5585 23.10120 752.03008 748.15555 0.23790
5586 23.10480 748.15564 750.62557 0.23748
5587 23.10840 744.07986 750.90155 0.23714
5588 23.11200 739.37759 753.09413 0.23599
5589 23.11560 733.63039 756.10032 0.23533
5590 23.11920 726.47025 757.10463 0.23568
5591 23.12280 717.61451 748.41397 0.23793
5592 23.12640 706.89452 746.79339 0.23839
5593 23.13000 694.26953 735.89007 0.24192
5594 23.13360 679.82456 718.11218 0.24706
5595 23.13720 663.75228 706.54740 0.25199
5596 23.14080 646.32582 687.62558 0.25960
5597 23.14440 627.86720 665.75094 0.26741
5598 23.14800 608.71733 647.73419 0.26016
5599 23.15160 589.21192 623.12774 0.27256
5600 23.15520 569.66431 599.55752 0.29872
5601 23.15880 550.35522 576.74147 0.31002
5602 23.16240 531.52767 554.25947 0.28614
5603 23.16600 513.38552 530.77756 0.33219
5604 23.16960 496.09069 513.93358 0.33242
5605 23.17320 479.77457 494.38319 0.36197
5606 23.17680 464.54221 480.30878 0.37218
5607 23.18040 450.45262 463.12056 0.38555
5608 23.18400 437.54366 448.71057 0.39846
5609 23.18760 425.82855 436.28615 0.41060
5610 23.19120 415.29896 423.72620 0.42332
5611 23.19480 405.92817 417.26862 0.43006
5612 23.19840 397.67418 408.36914 0.43900
5613 23.20200 390.48267 399.65668 0.44857
5614 23.20560 384.29016 393.41677 0.45567
5615 23.20920 379.03413 386.49776 0.46401
5616 23.21280 374.62669 381.66478 0.46966
5617 23.21640 370.99396 378.40008 0.47305
5618 23.22000 368.06123 374.37692 0.47829
5619 23.22360 365.75447 369.87453 0.48445
5620 23.22720 363.99462 366.21149 0.48992
5621 23.23080 362.71062 365.00655 0.49055
5622 23.23440 361.83384 363.21172 0.49397
5623 23.23800 361.29828 360.45053 0.49799
5624 23.24160 361.04170 359.62752 0.49919
5625 23.24520 361.00601 358.13675 0.50059
5626 23.24880 361.13778 361.30819 0.49743
5627 23.25240 361.38855 358.85668 0.50023
5628 23.25600 361.71485 359.18227 0.50003
5629 23.25960 362.07788 358.38456 0.50059
5630 23.26320 362.44266 362.12345 0.49500
5631 23.26680 362.77700 364.03303 0.49348
5632 23.27040 363.05052 363.64218 0.49380
5633 23.27400 363.23413 361.42549 0.49644
5634 23.27760 363.30032 362.09299 0.49484
5635 23.28120 363.22432 365.22819 0.49081
5636 23.28480 362.98612 364.19152 0.49228
5637 23.28840 362.57283 363.71915 0.49319
5638 23.29200 361.98084 362.33206 0.49593
5639 23.29560 361.21733 362.13732 0.49491
5640 23.29920 360.30045 359.27332 0.49871
5641 23.30280 359.25825 359.66188 0.49858
5642 23.30640 358.12652 358.39686 0.50127
5643 23.31000 356.94622 353.86682 0.50722
5644 23.31360 355.76298 353.00196 0.50865
5645 23.31720 354.61877 352.98952 0.50915
5646 23.32080 353.55295 349.97379 0.51286
5647 23.32440 352.60886 349.26931 0.51324
5648 23.32800 351.82346 348.43381 0.51509
5649 23.33160 351.23312 345.91882 0.51852
5650 23.33520 350.87225 346.78466 0.51615
5651 23.33880 350.77479 346.55312 0.51703
5652 23.34240 350.97418 350.39276 0.51123
5653 23.34600 351.50610 351.32653 0.51044
5654 23.34960 352.40839 352.66550 0.50823
5655 23.35320 353.72255 355.34007 0.50528
5656 23.35680 355.49450 359.51823 0.49851
5657 23.36040 357.77632 362.92574 0.49321
5658 23.36400 360.62697 366.30385 0.48737
5659 23.36760 364.11655 369.80406 0.48389
5660 23.37120 368.31295 375.82943 0.47551
5661 23.37480 373.30369 381.01807 0.46936
5662 23.37840 379.18214 389.84317 0.45841
5663 23.38200 386.05041 395.42801 0.45234
5664 23.38560 394.02340 403.70105 0.44398
5665 23.38920 403.21234 416.36136 0.42944
5666 23.39280 413.73614 425.05169 0.42154
5667 23.39640 425.72247 437.59064 0.40904
5668 23.40000 439.29334 450.92472 0.39618
5669 23.40360 454.56695 464.85022 0.38593
5670 23.40720 471.64973 481.54697 0.37169
5671 23.41080 490.62881 497.54030 0.34827
5672 23.41440 511.57512 523.30297 0.34116
5673 23.41800 534.52802 540.37075 0.33146
5674 23.42160 559.49077 566.07560 0.30750
5675 23.42520 586.42314 593.39314 0.29591
5676 23.42880 615.23443 621.65883 0.26530
5677 23.43240 645.77689 648.24271 0.21834
5678 23.43600 677.84032 680.26325 0.20828
5679 23.43960 711.14810 711.94015 0.22445
5680 23.44320 745.35515 745.14745 0.19699
5681 23.44680 780.04799 780.44486 0.20731
5682 23.45040 814.74672 810.73950 0.20946
5683 23.45400 848.90870 842.47680 0.18017
5684 23.45760 881.93401 875.08962 0.20369
5685 23.46120 913.17349 903.24601 0.17933
5686 23.46480 941.94126 928.75742 0.19165
5687 23.46840 967.53322 948.84534 0.18784
5688 23.47200 989.24863 968.55145 0.17974
5689 23.47560 1006.47366 985.97947 0.18050
5690 23.47920 1018.66206 1000.55837 0.17734
5691 23.48280 1025.42741 1007.48519 0.17526
5692 23.48640 1026.57436 1005.54237 0.17679
5693 23.49000 1022.11745 1001.50290 0.17724
5694 23.49360 1012.26307 989.29634 0.17974
5695 23.49720 997.45260 981.64886 0.18198
5696 23.50080 978.21366 962.77994 0.17021
5697 23.50440 955.16759 942.39200 0.18995
5698 23.50800 928.97810 925.05246 0.18368
5699 23.51160 900.31017 892.36585 0.17722
5700 23.51520 869.80612 864.94862 0.18136
5701 23.51880 838.07287 835.81025 0.19721
5702 23.52240 805.67631 805.12766 0.17886
5703 23.52600 773.13852 775.02892 0.18666
5704 23.52960 740.93485 743.70015 0.19674
5705 23.53320 709.49006 710.91119 0.20755
5706 23.53680 679.17391 680.27906 0.20600
5707 23.54040 650.29716 653.62646 0.24505
5708 23.54400 623.10924 627.70836 0.24618
5709 23.54760 597.79842 600.32556 0.26134
5710 23.55120 574.49916 577.44625 0.31006
5711 23.55480 553.27572 555.71556 0.30612
5712 23.55840 534.15865 539.05711 0.33206
5713 23.56200 517.13200 525.29801 0.34141
5714 23.56560 502.14396 511.20634 0.35078
5715 23.56920 489.11387 499.49763 0.36021
5716 23.57280 477.93852 489.43944 0.36645
5717 23.57640 468.49946 476.63593 0.37659
5718 23.58000 460.66337 472.39873 0.37975
5719 23.58360 454.28939 464.06982 0.38653
5720 23.58720 449.23863 459.16185 0.39101
5721 23.59080 445.37272 455.66688 0.39384
5722 23.59440 442.56059 451.98034 0.39785
5723 23.59800 440.68357 451.04057 0.39813
5724 23.60160 439.64045 447.96491 0.40195
5725 23.60520 439.35186 444.65266 0.40377
5726 23.60880 439.76333 445.01674 0.40303
5727 23.61240 440.84642 444.72886 0.40286
5728 23.61600 442.59739 449.32966 0.39947
5729 23.61960 445.03329 444.47545 0.40375
5730 23.62320 448.18641 445.68647 0.40199
5731 23.62680 452.09757 447.83805 0.39938
5732 23.63040 456.80915 448.52735 0.40034
5733 23.63400 462.35857 448.82572 0.39949
5734 23.63760 468.77243 451.59267 0.39688
5735 23.64120 476.06144 456.88783 0.39186
5736 23.64480 484.21616 463.21795 0.38814
5737 23.64840 493.20320 468.60255 0.38147
5738 23.65200 502.96211 477.23222 0.37446
5739 23.65560 513.40312 481.87699 0.37300
5740 23.65920 524.40596 489.71281 0.36611
5741 23.66280 535.82069 501.43519 0.35719
5742 23.66640 547.47091 507.80340 0.35207
5743 23.67000 559.16020 517.31699 0.34639
5744 23.67360 570.68083 527.85139 0.33809
5745 23.67720 581.82566 535.97697 0.33401
5746 23.68080 592.39965 544.94947 0.32899
5747 23.68440 602.22963 556.48205 0.32187
5748 23.68800 611.16970 558.59087 0.32082
5749 23.69160 619.10247 564.59547 0.31699
5750 23.69520 625.94894 572.69777 0.31284
5751 23.69880 631.60103 575.06560 0.31123
5752 23.70240 635.99647 577.13168 0.31075
5753 23.70600 639.06979 579.02259 0.30938
5754 23.70960 640.76023 579.86917 0.30873
5755 23.71320 641.01649 579.59732 0.30794
5756 23.71680 639.81461 578.42559 0.30848
5757 23.72040 637.17139 573.29544 0.31170
5758 23.72400 633.15704 569.35117 0.31430
5759 23.72760 627.90221 567.11957 0.31521
5760 23.73120 621.59648 562.13574 0.31719
5761 23.73480 614.47849 556.67548 0.32142
5762 23.73840 606.81953 549.21994 0.32574
5763 23.74200 598.90438 546.85829 0.32737
5764 23.74560 591.01214 541.15101 0.33230
5765 23.74920 583.39988 535.55311 0.33452
5766 23.75280 576.29037 533.66292 0.33598
5767 23.75640 569.86256 529.35221 0.33906
5768 23.76000 564.25517 525.86373 0.34154
5769 23.76360 559.55566 524.67895 0.34118
5770 23.76720 555.80353 526.07326 0.34089
5771 23.77080 552.99426 528.02799 0.33993
5772 23.77440 551.08085 528.13460 0.33928
5773 23.77800 549.97800 533.24091 0.33611
5774 23.78160 549.56804 538.11025 0.33344
5775 23.78520 549.70914 540.87128 0.33151
5776 23.78880 550.24718 546.62614 0.32799
5777 23.79240 551.02986 548.27365 0.32652
5778 23.79600 551.92062 554.29966 0.32273
5779 23.79960 552.81534 560.35801 0.31911
5780 23.80320 553.65410 565.62615 0.31642
5781 23.80680 554.42836 568.83681 0.31421
5782 23.81040 555.18118 569.20347 0.31389
5783 23.81400 556.00057 574.41255 0.31134
5784 23.81760 557.00784 577.20758 0.31105
5785 23.82120 558.34341 580.26755 0.30901
5786 23.82480 560.15194 582.46490 0.30722
5787 23.82840 562.56930 587.43561 0.30433
5788 23.83200 565.71206 591.37014 0.30249
5789 23.83560 569.66979 592.67588 0.30210
5790 23.83920 574.49994 600.48558 0.29797
5791 23.84280 580.22490 604.31758 0.29632
5792 23.84640 586.83132 611.82129 0.29227
5793 23.85000 594.27166 619.30453 0.28871
5794 23.85360 602.46858 628.62142 0.28430
5795 23.85720 611.32231 637.26617 0.28107
5796 23.86080 620.72083 650.35130 0.27538
5797 23.86440 630.55226 657.61200 0.27174
5798 23.86800 640.71698 665.15295 0.26864
5799 23.87160 651.12919 674.18216 0.26473
5800 23.87520 661.73353 684.33661 0.26011
5801 23.87880 672.49203 697.22789 0.25614
5802 23.88240 683.37538 708.02852 0.25223
5803 23.88600 694.35095 713.77135 0.25022
5804 23.88960 705.36397 725.88069 0.24577
5805 23.89320 716.32242 738.17258 0.24270
5806 23.89680 727.08487 747.27887 0.23918
5807 23.90040 737.45374 756.68595 0.23580
5808 23.90400 747.17448 767.18948 0.23246
5809 23.90760 755.94125 775.38824 0.22991
5810 23.91120 763.40844 781.32763 0.22852
5811 23.91480 769.20766 791.71365 0.22493
5812 23.91840 772.96965 800.55122 0.22264
5813 23.92200 774.34998 798.29772 0.22303
5814 23.92560 773.05689 799.29572 0.22276
5815 23.92920 768.87883 797.16962 0.22344
5816 23.93280 761.70743 792.00958 0.22559
5817 23.93640 751.55342 787.01180 0.22733
5818 23.94000 738.54954 774.76229 0.23043
5819 23.94360 722.94186 757.54971 0.23630
5820 23.94720 705.07954 739.76652 0.24210
5821 23.95080 685.36301 721.00888 0.24815
5822 23.95440 664.23537 701.94145 0.24581
5823 23.95800 642.14066 677.47089 0.24534
5824 23.96160 619.50473 650.03166 0.23629
5825 23.96520 596.71868 625.43761 0.28616
5826 23.96880 574.12870 602.55886 0.25706
5827 23.97240 552.03169 576.27372 0.28167
5828 23.97600 530.67471 554.27315 0.32315
5829 23.97960 510.25687 532.97103 0.33712
5830 23.98320 490.93249 510.71316 0.35198
5831 23.98680 472.81498 491.92688 0.36413
5832 23.99040 455.98606 474.79549 0.37836
5833 23.99400 440.48079 460.80619 0.38984
5834 23.99760 426.31519 445.19487 0.40285
5835 24.00120 413.48178 430.87246 0.41595
5836 24.00480 401.95075 420.03705 0.42737
5837 24.00840 391.67282 410.54439 0.43629
5838 24.01200 382.58810 400.32874 0.44774
5839 24.01560 374.62537 390.32878 0.45852
5840 24.01920 367.70676 383.55079 0.46766
5841 24.02280 361.74989 376.74002 0.47645
5842 24.02640 356.67027 368.99541 0.48648
5843 24.03000 352.38320 365.14571 0.49128
5844 24.03360 348.80521 359.39949 0.49866
5845 24.03720 345.85506 353.42638 0.50753
5846 24.04080 343.45445 350.97140 0.51131
5847 24.04440 341.52872 348.10741 0.51748
5848 24.04800 340.00617 346.69037 0.51951
5849 24.05160 338.81717 342.16742 0.52565
5850 24.05520 337.89643 341.28818 0.52798
5851 24.05880 337.18120 339.37310 0.53167
5852 24.06240 336.61115 336.56612 0.53437
5853 24.06600 336.12893 336.93995 0.53430
5854 24.06960 335.68089 336.29901 0.53638
5855 24.07320 335.21835 336.01930 0.53632
5856 24.07680 334.69925 335.69188 0.53476
5857 24.08040 334.08998 334.63875 0.53626
5858 24.08400 333.36697 332.35116 0.54082
5859 24.08760 332.51773 331.87077 0.54091
5860 24.09120 331.54097 329.36349 0.54571
5861 24.09480 330.44565 330.30001 0.54646
5862 24.09840 329.24919 328.21258 0.54777
5863 24.10200 327.97521 326.94210 0.54817
5864 24.10560 326.65112 323.91907 0.55527
5865 24.10920 325.30599 319.53384 0.56365
5866 24.11280 323.96884 316.84305 0.56787
5867 24.11640 322.66756 315.28082 0.56988
5868 24.12000 321.42827 313.00368 0.57513
5869 24.12360 320.27516 311.99272 0.57562
5870 24.12720 319.23053 309.63713 0.58110
5871 24.13080 318.31684 309.38169 0.58084
5872 24.13440 317.55124 309.19745 0.58238
5873 24.13800 316.95255 307.91978 0.58351
5874 24.14160 316.54066 306.35686 0.58775
5875 24.14520 316.33504 308.91732 0.58172
5876 24.14880 316.35638 307.07587 0.58588
5877 24.15240 316.62754 307.14594 0.58650
5878 24.15600 317.17260 308.13265 0.58553
5879 24.15960 318.01986 309.82013 0.58017
5880 24.16320 319.20079 311.11410 0.57806
5881 24.16680 320.75083 313.65626 0.57361
5882 24.17040 322.70962 313.12988 0.57371
5883 24.17400 325.12116 313.55532 0.57470
5884 24.17760 328.03360 318.12338 0.56671
5885 24.18120 331.49890 319.08415 0.56448
5886 24.18480 335.57207 322.66970 0.55757
5887 24.18840 340.31014 328.01740 0.54933
5888 24.19200 345.77077 332.52423 0.54111
5889 24.19560 352.01050 337.38428 0.53441
5890 24.19920 359.07809 342.29299 0.52454
5891 24.20280 366.99326 347.60046 0.51657
5892 24.20640 375.86310 354.88933 0.50706
5893 24.21000 385.68270 363.06459 0.49588
5894 24.21360 396.45835 368.78723 0.48800
5895 24.21720 408.17221 378.50852 0.47479
5896 24.22080 420.84422 388.32213 0.46362
5897 24.22440 434.40119 399.85581 0.44878
5898 24.22800 448.75407 411.31769 0.43583
5899 24.23160 463.76997 425.52010 0.42172
5900 24.23520 479.39186 435.88040 0.41108
5901 24.23880 495.39295 452.81996 0.39569
5902 24.24240 511.55292 470.39777 0.38082
5903 24.24600 527.61214 487.18538 0.36826
5904 24.24960 543.27219 498.62468 0.35937
5905 24.25320 558.20089 516.62823 0.34706
5906 24.25680 572.04187 533.44072 0.33594
5907 24.26040 584.42930 547.81138 0.32776
5908 24.26400 595.00762 560.47462 0.31873
5909 24.26760 603.45449 573.06876 0.31271
5910 24.27120 609.50364 582.69912 0.30765
5911 24.27480 612.95905 587.27170 0.30427
5912 24.27840 613.71040 591.99915 0.30287
5913 24.28200 611.79408 594.76551 0.30116
5914 24.28560 607.27463 592.21213 0.30298
5915 24.28920 600.32083 583.58315 0.30730
5916 24.29280 591.16896 577.07595 0.31090
5917 24.29640 580.10570 566.61811 0.31577
5918 24.30000 567.45076 554.53426 0.32253
5919 24.30360 553.54031 537.59727 0.33354
5920 24.30720 538.71165 523.10788 0.34318
5921 24.31080 523.29016 509.19967 0.35124
5922 24.31440 507.57863 494.12031 0.35909
5923 24.31800 491.84943 477.11461 0.37572
5924 24.32160 476.33961 461.73786 0.38877
5925 24.32520 461.24852 443.09458 0.40527
5926 24.32880 446.73738 430.34370 0.41757
5927 24.33240 432.93076 416.77116 0.43140
5928 24.33600 419.91881 404.99184 0.44473
5929 24.33960 407.76099 393.89271 0.45709
5930 24.34320 396.48647 382.19859 0.47094
5931 24.34680 386.10302 371.40169 0.48432
5932 24.35040 376.59300 366.24879 0.48995
5933 24.35400 367.92693 358.15138 0.50139
5934 24.35760 360.06133 351.22298 0.51016
5935 24.36120 352.94401 342.91551 0.52373
5936 24.36480 346.51792 339.62588 0.52727
5937 24.36840 340.72429 334.31383 0.53622
5938 24.37200 335.50517 330.95512 0.54135
5939 24.37560 330.80525 325.57381 0.55104
5940 24.37920 326.57285 320.75815 0.55909
5941 24.38280 322.76053 317.33616 0.56499
5942 24.38640 319.32509 313.27872 0.57058
5943 24.39000 316.22751 308.76229 0.57944
5944 24.39360 313.43264 305.86061 0.58774
5945 24.39720 310.90895 302.35546 0.59717
5946 24.40080 308.62831 300.82220 0.59901
5947 24.40440 306.56576 299.40031 0.60170
5948 24.40800 304.69923 296.60633 0.60907
5949 24.41160 303.00932 293.35144 0.61458
5950 24.41520 301.47904 292.47266 0.61597
5951 24.41880 300.09353 290.37011 0.62038
5952 24.42240 298.83981 287.72605 0.62487
5953 24.42600 297.70651 287.90816 0.62706
5954 24.42960 296.68366 286.16675 0.62956
5955 24.43320 295.76241 285.73556 0.63018
5956 24.43680 294.93494 285.36665 0.63088
5957 24.44040 294.19424 283.19588 0.63513
5958 24.44400 293.53402 282.01455 0.64081
5959 24.44760 292.94861 283.78242 0.63372
5960 24.45120 292.43291 283.76180 0.63320
5961 24.45480 291.98230 285.77702 0.62818
5962 24.45840 291.59268 287.35933 0.62602
5963 24.46200 291.26036 290.73952 0.61865
5964 24.46560 290.98213 293.23321 0.61333
5965 24.46920 290.75520 299.35709 0.60064
5966 24.47280 290.57724 306.72577 0.58591
5967 24.47640 290.44635 314.32437 0.57103
5968 24.48000 290.35612 322.82964 0.55514
5969 24.48360 290.24876 329.76649 0.54360
5970 24.48720 290.24480 335.03461 0.53699
5971 24.49080 290.29270 337.85999 0.53257
5972 24.49440 290.38541 339.55330 0.53185
5973 24.49800 290.52418 338.62688 0.53172
5974 24.50160 290.71105 334.19131 0.53793
5975 24.50520 290.95160 325.69099 0.55187
5976 24.50880 291.24922 319.96177 0.56396
5977 24.51240 291.60012 313.14636 0.57567
5978 24.51600 292.01370 307.09842 0.58666
5979 24.51960 292.49660 300.48846 0.59942
5980 24.52320 293.06965 294.42400 0.61130
5981 24.52680 293.73161 290.92469 0.61730
5982 24.53040 294.49873 288.16737 0.62503
5983 24.53400 295.38631 285.26731 0.63121
5984 24.53760 296.41225 287.38697 0.62539
5985 24.54120 297.59725 288.21280 0.62425
5986 24.54480 298.96579 289.09009 0.62212
5987 24.54840 300.54389 289.17718 0.62139
5988 24.55200 302.36023 291.24399 0.61597
5989 24.55560 304.44852 293.18535 0.61518
5990 24.55920 306.84421 295.23543 0.60980
5991 24.56280 309.58502 297.96833 0.60287
5992 24.56640 312.71036 299.95717 0.59839
5993 24.57000 316.26054 301.70919 0.59694
5994 24.57360 320.27671 304.54512 0.59062
5995 24.57720 324.79545 308.51115 0.58159
5996 24.58080 329.85374 312.19459 0.57515
5997 24.58440 335.48798 316.84613 0.56794
5998 24.58800 341.71375 323.85047 0.55629
5999 24.59160 348.55234 330.71095 0.54345
6000 24.59520 356.01113 336.69287 0.53396
6001 24.59880 364.08488 344.93319 0.52071
6002 24.60240 372.75407 353.81405 0.50790
6003 24.60600 381.98282 361.95355 0.49706
6004 24.60960 391.71675 373.06484 0.47810
6005 24.61320 401.88090 387.88337 0.46241
6006 24.61680 412.37769 400.34686 0.44774
6007 24.62040 423.08506 416.43561 0.43083
6008 24.62400 433.85496 433.25555 0.38311
6009 24.62760 444.51295 450.49839 0.39937
6010 24.63120 454.86474 470.38575 0.33977
6011 24.63480 464.67256 490.34037 0.34272
6012 24.63840 473.69387 509.75255 0.29573
6013 24.64200 481.69569 530.50003 0.33826
6014 24.64560 488.43200 543.11013 0.33105
6015 24.64920 493.67798 559.65515 0.31983
6016 24.65280 497.25670 571.67245 0.31294
6017 24.65640 499.04725 576.26560 0.31065
6018 24.66000 498.99886 578.06132 0.30930
6019 24.66360 497.13588 576.86618 0.31067
6020 24.66720 493.55487 577.21822 0.31029
6021 24.67080 488.41379 565.71266 0.31620
6022 24.67440 481.91704 555.12578 0.32365
6023 24.67800 474.29801 542.54028 0.33127
6024 24.68160 465.80239 528.90170 0.33915
6025 24.68520 456.67402 511.24621 0.35108
6026 24.68880 447.14448 496.37569 0.36219
6027 24.69240 437.42605 479.98754 0.37503
6028 24.69600 427.70777 465.63914 0.38584
6029 24.69960 418.15372 449.76507 0.39895
6030 24.70320 408.90297 434.73717 0.41289
6031 24.70680 400.07043 425.24824 0.42345
6032 24.71040 391.74837 410.47141 0.43656
6033 24.71400 384.00832 403.53192 0.44419
6034 24.71760 376.90297 396.49228 0.45299
6035 24.72120 370.46848 390.65479 0.45998
6036 24.72480 364.72895 384.14260 0.46608
6037 24.72840 359.68372 379.89792 0.47257
6038 24.73200 355.32761 375.60626 0.47807
6039 24.73560 351.68437 373.00489 0.48089
6040 24.73920 348.72269 373.51892 0.48005
6041 24.74280 346.42659 373.50123 0.48191
6042 24.74640 344.77972 369.29213 0.48800
6043 24.75000 343.76799 370.89721 0.48406
6044 24.75360 343.37575 371.32447 0.48269
6045 24.75720 343.59608 373.04596 0.48231
6046 24.76080 344.42879 375.59523 0.47970
6047 24.76440 345.88087 376.17637 0.47789
6048 24.76800 347.96865 379.22630 0.47421
6049 24.77160 350.71882 382.90521 0.46873
6050 24.77520 354.16939 386.96362 0.46347
6051 24.77880 358.37030 394.23705 0.45597
6052 24.78240 363.38387 397.91937 0.45106
6053 24.78600 369.28479 405.16808 0.44280
6054 24.78960 376.16004 412.31819 0.43484
6055 24.79320 384.10770 419.56664 0.42816
6056 24.79680 393.23662 426.90887 0.42094
6057 24.80040 403.66442 437.32604 0.41051
6058 24.80400 415.51553 449.28460 0.39931
6059 24.80760 428.91787 458.64832 0.39064
6060 24.81120 444.00175 471.90867 0.37991
6061 24.81480 460.89628 486.06188 0.36914
6062 24.81840 479.71965 500.80790 0.35773
6063 24.82200 500.57839 516.23847 0.34691
6064 24.82560 523.55930 534.34044 0.33538
6065 24.82920 548.72210 552.58532 0.31224
6066 24.83280 576.09129 573.75422 0.31490
6067 24.83640 605.64776 597.80638 0.27503
6068 24.84000 637.32013 622.83701 0.23404
6069 24.84360 670.97632 649.85726 0.21796
6070 24.84720 706.41564 678.85475 0.23977
6071 24.85080 743.36139 708.96131 0.18474
6072 24.85440 781.45495 738.16266 0.19511
6073 24.85800 820.25120 776.45342 0.17587
6074 24.86160 859.21650 806.74596 0.17017
6075 24.86520 897.72985 843.59494 0.19214
6076 24.86880 935.08779 871.87502 0.18587
6077 24.87240 970.51406 898.11840 0.18111
6078 24.87600 1003.18726 921.10487 0.17570
6079 24.87960 1032.25102 940.77016 0.17133
6080 24.88320 1056.86107 958.48433 0.16874
6081 24.88680 1076.22843 970.31287 0.16685
6082 24.89040 1089.67179 973.71779 0.16650
6083 24.89400 1096.67322 974.21376 0.16789
6084 24.89760 1096.92838 968.37691 0.16940
6085 24.90120 1090.36726 953.67022 0.17354
6086 24.90480 1077.19040 939.88627 0.16542
6087 24.90840 1057.83742 910.02583 0.12819
6088 24.91200 1032.95286 886.43489 0.14093
6089 24.91560 1003.32988 862.57045 0.13480
6090 24.91920 969.85292 832.19024 0.13296
6091 24.92280 933.43307 805.98420 0.15254
6092 24.92640 894.95906 777.00006 0.13136
6093 24.93000 855.26190 743.78205 0.14864
6094 24.93360 815.08985 719.50144 0.18577
6095 24.93720 775.09235 691.13727 0.17065
6096 24.94080 735.83944 664.36254 0.20078
6097 24.94440 697.78529 639.41170 0.21011
6098 24.94800 661.29888 615.11705 0.19435
6099 24.95160 626.66517 593.37351 0.22670
6100 24.95520 594.09224 572.46775 0.23483
6101 24.95880 563.71932 555.12564 0.24040
6102 24.96240 535.62448 535.19187 0.25113
6103 24.96600 509.83276 517.69046 0.25970
6104 24.96960 486.32374 502.93021 0.26792
6105 24.97320 465.03929 487.27948 0.27685
6106 24.97680 445.89088 471.32864 0.28615
6107 24.98040 428.76659 457.54858 0.29464
6108 24.98400 413.53798 449.00472 0.29997
6109 24.98760 400.06485 436.08308 0.30925
6110 24.99120 388.20235 431.88696 0.31309
6111 24.99480 377.80438 419.19411 0.32312
6112 24.99840 368.72768 407.74335 0.33064
6113 25.00200 360.83485 401.61653 0.33462
6114 25.00560 353.99660 394.81080 0.34122
6115 25.00920 348.09336 386.03840 0.34950
6116 25.01280 343.01612 380.34541 0.35435
6117 25.01640 338.66687 373.20956 0.36019
6118 25.02000 334.95850 369.09915 0.36445
6119 25.02360 331.81428 366.08635 0.36753
6120 25.02720 329.16715 360.60333 0.37334
6121 25.03080 326.95876 353.73672 0.38081
6122 25.03440 325.13841 352.40070 0.38149
6123 25.03800 323.66191 348.27366 0.38520
6124 25.04160 322.49041 346.82140 0.38822
6125 25.04520 321.58935 345.66302 0.39235
6126 25.04880 320.92732 339.55280 0.39874
6127 25.05240 320.47513 338.76131 0.39876
6128 25.05600 320.20491 336.62890 0.40160
6129 25.05960 320.08932 333.01032 0.40651
6130 25.06320 320.09941 330.40187 0.40879
6131 25.06680 320.19619 333.11195 0.40592
6132 25.07040 320.37622 330.90813 0.40793
6133 25.07400 320.59754 328.25985 0.41172
6134 25.07760 320.82903 328.56338 0.41354
6135 25.08120 321.04077 329.09136 0.41382
6136 25.08480 321.20434 329.57008 0.41535
6137 25.08840 321.29450 329.14865 0.43842
6138 25.09200 321.29100 328.39013 0.50411
6139 25.09560 321.18050 328.24059 0.44047
6140 25.09920 320.95807 324.77338 0.36933
6141 25.10280 320.62829 324.23356 0.45241
6142 25.10640 320.20542 324.65746 0.36390
6143 25.11000 319.71283 323.32090 0.45058
6144 25.11360 319.18170 320.57508 0.45656
6145 25.11720 318.64921 320.69074 0.45636
6146 25.12080 318.15615 321.28273 0.45585
6147 25.12440 317.73935 316.85945 0.46334
6148 25.12800 317.45625 318.91030 0.45933
6149 25.13160 317.34676 318.11982 0.46041
6150 25.13520 317.45136 317.61970 0.46154
6151 25.13880 317.81043 317.41784 0.46275
6152 25.14240 318.46175 317.16075 0.46511
6153 25.14600 319.44004 319.81181 0.46419
6154 25.14960 320.77641 318.95806 0.46961
6155 25.15320 322.49784 318.98194 0.47253
6156 25.15680 324.62647 320.71536 0.37939
6157 25.16040 327.17893 322.13498 0.42634
6158 25.16400 330.16550 323.93348 0.42229
6159 25.16760 333.58925 327.28695 0.41580
6160 25.17120 337.44516 328.61804 0.41117
6161 25.17480 341.72064 330.27458 0.40736
6162 25.17840 346.39389 333.92709 0.40377
6163 25.18200 351.42261 336.34588 0.40014
6164 25.18560 356.76612 342.71618 0.39109
6165 25.18920 362.36750 345.22756 0.38788
6166 25.19280 368.15818 350.86181 0.38134
6167 25.19640 374.05795 354.41556 0.37807
6168 25.20000 379.97542 363.37012 0.36884
6169 25.20360 385.80891 366.43012 0.36501
6170 25.20720 391.44860 371.33191 0.36018
6171 25.21080 396.77128 374.05182 0.35620
6172 25.21440 401.65672 379.96121 0.35136
6173 25.21800 405.98163 384.17402 0.34836
6174 25.22160 409.62863 385.50055 0.34566
6175 25.22520 412.49450 388.85738 0.34372
6176 25.22880 414.49870 393.92909 0.33906
6177 25.23240 415.59226 395.61458 0.33701
6178 25.23600 415.76268 396.28484 0.33804
6179 25.23960 415.03790 394.53208 0.34023
6180 25.24320 413.48412 392.08284 0.34179
6181 25.24680 411.19977 394.42853 0.33883
6182 25.25040 408.30683 392.08320 0.34157
6183 25.25400 404.94069 387.58170 0.34568
6184 25.25760 401.24008 384.96298 0.34856
6185 25.26120 397.33274 381.60073 0.35153
6186 25.26480 393.31045 380.47664 0.35315
6187 25.26840 389.35531 378.05600 0.35500
6188 25.27200 385.51664 374.59572 0.35769
6189 25.27560 381.86039 371.65884 0.35966
6190 25.27920 378.43459 370.39350 0.36225
6191 25.28280 375.26944 368.49985 0.36462
6192 25.28640 372.37232 367.11647 0.36483
6193 25.29000 369.73758 364.90881 0.36718
6194 25.29360 367.34382 366.21310 0.36683
6195 25.29720 365.15723 366.13228 0.36632
6196 25.30080 363.13534 363.81240 0.36926
6197 25.30440 361.23136 365.01574 0.36702
6198 25.30800 359.39900 366.71649 0.36575
6199 25.31160 357.59722 363.18227 0.37033
6200 25.31520 355.79447 363.13610 0.37085
6201 25.31880 353.97177 362.87679 0.37062
6202 25.32240 352.12410 361.08691 0.37172
6203 25.32600 350.26006 361.23848 0.37324
6204 25.32960 348.40020 361.57469 0.37226
6205 25.33320 346.57460 362.90353 0.36984
6206 25.33680 344.82013 359.51447 0.37333
6207 25.34040 343.17810 358.34448 0.44154
6208 25.34400 341.69232 359.20537 0.46321
6209 25.34760 340.40789 361.85204 0.40309
6210 25.35120 339.37032 360.23859 0.42055
6211 25.35480 338.62493 360.31278 0.40781
6212 25.35840 338.21640 357.66860 0.41647
6213 25.36200 338.18837 358.08861 0.45349
6214 25.36560 338.58282 360.09602 0.45054
6215 25.36920 339.43976 361.30130 0.44859
6216 25.37280 340.79674 361.80051 0.44877
6217 25.37640 342.68829 362.83688 0.44651
6218 25.38000 345.14550 365.36666 0.44468
6219 25.38360 348.19533 369.54407 0.44147
6220 25.38720 351.86005 373.28406 0.44075
6221 25.39080 356.15635 377.95264 0.43789
6222 25.39440 361.09452 380.39165 0.39467
6223 25.39800 366.67745 385.37596 0.37865
6224 25.40160 372.89977 390.45437 0.37155
6225 25.40520 379.74724 396.55324 0.36656
6226 25.40880 387.19643 400.26524 0.39120
6227 25.41240 395.21502 406.54186 0.40524
6228 25.41600 403.76269 415.69008 0.39444
6229 25.41960 412.79234 421.62062 0.38665
6230 25.42320 422.25159 427.22821 0.38064
6231 25.42680 432.08363 432.59933 0.37522
6232 25.43040 442.22725 439.86181 0.36881
6233 25.43400 452.61545 449.33169 0.36058
6234 25.43760 463.17240 453.53339 0.35697
6235 25.44120 473.80912 459.53184 0.35350
6236 25.44480 484.41892 466.43159 0.34886
6237 25.44840 494.87194 473.76313 0.34644
6238 25.45200 505.01300 481.56770 0.34347
6239 25.45560 514.66022 484.64253 0.31254
6240 25.45920 523.60725 493.69177 0.26802
6241 25.46280 531.62952 497.12537 0.26660
6242 25.46640 538.49447 499.07758 0.26485
6243 25.47000 543.97649 502.28368 0.26396
6244 25.47360 547.86991 503.38506 0.26255
6245 25.47720 550.01054 503.85459 0.26343
6246 25.48080 550.28866 507.62177 0.26192
6247 25.48440 548.66239 506.65424 0.26236
6248 25.48800 545.16183 504.13082 0.26421
6249 25.49160 539.88891 500.66550 0.26633
6250 25.49520 533.01008 494.98188 0.26882
6251 25.49880 524.74374 489.36597 0.27255
6252 25.50240 515.34463 482.56872 0.27555
6253 25.50600 505.08800 474.52432 0.27986
6254 25.50960 494.25634 469.75742 0.28285
6255 25.51320 483.12339 460.90228 0.28958
6256 25.51680 471.94545 452.08152 0.29517
6257 25.52040 460.96312 447.45663 0.29746
6258 25.52400 450.39067 440.34870 0.30332
6259 25.52760 440.41700 435.47618 0.30598
6260 25.53120 431.20565 431.00919 0.31041
6261 25.53480 422.89552 422.74852 0.31611
6262 25.53840 415.60191 417.70279 0.31934
6263 25.54200 409.41763 413.85186 0.32199
6264 25.54560 404.41404 409.35109 0.32589
6265 25.54920 400.63976 411.04275 0.32498
6266 25.55280 398.09888 410.30102 0.32464
6267 25.55640 396.85984 411.44343 0.32482
6268 25.56000 396.89256 411.50705 0.32549
6269 25.56360 398.16767 411.75564 0.32495
6270 25.56720 400.64157 414.64809 0.32250
6271 25.57080 404.25232 419.51212 0.31750
6272 25.57440 408.91996 423.94658 0.31608
6273 25.57800 414.55650 430.57993 0.31076
6274 25.58160 421.01851 439.82534 0.30313
6275 25.58520 428.17860 451.13831 0.29576
6276 25.58880 435.87638 460.38811 0.29072
6277 25.59240 443.92950 468.98510 0.28473
6278 25.59600 452.13279 480.89589 0.27743
6279 25.59960 460.26066 492.33473 0.27081
6280 25.60320 468.06881 505.42420 0.26358
6281 25.60680 475.29978 513.04799 0.25989
6282 25.61040 481.69175 522.70589 0.25563
6283 25.61400 486.99086 531.11273 0.25032
6284 25.61760 490.96676 541.13819 0.24466
6285 25.62120 493.42958 545.09888 0.24437
6286 25.62480 494.24620 542.15350 0.24546
6287 25.62840 493.35658 540.21916 0.24492
6288 25.63200 490.75814 540.43511 0.24669
6289 25.63560 486.53846 532.38459 0.25108
6290 25.63920 480.84052 522.32481 0.27273
6291 25.64280 473.84377 514.37455 0.32295
6292 25.64640 465.79754 503.61620 0.31579
6293 25.65000 456.92585 489.68004 0.28049
6294 25.65360 447.46231 477.99703 0.33404
6295 25.65720 437.62973 464.18960 0.29145
6296 25.66080 427.63441 447.51605 0.34284
6297 25.66440 417.64745 433.42716 0.37328
6298 25.66800 407.82596 419.62791 0.38646
6299 25.67160 398.29729 407.45349 0.37581
6300 25.67520 389.16377 397.84133 0.40810
6301 25.67880 380.50423 388.61973 0.41762
6302 25.68240 372.37563 379.90678 0.42666
6303 25.68600 364.81491 372.68211 0.43500
6304 25.68960 357.84088 365.07185 0.44326
6305 25.69320 351.45623 357.60153 0.45294
6306 25.69680 345.64966 353.82153 0.45923
6307 25.70040 340.39825 348.34007 0.46645
6308 25.70400 335.67006 342.59573 0.47253
6309 25.70760 331.42691 338.77201 0.48296
6310 25.71120 327.62741 337.87551 0.53724
6311 25.71480 324.23036 334.48649 0.54072
6312 25.71840 321.19565 331.15546 0.54379
6313 25.72200 318.48954 326.69045 0.54763
6314 25.72560 316.08439 322.97154 0.55294
6315 25.72920 313.96004 319.46735 0.56131
6316 25.73280 312.10391 317.25954 0.56721
6317 25.73640 310.51054 313.50747 0.57506
6318 25.74000 309.18065 311.89962 0.58227
6319 25.74360 308.12005 309.59274 0.55331
6320 25.74720 307.33849 305.94809 0.52912
6321 25.75080 306.84865 303.45443 0.53323
6322 25.75440 306.66516 301.94009 0.52416
6323 25.75800 306.80380 302.94064 0.52991
6324 25.76160 307.28072 300.92321 0.53482
6325 25.76520 308.11168 301.75728 0.53270
6326 25.76880 309.31119 299.98106 0.53648
6327 25.77240 310.89181 300.71540 0.53544
6328 25.77600 312.86313 299.90673 0.53845
6329 25.77960 315.23096 301.13980 0.53658
6330 25.78320 317.99633 301.57705 0.53589
6331 25.78680 321.15565 303.38042 0.53286
6332 25.79040 324.69518 305.43781 0.53130
6333 25.79400 328.59669 307.95192 0.52845
6334 25.79760 332.83237 309.26115 0.52996
6335 25.80120 337.36458 312.35092 0.52825
6336 25.80480 342.14518 319.09575 0.50232
6337 25.80840 347.11466 323.24952 0.41230
6338 25.81200 352.20180 324.76199 0.41029
6339 25.81560 357.32341 329.83004 0.40467
6340 25.81920 362.38499 336.73112 0.39595
6341 25.82280 367.28194 341.31420 0.39054
6342 25.82640 371.90211 345.77034 0.38504
6343 25.83000 376.12938 353.18428 0.37785
6344 25.83360 379.84997 358.62425 0.37245
6345 25.83720 382.95255 362.66683 0.36818
6346 25.84080 385.34366 366.30411 0.36412
6347 25.84440 386.94862 367.97911 0.36240
6348 25.84800 387.71798 370.52666 0.35910
6349 25.85160 387.63142 370.53310 0.35951
6350 25.85520 386.69853 369.25399 0.36070
6351 25.85880 384.95682 367.65925 0.36323
6352 25.86240 382.46707 364.98871 0.36592
6353 25.86600 379.30720 361.12714 0.36916
6354 25.86960 375.56574 358.76109 0.37105
6355 25.87320 371.33399 354.24524 0.37725
6356 25.87680 366.67901 350.19309 0.38069
6357 25.88040 361.74220 344.67595 0.38599
6358 25.88400 356.59328 339.02903 0.39293
6359 25.88760 351.30486 330.48628 0.40377
6360 25.89120 345.93485 326.56945 0.40769
6361 25.89480 340.58151 319.27323 0.41804
6362 25.89840 335.30832 314.95272 0.42380
6363 25.90200 330.16335 312.04324 0.42724
6364 25.90560 325.19729 307.29606 0.43332
6365 25.90920 320.45330 302.31012 0.44107
6366 25.91280 315.96530 298.24991 0.44765
6367 25.91640 311.76515 290.68750 0.45820
6368 25.92000 307.87422 287.95735 0.46326
6369 25.92360 304.30609 286.82461 0.46537
6370 25.92720 301.06984 285.50984 0.46770
6371 25.93080 298.16965 284.98612 0.46844
6372 25.93440 295.60906 280.73660 0.47754
6373 25.93800 293.37860 279.03437 0.47805
6374 25.94160 291.47424 278.21290 0.47858
6375 25.94520 289.88889 275.94526 0.48416
6376 25.94880 288.61312 274.36046 0.48639
6377 25.95240 287.63630 272.50194 0.48873
6378 25.95600 286.94685 272.94734 0.48983
6379 25.95960 286.53263 272.06740 0.49115
6380 25.96320 286.38606 272.10088 0.49013
6381 25.96680 286.48171 273.18602 0.48866
6382 25.97040 286.81019 272.62304 0.48934
6383 25.97400 287.35569 274.16773 0.48693
6384 25.97760 288.10078 271.63355 0.48983
6385 25.98120 289.02636 272.00273 0.49140
6386 25.98480 290.11130 273.08789 0.48911
6387 25.98840 291.33212 272.10611 0.50093
6388 25.99200 292.66259 275.09895 0.59621
6389 25.99560 294.07340 276.53094 0.58929
6390 25.99920 295.53189 278.90173 0.50073
6391 26.00280 297.00187 279.08806 0.56163
6392 26.00640 298.44374 275.72879 0.50928
6393 26.01000 299.81494 278.33010 0.55813
6394 26.01360 301.07095 281.35881 0.57637
6395 26.01720 302.16688 282.46740 0.57319
6396 26.02080 303.05970 281.01639 0.57669
6397 26.02440 303.71100 281.30024 0.57489
6398 26.02800 304.08993 282.73950 0.57440
6399 26.03160 304.17578 283.23259 0.57270
6400 26.03520 303.95999 284.09650 0.56906
6401 26.03880 303.44800 281.66513 0.57479
6402 26.04240 302.65450 281.57114 0.57452
6403 26.04600 301.60693 281.53453 0.57535
6404 26.04960 300.34057 280.88684 0.57760
6405 26.05320 298.89520 280.98516 0.57680
6406 26.05680 297.31259 280.26471 0.57880
6407 26.06040 295.63407 278.92655 0.63637
6408 26.06400 293.89878 276.23454 0.65685
6409 26.06760 292.14246 278.58615 0.64795
6410 26.07120 290.39690 275.19617 0.65020
6411 26.07480 288.68947 272.85335 0.65440
6412 26.07840 287.04355 272.90812 0.65439
6413 26.08200 285.47852 273.84220 0.65184
6414 26.08560 284.01004 272.34430 0.65519
6415 26.08920 282.65047 272.08750 0.65512
6416 26.09280 281.40923 271.81801 0.65520
6417 26.09640 280.29316 269.75053 0.66022
6418 26.10000 279.30683 271.83288 0.65633
6419 26.10360 278.45310 269.89585 0.65880
6420 26.10720 277.73340 272.30604 0.65223
6421 26.11080 277.14819 269.12039 0.65961
6422 26.11440 276.69735 270.97931 0.65649
6423 26.11800 276.38060 272.09603 0.65305
6424 26.12160 276.19793 272.62670 0.65200
6425 26.12520 276.15000 273.62882 0.65030
6426 26.12880 276.23851 273.27749 0.65149
6427 26.13240 276.46657 275.48025 0.64529
6428 26.13600 276.83906 276.30154 0.64381
6429 26.13960 277.36289 275.97351 0.64515
6430 26.14320 278.04730 278.73316 0.64000
6431 26.14680 278.90403 278.38032 0.64049
6432 26.15040 279.94749 280.52879 0.63587
6433 26.15400 281.19480 282.23934 0.62972
6434 26.15760 282.66272 282.54616 0.63052
6435 26.16120 284.37177 284.97894 0.62664
6436 26.16480 286.36023 287.54787 0.62049
6437 26.16840 288.64681 289.27379 0.61490
6438 26.17200 291.26045 294.12035 0.60709
6439 26.17560 294.23029 296.94864 0.60016
6440 26.17920 297.58554 299.56355 0.59411
6441 26.18280 301.35580 302.74039 0.58926
6442 26.18640 305.56859 308.68075 0.57828
6443 26.19000 310.24826 313.27265 0.56956
6444 26.19360 315.41538 315.76893 0.56578
6445 26.19720 321.08550 323.60188 0.55161
6446 26.20080 327.26686 329.98267 0.53960
6447 26.20440 333.95709 336.22053 0.53006
6448 26.20800 341.14716 341.45989 0.52201
6449 26.21160 348.81516 350.05667 0.50999
6450 26.21520 356.92603 358.36543 0.49897
6451 26.21880 365.42990 367.64285 0.48496
6452 26.22240 374.26053 377.68014 0.47113
6453 26.22600 383.33391 385.64877 0.46306
6454 26.22960 392.54703 397.65369 0.44038
6455 26.23320 401.77732 409.58365 0.43502
6456 26.23680 410.88284 422.73514 0.42217
6457 26.24040 419.70387 435.97356 0.40770
6458 26.24400 428.06626 447.59997 0.39702
6459 26.24760 435.78689 456.74415 0.38985
6460 26.25120 442.68140 466.04049 0.38120
6461 26.25480 448.57389 475.04430 0.37409
6462 26.25840 453.30762 483.71515 0.36850
6463 26.26200 456.75563 487.11881 0.36603
6464 26.26560 458.82166 491.47038 0.36221
6465 26.26920 459.43159 488.48987 0.36416
6466 26.27280 458.67842 487.16906 0.36441
6467 26.27640 456.56892 484.05757 0.36711
6468 26.28000 453.19304 478.50376 0.37185
6469 26.28360 448.69534 469.84869 0.37987
6470 26.28720 443.22797 460.39909 0.38656
6471 26.29080 436.96560 451.60242 0.39305
6472 26.29440 430.08962 439.14794 0.40499
6473 26.29800 422.77894 428.88087 0.41593
6474 26.30160 415.20261 418.56208 0.42541
6475 26.30520 407.51538 409.26224 0.43604
6476 26.30880 399.85355 401.97142 0.44416
6477 26.31240 392.32396 389.64988 0.45812
6478 26.31600 385.02232 379.89869 0.46989
6479 26.31960 378.01904 374.94269 0.47606
6480 26.32320 371.36424 368.33920 0.48529
6481 26.32680 365.08935 362.72083 0.49190
6482 26.33040 359.20929 355.39283 0.50251
6483 26.33400 353.72498 350.68647 0.50922
6484 26.33760 348.62638 345.34484 0.51784
6485 26.34120 343.89568 342.21555 0.52403
6486 26.34480 339.51074 339.14023 0.52649
6487 26.34840 335.44827 335.82667 0.53297
6488 26.35200 331.68658 332.91911 0.53774
6489 26.35560 328.20759 328.24637 0.54387
6490 26.35920 324.99790 323.15303 0.55269
6491 26.36280 322.04899 325.09619 0.55030
6492 26.36640 319.35670 324.27789 0.55145
6493 26.37000 316.92032 319.27448 0.56032
6494 26.37360 314.74143 318.22149 0.56043
6495 26.37720 312.82292 316.23754 0.56551
6496 26.38080 311.16814 314.20555 0.56935
6497 26.38440 309.78011 311.66174 0.57382
6498 26.38800 308.66142 310.65637 0.57543
6499 26.39160 307.81379 310.05887 0.57725
6500 26.39520 307.23792 310.40377 0.57664
6501 26.39880 306.93337 308.66006 0.57979
6502 26.40240 306.89843 312.61084 0.57208
6503 26.40600 307.13006 312.28316 0.57116
6504 26.40960 307.62357 312.76517 0.56991
6505 26.41320 308.37242 314.98603 0.56911
6506 26.41680 309.36844 315.13898 0.56585
6507 26.42040 310.60249 316.27643 0.56442
6508 26.42400 312.06169 318.24332 0.56286
6509 26.42760 313.72864 322.51245 0.55404
6510 26.43120 315.58306 325.26250 0.54902
6511 26.43480 317.59594 327.13315 0.54570
6512 26.43840 319.77846 330.16701 0.54077
6513 26.44200 322.08885 331.72164 0.53859
6514 26.44560 324.50214 335.37138 0.53307
6515 26.44920 326.99429 338.88899 0.52757
6516 26.45280 329.54397 341.09321 0.52251
6517 26.45640 332.13397 345.12833 0.51678
6518 26.46000 334.75376 348.03735 0.51249
6519 26.46360 337.40199 349.90875 0.51055
6520 26.46720 340.08537 354.32419 0.50293
6521 26.47080 342.82154 355.58601 0.50101
6522 26.47440 345.63432 359.87724 0.49701
6523 26.47800 348.55574 363.25660 0.49190
6524 26.48160 351.62665 362.08714 0.49382
6525 26.48520 354.88273 365.64593 0.48856
6526 26.48880 358.35922 370.30871 0.48307
6527 26.49240 362.08258 372.73686 0.47951
6528 26.49600 366.07573 374.18785 0.47773
6529 26.49960 370.35055 377.59507 0.47351
6530 26.50320 374.90828 381.02880 0.46798
6531 26.50680 379.73908 388.60950 0.45912
6532 26.51040 384.82224 392.48205 0.45502
6533 26.51400 390.12698 394.96638 0.45141
6534 26.51760 395.61406 400.14447 0.44430
6535 26.52120 401.23791 405.74390 0.43868
6536 26.52480 406.94933 411.91423 0.43336
6537 26.52840 412.69824 421.35628 0.42209
6538 26.53200 418.43693 428.40371 0.41719
6539 26.53560 424.12428 433.92020 0.41183
6540 26.53920 429.71593 437.20583 0.40970
6541 26.54280 435.17952 446.16036 0.40083
6542 26.54640 440.49436 450.31950 0.39763
6543 26.55000 445.64835 459.17659 0.38826
6544 26.55360 450.64308 463.99719 0.38475
6545 26.55720 455.49212 469.18852 0.38132
6546 26.56080 460.23619 475.25283 0.37613
6547 26.56440 464.93726 482.03912 0.37145
6548 26.56800 469.68205 487.28556 0.36764
6549 26.57160 474.58028 489.69881 0.36528
6550 26.57520 479.76007 494.70806 0.36218
6551 26.57880 485.36086 500.51697 0.35832
6552 26.58240 491.52531 504.36471 0.35554
6553 26.58600 498.39012 509.35711 0.35206
6554 26.58960 506.07738 516.76956 0.34529
6555 26.59320 514.68771 523.26118 0.34099
6556 26.59680 524.29406 531.50536 0.33642
6557 26.60040 534.93712 534.92282 0.33416
6558 26.60400 546.62213 543.98389 0.32832
6559 26.60760 559.31676 555.70610 0.32181
6560 26.61120 572.95012 568.71779 0.31391
6561 26.61480 587.41290 578.90752 0.30992
6562 26.61840 602.55865 592.19333 0.30281
6563 26.62200 618.20592 604.49115 0.29504
6564 26.62560 634.14153 616.21028 0.28886
6565 26.62920 650.12437 632.16138 0.28189
6566 26.63280 665.89881 645.05542 0.27622
6567 26.63640 681.16334 657.40735 0.27029
6568 26.64000 695.62991 667.90509 0.26693
6569 26.64360 708.99814 680.01908 0.26264
6570 26.64720 720.97344 688.42702 0.25972
6571 26.65080 731.27793 695.53546 0.25768
6572 26.65440 739.67115 698.42276 0.25604
6573 26.65800 745.96800 700.60908 0.25410
6574 26.66160 750.05502 705.03510 0.25331
6575 26.66520 751.90448 703.84976 0.25291
6576 26.66880 751.58107 696.94769 0.25567
6577 26.67240 749.23861 694.58453 0.25748
6578 26.67600 745.10707 691.92175 0.25818
6579 26.67960 739.47242 686.73082 0.26042
6580 26.68320 732.65295 680.34054 0.26217
6581 26.68680 724.97497 670.60318 0.26576
6582 26.69040 716.75233 662.21010 0.26989
6583 26.69400 708.26409 656.89991 0.27186
6584 26.69760 699.75198 648.43936 0.27571
6585 26.70120 691.40749 645.17603 0.27691
6586 26.70480 683.37090 640.40269 0.27834
6587 26.70840 675.73183 635.49347 0.28090
6588 26.71200 668.53272 630.20765 0.28360
6589 26.71560 661.77433 626.27146 0.28538
6590 26.71920 655.42353 623.80412 0.28607
6591 26.72280 649.42252 621.73932 0.28746
6592 26.72640 643.69827 619.84365 0.28773
6593 26.73000 638.17111 617.93055 0.28840
6594 26.73360 632.76155 617.30146 0.28873
6595 26.73720 627.39375 614.10266 0.29058
6596 26.74080 621.99583 612.81773 0.29166
6597 26.74440 616.49603 609.61886 0.29339
6598 26.74800 610.81878 606.97531 0.29450
6599 26.75160 604.90203 601.99325 0.29691
6600 26.75520 598.65855 599.07916 0.29743
6601 26.75880 592.00588 592.49517 0.30095
6602 26.76240 584.86337 588.02507 0.30376
6603 26.76600 577.15916 581.49270 0.30798
6604 26.76960 568.83735 574.22293 0.31083
6605 26.77320 559.86506 565.93789 0.31540
6606 26.77680 550.23739 560.59510 0.31902
6607 26.78040 539.98013 546.57335 0.32692
6608 26.78400 529.14959 539.53289 0.33138
6609 26.78760 517.82904 529.66226 0.33854
6610 26.79120 506.12301 515.54903 0.34730
6611 26.79480 494.15007 507.64062 0.35382
6612 26.79840 482.03543 496.80020 0.36106
6613 26.80200 469.90387 486.18551 0.36873
6614 26.80560 457.87563 475.54504 0.37714
6615 26.80920 446.06081 464.12583 0.38636
6616 26.81280 434.55785 452.66935 0.39521
6617 26.81640 423.45248 441.87943 0.40640
6618 26.82000 412.81720 432.16273 0.41509
6619 26.82360 402.71166 423.05111 0.42458
6620 26.82720 393.18329 411.75626 0.43655
6621 26.83080 384.26738 403.04377 0.44566
6622 26.83440 375.98856 396.65439 0.45409
6623 26.83800 368.36164 388.24786 0.46288
6624 26.84160 361.39265 380.02989 0.47211
6625 26.84520 355.08171 375.10694 0.47983
6626 26.84880 349.41914 370.62692 0.48592
6627 26.85240 344.38992 364.77048 0.49202
6628 26.85600 339.97806 357.86481 0.50268
6629 26.85960 336.16256 356.01797 0.50457
6630 26.86320 332.91992 353.02512 0.50881
6631 26.86680 330.22485 350.94708 0.51319
6632 26.87040 328.05084 349.13306 0.51512
6633 26.87400 326.37064 344.10453 0.52359
6634 26.87760 325.15654 344.07397 0.52152
6635 26.88120 324.38072 345.03049 0.52111
6636 26.88480 324.01881 342.76553 0.52280
6637 26.88840 324.03491 339.88711 0.52760
6638 26.89200 324.40428 339.50865 0.52896
6639 26.89560 325.09810 340.62122 0.52665
6640 26.89920 326.08685 341.15012 0.52594
6641 26.90280 327.34008 342.95659 0.52457
6642 26.90640 328.82615 344.42281 0.52186
6643 26.91000 330.51199 345.52277 0.52023
6644 26.91360 332.36357 347.40581 0.51724
6645 26.91720 334.34316 349.88397 0.51377
6646 26.92080 336.41354 352.78036 0.50850
6647 26.92440 338.53623 354.88566 0.50478
6648 26.92800 340.67316 355.93373 0.50358
6649 26.93160 342.78850 359.56886 0.49899
6650 26.93520 344.85119 364.28357 0.49245
6651 26.93880 346.83786 363.15293 0.49379
6652 26.94240 348.73541 365.21148 0.49164
6653 26.94600 350.54220 370.10817 0.48447
6654 26.94960 352.28209 369.69849 0.48628
6655 26.95320 353.98519 369.61972 0.48574
6656 26.95680 355.70159 373.62870 0.48120
6657 26.96040 357.49647 373.66195 0.48041
6658 26.96400 359.44916 373.78163 0.48190
6659 26.96760 361.64459 374.93713 0.47867
6660 26.97120 364.17755 377.29018 0.47569
6661 26.97480 367.14860 378.22543 0.47412
6662 26.97840 370.65431 377.12509 0.47532
6663 26.98200 374.79588 378.29474 0.47442
6664 26.98560 379.67120 382.79394 0.46882
6665 26.98920 385.37469 383.46754 0.46873
6666 26.99280 391.99593 385.40528 0.46667
6667 26.99640 399.61827 387.59079 0.46387
6668 27.00000 408.31713 392.56861 0.45936
6669 27.00360 418.15827 397.36123 0.45377
6670 27.00720 429.19566 402.51359 0.44656
6671 27.01080 441.46923 409.87315 0.43820
6672 27.01440 455.00229 418.40619 0.42941
6673 27.01800 469.79883 427.66942 0.42028
6674 27.02160 485.84056 437.15262 0.41030
6675 27.02520 503.08399 449.81792 0.39868
6676 27.02880 521.45751 463.22363 0.38815
6677 27.03240 540.85863 478.80635 0.37456
6678 27.03600 561.15196 497.29536 0.35993
6679 27.03960 582.16682 514.96090 0.33841
6680 27.04320 603.69648 538.69287 0.30481
6681 27.04680 625.49976 563.80097 0.31790
6682 27.05040 647.30193 591.68391 0.30296
6683 27.05400 668.79913 622.47767 0.27712
6684 27.05760 689.66490 655.97932 0.22537
6685 27.06120 709.55600 698.26094 0.18900
6686 27.06480 728.11266 743.74486 0.15467
6687 27.06840 745.03618 796.25723 0.15538
6688 27.07200 759.98761 842.01769 0.15926
6689 27.07560 772.66858 886.80870 0.14705
6690 27.07920 782.83021 934.79154 0.15389
6691 27.08280 790.25450 972.91127 0.16739
6692 27.08640 794.77222 1009.30797 0.15731
6693 27.09000 796.27181 1035.65717 0.17199
6694 27.09360 794.70622 1053.92089 0.16970
6695 27.09720 790.10146 1059.44058 0.16888
6696 27.10080 782.55747 1052.07005 0.16940
6697 27.10440 772.25691 1039.83636 0.16050
6698 27.10800 759.45494 1016.18301 0.15234
6699 27.11160 744.46934 982.68786 0.15866
6700 27.11520 727.66576 941.40120 0.14328
6701 27.11880 709.44047 897.95614 0.14647
6702 27.12240 690.20258 843.18904 0.14180
6703 27.12600 670.35849 787.72359 0.16383
6704 27.12960 650.29609 736.49813 0.16352
6705 27.13320 630.37761 687.65905 0.20231
6706 27.13680 610.93093 646.17019 0.22995
6707 27.14040 592.24529 610.81189 0.24397
6708 27.14400 574.56964 578.66024 0.27816
6709 27.14760 558.11264 551.78268 0.31729
6710 27.15120 543.04412 526.27384 0.30844
6711 27.15480 529.49672 508.03878 0.35386
6712 27.15840 517.56908 491.10240 0.36552
6713 27.16200 507.32783 477.90232 0.37466
6714 27.16560 498.80988 472.36465 0.38213
6715 27.16920 492.02446 465.89662 0.38617
6716 27.17280 486.95463 462.49050 0.38858
6717 27.17640 483.55911 456.72145 0.39292
6718 27.18000 481.77672 454.98228 0.39478
6719 27.18360 481.50897 455.66828 0.39467
6720 27.18720 482.65028 455.75096 0.39443
6721 27.19080 485.06826 459.49052 0.39070
6722 27.19440 488.61116 461.64115 0.38967
6723 27.19800 493.10190 465.95574 0.38583
6724 27.20160 498.35030 472.13923 0.38026
6725 27.20520 504.14842 477.53633 0.37647
6726 27.20880 510.27409 483.36045 0.37197
6727 27.21240 516.50286 489.50234 0.36736
6728 27.21600 522.60992 496.73923 0.36062
6729 27.21960 528.37516 496.10482 0.36158
6730 27.22320 533.59745 503.69598 0.35711
6731 27.22680 538.10020 510.43626 0.35138
6732 27.23040 541.73710 515.30537 0.34715
6733 27.23400 544.37779 517.11299 0.34676
6734 27.23760 545.99292 519.93911 0.34572
6735 27.24120 546.52747 519.64857 0.34616
6736 27.24480 545.98044 522.14941 0.34337
6737 27.24840 544.38757 519.51536 0.34570
6738 27.25200 541.81733 519.60695 0.34659
6739 27.25560 538.36861 515.71089 0.34848
6740 27.25920 534.16657 513.11616 0.35047
6741 27.26280 529.35692 510.33625 0.35168
6742 27.26640 524.09802 504.80126 0.35570
6743 27.27000 518.55215 505.18864 0.35481
6744 27.27360 512.87733 501.45053 0.35708
6745 27.27720 507.21727 497.50957 0.35940
6746 27.28080 501.69176 491.69008 0.36500
6747 27.28440 496.39951 487.10485 0.36803
6748 27.28800 491.40820 483.26432 0.37113
6749 27.29160 486.75498 479.76214 0.37453
6750 27.29520 482.44664 475.86795 0.37749
6751 27.29880 478.46147 475.97206 0.37744
6752 27.30240 474.75220 470.25878 0.38264
6753 27.30600 471.25191 470.19053 0.38102
6754 27.30960 467.87611 465.57639 0.38549
6755 27.31320 464.52907 462.85152 0.38820
6756 27.31680 461.11852 460.98229 0.38973
6757 27.32040 457.55530 459.46854 0.39042
6758 27.32400 453.75138 455.70431 0.39307
6759 27.32760 449.66920 453.05786 0.39359
6760 27.33120 445.27307 448.71122 0.39978
6761 27.33480 440.54632 444.50096 0.40268
6762 27.33840 435.50192 439.07098 0.40871
6763 27.34200 430.17378 435.38023 0.41272
6764 27.34560 424.61227 427.70079 0.41988
6765 27.34920 418.87936 423.44599 0.42394
6766 27.35280 413.04353 417.81137 0.43007
6767 27.35640 407.17524 412.01261 0.43552
6768 27.36000 401.34327 407.83439 0.44076
6769 27.36360 395.61218 400.07811 0.44755
6770 27.36720 390.04863 394.79463 0.45465
6771 27.37080 384.68485 391.29746 0.45831
6772 27.37440 379.57098 386.42916 0.46457
6773 27.37800 374.73746 383.28425 0.46846
6774 27.38160 370.20952 378.06009 0.47430
6775 27.38520 366.00251 373.92660 0.48014
6776 27.38880 362.12656 369.21674 0.48592
6777 27.39240 358.57941 366.73004 0.49009
6778 27.39600 355.35143 363.12596 0.49480
6779 27.39960 352.43209 360.50863 0.49955
6780 27.40320 349.80132 359.18025 0.50078
6781 27.40680 347.43229 352.41073 0.50886
6782 27.41040 345.29129 350.57901 0.51037
6783 27.41400 343.33807 348.73927 0.51663
6784 27.41760 341.52654 345.98883 0.51961
6785 27.42120 339.80615 341.07359 0.52739
6786 27.42480 338.12402 340.68693 0.52714
6787 27.42840 336.42768 337.91269 0.53186
6788 27.43200 334.67199 335.36050 0.53721
6789 27.43560 332.81318 333.57156 0.53925
6790 27.43920 330.81293 330.61567 0.54352
6791 27.44280 328.65679 326.95378 0.55079
6792 27.44640 326.33828 326.36063 0.55283
6793 27.45000 323.86347 323.90673 0.55634
6794 27.45360 321.24933 320.09258 0.56342
6795 27.45720 318.52117 317.22070 0.56865
6796 27.46080 315.70983 313.57803 0.57436
6797 27.46440 312.84908 310.39538 0.58093
6798 27.46800 309.97495 307.50037 0.58925
6799 27.47160 307.11432 307.04382 0.58796
6800 27.47520 304.29966 304.71400 0.59184
6801 27.47880 301.55703 301.18788 0.59706
6802 27.48240 298.90886 298.20361 0.60395
6803 27.48600 296.37388 296.58100 0.60860
6804 27.48960 293.96729 294.19871 0.61294
6805 27.49320 291.70104 291.91430 0.61707
6806 27.49680 289.58413 290.02601 0.62236
6807 27.50040 287.62293 289.89304 0.62345
6808 27.50400 285.82151 289.32057 0.62340
6809 27.50760 284.18136 287.06713 0.62900
6810 27.51120 282.70342 285.90612 0.63139
6811 27.51480 281.38843 284.11578 0.63545
6812 27.51840 280.23383 283.62681 0.63683
6813 27.52200 279.23762 285.35093 0.63237
6814 27.52560 278.39816 283.33728 0.63686
6815 27.52920 277.71243 283.54127 0.63415
6816 27.53280 277.17949 285.89483 0.63121
6817 27.53640 276.79957 283.04447 0.63684
6818 27.54000 276.57210 282.95811 0.63706
6819 27.54360 276.49898 284.79240 0.63246
6820 27.54720 276.58495 284.78383 0.63187
6821 27.55080 276.83370 283.76269 0.63657
6822 27.55440 277.25320 285.79385 0.63288
6823 27.55800 277.85251 286.41125 0.62942
6824 27.56160 278.64251 287.04424 0.62938
6825 27.56520 279.63583 287.49736 0.62726
6826 27.56880 280.84664 288.18957 0.62542
6827 27.57240 282.29035 290.52094 0.61889
6828 27.57600 283.98323 290.47532 0.61795
6829 27.57960 285.94196 294.41724 0.60916
6830 27.58320 288.18304 296.62253 0.60541
6831 27.58680 290.72218 295.78263 0.60941
6832 27.59040 293.57352 300.73030 0.60001
6833 27.59400 296.74893 303.29108 0.59428
6834 27.59760 300.25723 304.72746 0.59145
6835 27.60120 304.10278 310.04837 0.58257
6836 27.60480 308.28530 312.93799 0.57712
6837 27.60840 312.80142 317.01010 0.56952
6838 27.61200 317.63355 319.52248 0.56384
6839 27.61560 322.76114 322.57509 0.55864
6840 27.61920 328.15564 329.46826 0.54618
6841 27.62280 333.77746 336.38329 0.53361
6842 27.62640 339.57623 343.03130 0.52411
6843 27.63000 345.48991 349.10804 0.51544
6844 27.63360 351.44397 354.59217 0.50756
6845 27.63720 357.35101 363.14224 0.49522
6846 27.64080 363.11082 367.86321 0.48852
6847 27.64440 368.61142 377.25064 0.47630
6848 27.64800 373.73129 383.29322 0.46943
6849 27.65160 378.34325 386.55837 0.46635
6850 27.65520 382.32008 390.84307 0.46009
6851 27.65880 385.54184 394.92252 0.45584
6852 27.66240 387.90549 400.78360 0.44980
6853 27.66600 389.32931 400.31604 0.44994
6854 27.66960 389.76445 400.80336 0.44984
6855 27.67320 389.19912 401.16708 0.44895
6856 27.67680 387.65942 398.84680 0.45102
6857 27.68040 385.20323 395.02160 0.45631
6858 27.68400 381.92086 392.42430 0.45882
6859 27.68760 377.92314 387.60499 0.46414
6860 27.69120 373.33156 382.51666 0.47087
6861 27.69480 368.27691 375.33748 0.47889
6862 27.69840 362.88890 367.82976 0.48893
6863 27.70200 357.28452 363.24922 0.49564
6864 27.70560 351.57319 356.73999 0.50316
6865 27.70920 345.85222 351.49199 0.51102
6866 27.71280 340.20620 345.31714 0.52018
6867 27.71640 334.70709 340.90306 0.52917
6868 27.72000 329.41448 335.00268 0.53774
6869 27.72360 324.36194 333.25260 0.53982
6870 27.72720 319.59918 328.08679 0.54961
6871 27.73080 315.17988 324.00978 0.55541
6872 27.73440 311.10513 318.98020 0.56421
6873 27.73800 307.38892 319.30957 0.56458
6874 27.74160 304.03914 315.54107 0.57104
6875 27.74520 301.05852 312.91457 0.57714
6876 27.74880 298.44570 311.08692 0.58003
6877 27.75240 296.19612 309.38948 0.58312
6878 27.75600 294.30267 307.14189 0.58820
6879 27.75960 292.75190 307.56401 0.58709
6880 27.76320 291.54593 305.67924 0.58937
6881 27.76680 290.67148 303.52123 0.59604
6882 27.77040 290.12029 302.61897 0.59653
6883 27.77400 289.88611 304.18888 0.59389
6884 27.77760 289.96455 303.91793 0.59284
6885 27.78120 290.35348 304.01318 0.59238
6886 27.78480 291.05343 304.82579 0.59047
6887 27.78840 292.07316 305.35317 0.58884
6888 27.79200 293.40681 306.68972 0.58713
6889 27.79560 295.06829 308.67233 0.58370
6890 27.79920 297.06867 309.00768 0.58266
6891 27.80280 299.42132 310.14441 0.58289
6892 27.80640 302.14216 312.98669 0.57672
6893 27.81000 305.24388 317.44480 0.56840
6894 27.81360 308.74783 317.71477 0.56736
6895 27.81720 312.67094 320.27788 0.56228
6896 27.82080 317.01852 322.87696 0.55796
6897 27.82440 321.81012 326.47102 0.55160
6898 27.82800 327.05569 331.89585 0.54106
6899 27.83160 332.76082 337.59367 0.53317
6900 27.83520 338.92622 340.36628 0.52976
6901 27.83880 345.54624 347.37337 0.51856
6902 27.84240 352.60469 352.69635 0.51101
6903 27.84600 360.08257 357.04569 0.50418
6904 27.84960 367.95453 364.54245 0.49445
6905 27.85320 376.17534 370.66957 0.48628
6906 27.85680 384.70338 376.80231 0.47839
6907 27.86040 393.48265 384.50104 0.46902
6908 27.86400 402.45604 394.01342 0.45779
6909 27.86760 411.55185 402.40637 0.44710
6910 27.87120 420.69286 411.27440 0.43658
6911 27.87480 429.77939 421.36729 0.42517
6912 27.87840 438.70840 429.87986 0.41374
6913 27.88200 447.35837 440.95400 0.40626
6914 27.88560 455.59282 449.25457 0.40009
6915 27.88920 463.26250 460.73454 0.38987
6916 27.89280 470.20798 467.44700 0.38384
6917 27.89640 476.26958 474.56707 0.37770
6918 27.90000 481.29463 481.21037 0.37356
6919 27.90360 485.14891 488.79628 0.36775
6920 27.90720 487.72856 490.38790 0.36568
6921 27.91080 488.96563 495.36279 0.36297
6922 27.91440 488.84038 497.44038 0.36096
6923 27.91800 487.38151 499.25273 0.35930
6924 27.92160 484.66441 494.31105 0.36201
6925 27.92520 480.80630 490.52868 0.36586
6926 27.92880 475.95852 489.07312 0.36695
6927 27.93240 470.29698 485.14975 0.37036
6928 27.93600 464.01248 476.11407 0.37658
6929 27.93960 457.30090 467.53192 0.38322
6930 27.94320 450.34968 463.94254 0.38665
6931 27.94680 443.35571 457.55624 0.39221
6932 27.95040 436.48627 448.23223 0.39404
6933 27.95400 429.89207 440.55811 0.40701
6934 27.95760 423.70893 434.41183 0.41196
6935 27.96120 418.05196 428.62701 0.41829
6936 27.96480 413.01643 422.64780 0.42480
6937 27.96840 408.67831 419.56381 0.42814
6938 27.97200 405.09495 413.89612 0.43406
6939 27.97560 402.30582 412.38829 0.43543
6940 27.97920 400.33344 410.44240 0.43807
6941 27.98280 399.18647 409.99306 0.43841
6942 27.98640 398.85435 408.59444 0.44001
6943 27.99000 399.30919 410.82902 0.43764
6944 27.99360 400.53335 411.88248 0.43663
6945 27.99720 402.47173 412.17938 0.43610
6946 28.00080 405.06591 414.52850 0.43440
6947 28.00440 408.24565 414.23280 0.43436
6948 28.00800 411.94047 419.61456 0.42909
6949 28.01160 416.07450 421.36049 0.42605
6950 28.01520 420.57310 425.38426 0.42285
6951 28.01880 425.36802 427.56536 0.42140
6952 28.02240 430.40102 430.44193 0.41816
6953 28.02600 435.62367 433.61984 0.41379
6954 28.02960 441.00872 438.75983 0.40883
6955 28.03320 446.54297 442.49530 0.40650
6956 28.03680 452.22718 443.73688 0.40586
6957 28.04040 458.07168 448.63773 0.40078
6958 28.04400 464.09138 453.23854 0.39683
6959 28.04760 470.29931 461.15944 0.39026
6960 28.05120 476.70056 465.33150 0.38720
6961 28.05480 483.28699 471.50660 0.38191
6962 28.05840 490.03288 479.64950 0.37489
6963 28.06200 496.89209 486.35679 0.36974
6964 28.06560 503.79658 494.68183 0.36370
6965 28.06920 510.65649 502.21282 0.35762
6966 28.07280 517.35874 510.44278 0.35195
6967 28.07640 523.77574 521.74487 0.34530
6968 28.08000 529.77538 533.19749 0.33740
6969 28.08360 535.20167 546.59738 0.32923
6970 28.08720 539.90119 557.18333 0.32172
6971 28.09080 543.72287 568.51350 0.31578
6972 28.09440 546.52605 578.38513 0.31092
6973 28.09800 548.17990 591.35922 0.30350
6974 28.10160 548.57968 599.43425 0.29844
6975 28.10520 547.64740 603.48889 0.29782
6976 28.10880 545.33762 607.46994 0.29643
6977 28.11240 541.64122 606.94644 0.29669
6978 28.11600 536.58679 607.49686 0.29600
6979 28.11960 530.23928 605.64007 0.29665
6980 28.12320 522.69716 595.66287 0.30113
6981 28.12680 514.08759 582.22658 0.30840
6982 28.13040 504.56031 572.96368 0.31311
6983 28.13400 494.28134 559.52246 0.31985
6984 28.13760 483.42660 542.49327 0.33144
6985 28.14120 472.17491 524.81990 0.34276
6986 28.14480 460.69667 506.96103 0.35399
6987 28.14840 449.15821 490.16882 0.36761
6988 28.15200 437.70712 469.28134 0.38397
6989 28.15560 426.49470 449.76479 0.40038
6990 28.15920 415.63322 435.65563 0.41378
6991 28.16280 405.22463 423.09457 0.42562
6992 28.16640 395.35385 410.05244 0.43934
6993 28.17000 386.08993 397.57391 0.45200
6994 28.17360 377.48558 387.18911 0.46470
6995 28.17720 369.58164 382.12036 0.47002
6996 28.18080 362.40675 373.57101 0.48161
6997 28.18440 355.97950 365.08031 0.49376
6998 28.18800 350.30996 359.25240 0.50139
6999 28.19160 345.40111 353.25567 0.50892
7000 28.19520 341.25008 349.57419 0.51364
7001 28.19880 337.84722 346.63048 0.51885
7002 28.20240 335.18340 342.41342 0.52508
7003 28.20600 333.24554 344.06842 0.52157
7004 28.20960 332.01721 340.58381 0.52708
7005 28.21320 331.47839 337.23125 0.53462
7006 28.21680 331.60842 336.95539 0.53425
7007 28.22040 332.37827 335.99276 0.53637
7008 28.22400 333.76332 336.75375 0.53380
7009 28.22760 335.75640 337.41801 0.53123
7010 28.23120 338.31456 338.55945 0.53048
7011 28.23480 341.40443 341.03125 0.52788
7012 28.23840 344.98731 344.07581 0.52235
7013 28.24200 349.02066 346.04778 0.52131
7014 28.24560 353.45525 345.67868 0.52188
7015 28.24920 358.23468 348.79561 0.51748
7016 28.25280 363.29443 352.94959 0.51032
7017 28.25640 368.56138 357.30521 0.50389
7018 28.26000 373.95309 360.90473 0.49885
7019 28.26360 379.37819 364.77695 0.49393
7020 28.26720 384.73742 370.21912 0.48681
7021 28.27080 389.92580 375.35196 0.47930
7022 28.27440 394.83584 379.12621 0.47497
7023 28.27800 399.36200 384.36497 0.46874
7024 28.28160 403.40580 390.57477 0.46001
7025 28.28520 406.88104 393.26870 0.45756
7026 28.28880 409.71833 394.16853 0.45616
7027 28.29240 411.86855 397.69499 0.45269
7028 28.29600 413.30432 402.10707 0.44703
7029 28.29960 414.02013 404.59547 0.44465
7030 28.30320 414.02931 407.91734 0.44110
7031 28.30680 413.36259 406.36817 0.44166
7032 28.31040 412.06695 406.16713 0.44290
7033 28.31400 410.20247 405.06527 0.44336
7034 28.31760 407.84173 405.61148 0.44311
7035 28.32120 405.06931 402.11005 0.44711
7036 28.32480 401.98132 403.61940 0.44517
7037 28.32840 398.68236 400.33707 0.44789
7038 28.33200 395.28666 396.56100 0.45429
7039 28.33560 391.91321 394.86063 0.45530
7040 28.33920 388.68322 391.09993 0.46054
7041 28.34280 385.71699 390.14227 0.46124
7042 28.34640 383.13093 390.93392 0.46051
7043 28.35000 381.03519 389.12870 0.46152
7044 28.35360 379.53168 387.90219 0.46415
7045 28.35720 378.71327 387.13857 0.46541
7046 28.36080 378.66200 387.48635 0.46511
7047 28.36440 379.44599 389.65959 0.46144
7048 28.36800 381.12487 392.63751 0.45895
7049 28.37160 383.74415 392.27915 0.45916
7050 28.37520 387.33585 393.74132 0.45601
7051 28.37880 391.91775 397.28265 0.45353
7052 28.38240 397.49237 398.45285 0.45236
7053 28.38600 404.04537 404.04171 0.44550
7054 28.38960 411.54610 408.84837 0.44059
7055 28.39320 419.94595 412.59942 0.43729
7056 28.39680 429.17441 419.97463 0.42991
7057 28.40040 439.14047 427.94970 0.42137
7058 28.40400 449.73025 432.77912 0.41649
7059 28.40760 460.80551 435.25292 0.41446
7060 28.41120 472.20239 447.26198 0.35887
7061 28.41480 483.73048 453.97562 0.39749
7062 28.41840 495.17281 460.35051 0.39161
7063 28.42200 506.28732 464.58215 0.38784
7064 28.42560 516.81042 471.33795 0.38254
7065 28.42920 526.46347 478.34013 0.37697
7066 28.43280 534.96273 482.81426 0.37303
7067 28.43640 542.03280 486.08428 0.36981
7068 28.44000 547.42296 488.42292 0.36861
7069 28.44360 550.92498 491.03219 0.36608
7070 28.44720 552.39115 489.64735 0.36674
7071 28.45080 551.73908 487.21681 0.36856
7072 28.45440 548.97141 486.52509 0.36858
7073 28.45800 544.16719 484.38121 0.37095
7074 28.46160 537.47383 477.59710 0.37597
7075 28.46520 529.09506 471.14182 0.38165
7076 28.46880 519.27449 464.62810 0.38670
7077 28.47240 508.27667 460.14100 0.39044
7078 28.47600 496.37135 450.56490 0.39877
7079 28.47960 483.82059 441.95007 0.40692
7080 28.48320 470.86949 432.13765 0.41560
7081 28.48680 457.74012 425.70182 0.42232
7082 28.49040 444.62838 418.13962 0.42917
7083 28.49400 431.70386 408.61869 0.43977
7084 28.49760 419.10969 402.52160 0.44756
7085 28.50120 406.96412 393.65638 0.45718
7086 28.50480 395.36243 387.77647 0.46488
7087 28.50840 384.37902 381.74011 0.47167
7088 28.51200 374.06814 375.64030 0.47834
7089 28.51560 364.46841 366.39991 0.49092
7090 28.51920 355.60302 360.80341 0.49873
7091 28.52280 347.48217 357.84270 0.50172
7092 28.52640 340.10497 353.54117 0.50852
7093 28.53000 333.46124 349.12601 0.51606
7094 28.53360 327.53326 343.92635 0.52295
7095 28.53720 322.29744 339.35277 0.53132
7096 28.54080 317.72573 336.34992 0.53513
7097 28.54440 313.78701 331.72924 0.54292
7098 28.54800 310.44825 328.39935 0.54774
7099 28.55160 307.67546 326.48160 0.55260
7100 28.55520 305.43445 323.41000 0.55626
7101 28.55880 303.69148 323.03854 0.55754
7102 28.56240 302.41475 320.98828 0.56085
7103 28.56600 301.57088 317.79058 0.56676
7104 28.56960 301.12811 317.50188 0.56834
7105 28.57320 301.05739 315.98666 0.57232
7106 28.57680 301.32935 315.83293 0.57167
7107 28.58040 301.91496 315.14229 0.57254
7108 28.58400 302.78513 311.35112 0.57933
7109 28.58760 303.91015 312.88009 0.57708
7110 28.59120 305.25923 312.33464 0.57691
7111 28.59480 306.79669 312.74038 0.57748
7112 28.59840 308.48225 314.26230 0.57458
7113 28.60200 310.29925 314.71764 0.57277
7114 28.60560 312.19528 316.47614 0.56789
7115 28.60920 314.12676 316.79456 0.56866
7116 28.61280 316.04740 319.90204 0.56260
7117 28.61640 317.90482 321.10206 0.56099
7118 28.62000 319.64454 324.50527 0.55515
7119 28.62360 321.22576 325.59014 0.55396
7120 28.62720 322.59524 325.06063 0.55413
7121 28.63080 323.70975 327.69701 0.55053
7122 28.63440 324.53477 331.14242 0.54464
7123 28.63800 325.04695 328.56276 0.54782
7124 28.64160 325.23645 327.72325 0.55051
7125 28.64520 325.10812 328.48925 0.54940
7126 28.64880 324.68158 329.20268 0.54639
7127 28.65240 323.99091 328.10155 0.54735
7128 28.65600 323.07904 327.75125 0.54869
7129 28.65960 322.00063 324.82500 0.55402
7130 28.66320 320.81539 325.18086 0.55253
7131 28.66680 319.58623 327.35570 0.54863
7132 28.67040 318.37679 323.56415 0.55551
7133 28.67400 317.24948 318.08455 0.56471
7134 28.67760 316.26396 319.19257 0.56308
7135 28.68120 315.47606 318.48159 0.56492
7136 28.68480 314.93712 317.71441 0.56653
7137 28.68840 314.69345 317.12631 0.56755
7138 28.69200 314.78606 316.17982 0.56940
7139 28.69560 315.25014 317.47812 0.56708
7140 28.69920 316.11466 316.74036 0.56925
7141 28.70280 317.40361 316.33398 0.57119
7142 28.70640 319.13337 318.82497 0.56596
7143 28.71000 321.31417 320.46695 0.56254
7144 28.71360 323.94698 322.17210 0.55770
7145 28.71720 327.02734 323.83333 0.55499
7146 28.72080 330.54079 326.54618 0.55171
7147 28.72440 334.46492 331.00116 0.54374
7148 28.72800 338.76792 334.23547 0.53883
7149 28.73160 343.40786 335.91820 0.53706
7150 28.73520 348.33239 338.09684 0.53201
7151 28.73880 353.47887 344.59525 0.52200
7152 28.74240 358.76954 350.01512 0.51464
7153 28.74600 364.11885 354.90808 0.50647
7154 28.74960 369.42866 357.60704 0.50264
7155 28.75320 374.59081 362.01173 0.49765
7156 28.75680 379.48944 368.98257 0.48875
7157 28.76040 384.00468 374.12156 0.47939
7158 28.76400 388.01775 376.00823 0.47687
7159 28.76760 391.41719 378.89760 0.47612
7160 28.77120 394.10591 379.75868 0.47430
7161 28.77480 396.00772 382.75275 0.46932
7162 28.77840 397.07303 385.33699 0.46641
7163 28.78200 397.28234 387.61622 0.46447
7164 28.78560 396.64708 387.72585 0.46377
7165 28.78920 395.20745 387.62510 0.46279
7166 28.79280 393.02801 388.33905 0.46294
7167 28.79640 390.19186 387.22583 0.46382
7168 28.80000 386.79390 385.62725 0.46631
7169 28.80360 382.93435 381.41816 0.47194
7170 28.80720 378.71301 378.23078 0.47496
7171 28.81080 374.22487 374.46911 0.47932
7172 28.81440 369.55692 373.61422 0.48124
7173 28.81800 364.78643 370.97444 0.48443
7174 28.82160 359.98028 366.00772 0.49084
7175 28.82520 355.19543 361.79247 0.49673
7176 28.82880 350.47999 359.58875 0.49974
7177 28.83240 345.87480 356.25420 0.50426
7178 28.83600 341.41506 354.32856 0.50817
7179 28.83960 337.13190 350.86953 0.51157
7180 28.84320 333.05357 347.75113 0.51787
7181 28.84680 329.20602 343.36484 0.52383
7182 28.85040 325.61295 341.74045 0.52638
7183 28.85400 322.29577 338.15844 0.53146
7184 28.85760 319.27282 336.26517 0.53373
7185 28.86120 316.55880 332.99161 0.53879
7186 28.86480 314.16407 328.62022 0.54614
7187 28.86840 312.09412 327.24180 0.54906
7188 28.87200 310.34963 325.07159 0.55359
7189 28.87560 308.92610 324.13579 0.55473
7190 28.87920 307.81394 323.20729 0.55716
7191 28.88280 306.99859 322.31448 0.55895
7192 28.88640 306.46070 322.02448 0.55799
7193 28.89000 306.18070 319.41428 0.56380
7194 28.89360 306.12179 319.76069 0.56326
7195 28.89720 306.25363 318.86861 0.56630
7196 28.90080 306.53974 321.70213 0.56017
7197 28.90440 306.93873 323.58674 0.54895
7198 28.90800 307.40571 324.45401 0.55405
7199 28.91160 307.89310 324.11754 0.55455
7200 28.91520 308.35184 325.97737 0.55077
7201 28.91880 308.73309 327.12409 0.55225
7202 28.92240 308.99028 328.44753 0.54860
7203 28.92600 309.08145 328.05258 0.54847
7204 28.92960 308.97158 327.75233 0.55017
7205 28.93320 308.63448 326.67921 0.55189
7206 28.93680 308.05422 328.86025 0.54776
7207 28.94040 307.22599 326.30195 0.55385
7208 28.94400 306.15505 321.56633 0.56060
7209 28.94760 304.85377 319.96442 0.56440
7210 28.95120 303.34459 317.49512 0.56829
7211 28.95480 301.65425 313.59546 0.57406
7212 28.95840 299.81298 309.99382 0.58120
7213 28.96200 297.85273 306.30598 0.58778
7214 28.96560 295.80580 302.96211 0.59469
7215 28.96920 293.70365 298.35369 0.60335
7216 28.97280 291.57611 293.45499 0.61365
7217 28.97640 289.45068 292.33025 0.61754
7218 28.98000 287.35217 291.16273 0.62016
7219 28.98360 285.30240 286.89144 0.62869
7220 28.98720 283.32011 285.58661 0.62956
7221 28.99080 281.42097 281.39280 0.64031
7222 28.99440 279.61769 279.98398 0.64314
7223 28.99800 277.92033 275.03784 0.65446
7224 29.00160 276.33957 275.17050 0.65693
7225 29.00520 274.87351 274.23084 0.65766
7226 29.00880 273.52882 270.69842 0.66736
7227 29.01240 272.30693 272.38294 0.65597
7228 29.01600 271.20784 270.62821 0.66403
7229 29.01960 270.22683 269.71718 0.66631
7230 29.02320 269.36033 268.59327 0.67011
7231 29.02680 268.62022 267.73292 0.67277
7232 29.03040 267.99481 265.55659 0.67903
7233 29.03400 267.48136 267.24136 0.67371
7234 29.03760 267.07774 265.97891 0.67606
7235 29.04120 266.77997 265.57589 0.67631
7236 29.04480 266.58805 264.62576 0.67945
7237 29.04840 266.50026 264.65870 0.68021
7238 29.05200 266.51617 264.06319 0.68284
7239 29.05560 266.64293 265.61225 0.67817
7240 29.05920 266.86862 264.46326 0.68180
7241 29.06280 267.20079 266.07865 0.67719
7242 29.06640 267.64311 266.25447 0.67676
7243 29.07000 268.19759 267.59174 0.67460
7244 29.07360 268.87054 265.50281 0.67889
7245 29.07720 269.66153 265.26108 0.67810
7246 29.08080 270.57671 266.48059 0.67608
7247 29.08440 271.61993 269.22251 0.66876
7248 29.08800 272.79458 271.00180 0.66416
7249 29.09160 274.10335 271.40084 0.66433
7250 29.09520 275.54794 272.60681 0.66196
7251 29.09880 277.12871 273.26944 0.65916
7252 29.10240 278.84438 274.17985 0.65668
7253 29.10600 280.69169 275.58566 0.65151
7254 29.10960 282.66504 277.35169 0.64759
7255 29.11320 284.75616 279.93478 0.64236
7256 29.11680 286.95378 281.66122 0.63915
7257 29.12040 289.24326 280.89416 0.64241
7258 29.12400 291.60628 282.19620 0.63943
7259 29.12760 294.02081 284.65469 0.63258
7260 29.13120 296.46015 287.25708 0.62759
7261 29.13480 298.89328 289.67083 0.62208
7262 29.13840 301.28550 291.94977 0.61576
7263 29.14200 303.59809 295.00714 0.60944
7264 29.14560 305.78923 298.25619 0.60469
7265 29.14920 307.81552 296.63279 0.60804
7266 29.15280 309.63511 297.10493 0.60682
7267 29.15640 311.20209 301.58378 0.59684
7268 29.16000 312.48195 301.99348 0.59591
7269 29.16360 313.44533 305.14960 0.58805
7270 29.16720 314.07275 306.05283 0.58856
7271 29.17080 314.35640 305.11932 0.58902
7272 29.17440 314.30115 305.69971 0.58820
7273 29.17800 313.92431 306.27066 0.58593
7274 29.18160 313.25443 308.43945 0.58268
7275 29.18520 312.32921 307.55523 0.58301
7276 29.18880 311.19297 304.96343 0.59005
7277 29.19240 309.89401 303.38796 0.59333
7278 29.19600 308.48213 302.34265 0.59458
7279 29.19960 307.00633 302.63895 0.59409
7280 29.20320 305.51506 301.93472 0.59612
7281 29.20680 304.05269 299.75099 0.59920
7282 29.21040 302.66085 299.72173 0.60002
7283 29.21400 301.38233 298.26462 0.60129
7284 29.21760 300.24397 298.55652 0.60275
7285 29.22120 299.28213 297.71172 0.60471
7286 29.22480 298.52739 297.41975 0.60372
7287 29.22840 298.00806 297.34435 0.60574
7288 29.23200 297.75086 299.25045 0.60238
7289 29.23560 297.78134 299.19465 0.59965
7290 29.23920 298.12413 298.83791 0.60249
7291 29.24280 298.80318 301.33400 0.59631
7292 29.24640 299.84193 302.42524 0.59502
7293 29.25000 301.26340 304.50583 0.59112
7294 29.25360 303.09014 303.90540 0.59313
7295 29.25720 305.34402 307.01044 0.58597
7296 29.26080 308.04597 309.23023 0.58229
7297 29.26440 311.21578 310.36551 0.57903
7298 29.26800 314.86953 315.65248 0.57004
7299 29.27160 319.03078 318.96747 0.56480
7300 29.27520 323.70906 323.31265 0.55681
7301 29.27880 328.91452 325.33345 0.55383
7302 29.28240 334.65020 329.41002 0.54753
7303 29.28600 340.91639 334.85140 0.53810
7304 29.28960 347.70952 341.65770 0.52587
7305 29.29320 354.99403 348.87745 0.51516
7306 29.29680 362.80290 356.82139 0.50375
7307 29.30040 371.07534 365.93643 0.49156
7308 29.30400 379.76942 372.91318 0.48274
7309 29.30760 388.83171 379.76892 0.47402
7310 29.31120 398.19564 389.37921 0.45937
7311 29.31480 407.78090 400.44561 0.44778
7312 29.31840 417.49254 413.45258 0.43388
7313 29.32200 427.22171 426.04937 0.42074
7314 29.32560 436.84672 435.34193 0.41317
7315 29.32920 446.23559 448.80164 0.40017
7316 29.33280 455.25042 459.78357 0.38995
7317 29.33640 463.75304 470.79802 0.38030
7318 29.34000 471.61218 481.58503 0.37151
7319 29.34360 478.71140 487.58359 0.36829
7320 29.34720 484.95607 494.72583 0.36197
7321 29.35080 490.28050 503.69669 0.35596
7322 29.35440 494.65185 509.40564 0.35222
7323 29.35800 498.07183 515.18350 0.34753
7324 29.36160 500.57530 515.24757 0.34719
7325 29.36520 502.22671 516.78112 0.34674
7326 29.36880 503.11472 513.73698 0.34897
7327 29.37240 503.34576 512.81522 0.35017
7328 29.37600 503.03729 511.50806 0.35151
7329 29.37960 502.31112 509.04144 0.35250
7330 29.38320 501.28795 506.38865 0.35370
7331 29.38680 500.08247 502.93502 0.35580
7332 29.39040 498.79976 504.35847 0.35575
7333 29.39400 497.53224 503.17580 0.35720
7334 29.39760 496.35761 504.50873 0.35519
7335 29.40120 495.33714 503.45349 0.35582
7336 29.40480 494.51439 502.67690 0.35671
7337 29.40840 493.91475 512.64564 0.35001
7338 29.41200 493.54561 510.48752 0.35092
7339 29.41560 493.39698 515.45440 0.34724
7340 29.41920 493.44445 520.54028 0.34449
7341 29.42280 493.65231 524.34138 0.34156
7342 29.42640 493.97775 527.33343 0.33921
7343 29.43000 494.37554 530.86869 0.33797
7344 29.43360 494.80235 531.57199 0.33691
7345 29.43720 495.22014 536.71925 0.33280
7346 29.44080 495.59819 535.48717 0.33452
7347 29.44440 495.91417 537.34124 0.33344
7348 29.44800 496.14541 535.13455 0.33513
7349 29.45160 496.27645 535.19702 0.33564
7350 29.45520 496.28727 534.94487 0.33557
7351 29.45880 496.15127 531.18082 0.33695
7352 29.46240 495.83296 526.75205 0.33898
7353 29.46600 495.28612 523.17029 0.34179
7354 29.46960 494.45371 521.68483 0.34381
7355 29.47320 493.27484 513.72656 0.34889
7356 29.47680 491.68799 514.27104 0.34851
7357 29.48040 489.63790 508.29289 0.35378
7358 29.48400 487.08285 502.12013 0.35687
7359 29.48760 484.00126 496.80064 0.36164
7360 29.49120 480.39722 488.88104 0.36672
7361 29.49480 476.29990 477.93554 0.37572
7362 29.49840 471.76706 476.21484 0.37688
7363 29.50200 466.87855 470.74834 0.38072
7364 29.50560 461.73640 463.87145 0.38645
7365 29.50920 456.45243 454.61661 0.39451
7366 29.51280 451.14463 448.93828 0.39918
7367 29.51640 445.93621 439.66482 0.40723
7368 29.52000 440.94099 433.41477 0.41400
7369 29.52360 436.26389 424.11058 0.42375
7370 29.52720 431.99684 419.46626 0.42862
7371 29.53080 428.21625 413.93541 0.43335
7372 29.53440 424.98157 410.69791 0.43621
7373 29.53800 422.33937 408.34529 0.43751
7374 29.54160 420.30362 403.29457 0.44428
7375 29.54520 418.88330 400.10504 0.44836
7376 29.54880 418.06552 397.79666 0.45141
7377 29.55240 417.81825 396.59973 0.45237
7378 29.55600 418.09191 395.32413 0.45389
7379 29.55960 418.81923 395.52291 0.45343
7380 29.56320 419.91624 396.58767 0.45260
7381 29.56680 421.28372 394.95150 0.45458
7382 29.57040 422.80999 399.51002 0.44766
7383 29.57400 424.37362 400.00011 0.44737
7384 29.57760 425.84590 397.59681 0.45120
7385 29.58120 427.10093 397.92712 0.45141
7386 29.58480 428.01804 402.00284 0.44638
7387 29.58840 428.48874 401.59033 0.44720
7388 29.59200 428.42188 401.58301 0.44568
7389 29.59560 427.74781 401.72577 0.44533
7390 29.59920 426.42060 398.55191 0.45024
7391 29.60280 424.41831 396.29098 0.45450
7392 29.60640 421.74171 396.50045 0.45179
7393 29.61000 418.41206 392.61458 0.45619
7394 29.61360 414.46835 387.92730 0.46340
7395 29.61720 409.96428 385.73654 0.46531
7396 29.62080 404.96557 384.18534 0.46795
7397 29.62440 399.54716 378.74827 0.47555
7398 29.62800 393.79009 371.16972 0.48395
7399 29.63160 387.78041 367.16293 0.48866
7400 29.63520 381.60434 364.49384 0.49212
7401 29.63880 375.34641 360.59202 0.49782
7402 29.64240 369.08832 357.00101 0.50329
7403 29.64600 362.90180 354.97485 0.50665
7404 29.64960 356.85589 350.80884 0.51207
7405 29.65320 351.01021 346.24280 0.52044
7406 29.65680 345.41352 341.43607 0.52705
7407 29.66040 340.11028 336.57735 0.53408
7408 29.66400 335.14350 331.68361 0.53890
7409 29.66760 330.53786 326.66589 0.55183
7410 29.67120 326.31665 321.74025 0.55842
7411 29.67480 322.49761 318.90814 0.56513
7412 29.67840 319.09364 315.84160 0.57117
7413 29.68200 316.11327 311.87121 0.57715
7414 29.68560 313.56107 310.80513 0.57750
7415 29.68920 311.43811 307.51274 0.58293
7416 29.69280 309.74245 304.25929 0.59110
7417 29.69640 308.46890 300.57492 0.59696
7418 29.70000 307.61026 298.93164 0.59975
7419 29.70360 307.15558 297.67812 0.60445
7420 29.70720 307.09264 299.02028 0.60133
7421 29.71080 307.40637 297.10593 0.60498
7422 29.71440 308.07922 297.36259 0.60567
7423 29.71800 309.09097 297.67686 0.60454
7424 29.72160 310.41856 296.57641 0.60656
7425 29.72520 312.03576 299.83519 0.59882
7426 29.72880 313.91283 301.14048 0.59835
7427 29.73240 316.01608 301.81849 0.59632
7428 29.73600 318.30748 304.18149 0.59065
7429 29.73960 320.74423 306.61972 0.58607
7430 29.74320 323.27822 307.71202 0.58370
7431 29.74680 325.85502 312.03168 0.57636
7432 29.75040 328.41521 316.26833 0.56909
7433 29.75400 330.89699 317.43513 0.56668
7434 29.75760 333.23067 319.16997 0.56343
7435 29.76120 335.34840 322.62796 0.55603
7436 29.76480 337.17489 326.01020 0.54952
7437 29.76840 338.64459 330.54525 0.54349
7438 29.77200 339.69890 332.87172 0.53898
7439 29.77560 340.29009 335.45559 0.53540
7440 29.77920 340.38550 335.62163 0.53455
7441 29.78280 339.97015 338.29295 0.53150
7442 29.78640 339.04821 338.10984 0.53021
7443 29.79000 337.64248 335.29860 0.53609
7444 29.79360 335.79119 332.76095 0.53855
7445 29.79720 333.54633 330.78465 0.54408
7446 29.80080 330.96613 325.99436 0.55107
7447 29.80440 328.11554 323.37523 0.55603
7448 29.80800 325.05978 318.88210 0.56449
7449 29.81160 321.86183 313.96356 0.57420
7450 29.81520 318.58036 309.15404 0.58341
7451 29.81880 315.26840 303.57461 0.59800
7452 29.82240 311.97256 300.92510 0.60402
7453 29.82600 308.73277 297.35127 0.61427
7454 29.82960 305.58234 294.70643 0.57168
7455 29.83320 302.54825 290.42496 0.56063
7456 29.83680 299.65150 287.63302 0.56762
7457 29.84040 296.90752 285.78016 0.57274
7458 29.84400 294.32668 281.37043 0.57991
7459 29.84760 291.91474 281.63858 0.57922
7460 29.85120 289.67332 278.72068 0.58476
7461 29.85480 287.60047 279.11768 0.58419
7462 29.85840 285.69125 278.57238 0.58648
7463 29.86200 283.93864 274.40821 0.59522
7464 29.86560 282.33295 276.02364 0.59229
7465 29.86920 280.86380 274.63090 0.59444
7466 29.87280 279.51976 273.60715 0.59726
7467 29.87640 278.29075 272.41340 0.60158
7468 29.88000 277.16786 270.46815 0.60762
7469 29.88360 276.14075 268.09520 0.61176
7470 29.88720 275.20121 269.95664 0.60847
7471 29.89080 274.34218 268.70546 0.61466
7472 29.89440 273.55770 267.57229 0.62444
7473 29.89800 272.84280 267.82846 0.59293
7474 29.90160 272.19336 268.62486 0.50333
7475 29.90520 271.60599 267.87086 0.50460
7476 29.90880 271.07788 267.98192 0.50337
7477 29.91240 270.60675 267.24993 0.50515
7478 29.91600 270.19080 265.33478 0.50961
7479 29.91960 269.83055 265.56580 0.50906
7480 29.92320 269.52374 268.79256 0.50359
7481 29.92680 269.26032 267.31117 0.50736
7482 29.93040 269.05576 263.09367 0.51435
7483 29.93400 268.90510 263.50880 0.51146
7484 29.93760 268.80766 264.90965 0.50941
7485 29.94120 268.76052 265.61532 0.50680
7486 29.94480 268.77903 266.03089 0.50574
7487 29.94840 268.85950 267.03616 0.50510
7488 29.95200 269.00549 268.00579 0.50333
7489 29.95560 269.22131 268.73703 0.50304
7490 29.95920 269.51240 267.06894 0.50510
7491 29.96280 269.88483 268.01419 0.50581
7492 29.96640 270.34611 268.03225 0.50402
7493 29.97000 270.90403 267.46500 0.50605
7494 29.97360 271.56756 268.46636 0.50299
7495 29.97720 272.34663 269.05288 0.50223
7496 29.98080 273.25206 272.08313 0.49612
7497 29.98440 274.29553 275.60755 0.48922
7498 29.98800 275.48944 276.43632 0.48737
7499 29.99160 276.84680 277.20551 0.48658
7500 29.99520 278.38099 279.11979 0.48485
7501 29.99880 280.10555 280.33630 0.48234
7502 30.00240 282.03389 280.78243 0.48177
7503 30.00600 284.17895 282.73685 0.47799
7504 30.00960 286.55279 280.97274 0.48000
7505 30.01320 289.16619 283.47898 0.47611
7506 30.01680 292.02818 287.19292 0.46959
7507 30.02040 295.14581 289.34058 0.46601
7508 30.02400 298.52310 290.58687 0.46330
7509 30.02760 302.16080 293.80821 0.46028
7510 30.03120 306.05369 297.06565 0.45527
7511 30.03480 310.19496 298.26130 0.45245
7512 30.03840 314.57129 299.87962 0.44995
7513 30.04200 319.16335 304.93761 0.44163
7514 30.04560 323.94512 307.65982 0.44059
7515 30.04920 328.88322 309.88888 0.43527
7516 30.05280 333.93627 311.81808 0.43377
7517 30.05640 339.05442 314.69470 0.42924
7518 30.06000 344.17923 317.81564 0.42566
7519 30.06360 349.24395 322.45615 0.41959
7520 30.06720 354.17438 324.50928 0.41861
7521 30.07080 358.89071 325.79546 0.41857
7522 30.07440 363.31015 328.33170 0.41810
7523 30.07800 367.35049 334.17017 0.39691
7524 30.08160 370.93441 334.77799 0.35225
7525 30.08520 373.99396 335.73847 0.35077
7526 30.08880 376.47448 338.08128 0.34890
7527 30.09240 378.33066 338.46630 0.35437
7528 30.09600 379.55210 341.21875 0.44367
7529 30.09960 380.14201 341.09742 0.43921
7530 30.10320 380.10978 339.60349 0.43716
7531 30.10680 379.48481 341.20782 0.43314
7532 30.11040 378.30738 340.85167 0.43149
7533 30.11400 376.62560 341.53799 0.42932
7534 30.11760 374.49286 339.16775 0.43506
7535 30.12120 371.96588 337.51277 0.43452
7536 30.12480 369.10350 339.09520 0.43246
7537 30.12840 365.96584 336.31985 0.43692
7538 30.13200 362.61364 333.94718 0.43955
7539 30.13560 359.10486 332.85954 0.44285
7540 30.13920 355.49810 331.37299 0.44756
7541 30.14280 351.84828 328.39057 0.45460
7542 30.14640 348.20635 326.11698 0.46286
7543 30.15000 344.61835 324.28820 0.38266
7544 30.15360 341.12463 321.75476 0.36666
7545 30.15720 337.75917 320.22209 0.36867
7546 30.16080 334.54923 317.68368 0.40589
7547 30.16440 331.51503 316.53625 0.43869
7548 30.16800 328.66962 317.06252 0.43270
7549 30.17160 326.01890 316.80181 0.43163
7550 30.17520 323.56178 316.49578 0.42972
7551 30.17880 321.29093 312.27192 0.43361
7552 30.18240 319.19278 311.48799 0.43501
7553 30.18600 317.24642 311.73342 0.43151
7554 30.18960 315.43081 308.73035 0.43469
7555 30.19320 313.71742 309.58005 0.43458
7556 30.19680 312.07933 310.30635 0.43333
7557 30.20040 310.49159 308.96184 0.43424
7558 30.20400 308.92940 310.16391 0.43255
7559 30.20760 307.37252 307.13441 0.43747
7560 30.21120 305.80616 304.80433 0.44164
7561 30.21480 304.22259 303.19769 0.44442
7562 30.21840 302.61694 300.15931 0.44748
7563 30.22200 300.99261 299.83107 0.44799
7564 30.22560 299.35683 297.69575 0.45372
7565 30.22920 297.72009 297.69034 0.45245
7566 30.23280 296.09502 296.86379 0.45285
7567 30.23640 294.49445 296.36865 0.45331
7568 30.24000 292.93190 293.94804 0.45724
7569 30.24360 291.42173 291.75147 0.45980
7570 30.24720 289.97125 288.85670 0.46515
7571 30.25080 288.59239 288.90662 0.46489
7572 30.25440 287.29360 288.60121 0.46595
7573 30.25800 286.08187 287.44768 0.46677
7574 30.26160 284.96286 285.28998 0.47162
7575 30.26520 283.94102 284.49399 0.47453
7576 30.26880 283.01972 281.89650 0.47801
7577 30.27240 282.20139 284.47031 0.47580
7578 30.27600 281.48858 281.18375 0.48088
7579 30.27960 280.88071 279.76541 0.48367
7580 30.28320 280.37913 279.60989 0.48251
7581 30.28680 279.98430 281.00326 0.48067
7582 30.29040 279.69654 280.76132 0.47978
7583 30.29400 279.51623 280.59981 0.48049
7584 30.29760 279.44399 282.04704 0.47813
7585 30.30120 279.48080 280.97996 0.47989
7586 30.30480 279.62864 280.90899 0.47954
7587 30.30840 279.88841 281.07539 0.47868
7588 30.31200 280.26307 282.61587 0.47600
7589 30.31560 280.75569 282.39601 0.47568
7590 30.31920 281.36975 284.32481 0.47275
7591 30.32280 282.10851 284.92072 0.47019
7592 30.32640 282.97802 286.77061 0.46838
7593 30.33000 283.98174 286.34737 0.46971
7594 30.33360 285.12558 286.75583 0.46892
7595 30.33720 286.41408 291.45463 0.46150
7596 30.34080 287.84826 294.15410 0.45690
7597 30.34440 289.44080 293.47734 0.52635
7598 30.34800 291.19292 296.13385 0.56443
7599 30.35160 293.10827 297.60808 0.55744
7600 30.35520 295.19023 299.04361 0.55084
7601 30.35880 297.44219 301.30295 0.54453
7602 30.36240 299.86338 303.51654 0.54041
7603 30.36600 302.45496 308.34342 0.53130
7604 30.36960 305.21562 311.71064 0.52922
7605 30.37320 308.14253 314.80923 0.52551
7606 30.37680 311.23070 320.26915 0.52032
7607 30.38040 314.47489 322.38934 0.46779
7608 30.38400 317.86797 322.48352 0.45376
7609 30.38760 321.40029 328.53508 0.44595
7610 30.39120 325.06149 330.01875 0.44416
7611 30.39480 328.83995 335.30873 0.43784
7612 30.39840 332.72306 341.28330 0.43134
7613 30.40200 336.69788 345.47543 0.42459
7614 30.40560 340.75168 351.21425 0.41696
7615 30.40920 344.87278 355.11814 0.41480
7616 30.41280 349.05138 358.74380 0.46753
7617 30.41640 353.28030 364.64995 0.45641
7618 30.42000 357.55552 371.35425 0.44456
7619 30.42360 361.87626 377.34259 0.43434
7620 30.42720 366.24464 384.29726 0.42638
7621 30.43080 370.66492 388.90490 0.42192
7622 30.43440 375.14355 395.02227 0.41481
7623 30.43800 379.68556 402.19605 0.40685
7624 30.44160 384.29567 406.16457 0.40552
7625 30.44520 388.97910 414.66528 0.40099
7626 30.44880 393.74042 417.58634 0.37173
7627 30.45240 398.58754 425.06179 0.31536
7628 30.45600 403.53048 427.54267 0.31418
7629 30.45960 408.58365 432.02331 0.31018
7630 30.46320 413.76677 437.93235 0.30705
7631 30.46680 419.10477 439.73746 0.30610
7632 30.47040 424.62654 445.43207 0.29988
7633 30.47400 430.36250 449.33215 0.29888
7634 30.47760 436.34134 452.38810 0.29574
7635 30.48120 442.58626 453.87801 0.29451
7636 30.48480 449.11101 458.36116 0.29255
7637 30.48840 455.91618 462.10951 0.29121
7638 30.49200 462.98597 463.62412 0.28978
7639 30.49560 470.28566 465.74421 0.28780
7640 30.49920 477.75988 465.81418 0.28834
7641 30.50280 485.33196 472.42292 0.28428
7642 30.50640 492.90447 480.03590 0.27903
7643 30.51000 500.36126 481.47222 0.27853
7644 30.51360 507.57139 483.83083 0.27718
7645 30.51720 514.39494 487.49626 0.27537
7646 30.52080 520.69081 493.93523 0.27261
7647 30.52440 526.32589 499.94749 0.26948
7648 30.52800 531.18487 501.46095 0.26789
7649 30.53160 535.17890 502.15427 0.26783
7650 30.53520 538.25254 506.00876 0.26574
7651 30.53880 540.38711 509.68484 0.26374
7652 30.54240 541.59870 510.33687 0.26259
7653 30.54600 541.94090 510.20291 0.26332
7654 30.54960 541.48488 514.88502 0.26107
7655 30.55320 540.31815 516.60315 0.25965
7656 30.55680 538.53252 513.11680 0.26110
7657 30.56040 536.21511 512.50352 0.26147
7658 30.56400 533.44134 511.12426 0.26245
7659 30.56760 530.27066 508.91031 0.26342
7660 30.57120 526.74500 507.11266 0.26366
7661 30.57480 522.88988 502.51629 0.26740
7662 30.57840 518.71767 500.63356 0.26824
7663 30.58200 514.23151 499.37557 0.26858
7664 30.58560 509.43136 499.07211 0.26892
7665 30.58920 504.31772 496.36692 0.27057
7666 30.59280 498.89537 490.42057 0.27273
7667 30.59640 493.17507 483.68244 0.27706
7668 30.60000 487.17361 474.38480 0.28350
7669 30.60360 480.91231 468.66167 0.29000
7670 30.60720 474.41527 464.93225 0.28853
7671 30.61080 467.70837 458.13328 0.23954
7672 30.61440 460.81532 447.57057 0.31508
7673 30.61800 453.75948 444.96732 0.24013
7674 30.62160 446.56650 437.71255 0.31874
7675 30.62520 439.26383 429.96300 0.31701
7676 30.62880 431.88004 422.69601 0.32141
7677 30.63240 424.45085 417.50335 0.32378
7678 30.63600 417.01612 410.63490 0.32878
7679 30.63960 409.61981 404.94369 0.33299
7680 30.64320 402.30844 398.98012 0.34939
7681 30.64680 395.12905 393.67551 0.42743
7682 30.65040 388.12694 386.40564 0.43176
7683 30.65400 381.34368 382.48559 0.43189
7684 30.65760 374.81555 378.08056 0.43508
7685 30.66120 368.57263 372.21863 0.44040
7686 30.66480 362.63841 366.82028 0.44603
7687 30.66840 357.03000 361.23713 0.45324
7688 30.67200 351.75864 357.07860 0.45684
7689 30.67560 346.83056 353.88034 0.46090
7690 30.67920 342.24788 349.98391 0.46707
7691 30.68280 338.00961 347.09361 0.46961
7692 30.68640 334.11245 343.09896 0.47542
7693 30.69000 330.55153 338.77461 0.48198
7694 30.69360 327.32084 338.99490 0.48112
7695 30.69720 324.41349 336.40345 0.48676
7696 30.70080 321.82176 334.08977 0.48953
7697 30.70440 319.53707 330.35832 0.49484
7698 30.70800 317.54985 328.15867 0.49861
7699 30.71160 315.84934 325.51915 0.54064
7700 30.71520 314.42351 325.74364 0.56635
7701 30.71880 313.25891 322.39636 0.56930
7702 30.72240 312.34057 321.08034 0.57167
7703 30.72600 311.65200 321.34419 0.57162
7704 30.72960 311.17516 322.19951 0.53677
7705 30.73320 310.89046 318.09483 0.51476
7706 30.73680 310.77686 316.15976 0.51512
7707 30.74040 310.81207 318.87544 0.51243
7708 30.74400 310.97285 318.24458 0.51264
7709 30.74760 311.23544 317.18175 0.51404
7710 30.75120 311.57620 318.55768 0.51239
7711 30.75480 311.97401 318.79602 0.51113
7712 30.75840 312.40527 316.61854 0.51396
7713 30.76200 312.85175 318.96140 0.51004
7714 30.76560 313.29872 319.64989 0.51054
7715 30.76920 313.73427 319.21274 0.51082
7716 30.77280 314.14999 318.65028 0.51291
7717 30.77640 314.54093 321.07936 0.50924
7718 30.78000 314.90351 320.84979 0.50882
7719 30.78360 315.23638 319.10819 0.51165
7720 30.78720 315.53890 319.58627 0.51330
7721 30.79080 315.80967 320.06255 0.51488
7722 30.79440 316.04312 323.94870 0.51293
7723 30.79800 316.24655 323.79630 0.50790
7724 30.80160 316.41267 322.93284 0.42009
7725 30.80520 316.54233 324.12683 0.41422
7726 30.80880 316.63422 325.56902 0.41328
7727 30.81240 316.68937 325.10623 0.41486
7728 30.81600 316.71662 321.85840 0.41887
7729 30.81960 316.73077 321.98659 0.41733
7730 30.82320 316.74660 323.10390 0.41784
7731 30.82680 316.78663 323.33672 0.41742
7732 30.83040 316.87795 322.46668 0.41812
7733 30.83400 317.05137 321.95586 0.41987
7734 30.83760 317.34012 320.31628 0.42275
7735 30.84120 317.77859 321.09465 0.42004
7736 30.84480 318.40103 318.67287 0.42374
7737 30.84840 319.24057 319.30028 0.42247
7738 30.85200 320.32799 321.08890 0.42216
7739 30.85560 321.69098 320.69497 0.43053
7740 30.85920 323.35406 322.88167 0.35966
7741 30.86280 325.33748 321.78730 0.40348
7742 30.86640 327.65696 321.79600 0.37555
7743 30.87000 330.32318 325.63238 0.38105
7744 30.87360 333.34133 325.30604 0.42185
7745 30.87720 336.71057 328.78266 0.41057
7746 30.88080 340.42350 330.99423 0.40839
7747 30.88440 344.46554 336.87852 0.40024
7748 30.88800 348.81433 339.95707 0.39571
7749 30.89160 353.43795 342.07801 0.39275
7750 30.89520 358.29965 345.19940 0.38923
7751 30.89880 363.34989 352.33138 0.38178
7752 30.90240 368.53129 354.04330 0.38064
7753 30.90600 373.77813 361.72672 0.37190
7754 30.90960 379.01780 366.77870 0.36705
7755 30.91320 384.17065 369.10334 0.36496
7756 30.91680 389.15451 377.45617 0.35564
7757 30.92040 393.88628 381.18112 0.35454
7758 30.92400 398.28466 387.67290 0.34865
7759 30.92760 402.27279 393.76812 0.34390
7760 30.93120 405.78045 399.40873 0.33825
7761 30.93480 408.74559 405.39592 0.33181
7762 30.93840 411.11522 408.22932 0.32994
7763 30.94200 412.84566 412.87023 0.32675
7764 30.94560 413.90307 414.94125 0.32599
7765 30.94920 414.26416 417.60930 0.32481
7766 30.95280 413.91743 418.32356 0.32272
7767 30.95640 412.86478 418.93618 0.32218
7768 30.96000 411.12305 418.40048 0.32230
7769 30.96360 408.72534 416.53706 0.32343
7770 30.96720 405.72302 414.62470 0.32569
7771 30.97080 402.17782 408.57222 0.32963
7772 30.97440 398.16548 405.76720 0.33145
7773 30.97800 393.77305 401.36040 0.33550
7774 30.98160 389.09043 395.35843 0.34121
7775 30.98520 384.20763 387.83642 0.34834
7776 30.98880 379.21088 382.07174 0.35347
7777 30.99240 374.17957 374.26416 0.36498
7778 30.99600 369.18400 368.36899 0.44098
7779 30.99960 364.28402 361.29064 0.46173
7780 31.00320 359.52844 353.55102 0.46810
7781 31.00680 354.95826 347.30997 0.47436
7782 31.01040 350.59517 340.29753 0.48303
7783 31.01400 346.45592 338.25211 0.48426
7784 31.01760 342.54848 333.63555 0.49052
7785 31.02120 338.87274 329.33863 0.49620
7786 31.02480 335.42205 322.14214 0.50682
7787 31.02840 332.18167 321.67640 0.50774
7788 31.03200 329.13403 316.53538 0.51477
7789 31.03560 326.25924 312.87139 0.51999
7790 31.03920 323.54006 312.50082 0.52067
7791 31.04280 320.95290 309.77626 0.52442
7792 31.04640 318.47969 308.39175 0.52542
7793 31.05000 316.10899 304.05860 0.53457
7794 31.05360 313.83107 301.07072 0.53684
7795 31.05720 311.64006 299.09320 0.53947
7796 31.06080 309.53360 298.19769 0.56380
7797 31.06440 307.51222 298.29560 0.61219
7798 31.06800 305.57858 294.74364 0.61706
7799 31.07160 303.73682 292.82356 0.61874
7800 31.07520 301.99189 291.27096 0.61918
7801 31.07880 300.34915 293.03721 0.61285
7802 31.08240 298.81404 290.71238 0.61851
7803 31.08600 297.39190 290.24452 0.61722
7804 31.08960 296.08764 288.78899 0.61968
7805 31.09320 294.90439 290.19713 0.61772
7806 31.09680 293.85146 287.80054 0.62363
7807 31.10040 292.92956 285.01186 0.63064
7808 31.10400 292.14327 284.61834 0.62995
7809 31.10760 291.49689 286.63674 0.62538
7810 31.11120 290.99200 286.47421 0.62709
7811 31.11480 290.63186 285.31733 0.63054
7812 31.11840 290.41859 285.17842 0.62926
7813 31.12200 290.35361 285.10394 0.63007
7814 31.12560 290.43728 285.39188 0.63176
7815 31.12920 290.66498 285.06458 0.62977
7816 31.13280 291.05051 283.30567 0.63584
7817 31.13640 291.57814 284.50305 0.63371
7818 31.14000 292.24628 285.96408 0.63046
7819 31.14360 293.05132 287.71496 0.62489
7820 31.14720 293.98722 288.92515 0.62429
7821 31.15080 295.04599 288.40376 0.62515
7822 31.15440 296.21805 289.45700 0.62842
7823 31.15800 297.49230 290.39453 0.60914
7824 31.16160 298.85321 292.71563 0.54224
7825 31.16520 300.28602 293.65180 0.62369
7826 31.16880 301.77297 295.51732 0.52303
7827 31.17240 303.29448 296.40201 0.62239
7828 31.17600 304.82944 298.40412 0.60664
7829 31.17960 306.35561 299.16450 0.60446
7830 31.18320 307.85023 300.71331 0.60181
7831 31.18680 309.29057 302.94522 0.59600
7832 31.19040 310.65463 305.38956 0.59044
7833 31.19400 311.92255 306.72806 0.58748
7834 31.19760 313.07411 306.90767 0.58665
7835 31.20120 314.09105 309.56262 0.58131
7836 31.20480 314.96623 310.14064 0.57953
7837 31.20840 315.68806 308.90497 0.58156
7838 31.21200 316.25326 310.62755 0.57795
7839 31.21560 316.65664 313.05167 0.57381
7840 31.21920 316.90548 311.73410 0.57559
7841 31.22280 317.01556 312.37325 0.57436
7842 31.22640 317.00280 312.02681 0.57504
7843 31.23000 316.88646 313.61472 0.57262
7844 31.23360 316.69706 313.79629 0.57232
7845 31.23720 316.46252 313.81282 0.57150
7846 31.24080 316.20696 314.01713 0.57076
7847 31.24440 315.99753 312.99182 0.57421
7848 31.24800 315.85211 312.41153 0.57608
7849 31.25160 315.80058 314.10440 0.57199
7850 31.25520 315.87480 314.77099 0.57101
7851 31.25880 316.09911 315.81338 0.56924
7852 31.26240 316.49819 315.13466 0.56916
7853 31.26600 317.09058 313.35479 0.57175
7854 31.26960 317.89023 316.44987 0.56848
7855 31.27320 318.90640 317.23375 0.56747
7856 31.27680 320.14238 319.06051 0.56487
7857 31.28040 321.59989 320.87998 0.56057
7858 31.28400 323.27246 319.37045 0.56236
7859 31.28760 325.14925 320.87249 0.55943
7860 31.29120 327.21464 323.27526 0.55503
7861 31.29480 329.44623 325.35325 0.55005
7862 31.29840 331.81725 327.77189 0.54695
7863 31.30200 334.29573 331.51035 0.53893
7864 31.30560 336.84206 334.19355 0.53369
7865 31.30920 339.41186 338.04767 0.52786
7866 31.31280 341.94649 337.14145 0.52868
7867 31.31640 344.40702 340.53141 0.52447
7868 31.32000 346.72987 344.64376 0.51993
7869 31.32360 348.85817 345.29325 0.51842
7870 31.32720 350.73631 347.28580 0.51551
7871 31.33080 352.31451 349.10149 0.51406
7872 31.33440 353.55206 349.93092 0.51286
7873 31.33800 354.42049 350.90736 0.51170
7874 31.34160 354.90613 352.09335 0.51164
7875 31.34520 355.01156 352.20016 0.50992
7876 31.34880 354.75225 350.36817 0.51281
7877 31.35240 354.17016 351.70750 0.51139
7878 31.35600 353.30879 348.81832 0.51528
7879 31.35960 352.22442 347.01685 0.51958
7880 31.36320 350.97924 347.32861 0.51920
7881 31.36680 349.63361 345.01713 0.52270
7882 31.37040 348.26396 343.74516 0.52434
7883 31.37400 346.92811 343.18851 0.52496
7884 31.37760 345.68524 341.59100 0.52822
7885 31.38120 344.59003 339.94460 0.53086
7886 31.38480 343.69189 338.87383 0.53170
7887 31.38840 343.03477 339.04969 0.53109
7888 31.39200 342.65712 339.58909 0.53086
7889 31.39560 342.59194 338.64647 0.53210
7890 31.39920 342.86654 341.70044 0.52697
7891 31.40280 343.50481 342.77018 0.52499
7892 31.40640 344.52385 341.91794 0.52598
7893 31.41000 345.93644 344.40921 0.52180
7894 31.41360 347.75047 344.26261 0.52138
7895 31.41720 349.96893 347.79264 0.51785
7896 31.42080 352.58984 348.81165 0.51660
7897 31.42440 355.60612 351.12143 0.51339
7898 31.42800 359.00550 355.37436 0.50564
7899 31.43160 362.77040 357.10840 0.50473
7900 31.43520 366.87793 362.71336 0.49529
7901 31.43880 371.30002 363.15274 0.49442
7902 31.44240 376.00385 368.10306 0.48860
7903 31.44600 380.95323 371.29253 0.48430
7904 31.44960 386.10743 375.22277 0.48101
7905 31.45320 391.42511 380.66015 0.47261
7906 31.45680 396.86564 384.32417 0.46775
7907 31.46040 402.39011 389.28233 0.46173
7908 31.46400 407.96327 395.73045 0.45477
7909 31.46760 413.55465 399.65263 0.45017
7910 31.47120 419.13893 405.25416 0.44367
7911 31.47480 424.69573 409.14462 0.44073
7912 31.47840 430.20813 416.05970 0.43302
7913 31.48200 435.66252 420.74767 0.42866
7914 31.48560 441.04012 428.61642 0.42020
7915 31.48920 446.32185 433.90060 0.41450
7916 31.49280 451.48502 441.51971 0.40723
7917 31.49640 456.50037 445.28980 0.40481
7918 31.50000 461.33307 452.45372 0.39891
7919 31.50360 465.94390 459.10721 0.39553
7920 31.50720 470.29155 464.65296 0.39159
7921 31.51080 474.33577 475.42493 0.32991
7922 31.51440 478.04106 477.26213 0.37971
7923 31.51800 481.38042 484.05470 0.32811
7924 31.52160 484.33847 487.47571 0.36285
7925 31.52520 486.91360 496.22709 0.36510
7926 31.52880 489.11880 498.38674 0.36097
7927 31.53240 490.98097 502.45994 0.35833
7928 31.53600 492.53864 503.32027 0.35777
7929 31.53960 493.83868 506.73266 0.35500
7930 31.54320 494.93233 505.85121 0.35588
7931 31.54680 495.87053 509.45581 0.35324
7932 31.55040 496.69819 511.20877 0.35146
7933 31.55400 497.45785 512.86876 0.35044
7934 31.55760 498.17360 515.11584 0.34989
7935 31.56120 498.85722 515.31531 0.34892
7936 31.56480 499.50462 519.44862 0.34398
7937 31.56840 500.09586 519.42322 0.34460
7938 31.57200 500.59611 521.69488 0.34423
7939 31.57560 500.95842 523.26689 0.34339
7940 31.57920 501.12790 525.77368 0.34153
7941 31.58280 501.04692 525.35971 0.34085
7942 31.58640 500.66440 527.75540 0.33874
7943 31.59000 499.92789 528.97176 0.33857
7944 31.59360 498.80983 532.23145 0.33573
7945 31.59720 497.29789 531.10066 0.33630
7946 31.60080 495.40117 531.52546 0.33574
7947 31.60440 493.15046 532.54582 0.33357
7948 31.60800 490.59720 527.46092 0.33724
7949 31.61160 487.81058 523.12270 0.33971
7950 31.61520 484.87380 517.83374 0.34271
7951 31.61880 481.87942 516.11746 0.34566
7952 31.62240 478.92435 509.33772 0.35169
7953 31.62600 476.10527 504.40013 0.35546
7954 31.62960 473.51405 498.79272 0.35836
7955 31.63320 471.23401 493.16154 0.36244
7956 31.63680 469.33682 488.25595 0.36682
7957 31.64040 467.88012 485.91082 0.36951
7958 31.64400 466.90572 483.07980 0.37204
7959 31.64760 466.43836 480.46271 0.37389
7960 31.65120 466.48490 477.87188 0.37604
7961 31.65480 467.03375 474.31594 0.37862
7962 31.65840 468.05376 474.81992 0.37755
7963 31.66200 469.49757 475.23761 0.37819
7964 31.66560 471.29675 476.79581 0.37641
7965 31.66920 473.36696 479.88094 0.37500
7966 31.67280 475.60484 480.78496 0.37360
7967 31.67640 477.89487 480.94546 0.37341
7968 31.68000 480.10818 481.24742 0.37372
7969 31.68360 482.11619 486.29173 0.36940
7970 31.68720 483.78131 492.16404 0.36437
7971 31.69080 484.98536 491.14621 0.36629
7972 31.69440 485.62699 491.46390 0.36580
7973 31.69800 485.61478 491.69626 0.36608
7974 31.70160 484.89124 493.43848 0.36383
7975 31.70520 483.43024 495.72482 0.36181
7976 31.70880 481.24040 491.79710 0.36454
7977 31.71240 478.35002 488.17919 0.36801
7978 31.71600 474.80980 485.91924 0.36951
7979 31.71960 470.73243 481.86192 0.37239
7980 31.72320 466.19627 475.83122 0.37733
7981 31.72680 461.30107 471.81277 0.38060
7982 31.73040 456.14887 466.39636 0.38628
7983 31.73400 450.83605 460.61489 0.39034
7984 31.73760 445.45283 453.57491 0.39636
7985 31.74120 440.08334 447.39123 0.40230
7986 31.74480 434.79431 441.94682 0.40625
7987 31.74840 429.64384 437.74905 0.41027
7988 31.75200 424.67946 432.25024 0.41532
7989 31.75560 419.93956 424.76758 0.42241
7990 31.75920 415.45347 422.56855 0.42506
7991 31.76280 411.24386 419.18861 0.42806
7992 31.76640 407.32798 413.92238 0.43408
7993 31.77000 403.71748 412.78617 0.43447
7994 31.77360 400.41888 408.42945 0.43999
7995 31.77720 397.43326 408.49481 0.43932
7996 31.78080 394.75563 403.47522 0.44579
7997 31.78440 392.37466 402.29744 0.44647
7998 31.78800 390.27170 401.53279 0.44749
7999 31.79160 388.42052 399.95635 0.44974
8000 31.79520 386.78760 397.18595 0.45368
8001 31.79880 385.33263 396.20263 0.45438
8002 31.80240 384.00975 395.49369 0.45545
8003 31.80600 382.76940 396.26186 0.45510
8004 31.80960 381.56082 397.77027 0.45427
8005 31.81320 380.33506 398.24638 0.45222
8006 31.81680 379.04855 396.84150 0.45349
8007 31.82040 377.66554 394.89372 0.45585
8008 31.82400 376.16012 393.66891 0.45737
8009 31.82760 374.52103 393.98895 0.45589
8010 31.83120 372.74991 393.62840 0.45748
8011 31.83480 370.86161 389.77470 0.46130
8012 31.83840 368.88258 387.14028 0.46482
8013 31.84200 366.84855 384.75651 0.46788
8014 31.84560 364.80184 379.80981 0.47381
8015 31.84920 362.78849 378.13965 0.47713
8016 31.85280 360.85535 375.99141 0.47926
8017 31.85640 359.04918 370.89205 0.48487
8018 31.86000 357.40448 369.96956 0.48658
8019 31.86360 355.97525 366.08547 0.49044
8020 31.86720 354.78798 364.33299 0.49329
8021 31.87080 353.87196 359.79429 0.50006
8022 31.87440 353.25044 356.75258 0.50432
8023 31.87800 352.94098 356.47711 0.50347
8024 31.88160 352.95522 356.29200 0.50468
8025 31.88520 353.29828 356.06296 0.50506
8026 31.88880 353.96350 356.44435 0.50513
8027 31.89240 354.95736 358.70922 0.50234
8028 31.89600 356.26024 360.76734 0.49873
8029 31.89960 357.85200 364.08100 0.49318
8030 31.90320 359.70631 368.94572 0.48545
8031 31.90680 361.79051 369.54661 0.48513
8032 31.91040 364.06598 374.73464 0.47939
8033 31.91400 366.48890 378.95329 0.47396
8034 31.91760 369.01135 383.28236 0.46751
8035 31.92120 371.58284 388.08862 0.46313
8036 31.92480 374.15214 391.53892 0.45716
8037 31.92840 376.66921 396.58681 0.45292
8038 31.93200 379.08717 400.44363 0.44824
8039 31.93560 381.36375 403.02891 0.44397
8040 31.93920 383.46266 405.31757 0.44118
8041 31.94280 385.35321 408.05408 0.43783
8042 31.94640 387.00977 413.57191 0.43142
8043 31.95000 388.41299 410.60396 0.43450
8044 31.95360 389.54550 408.03456 0.43664
8045 31.95720 390.39374 408.10367 0.43566
8046 31.96080 390.94724 406.84801 0.43674
8047 31.96440 391.19751 404.85108 0.43878
8048 31.96800 391.14030 402.50546 0.44191
8049 31.97160 390.78213 401.57555 0.44493
8050 31.97520 390.12908 395.35382 0.45201
8051 31.97880 389.19692 390.28081 0.45964
8052 31.98240 388.01588 389.81921 0.45951
8053 31.98600 386.61640 388.51435 0.46065
8054 31.98960 385.03762 387.40031 0.46294
8055 31.99320 383.32291 385.66991 0.46578
8056 31.99680 381.51755 381.09769 0.47073
8057 32.00040 379.66647 378.72445 0.47333
8058 32.00400 377.81220 376.21558 0.47724
8059 32.00760 375.99530 377.21701 0.47572
8060 32.01120 374.24982 375.32590 0.47867
8061 32.01480 372.60505 368.54619 0.48620
8062 32.01840 371.08432 369.70583 0.48653
8063 32.02200 369.70451 367.23168 0.48910
8064 32.02560 368.47571 365.76666 0.49159
8065 32.02920 367.40087 364.92728 0.49254
8066 32.03280 366.47563 363.36520 0.49541
8067 32.03640 365.68817 363.96375 0.49483
8068 32.04000 365.01895 364.67273 0.49380
8069 32.04360 364.44372 363.40255 0.49496
8070 32.04720 363.93071 362.65001 0.49587
8071 32.05080 363.44445 362.20768 0.49529
8072 32.05440 362.94712 361.64471 0.49667
8073 32.05800 362.40074 364.55783 0.49356
8074 32.06160 361.76958 364.18829 0.49277
8075 32.06520 361.02261 362.17143 0.49538
8076 32.06880 360.13572 361.68662 0.49476
8077 32.07240 359.09354 361.88895 0.49612
8078 32.07600 357.89035 361.87260 0.49510
8079 32.07960 356.53039 359.07407 0.49921
8080 32.08320 355.02742 358.83882 0.50097
8081 32.08680 353.40271 358.27610 0.50098
8082 32.09040 351.68403 354.09900 0.50770
8083 32.09400 349.90359 354.71988 0.50743
8084 32.09760 348.09686 353.06456 0.50970
8085 32.10120 346.29732 349.29418 0.51562
8086 32.10480 344.53630 345.24559 0.52087
8087 32.10840 342.84506 344.33272 0.52232
8088 32.11200 341.24965 342.29089 0.52548
8089 32.11560 339.77234 340.09976 0.52767
8090 32.11920 338.43161 336.06001 0.53584
8091 32.12280 337.24108 334.73813 0.53794
8092 32.12640 336.20965 334.80763 0.53858
8093 32.13000 335.34393 331.45053 0.54446
8094 32.13360 334.64709 333.52663 0.53902
8095 32.13720 334.11825 329.89763 0.54504
8096 32.14080 333.75588 327.85888 0.54978
8097 32.14440 333.55598 325.92707 0.55123
8098 32.14800 333.51346 326.47559 0.55219
8099 32.15160 333.62224 327.66282 0.55021
8100 32.15520 333.87527 326.73266 0.55048
8101 32.15880 334.26481 325.08956 0.55484
8102 32.16240 334.78253 326.29836 0.55127
8103 32.16600 335.41956 328.38139 0.54839
8104 32.16960 336.16660 330.00859 0.54608
8105 32.17320 337.01424 328.62267 0.54775
8106 32.17680 337.95320 329.08607 0.54542
8107 32.18040 338.97469 333.12175 0.53891
8108 32.18400 340.07068 333.74515 0.53898
8109 32.18760 341.23423 333.03971 0.54062
8110 32.19120 342.45967 332.87277 0.54180
8111 32.19480 343.74275 333.43847 0.53824
8112 32.19840 345.08144 334.44580 0.53720
8113 32.20200 346.47399 338.99752 0.52926
8114 32.20560 347.92201 338.14429 0.53194
8115 32.20920 349.42928 340.00931 0.52877
8116 32.21280 351.00186 342.92771 0.52351
8117 32.21640 352.64987 344.76250 0.52008
8118 32.22000 354.37993 346.06463 0.51885
8119 32.22360 356.20575 345.81989 0.51869
8120 32.22720 358.13979 344.95140 0.52147
8121 32.23080 360.19436 347.66673 0.51694
8122 32.23440 362.38078 349.76120 0.51369
8123 32.23800 364.71283 350.99561 0.51233
8124 32.24160 367.18848 351.79569 0.51299
8125 32.24520 369.81545 355.80911 0.50588
8126 32.24880 372.59340 356.39183 0.50388
8127 32.25240 375.51768 358.66796 0.50067
8128 32.25600 378.57959 361.90651 0.49734
8129 32.25960 381.75785 362.93209 0.49517
8130 32.26320 385.03222 366.23875 0.49141
8131 32.26680 388.37212 367.52845 0.48912
8132 32.27040 391.73968 372.82884 0.48200
8133 32.27400 395.08925 375.62838 0.47783
8134 32.27760 398.36792 378.22442 0.47604
8135 32.28120 401.51700 381.43462 0.47297
8136 32.28480 404.47379 383.79858 0.46774
8137 32.28840 407.17430 384.59563 0.46706
8138 32.29200 409.55674 389.98508 0.46104
8139 32.29560 411.56539 392.43065 0.45874
8140 32.29920 413.15460 393.99943 0.45639
8141 32.30280 414.29224 397.34911 0.45217
8142 32.30640 414.96264 398.98962 0.45010
8143 32.31000 415.16814 401.24571 0.44752
8144 32.31360 414.92929 401.39038 0.44590
8145 32.31720 414.28360 401.71624 0.44530
8146 32.32080 413.28335 400.17554 0.44812
8147 32.32440 411.99260 398.93375 0.44954
8148 32.32800 410.48359 399.21595 0.44980
8149 32.33160 408.83319 399.78312 0.44861
8150 32.33520 407.11953 398.81472 0.44919
8151 32.33880 405.41910 396.84211 0.45226
8152 32.34240 403.80412 396.40549 0.45269
8153 32.34600 402.33364 397.19668 0.45239
8154 32.34960 401.08167 395.79631 0.45340
8155 32.35320 400.09298 398.01888 0.45079
8156 32.35680 399.40899 398.62183 0.44890
8157 32.36040 399.06346 403.56078 0.44467
8158 32.36400 399.08091 404.91331 0.44244
8159 32.36760 399.47699 407.18236 0.44054
8160 32.37120 400.25855 413.27682 0.43488
8161 32.37480 401.42403 422.13995 0.42646
8162 32.37840 402.96388 427.33896 0.41943
8163 32.38200 404.86160 430.46673 0.41694
8164 32.38560 407.09385 434.99713 0.41168
8165 32.38920 409.63329 439.99750 0.40870
8166 32.39280 412.44939 444.41964 0.40301
8167 32.39640 415.51069 445.96094 0.40158
8168 32.40000 418.78718 444.62463 0.40456
8169 32.40360 422.25222 444.82841 0.40436
8170 32.40720 425.88437 444.37784 0.40442
8171 32.41080 429.66854 444.83592 0.40278
8172 32.41440 433.59785 446.30962 0.40145
8173 32.41800 437.66914 449.51630 0.39907
8174 32.42160 441.88446 451.40881 0.39743
8175 32.42520 446.25331 456.79468 0.39200
8176 32.42880 450.78680 461.66007 0.38863
8177 32.43240 455.49836 463.15757 0.38790
8178 32.43600 460.40309 469.46941 0.38245
8179 32.43960 465.51776 474.34218 0.37908
8180 32.44320 470.86050 480.54287 0.37474
8181 32.44680 476.45079 487.32502 0.36870
8182 32.45040 482.30849 492.38974 0.36512
8183 32.45400 488.45269 501.71309 0.35792
8184 32.45760 494.89923 510.93821 0.35181
8185 32.46120 501.65809 522.24509 0.34396
8186 32.46480 508.73022 537.24583 0.33403
8187 32.46840 516.10433 552.14670 0.32550
8188 32.47200 523.75407 570.73317 0.31458
8189 32.47560 531.63552 591.12248 0.30279
8190 32.47920 539.68622 614.67823 0.29179
8191 32.48280 547.82401 638.44847 0.28047
8192 32.48640 555.94934 665.87149 0.23922
8193 32.49000 563.94707 690.05188 0.25951
8194 32.49360 571.69121 713.50661 0.25042
8195 32.49720 579.05045 737.07050 0.24232
8196 32.50080 585.89541 757.58745 0.23563
8197 32.50440 592.10583 772.16967 0.23143
8198 32.50800 597.57771 780.93971 0.22858
8199 32.51160 602.23558 784.08466 0.22802
8200 32.51520 606.01213 784.30203 0.22706
8201 32.51880 608.88454 783.59741 0.22706
8202 32.52240 610.85348 770.72451 0.23157
8203 32.52600 611.94349 758.06606 0.23491
8204 32.52960 612.20087 741.21238 0.24064
8205 32.53320 611.68493 722.07050 0.24666
8206 32.53680 610.46821 695.16492 0.25688
8207 32.54040 608.62784 673.65282 0.26568
8208 32.54400 606.24116 653.99391 0.27397
8209 32.54760 603.38063 635.85745 0.28149
8210 32.55120 600.10980 621.58931 0.28671
8211 32.55480 596.47961 606.99294 0.29429
8212 32.55840 592.52530 594.04141 0.30108
8213 32.56200 588.27092 581.12852 0.30695
8214 32.56560 583.72266 568.67094 0.31454
8215 32.56920 578.87673 560.08305 0.31921
8216 32.57280 573.72271 551.13834 0.32337
8217 32.57640 568.24854 539.56431 0.33110
8218 32.58000 562.44531 531.33606 0.33638
8219 32.58360 556.31167 525.10868 0.34023
8220 32.58720 549.85649 521.26138 0.34327
8221 32.59080 543.09997 511.27599 0.35075
8222 32.59440 536.07230 505.58326 0.35508
8223 32.59800 528.81205 502.19540 0.35727
8224 32.60160 521.36217 497.60127 0.36006
8225 32.60520 513.76878 490.10753 0.36550
8226 32.60880 506.07382 485.04795 0.36901
8227 32.61240 498.32388 480.97301 0.37216
8228 32.61600 490.57205 477.49660 0.37478
8229 32.61960 482.85470 471.49396 0.37884
8230 32.62320 475.21418 464.37479 0.38587
8231 32.62680 467.69440 459.39136 0.38978
8232 32.63040 460.33586 456.73881 0.39244
8233 32.63400 453.18785 452.61376 0.39575
8234 32.63760 446.29042 444.44362 0.40365
8235 32.64120 439.68359 439.10451 0.40767
8236 32.64480 433.40341 430.42402 0.41534
8237 32.64840 427.48157 423.31896 0.42274
8238 32.65200 421.94094 419.96620 0.42680
8239 32.65560 416.79681 417.53585 0.42856
8240 32.65920 412.05922 412.66342 0.43348
8241 32.66280 407.72955 405.92669 0.44083
8242 32.66640 403.80192 398.51889 0.44915
8243 32.67000 400.26397 394.59630 0.45362
8244 32.67360 397.09786 392.40103 0.45597
8245 32.67720 394.28141 389.08987 0.45919
8246 32.68080 391.78987 386.89576 0.46150
8247 32.68440 389.59610 385.44965 0.46333
8248 32.68800 387.67335 381.74149 0.47010
8249 32.69160 385.99657 378.64754 0.47425
8250 32.69520 384.54308 377.81040 0.47475
8251 32.69880 383.29379 375.90199 0.47800
8252 32.70240 382.23384 372.95948 0.48201
8253 32.70600 381.35275 371.85919 0.48283
8254 32.70960 380.64416 370.34351 0.48648
8255 32.71320 380.10511 369.71446 0.48544
8256 32.71680 379.73511 368.58676 0.48891
8257 32.72040 379.53476 368.63710 0.48789
8258 32.72400 379.50445 369.70290 0.48533
8259 32.72760 379.64290 371.02744 0.48313
8260 32.73120 379.94626 372.49659 0.48117
8261 32.73480 380.40580 372.25130 0.48144
8262 32.73840 381.00464 373.75775 0.48079
8263 32.74200 381.73291 376.56997 0.47684
8264 32.74560 382.56325 380.70682 0.47097
8265 32.74920 383.46631 381.82022 0.46924
8266 32.75280 384.40846 387.48397 0.46310
8267 32.75640 385.35326 391.13340 0.45842
8268 32.76000 386.26184 393.24425 0.45562
8269 32.76360 387.09597 396.17018 0.45202
8270 32.76720 387.82008 399.53386 0.44706
8271 32.77080 388.40380 403.61123 0.44464
8272 32.77440 388.82452 405.30359 0.44185
8273 32.77800 389.06780 408.18559 0.43962
8274 32.78160 389.12932 408.66445 0.43952
8275 32.78520 389.01388 409.55522 0.43719
8276 32.78880 388.73362 409.96112 0.43701
8277 32.79240 388.30804 408.55343 0.43957
8278 32.79600 387.75991 406.63275 0.43984
8279 32.79960 387.11277 406.84024 0.43964
8280 32.80320 386.38698 402.44347 0.44458
8281 32.80680 385.60901 402.44130 0.44537
8282 32.81040 384.79138 399.23454 0.44858
8283 32.81400 383.94596 399.47155 0.44922
8284 32.81760 383.07821 398.41012 0.44922
8285 32.82120 382.19070 395.85504 0.45202
8286 32.82480 381.28324 392.99582 0.45361
8287 32.82840 380.34858 394.95598 0.45316
8288 32.83200 379.40100 394.65811 0.45342
8289 32.83560 378.43517 393.00053 0.45617
8290 32.83920 377.45660 390.49340 0.45896
8291 32.84280 376.47738 391.08434 0.45895
8292 32.84640 375.51515 391.31268 0.45787
8293 32.85000 374.59246 389.85686 0.45864
8294 32.85360 373.73789 388.90870 0.45965
8295 32.85720 372.99300 388.51392 0.46128
8296 32.86080 372.39124 388.47947 0.46168
8297 32.86440 371.97788 386.57671 0.46394
8298 32.86800 371.80077 385.30425 0.46448
8299 32.87160 371.90238 385.74482 0.46354
8300 32.87520 372.33142 385.84875 0.46260
8301 32.87880 373.13488 385.11219 0.46514
8302 32.88240 374.35822 384.65063 0.46509
8303 32.88600 376.04513 387.45172 0.46164
8304 32.88960 378.23722 387.83158 0.46216
8305 32.89320 380.97363 388.23753 0.46199
8306 32.89680 384.29069 393.22413 0.45620
8307 32.90040 388.22200 395.29539 0.45153
8308 32.90400 392.79625 397.15145 0.45006
8309 32.90760 398.03924 401.03861 0.44558
8310 32.91120 403.97173 406.94468 0.43891
8311 32.91480 410.60902 411.63947 0.43481
8312 32.91840 417.96018 416.39464 0.43007
8313 32.92200 426.02720 421.74823 0.42431
8314 32.92560 434.80396 429.97713 0.41478
8315 32.92920 444.27592 438.53065 0.40661
8316 32.93280 454.41656 446.62622 0.40013
8317 32.93640 465.18846 455.12518 0.39179
8318 32.94000 476.54303 461.82046 0.38716
8319 32.94360 488.41821 470.06795 0.38041
8320 32.94720 500.73959 480.90774 0.37196
8321 32.95080 513.41505 493.84054 0.36315
8322 32.95440 526.34491 500.61591 0.35814
8323 32.95800 539.41688 513.24748 0.34847
8324 32.96160 552.51001 526.49371 0.33807
8325 32.96520 565.49857 534.60413 0.32953
8326 32.96880 578.25151 547.27590 0.32513
8327 32.97240 590.63990 560.92112 0.31839
8328 32.97600 602.53900 574.69248 0.31042
8329 32.97960 613.83010 584.15771 0.30525
8330 32.98320 624.40438 598.96755 0.29800
8331 32.98680 634.16057 607.31212 0.29449
8332 32.99040 643.01357 617.36880 0.28912
8333 32.99400 650.89162 628.61706 0.28406
8334 32.99760 657.73867 640.66103 0.27892
8335 33.00120 663.51511 650.74286 0.27486
8336 33.00480 668.19563 659.46664 0.27087
8337 33.00840 671.77036 662.52693 0.26882
8338 33.01200 674.24024 669.39622 0.26621
8339 33.01560 675.61377 676.58989 0.26297
8340 33.01920 675.90366 677.16497 0.26394
8341 33.02280 675.12391 679.12485 0.26283
8342 33.02640 673.28518 680.55433 0.26224
8343 33.03000 670.40337 678.11895 0.26328
8344 33.03360 666.49581 675.43969 0.26353
8345 33.03720 661.57727 673.91353 0.26423
8346 33.04080 655.67266 669.24662 0.26686
8347 33.04440 648.81745 661.24256 0.27009
8348 33.04800 641.06049 653.75082 0.27317
8349 33.05160 632.46567 644.08498 0.27716
8350 33.05520 623.11222 634.99517 0.28099
8351 33.05880 613.09343 624.61390 0.28711
8352 33.06240 602.51364 612.51220 0.29229
8353 33.06600 591.48887 602.85210 0.29545
8354 33.06960 580.13998 589.69665 0.30218
8355 33.07320 568.58601 576.86683 0.30937
8356 33.07680 556.94478 563.38664 0.31754
8357 33.08040 545.32810 554.17661 0.32296
8358 33.08400 533.83915 541.86786 0.33039
8359 33.08760 522.57071 529.25753 0.33867
8360 33.09120 511.60418 517.99252 0.34524
8361 33.09480 501.00939 509.63872 0.35082
8362 33.09840 490.84503 499.99960 0.35687
8363 33.10200 481.15949 493.27732 0.36174
8364 33.10560 471.99194 484.84731 0.36873
8365 33.10920 463.37288 475.21371 0.37726
8366 33.11280 455.32562 470.91957 0.38040
8367 33.11640 447.86656 464.09464 0.38558
8368 33.12000 441.00555 454.54318 0.39374
8369 33.12360 434.74622 450.19599 0.39700
8370 33.12720 429.08619 445.51397 0.40175
8371 33.13080 424.01731 437.91404 0.40757
8372 33.13440 419.52616 436.09178 0.40918
8373 33.13800 415.59461 434.04614 0.41204
8374 33.14160 412.20059 431.01410 0.41568
8375 33.14520 409.31883 424.46202 0.42269
8376 33.14880 406.92165 424.09223 0.42142
8377 33.15240 404.97944 423.48934 0.42187
8378 33.15600 403.46104 421.14818 0.42437
8379 33.15960 402.33357 419.75669 0.42623
8380 33.16320 401.56219 420.26899 0.42631
8381 33.16680 401.10949 420.82975 0.42605
8382 33.17040 400.93492 419.81050 0.42706
8383 33.17400 400.99433 421.45852 0.42372
8384 33.17760 401.23945 422.96285 0.42151
8385 33.18120 401.61833 426.89835 0.41933
8386 33.18480 402.07554 428.86188 0.41830
8387 33.18840 402.55317 432.94791 0.41370
8388 33.19200 402.99363 435.09156 0.41114
8389 33.19560 403.34021 435.99386 0.41128
8390 33.19920 403.54007 440.96569 0.40642
8391 33.20280 403.54099 445.75562 0.40185
8392 33.20640 403.30090 445.32409 0.40219
8393 33.21000 402.81282 449.12861 0.39716
8394 33.21360 402.04411 452.39552 0.39456
8395 33.21720 400.98647 452.37352 0.39438
8396 33.22080 399.64242 451.60401 0.39498
8397 33.22440 398.02456 450.25870 0.39567
8398 33.22800 396.15515 445.54575 0.39944
8399 33.23160 394.06417 441.03858 0.40448
8400 33.23520 391.78658 439.48558 0.40559
8401 33.23880 389.36548 434.56403 0.41056
8402 33.24240 386.84639 429.44765 0.41618
8403 33.24600 384.27659 421.39295 0.42428
8404 33.24960 381.70326 416.03439 0.42999
8405 33.25320 379.17175 407.59834 0.43886
8406 33.25680 376.72395 401.41388 0.44514
8407 33.26040 374.39772 395.75766 0.45147
8408 33.26400 372.22317 386.89887 0.46070
8409 33.26760 370.22598 382.78807 0.46729
8410 33.27120 368.42435 376.33225 0.47637
8411 33.27480 366.82943 372.27262 0.48103
8412 33.27840 365.44542 367.27228 0.48747
8413 33.28200 364.27059 363.23916 0.49203
8414 33.28560 363.29423 360.90398 0.49483
8415 33.28920 362.50275 357.00849 0.50240
8416 33.29280 361.87694 356.14365 0.50367
8417 33.29640 361.39396 352.41181 0.50872
8418 33.30000 361.02872 351.43627 0.50954
8419 33.30360 360.75533 349.87416 0.51137
8420 33.30720 360.54973 347.09400 0.51676
8421 33.31080 360.38434 346.57816 0.51665
8422 33.31440 360.24127 348.67593 0.51300
8423 33.31800 360.09795 347.05167 0.51486
8424 33.32160 359.93643 346.16748 0.51688
8425 33.32520 359.74268 344.24898 0.51924
8426 33.32880 359.50201 346.02099 0.51744
8427 33.33240 359.19984 347.17097 0.51595
8428 33.33600 358.82104 346.56677 0.51713
8429 33.33960 358.34982 345.72832 0.51771
8430 33.34320 357.76989 344.40803 0.52030
8431 33.34680 357.06536 343.94143 0.52045
8432 33.35040 356.22177 344.54770 0.51924
8433 33.35400 355.22759 343.15686 0.52129
8434 33.35760 354.07539 342.19198 0.52391
8435 33.36120 352.76300 339.97272 0.52762
8436 33.36480 351.29408 341.96466 0.52415
8437 33.36840 349.67816 340.93144 0.52476
8438 33.37200 347.93007 338.94135 0.52806
8439 33.37560 346.06934 336.72939 0.53163
8440 33.37920 344.11721 336.09075 0.53337
8441 33.38280 342.09808 337.78353 0.52973
8442 33.38640 340.03648 334.53672 0.53527
8443 33.39000 337.95821 331.96134 0.53770
8444 33.39360 335.88308 330.78383 0.54074
8445 33.39720 333.83393 331.83646 0.53963
8446 33.40080 331.83009 330.01977 0.54202
8447 33.40440 329.88901 327.73580 0.54434
8448 33.40800 328.02548 327.03642 0.54756
8449 33.41160 326.24969 325.59621 0.55200
8450 33.41520 324.57651 321.98158 0.55673
8451 33.41880 323.01072 319.56433 0.55909
8452 33.42240 321.55661 319.16464 0.56090
8453 33.42600 320.21554 319.51167 0.55990
8454 33.42960 318.98812 318.99056 0.56098
8455 33.43320 317.87060 317.78188 0.56370
8456 33.43680 316.85797 315.80661 0.56663
8457 33.44040 315.94369 315.35584 0.56781
8458 33.44400 315.12193 313.67979 0.56990
8459 33.44760 314.38132 315.11724 0.56683
8460 33.45120 313.71615 314.53742 0.56676
8461 33.45480 313.11921 312.06338 0.57199
8462 33.45840 312.58495 310.98750 0.57557
8463 33.46200 312.10872 311.63779 0.57229
8464 33.46560 311.68943 311.78302 0.57310
8465 33.46920 311.32724 312.20906 0.57233
8466 33.47280 311.02410 312.53408 0.57021
8467 33.47640 310.78380 309.16927 0.57640
8468 33.48000 310.60982 308.62741 0.57807
8469 33.48360 310.50725 310.02265 0.57529
8470 33.48720 310.48068 311.36253 0.57249
8471 33.49080 310.53409 309.61784 0.57771
8472 33.49440 310.67020 307.45324 0.58085
8473 33.49800 310.89049 307.52302 0.58040
8474 33.50160 311.19474 309.22824 0.57695
8475 33.50520 311.58087 309.10222 0.57804
8476 33.50880 312.04494 308.00369 0.57904
8477 33.51240 312.58112 311.35172 0.57288
8478 33.51600 313.18189 308.50089 0.57934
8479 33.51960 313.83824 308.91728 0.57892
8480 33.52320 314.54000 310.47085 0.57728
8481 33.52680 315.27641 311.44105 0.57579
8482 33.53040 316.03600 310.27601 0.57758
8483 33.53400 316.80791 313.03130 0.57447
8484 33.53760 317.58170 313.13400 0.57396
8485 33.54120 318.34782 314.31451 0.57090
8486 33.54480 319.09776 312.33435 0.57393
8487 33.54840 319.82414 313.89203 0.57214
8488 33.55200 320.52061 315.54130 0.56904
8489 33.55560 321.18172 318.08152 0.56409
8490 33.55920 321.80274 317.13344 0.56523
8491 33.56280 322.37678 317.54502 0.56493
8492 33.56640 322.90065 319.18037 0.56204
8493 33.57000 323.37683 320.07642 0.56182
8494 33.57360 323.79678 321.56496 0.55769
8495 33.57720 324.15631 322.94592 0.55422
8496 33.58080 324.45022 323.18114 0.55454
8497 33.58440 324.67632 323.37673 0.55398
8498 33.58800 324.83044 324.88132 0.55140
8499 33.59160 324.91050 326.68980 0.54874
8500 33.59520 324.91686 327.30540 0.54728
8501 33.59880 324.85247 328.45041 0.54653
8502 33.60240 324.72381 328.64153 0.54577
8503 33.60600 324.54218 327.27088 0.54786
8504 33.60960 324.32138 326.65202 0.54989
8505 33.61320 324.07591 325.56949 0.54991
8506 33.61680 323.82715 326.08895 0.54948
8507 33.62040 323.59606 328.55534 0.54490
8508 33.62400 323.40389 325.79868 0.54967
8509 33.62760 323.27091 323.77281 0.55421
8510 33.63120 323.21508 324.73280 0.55168
8511 33.63480 323.25423 326.79380 0.54779
8512 33.63840 323.40053 322.51071 0.55602
8513 33.64200 323.66338 322.82743 0.55377
8514 33.64560 324.04817 322.42024 0.55498
8515 33.64920 324.55628 318.79695 0.56212
8516 33.65280 325.18489 318.51847 0.56127
8517 33.65640 325.92692 319.90615 0.55881
8518 33.66000 326.77099 319.98409 0.55978
8519 33.66360 327.70149 318.59697 0.56181
8520 33.66720 328.69876 318.02703 0.56230
8521 33.67080 329.73941 321.57097 0.55593
8522 33.67440 330.79870 321.14439 0.55752
8523 33.67800 331.84399 321.17337 0.55802
8524 33.68160 332.84634 322.16237 0.55717
8525 33.68520 333.77509 321.91766 0.55545
8526 33.68880 334.60113 321.45018 0.55583
8527 33.69240 335.29819 320.75294 0.55877
8528 33.69600 335.84445 320.52150 0.55968
8529 33.69960 336.22384 322.00328 0.55567
8530 33.70320 336.42697 324.51142 0.55044
8531 33.70680 336.45157 320.78327 0.55865
8532 33.71040 336.30243 322.03333 0.55767
8533 33.71400 335.98995 322.83951 0.55658
8534 33.71760 335.53060 322.63720 0.55574
8535 33.72120 334.94470 322.20176 0.55707
8536 33.72480 334.25524 320.64089 0.55901
8537 33.72840 333.48670 321.11819 0.55873
8538 33.73200 332.66373 320.11152 0.55911
8539 33.73560 331.80821 319.86135 0.56047
8540 33.73920 330.94755 319.46253 0.56168
8541 33.74280 330.10074 319.01627 0.56260
8542 33.74640 329.28670 316.84521 0.56597
8543 33.75000 328.52245 315.70650 0.56798
8544 33.75360 327.82297 317.17323 0.56449
8545 33.75720 327.20131 317.98554 0.56346
8546 33.76080 326.66864 316.97315 0.56520
8547 33.76440 326.23417 315.90977 0.56665
8548 33.76800 325.90645 315.67877 0.56615
8549 33.77160 325.69110 316.46514 0.56569
8550 33.77520 325.59219 316.74296 0.56376
8551 33.77880 325.61159 315.26408 0.56557
8552 33.78240 325.74873 317.29293 0.56144
8553 33.78600 326.00016 318.33932 0.56072
8554 33.78960 326.35946 316.87477 0.56266
8555 33.79320 326.81783 319.75581 0.55893
8556 33.79680 327.36222 319.35194 0.56091
8557 33.80040 327.97491 321.94565 0.55339
8558 33.80400 328.63903 320.54924 0.55519
8559 33.80760 329.33450 320.64572 0.55493
8560 33.81120 330.04035 323.01235 0.55312
8561 33.81480 330.73586 324.61606 0.54988
8562 33.81840 331.40170 327.42421 0.54518
8563 33.82200 332.02110 324.50174 0.55253
8564 33.82560 332.58067 325.09957 0.54953
8565 33.82920 333.07103 328.52399 0.54332
8566 33.83280 333.48690 329.57454 0.54378
8567 33.83640 333.82734 328.25605 0.54661
8568 33.84000 334.09223 328.16769 0.54662
8569 33.84360 334.28544 330.61771 0.54188
8570 33.84720 334.41092 332.78241 0.53934
8571 33.85080 334.47232 333.82923 0.53822
8572 33.85440 334.47230 329.76717 0.54379
8573 33.85800 334.41203 331.86168 0.54106
8574 33.86160 334.29129 332.81996 0.53832
8575 33.86520 334.10886 332.09358 0.53988
8576 33.86880 333.86506 333.41621 0.53599
8577 33.87240 333.55426 331.68033 0.53972
8578 33.87600 333.17863 332.66995 0.53876
8579 33.87960 332.74009 335.09651 0.53390
8580 33.88320 332.24289 336.07555 0.53333
8581 33.88680 331.69374 335.63014 0.53412
8582 33.89040 331.10141 336.72806 0.53096
8583 33.89400 330.47625 335.84358 0.53284
8584 33.89760 329.82950 337.30952 0.52956
8585 33.90120 329.17253 335.16055 0.53512
8586 33.90480 328.51631 334.33532 0.53529
8587 33.90840 327.87103 334.94849 0.53566
8588 33.91200 327.24594 334.50974 0.53596
8589 33.91560 326.64942 335.16642 0.53472
8590 33.91920 326.08923 332.39521 0.53974
8591 33.92280 325.57266 330.96243 0.54314
8592 33.92640 325.10687 330.83797 0.54366
8593 33.93000 324.70058 332.33641 0.54099
8594 33.93360 324.35688 331.70095 0.54029
8595 33.93720 324.08349 330.44497 0.54246
8596 33.94080 323.88551 330.13237 0.54235
8597 33.94440 323.76643 327.90095 0.54741
8598 33.94800 323.72775 326.55001 0.55038
8599 33.95160 323.76845 325.36270 0.55108
8600 33.95520 323.88476 324.78272 0.55092
8601 33.95880 324.07147 323.23097 0.55559
8602 33.96240 324.31860 325.46949 0.55219
8603 33.96600 324.60922 325.37792 0.55218
8604 33.96960 324.93100 324.12752 0.55352
8605 33.97320 325.26660 323.80883 0.55534
8606 33.97680 325.59724 322.56639 0.55723
8607 33.98040 325.90318 322.88758 0.55713
8608 33.98400 326.16466 325.20671 0.55201
8609 33.98760 326.36230 325.10657 0.55228
8610 33.99120 326.47837 326.36069 0.55161
8611 33.99480 326.49765 327.01132 0.54927
8612 33.99840 326.40623 326.83242 0.54890
8613 34.00200 326.19588 328.18395 0.54655
8614 34.00560 325.85923 327.30530 0.54807
8615 34.00920 325.39285 327.92198 0.54782
8616 34.01280 324.79759 327.13883 0.54878
8617 34.01640 324.07831 328.86441 0.54587
8618 34.02000 323.24388 327.83910 0.54812
8619 34.02360 322.30703 328.23275 0.54608
8620 34.02720 321.28438 329.25708 0.54532
8621 34.03080 320.19571 327.64144 0.54830
8622 34.03440 319.05988 327.39180 0.54698
8623 34.03800 317.90125 326.35952 0.54985
8624 34.04160 316.74275 323.98911 0.55473
8625 34.04520 315.60842 321.27911 0.56021
8626 34.04880 314.52007 322.11424 0.55976
8627 34.05240 313.49944 318.53562 0.56430
8628 34.05600 312.56695 319.87927 0.56094
8629 34.05960 311.74138 316.63517 0.56729
8630 34.06320 311.04000 315.51444 0.57000
8631 34.06680 310.47947 315.80731 0.56894
8632 34.07040 310.07204 314.16075 0.57220
8633 34.07400 309.83161 313.69466 0.57264
8634 34.07760 309.76972 314.63501 0.57018
8635 34.08120 309.89661 314.71208 0.56947
8636 34.08480 310.22124 316.06396 0.56972
8637 34.08840 310.75131 316.31718 0.56838
8638 34.09200 311.49317 317.44469 0.56505
8639 34.09560 312.45179 317.34487 0.56564
8640 34.09920 313.63068 318.31388 0.56533
8641 34.10280 315.03173 319.59408 0.56054
8642 34.10640 316.65510 321.36560 0.55788
8643 34.11000 318.49912 320.92424 0.55781
8644 34.11360 320.56006 325.19825 0.54941
8645 34.11720 322.83199 327.92159 0.54516
8646 34.12080 325.30660 330.31017 0.54101
8647 34.12440 327.97395 332.98248 0.53641
8648 34.12800 330.81844 335.64957 0.53065
8649 34.13160 333.82433 338.40422 0.52573
8650 34.13520 336.97166 340.48990 0.52261
8651 34.13880 340.23694 346.66429 0.51440
8652 34.14240 343.59292 346.81410 0.51492
8653 34.14600 347.00839 351.97926 0.50549
8654 34.14960 350.44803 357.91529 0.49751
8655 34.15320 353.87255 359.94587 0.49506
8656 34.15680 357.23898 363.77982 0.49004
8657 34.16040 360.50140 368.99566 0.48392
8658 34.16400 363.61214 373.38497 0.47815
8659 34.16760 366.52348 373.06764 0.47798
8660 34.17120 369.18984 375.57094 0.47499
8661 34.17480 371.57037 377.68672 0.47371
8662 34.17840 373.63242 379.45000 0.47164
8663 34.18200 375.35146 379.68323 0.47115
8664 34.18560 376.71583 380.86005 0.46988
8665 34.18920 377.72676 383.06797 0.46782
8666 34.19280 378.39314 381.84987 0.46961
8667 34.19640 378.75590 380.60135 0.47183
8668 34.20000 378.84454 380.59234 0.47139
8669 34.20360 378.70315 379.33370 0.47225
8670 34.20720 378.38046 378.40075 0.47471
8671 34.21080 377.92530 377.71766 0.47557
8672 34.21440 377.38841 377.34413 0.47560
8673 34.21800 376.81984 373.37237 0.48064
8674 34.22160 376.26098 371.77663 0.48345
8675 34.22520 375.74995 372.10848 0.48234
8676 34.22880 375.32219 372.21745 0.48201
8677 34.23240 375.00858 371.96238 0.48324
8678 34.23600 374.83649 373.37556 0.48043
8679 34.23960 374.82975 372.51660 0.48096
8680 34.24320 375.01531 372.37736 0.48198
8681 34.24680 375.41246 374.13296 0.47949
8682 34.25040 376.04149 373.69742 0.47849
8683 34.25400 376.92110 376.16765 0.47548
8684 34.25760 378.06740 377.24833 0.47494
8685 34.26120 379.49338 377.85474 0.47415
8686 34.26480 381.20886 379.48240 0.47288
8687 34.26840 383.21653 380.39125 0.47165
8688 34.27200 385.51578 383.52617 0.46754
8689 34.27560 388.09857 387.20214 0.46360
8690 34.27920 390.95290 391.51993 0.45790
8691 34.28280 394.05942 394.66026 0.45371
8692 34.28640 397.39357 397.67104 0.45031
8693 34.29000 400.92301 399.91542 0.44802
8694 34.29360 404.62033 404.52484 0.44297
8695 34.29720 408.45465 409.00869 0.43642
8696 34.30080 412.39120 412.73087 0.43505
8697 34.30440 416.39935 415.05449 0.43076
8698 34.30800 420.45102 419.20795 0.42691
8699 34.31160 424.52096 422.18073 0.42532
8700 34.31520 428.58625 424.79722 0.42295
8701 34.31880 432.62487 428.76730 0.41684
8702 34.32240 436.61400 432.94436 0.41363
8703 34.32600 440.52801 437.13005 0.40902
8704 34.32960 444.33728 439.08557 0.40733
8705 34.33320 448.00311 441.69715 0.40642
8706 34.33680 451.48191 443.71914 0.40331
8707 34.34040 454.72131 446.84946 0.40041
8708 34.34400 457.65671 450.04567 0.39742
8709 34.34760 460.23653 452.09291 0.39629
8710 34.35120 462.38831 456.75537 0.39198
8711 34.35480 464.04693 459.75949 0.38873
8712 34.35840 465.15219 460.89971 0.38877
8713 34.36200 465.65378 461.48010 0.38864
8714 34.36560 465.51646 460.17543 0.38964
8715 34.36920 464.71939 460.27075 0.38922
8716 34.37280 463.26159 459.63969 0.39043
8717 34.37640 461.16175 462.33143 0.38555
8718 34.38000 458.45738 458.42639 0.39022
8719 34.38360 455.20319 456.64819 0.39135
8720 34.38720 451.46738 455.75007 0.39278
8721 34.39080 447.32910 452.02992 0.39716
8722 34.39440 442.87396 449.37581 0.39897
8723 34.39800 438.19034 445.94938 0.40243
8724 34.40160 433.36592 441.96844 0.40553
8725 34.40520 428.48473 435.36521 0.41008
8726 34.40880 423.62472 430.93874 0.41536
8727 34.41240 418.85598 425.22028 0.42081
8728 34.41600 414.23953 418.75983 0.42856
8729 34.41960 409.82663 411.60651 0.43434
8730 34.42320 405.65859 408.03947 0.43772
8731 34.42680 401.76686 400.29835 0.44750
8732 34.43040 398.17464 398.17044 0.44936
8733 34.43400 394.89205 395.09458 0.45250
8734 34.43760 391.92526 391.08945 0.45698
8735 34.44120 389.27163 389.58161 0.45954
8736 34.44480 386.92203 387.66525 0.46127
8737 34.44840 384.86190 384.21980 0.46601
8738 34.45200 383.07224 382.88856 0.46660
8739 34.45560 381.52966 380.97921 0.46922
8740 34.45920 380.20818 378.75346 0.47092
8741 34.46280 379.08917 377.70592 0.47480
8742 34.46640 378.14729 376.58395 0.47577
8743 34.47000 377.35902 374.23448 0.47983
8744 34.47360 376.70490 374.18182 0.48141
8745 34.47720 376.16873 375.04128 0.47907
8746 34.48080 375.73816 374.40923 0.47913
8747 34.48440 375.40103 371.88063 0.48175
8748 34.48800 375.14719 369.56780 0.48578
8749 34.49160 374.97202 372.06613 0.48360
8750 34.49520 374.86426 368.40390 0.48794
8751 34.49880 374.81247 368.72740 0.48717
8752 34.50240 374.80058 368.69198 0.48662
8753 34.50600 374.80862 368.53818 0.48754
8754 34.50960 374.81171 369.36535 0.48612
8755 34.51320 374.78012 368.01288 0.48751
8756 34.51680 374.67994 367.91196 0.48791
8757 34.52040 374.47419 364.98981 0.49198
8758 34.52400 374.12462 364.71416 0.49217
8759 34.52760 373.59391 363.09823 0.49510
8760 34.53120 372.84898 361.78395 0.49688
8761 34.53480 371.86008 363.62512 0.49339
8762 34.53840 370.60846 360.54236 0.49835
8763 34.54200 369.08423 357.05534 0.50341
8764 34.54560 367.28835 356.76762 0.50387
8765 34.54920 365.23256 355.12502 0.50427
8766 34.55280 362.93825 352.63698 0.50861
8767 34.55640 360.43477 351.40049 0.50948
8768 34.56000 357.75724 349.06664 0.51478
8769 34.56360 354.94418 347.70315 0.51613
8770 34.56720 352.03597 344.52374 0.52075
8771 34.57080 349.06960 340.00004 0.52611
8772 34.57440 346.08235 338.34714 0.52975
8773 34.57800 343.10722 336.99983 0.53197
8774 34.58160 340.17318 336.54728 0.53391
8775 34.58520 337.30491 331.73862 0.54006
8776 34.58880 334.52277 330.70627 0.54184
8777 34.59240 331.84300 329.70829 0.54272
8778 34.59600 329.27894 325.41972 0.55154
8779 34.59960 326.83796 325.21527 0.55171
8780 34.60320 324.52686 322.88166 0.55583
8781 34.60680 322.34937 322.17932 0.55624
8782 34.61040 320.30714 320.94355 0.55915
8783 34.61400 318.40029 317.33669 0.56648
8784 34.61760 316.62789 315.96622 0.56843
8785 34.62120 314.98828 313.68775 0.57389
8786 34.62480 313.47936 316.06310 0.56861
8787 34.62840 312.09884 315.07155 0.56754
8788 34.63200 310.84436 315.19289 0.56958
8789 34.63560 309.71362 315.69557 0.56830
8790 34.63920 308.70720 311.83147 0.57425
8791 34.64280 307.81721 313.22041 0.57384
8792 34.64640 307.04512 312.86599 0.57332
8793 34.65000 306.38867 312.79615 0.57596
8794 34.65360 305.84581 313.58738 0.57164
8795 34.65720 305.41579 311.33087 0.57585
8796 34.66080 305.09800 311.78446 0.57678
8797 34.66440 304.89031 312.23417 0.57534
8798 34.66800 304.79373 312.29621 0.57536
8799 34.67160 304.81393 312.81871 0.57374
8800 34.67520 304.94949 312.09287 0.57500
8801 34.67880 305.20305 313.87773 0.57057
8802 34.68240 305.57809 314.22492 0.57073
8803 34.68600 306.07895 315.67726 0.56932
8804 34.68960 306.71070 315.88587 0.56876
8805 34.69320 307.47917 316.60894 0.56751
8806 34.69680 308.39087 315.03704 0.57118
8807 34.70040 309.45288 316.78073 0.56774
8808 34.70400 310.67254 319.43556 0.56254
8809 34.70760 312.05750 321.18149 0.55816
8810 34.71120 313.61556 321.00442 0.55915
8811 34.71480 315.35439 321.57422 0.56006
8812 34.71840 317.28228 323.27526 0.55579
8813 34.72200 319.40751 324.85316 0.55217
8814 34.72560 321.73199 325.73148 0.54965
8815 34.72920 324.26360 328.90828 0.54482
8816 34.73280 327.00741 328.51333 0.54530
8817 34.73640 329.96755 333.33090 0.53747
8818 34.74000 333.14545 335.98717 0.53452
8819 34.74360 336.54214 338.19396 0.53063
8820 34.74720 340.15671 340.41307 0.52848
8821 34.75080 343.98647 342.59702 0.52466
8822 34.75440 348.02605 346.64745 0.51720
8823 34.75800 352.26816 349.92266 0.51287
8824 34.76160 356.70315 351.93168 0.50899
8825 34.76520 361.31884 357.34968 0.50093
8826 34.76880 366.10121 360.91266 0.49671
8827 34.77240 371.03157 363.87094 0.49218
8828 34.77600 376.09236 366.88874 0.48706
8829 34.77960 381.26295 372.72746 0.47972
8830 34.78320 386.52207 376.49378 0.47442
8831 34.78680 391.84819 381.14370 0.46848
8832 34.79040 397.21987 388.32424 0.46138
8833 34.79400 402.61627 393.18202 0.45650
8834 34.79760 408.01709 398.19609 0.44920
8835 34.80120 413.40244 403.42370 0.44211
8836 34.80480 418.75234 408.26065 0.43765
8837 34.80840 424.04620 411.79513 0.43380
8838 34.81200 429.26090 418.54934 0.42773
8839 34.81560 434.37210 421.51421 0.42676
8840 34.81920 439.35282 427.39180 0.42154
8841 34.82280 444.16982 433.02858 0.41833
8842 34.82640 448.78888 438.99714 0.41706
8843 34.83000 453.17132 444.04145 0.40286
8844 34.83360 457.27560 448.30570 0.36143
8845 34.83720 461.05866 454.00337 0.35763
8846 34.84080 464.47752 457.02632 0.35533
8847 34.84440 467.49136 460.59293 0.35376
8848 34.84800 470.06336 465.27262 0.34950
8849 34.85160 472.16292 467.02206 0.34816
8850 34.85520 473.76677 469.19531 0.34605
8851 34.85880 474.85969 471.60056 0.34487
8852 34.86240 475.43438 469.15473 0.34750
8853 34.86600 475.49062 468.65839 0.34727
8854 34.86960 475.03400 468.95229 0.34597
8855 34.87320 474.07595 466.82794 0.34854
8856 34.87680 472.62583 467.31964 0.34883
8857 34.88040 470.70009 463.11797 0.35179
8858 34.88400 468.31679 459.85910 0.35466
8859 34.88760 465.49018 456.88823 0.35711
8860 34.89120 462.24795 451.30653 0.36216
8861 34.89480 458.60795 447.01678 0.36869
8862 34.89840 454.60434 442.99853 0.37519
8863 34.90200 450.27334 436.94107 0.38463
8864 34.90560 445.65614 434.79518 0.31750
8865 34.90920 440.79803 430.11548 0.31278
8866 34.91280 435.74719 423.96290 0.31665
8867 34.91640 430.55303 421.11715 0.31899
8868 34.92000 425.26413 414.91992 0.32404
8869 34.92360 419.92637 410.68542 0.32695
8870 34.92720 414.58487 407.55354 0.32769
8871 34.93080 409.27947 404.79368 0.33174
8872 34.93440 404.04798 401.82228 0.33468
8873 34.93800 398.92452 395.68018 0.33985
8874 34.94160 393.94010 389.58333 0.34546
8875 34.94520 389.12360 388.21912 0.34644
8876 34.94880 384.49758 385.02286 0.34965
8877 34.95240 380.08440 381.53290 0.35258
8878 34.95600 375.90166 377.44429 0.35539
8879 34.95960 371.96290 373.85437 0.35982
8880 34.96320 368.27733 367.47048 0.36608
8881 34.96680 364.84961 363.62377 0.37085
8882 34.97040 361.67977 362.34505 0.37202
8883 34.97400 358.76333 358.31621 0.37476
8884 34.97760 356.09151 352.10136 0.38168
8885 34.98120 353.65175 352.14936 0.38273
8886 34.98480 351.42816 349.36514 0.38581
8887 34.98840 349.40250 344.29648 0.39086
8888 34.99200 347.55501 343.84061 0.39167
8889 34.99560 345.86551 340.60656 0.39463
8890 34.99920 344.31457 339.69027 0.39790
8891 35.00280 342.88416 339.78880 0.39612
8892 35.00640 341.55583 337.63831 0.39995
8893 35.01000 340.32822 339.99239 0.39497
8894 35.01360 339.18815 332.83525 0.40391
8895 35.01720 338.13355 335.55737 0.40111
8896 35.02080 337.16563 332.95441 0.40421
8897 35.02440 336.28898 334.14541 0.40302
8898 35.02800 335.51051 331.79546 0.40562
8899 35.03160 334.83908 332.88876 0.40354
8900 35.03520 334.28436 333.38806 0.40192
8901 35.03880 333.85517 330.83752 0.40678
8902 35.04240 333.56058 331.01121 0.40713
8903 35.04600 333.41102 330.97495 0.40752
8904 35.04960 333.41162 331.09875 0.40706
8905 35.05320 333.56751 330.66219 0.40802
8906 35.05680 333.88219 329.58329 0.40926
8907 35.06040 334.35749 330.88338 0.40772
8908 35.06400 334.99348 332.13030 0.40720
8909 35.06760 335.78946 331.10850 0.41060
8910 35.07120 336.74228 331.28369 0.41055
8911 35.07480 337.84734 333.55600 0.41088
8912 35.07840 339.09849 337.23434 0.41131
8913 35.08200 340.48749 339.23511 0.36394
8914 35.08560 342.00341 340.65134 0.34542
8915 35.08920 343.63287 343.67190 0.37959
8916 35.09280 345.35824 343.95668 0.43557
8917 35.09640 347.15941 343.70854 0.43216
8918 35.10000 349.01207 346.61764 0.42389
8919 35.10360 350.88811 349.18199 0.41971
8920 35.10720 352.75616 352.30540 0.41479
8921 35.11080 354.58026 352.61079 0.41361
8922 35.11440 356.32346 357.32490 0.40977
8923 35.11800 357.94695 357.85369 0.40845
8924 35.12160 359.41199 359.50486 0.40479
8925 35.12520 360.68147 362.20139 0.40262
8926 35.12880 361.72172 364.33827 0.40025
8927 35.13240 362.50424 364.15406 0.40134
8928 35.13600 363.00602 364.41935 0.40260
8929 35.13960 363.21687 365.20192 0.40206
8930 35.14320 363.13104 364.70756 0.40454
8931 35.14680 362.75340 365.20720 0.40753
8932 35.15040 362.09661 364.65252 0.41167
8933 35.15400 361.18227 361.11129 0.37843
8934 35.15760 360.03758 360.90088 0.32556
8935 35.16120 358.69423 359.66257 0.32610
8936 35.16480 357.18755 361.15659 0.33263
8937 35.16840 355.55158 356.23964 0.38963
8938 35.17200 353.82290 353.35016 0.38926
8939 35.17560 352.03672 351.79131 0.38846
8940 35.17920 350.22695 350.21341 0.38669
8941 35.18280 348.42592 346.70339 0.38993
8942 35.18640 346.66429 343.76193 0.36917
8943 35.19000 344.97083 342.35614 0.33115
8944 35.19360 343.37229 339.67187 0.39589
8945 35.19720 341.89313 337.19086 0.39783
8946 35.20080 340.55531 335.71025 0.40058
8947 35.20440 339.37777 334.41606 0.40139
8948 35.20800 338.37640 333.33292 0.40128
8949 35.21160 337.56395 330.71316 0.40602
8950 35.21520 336.94970 332.93535 0.40287
8951 35.21880 336.53729 328.13767 0.40895
8952 35.22240 336.32900 327.44166 0.40899
8953 35.22600 336.32260 329.75031 0.40508
8954 35.22960 336.51229 328.59447 0.40751
8955 35.23320 336.88908 330.64951 0.40656
8956 35.23680 337.44136 327.99864 0.40870
8957 35.24040 338.15465 330.49187 0.40523
8958 35.24400 339.01310 331.14010 0.40398
8959 35.24760 339.99958 331.04852 0.40571
8960 35.25120 341.09649 328.54643 0.40873
8961 35.25480 342.28582 330.76245 0.40621
8962 35.25840 343.55019 331.64965 0.40441
8963 35.26200 344.87253 333.32670 0.40335
8964 35.26560 346.23603 334.75481 0.40154
8965 35.26920 347.62381 335.17417 0.40159
8966 35.27280 349.01843 336.07935 0.40069
8967 35.27640 350.40107 335.94528 0.39812
8968 35.28000 351.75104 339.16244 0.39505
8969 35.28360 353.04520 343.96300 0.39008
8970 35.28720 354.25771 342.69481 0.39192
8971 35.29080 355.36015 342.99979 0.39196
8972 35.29440 356.32223 347.10208 0.38716
8973 35.29800 357.11235 348.00302 0.38710
8974 35.30160 357.70047 348.40688 0.38624
8975 35.30520 358.05892 350.04197 0.38403
8976 35.30880 358.16492 350.75399 0.38340
8977 35.31240 358.00240 350.73521 0.38270
8978 35.31600 357.56359 349.20503 0.38513
8979 35.31960 356.85008 350.93667 0.38345
8980 35.32320 355.87317 351.67166 0.38201
8981 35.32680 354.65225 350.65184 0.38360
8982 35.33040 353.21486 350.59776 0.38450
8983 35.33400 351.59415 349.74270 0.38499
8984 35.33760 349.82741 348.76223 0.38504
8985 35.34120 347.95364 346.47281 0.47361
8986 35.34480 346.01119 343.23073 0.48227
8987 35.34840 344.03672 340.97226 0.48187
8988 35.35200 342.06564 338.99319 0.48299
8989 35.35560 340.12951 337.37547 0.48497
8990 35.35920 338.25611 336.66009 0.48358
8991 35.36280 336.46906 333.33705 0.48873
8992 35.36640 334.78701 329.44539 0.49704
8993 35.37000 333.22726 326.91913 0.50098
8994 35.37360 331.79971 325.52531 0.50542
8995 35.37720 330.51198 324.47041 0.51305
8996 35.38080 329.36689 323.18803 0.49683
8997 35.38440 328.36204 320.65219 0.44844
8998 35.38800 327.49167 323.43054 0.44899
8999 35.39160 326.74751 320.13408 0.45647
9000 35.39520 326.11692 320.23306 0.45603
9001 35.39880 325.58404 320.62746 0.45570
9002 35.40240 325.13024 318.77667 0.45882
9003 35.40600 324.73461 319.95267 0.45559
9004 35.40960 324.37420 319.20378 0.45694
9005 35.41320 324.02456 319.02995 0.45677
9006 35.41680 323.66797 318.06037 0.50296
9007 35.42040 323.28191 318.09714 0.52262
9008 35.42400 322.84838 315.76664 0.52167
9009 35.42760 322.35382 315.70859 0.52077
9010 35.43120 321.78946 313.25609 0.52482
9011 35.43480 321.15181 313.55319 0.52263
9012 35.43840 320.44273 314.47876 0.44703
9013 35.44200 319.66906 312.41126 0.50469
9014 35.44560 318.84188 313.06850 0.52654
9015 35.44920 317.97563 310.34703 0.53404
9016 35.45280 317.08709 308.61117 0.54109
9017 35.45640 316.19435 307.54547 0.44123
9018 35.46000 315.31594 308.21101 0.43355
9019 35.46360 314.47022 309.19199 0.43320
9020 35.46720 313.67408 306.68791 0.43704
9021 35.47080 312.94380 307.17657 0.43644
9022 35.47440 312.29393 308.97909 0.43303
9023 35.47800 311.73743 309.16051 0.43155
9024 35.48160 311.28559 308.08534 0.43546
9025 35.48520 310.94857 305.76924 0.43894
9026 35.48880 310.73165 304.04851 0.44079
9027 35.49240 310.63373 306.79383 0.43596
9028 35.49600 310.68083 306.91306 0.43699
9029 35.49960 310.86469 305.00659 0.44097
9030 35.50320 311.18698 307.70494 0.43613
9031 35.50680 311.64783 308.56803 0.43440
9032 35.51040 312.24615 308.51178 0.43442
9033 35.51400 312.97854 309.85685 0.43489
9034 35.51760 313.84097 309.11594 0.38912
9035 35.52120 314.82796 309.67681 0.38720
9036 35.52480 315.93298 311.27128 0.43404
9037 35.52840 317.14880 314.35325 0.42713
9038 35.53200 318.46783 314.66177 0.42676
9039 35.53560 319.88242 315.56650 0.42580
9040 35.53920 321.38539 319.38630 0.39944
9041 35.54280 322.97018 320.76052 0.35096
9042 35.54640 324.63105 320.98556 0.41960
9043 35.55000 326.36124 320.03518 0.42015
9044 35.55360 328.15514 321.07875 0.41808
9045 35.55720 330.01652 322.33569 0.41499
9046 35.56080 331.93591 326.29958 0.32676
9047 35.56440 333.90733 327.67961 0.41021
9048 35.56800 335.92364 327.43624 0.41099
9049 35.57160 337.97532 331.79204 0.40495
9050 35.57520 340.05036 333.54988 0.40196
9051 35.57880 342.13388 335.83966 0.39931
9052 35.58240 344.21048 336.36043 0.39986
9053 35.58600 346.25740 338.41766 0.39732
9054 35.58960 348.25573 339.09757 0.39529
9055 35.59320 350.18294 339.92036 0.39494
9056 35.59680 352.01890 343.87502 0.39053
9057 35.60040 353.74985 343.83161 0.39103
9058 35.60400 355.35426 346.77597 0.38799
9059 35.60760 356.82039 347.36423 0.38648
9060 35.61120 358.13920 348.27499 0.38497
9061 35.61480 359.30007 347.20356 0.38685
9062 35.61840 360.30127 347.40439 0.38736
9063 35.62200 361.14128 350.23943 0.38306
9064 35.62560 361.82043 351.84511 0.38151
9065 35.62920 362.34025 351.65475 0.38201
9066 35.63280 362.70299 349.56575 0.38326
9067 35.63640 362.91125 351.33092 0.38239
9068 35.64000 362.96777 353.70582 0.42353
9069 35.64360 362.87533 353.30861 0.46960
9070 35.64720 362.63681 352.34920 0.46768
9071 35.65080 362.25529 351.76102 0.46571
9072 35.65440 361.73430 352.67128 0.46446
9073 35.65800 361.07779 353.61233 0.46036
9074 35.66160 360.29235 354.04179 0.45908
9075 35.66520 359.38569 352.30216 0.46180
9076 35.66880 358.36684 351.77333 0.46214
9077 35.67240 357.24508 349.85883 0.46339
9078 35.67600 356.03392 349.43079 0.46420
9079 35.67960 354.74878 349.08453 0.46519
9080 35.68320 353.40549 349.57095 0.46463
9081 35.68680 352.02038 346.77882 0.46685
9082 35.69040 350.60969 346.22197 0.46910
9083 35.69400 349.18911 342.74766 0.47503
9084 35.69760 347.77334 342.90538 0.47393
9085 35.70120 346.37593 341.90691 0.47518
9086 35.70480 345.00914 338.61950 0.48058
9087 35.70840 343.68400 336.71695 0.48299
9088 35.71200 342.41028 334.84418 0.48559
9089 35.71560 341.19652 334.32327 0.50013
9090 35.71920 340.05068 331.90931 0.55618
9091 35.72280 338.97711 331.57857 0.55352
9092 35.72640 337.98113 330.08547 0.55659
9093 35.73000 337.06586 329.28892 0.55467
9094 35.73360 336.23305 329.26207 0.49981
9095 35.73720 335.48302 327.59780 0.46662
9096 35.74080 334.81479 327.41142 0.44021
9097 35.74440 334.22530 326.57811 0.49807
9098 35.74800 333.71211 326.06071 0.49887
9099 35.75160 333.27079 327.59854 0.49616
9100 35.75520 332.89514 324.50539 0.49997
9101 35.75880 332.57865 323.34532 0.50009
9102 35.76240 332.31425 320.46537 0.50482
9103 35.76600 332.09468 322.98630 0.49903
9104 35.76960 331.91292 323.75070 0.41723
9105 35.77320 331.76269 325.34366 0.49896
9106 35.77680 331.63890 320.05903 0.50748
9107 35.78040 331.53816 321.05075 0.50655
9108 35.78400 331.45908 319.98702 0.50974
9109 35.78760 331.40254 319.23791 0.51227
9110 35.79120 331.37178 320.20586 0.44164
9111 35.79480 331.37230 321.40995 0.48921
9112 35.79840 331.41167 321.17177 0.51482
9113 35.80200 331.49800 318.55536 0.52405
9114 35.80560 331.64312 319.87787 0.45202
9115 35.80920 331.85760 318.23259 0.37274
9116 35.81280 332.15100 323.01289 0.37536
9117 35.81640 332.53216 320.96684 0.41849
9118 35.82000 333.00803 323.21856 0.41537
9119 35.82360 333.58280 320.04285 0.42004
9120 35.82720 334.25741 320.45801 0.41823
9121 35.83080 335.02905 320.46407 0.41759
9122 35.83440 335.89076 323.26336 0.41474
9123 35.83800 336.83114 323.44915 0.41397
9124 35.84160 337.83421 321.75604 0.41712
9125 35.84520 338.87931 325.31038 0.41262
9126 35.84880 339.94122 326.82064 0.41231
9127 35.85240 340.99048 326.54843 0.41242
9128 35.85600 341.99389 326.78699 0.41153
9129 35.85960 342.91540 328.15492 0.40867
9130 35.86320 343.71734 331.57770 0.40482
9131 35.86680 344.36187 331.49612 0.40628
9132 35.87040 344.81291 329.28020 0.40728
9133 35.87400 345.03840 332.62509 0.40364
9134 35.87760 345.01089 333.82483 0.40273
9135 35.88120 344.71133 335.55259 0.40118
9136 35.88480 344.12908 333.15324 0.40501
9137 35.88840 343.26289 334.44757 0.40307
9138 35.89200 342.12100 332.40343 0.40433
9139 35.89560 340.72020 331.25781 0.40533
9140 35.89920 339.08447 331.92220 0.40299
9141 35.90280 337.24487 329.92305 0.40689
9142 35.90640 335.23516 327.05870 0.41172
9143 35.91000 333.08848 324.71973 0.41404
9144 35.91360 330.84295 324.28013 0.41511
9145 35.91720 328.53390 320.97512 0.41906
9146 35.92080 326.19462 319.77952 0.41964
9147 35.92440 323.85222 312.81212 0.42986
9148 35.92800 321.54227 312.17584 0.43214
9149 35.93160 319.28591 311.98320 0.43159
9150 35.93520 317.10460 308.48853 0.43542
9151 35.93880 315.01701 307.25477 0.43605
9152 35.94240 313.03907 303.53279 0.44381
9153 35.94600 311.18410 303.33419 0.44334
9154 35.94960 309.46310 303.83437 0.44277
9155 35.95320 307.88554 302.43063 0.44769
9156 35.95680 306.45863 301.36162 0.44624
9157 35.96040 305.18057 299.28214 0.44888
9158 35.96400 304.06437 300.87959 0.44722
9159 35.96760 303.11070 300.32191 0.44797
9160 35.97120 302.31894 298.85551 0.44939
9161 35.97480 301.68886 295.54538 0.45408
9162 35.97840 301.21918 296.97712 0.45175
9163 35.98200 300.90760 297.85754 0.45138
9164 35.98560 300.75091 297.10922 0.45311
9165 35.98920 300.74497 297.92714 0.47359
9166 35.99280 300.88478 297.90126 0.55844
9167 35.99640 301.16447 295.44952 0.55943
9168 36.00000 301.57731 296.61185 0.55256
9169 36.00360 302.11566 297.37235 0.55017
9170 36.00720 302.77099 298.67310 0.54615
9171 36.01080 303.53396 298.01433 0.54619
9172 36.01440 304.39412 299.02147 0.54443
9173 36.01800 305.33951 299.81475 0.54290
9174 36.02160 306.35791 299.78645 0.54115
9175 36.02520 307.43573 300.52078 0.53967
9176 36.02880 308.55826 300.19827 0.53916
9177 36.03240 309.70966 303.58027 0.53504
9178 36.03600 310.87296 303.12153 0.53621
9179 36.03960 312.03005 304.51937 0.53543
9180 36.04320 313.16178 305.99580 0.53139
9181 36.04680 314.24804 308.09610 0.52707
9182 36.05040 315.26762 306.63449 0.52987
9183 36.05400 316.19987 306.87051 0.52805
9184 36.05760 317.02506 309.14604 0.52581
9185 36.06120 317.72319 311.95658 0.51961
9186 36.06480 318.27661 312.00979 0.52532
9187 36.06840 318.67107 312.08932 0.52774
9188 36.07200 318.89599 313.13190 0.54239
9189 36.07560 318.94567 312.33189 0.58110
9190 36.07920 318.81997 312.15839 0.57821
9191 36.08280 318.52136 313.71362 0.57215
9192 36.08640 318.06031 312.79223 0.56319
9193 36.09000 317.45109 312.94956 0.46329
9194 36.09360 316.71161 312.97109 0.50497
9195 36.09720 315.86279 314.46205 0.56842
9196 36.10080 314.92754 311.48561 0.57429
9197 36.10440 313.92981 312.24264 0.57235
9198 36.10800 312.89374 310.57529 0.56446
9199 36.11160 311.84296 308.78993 0.49462
9200 36.11520 310.79982 308.18351 0.58110
9201 36.11880 309.78600 307.07099 0.58104
9202 36.12240 308.81933 307.10221 0.58194
9203 36.12600 307.91754 305.33132 0.58369
9204 36.12960 307.09588 303.71347 0.58872
9205 36.13320 306.36754 303.62112 0.58976
9206 36.13680 305.74371 303.19791 0.58905
9207 36.14040 305.23366 302.72011 0.58935
9208 36.14400 304.84481 302.10519 0.59168
9209 36.14760 304.58275 301.38384 0.59338
9210 36.15120 304.45133 301.45557 0.59353
9211 36.15480 304.45265 301.90610 0.59335
9212 36.15840 304.58711 301.88280 0.59204
9213 36.16200 304.85415 302.28758 0.59193
9214 36.16560 305.24934 302.49215 0.59201
9215 36.16920 305.76862 304.38834 0.58781
9216 36.17280 306.40554 304.49737 0.58846
9217 36.17640 307.15184 304.92549 0.58814
9218 36.18000 307.99737 306.51489 0.58440
9219 36.18360 308.93009 305.60603 0.58581
9220 36.18720 309.93598 307.58428 0.58305
9221 36.19080 310.99904 308.86092 0.58089
9222 36.19440 312.10127 311.68443 0.57472
9223 36.19800 313.22282 311.79161 0.57379
9224 36.20160 314.34211 313.27359 0.57236
9225 36.20520 315.43628 313.01227 0.57384
9226 36.20880 316.48162 316.58525 0.56537
9227 36.21240 317.45349 315.87148 0.56689
9228 36.21600 318.33103 319.08659 0.56181
9229 36.21960 319.09130 321.19000 0.55716
9230 36.22320 319.71596 321.07065 0.55787
9231 36.22680 320.19045 322.76609 0.55481
9232 36.23040 320.50398 323.43954 0.55414
9233 36.23400 320.65163 323.22690 0.55563
9234 36.23760 320.63315 322.58344 0.55549
9235 36.24120 320.45331 323.61019 0.55348
9236 36.24480 320.12074 323.77937 0.55380
9237 36.24840 319.64860 322.31896 0.55527
9238 36.25200 319.05475 321.23183 0.55910
9239 36.25560 318.35626 322.16386 0.55835
9240 36.25920 317.57272 322.22769 0.55734
9241 36.26280 316.72438 321.18776 0.55807
9242 36.26640 315.83145 320.79904 0.55850
9243 36.27000 314.91362 317.89829 0.56345
9244 36.27360 313.98959 316.20088 0.56482
9245 36.27720 313.07681 316.94379 0.56457
9246 36.28080 312.19121 316.55206 0.56618
9247 36.28440 311.34708 315.35057 0.56775
9248 36.28800 310.55702 314.18052 0.57023
9249 36.29160 309.83191 312.36410 0.57359
9250 36.29520 309.18097 310.49817 0.57773
9251 36.29880 308.61178 311.78087 0.57475
9252 36.30240 308.13171 313.25527 0.57301
9253 36.30600 307.74360 312.23864 0.57363
9254 36.30960 307.45213 312.90161 0.57292
9255 36.31320 307.26100 312.41899 0.57307
9256 36.31680 307.17119 310.66267 0.57812
9257 36.32040 307.18517 314.16486 0.56992
9258 36.32400 307.30465 313.48123 0.57058
9259 36.32760 307.53374 314.20164 0.57082
9260 36.33120 307.86958 314.86731 0.56871
9261 36.33480 308.31650 315.05598 0.56807
9262 36.33840 308.87815 316.04771 0.56550
9263 36.34200 309.55644 317.95526 0.56176
9264 36.34560 310.35569 317.47832 0.56284
9265 36.34920 311.28002 319.02039 0.55903
9266 36.35280 312.33392 315.70293 0.56724
9267 36.35640 313.52193 319.24563 0.56040
9268 36.36000 314.84847 322.43259 0.55605
9269 36.36360 316.31807 324.79593 0.55202
9270 36.36720 317.93495 326.92458 0.54803
9271 36.37080 319.70298 326.93363 0.54815
9272 36.37440 321.62311 329.04217 0.54409
9273 36.37800 323.70274 328.28352 0.54313
9274 36.38160 325.94453 330.64679 0.54144
9275 36.38520 328.35015 334.01381 0.53625
9276 36.38880 330.92224 335.85985 0.53289
9277 36.39240 333.66355 339.96038 0.52675
9278 36.39600 336.57679 340.35780 0.52635
9279 36.39960 339.66461 345.16059 0.51965
9280 36.40320 342.92941 345.86956 0.51706
9281 36.40680 346.37303 350.32420 0.51027
9282 36.41040 349.99626 356.05343 0.50204
9283 36.41400 353.79831 358.96178 0.49936
9284 36.41760 357.77615 361.48758 0.47010
9285 36.42120 361.92390 365.50857 0.43455
9286 36.42480 366.23359 368.36248 0.48713
9287 36.42840 370.68956 373.80794 0.47981
9288 36.43200 375.27537 377.92360 0.47416
9289 36.43560 379.96975 382.66354 0.46691
9290 36.43920 384.74746 389.68233 0.45304
9291 36.44280 389.57999 392.07748 0.39353
9292 36.44640 394.43643 395.72896 0.44837
9293 36.45000 399.28608 399.90855 0.44543
9294 36.45360 404.09456 402.86679 0.44183
9295 36.45720 408.83310 408.11784 0.43544
9296 36.46080 413.47310 410.69185 0.38297
9297 36.46440 417.98975 416.04288 0.41537
9298 36.46800 422.36108 419.23998 0.42550
9299 36.47160 426.56764 424.05885 0.42103
9300 36.47520 430.59182 427.75539 0.41782
9301 36.47880 434.41691 429.16095 0.41681
9302 36.48240 438.02630 431.88599 0.41384
9303 36.48600 441.40288 432.20941 0.41301
9304 36.48960 444.52903 433.65340 0.41152
9305 36.49320 447.38700 435.26189 0.41106
9306 36.49680 449.96001 438.08604 0.40809
9307 36.50040 452.23346 440.14954 0.40713
9308 36.50400 454.19648 439.82217 0.40757
9309 36.50760 455.83948 441.88930 0.40550
9310 36.51120 457.15998 444.13622 0.40172
9311 36.51480 458.15823 445.76269 0.40139
9312 36.51840 458.84536 448.97246 0.39739
9313 36.52200 459.23070 453.95360 0.39383
9314 36.52560 459.32481 453.73155 0.39362
9315 36.52920 459.14700 458.76606 0.38823
9316 36.53280 458.71910 458.47440 0.38970
9317 36.53640 458.06760 461.23034 0.38750
9318 36.54000 457.22291 459.94237 0.38994
9319 36.54360 456.22269 458.98051 0.39065
9320 36.54720 455.10900 455.85923 0.39289
9321 36.55080 453.92916 456.43682 0.39169
9322 36.55440 452.73415 454.94403 0.39344
9323 36.55800 451.57682 450.87397 0.39761
9324 36.56160 450.50962 452.42647 0.39528
9325 36.56520 449.58236 449.19884 0.39910
9326 36.56880 448.84089 447.06284 0.40034
9327 36.57240 448.32592 446.68599 0.39919
9328 36.57600 448.06342 445.08860 0.40173
9329 36.57960 448.08425 442.78252 0.40508
9330 36.58320 448.39786 443.22036 0.40397
9331 36.58680 449.00779 444.77111 0.40100
9332 36.59040 449.90875 442.71102 0.40297
9333 36.59400 451.08592 445.61479 0.40023
9334 36.59760 452.51730 449.20284 0.39765
9335 36.60120 454.17517 450.47290 0.39686
9336 36.60480 456.02193 453.25928 0.39556
9337 36.60840 458.01548 455.98741 0.39228
9338 36.61200 460.10890 457.36776 0.39109
9339 36.61560 462.25171 461.07513 0.38931
9340 36.61920 464.38970 463.88102 0.38722
9341 36.62280 466.46952 468.24732 0.38140
9342 36.62640 468.43880 469.51122 0.37984
9343 36.63000 470.24916 470.11197 0.37995
9344 36.63360 471.85906 471.99373 0.37766
9345 36.63720 473.23612 472.17094 0.37857
9346 36.64080 474.35990 476.50085 0.37426
9347 36.64440 475.22325 476.89432 0.37486
9348 36.64800 475.83128 476.35275 0.37539
9349 36.65160 476.20548 477.72021 0.37390
9350 36.65520 476.38053 478.58384 0.37244
9351 36.65880 476.40134 479.15008 0.37273
9352 36.66240 476.31592 478.22612 0.37365
9353 36.66600 476.17857 478.41778 0.37298
9354 36.66960 476.04457 477.34699 0.37345
9355 36.67320 475.96520 477.03200 0.37405
9356 36.67680 475.99522 477.28032 0.37437
9357 36.68040 476.17514 478.78649 0.37271
9358 36.68400 476.54001 478.63455 0.37320
9359 36.68760 477.11557 477.77571 0.37285
9360 36.69120 477.91749 478.67178 0.37270
9361 36.69480 478.95080 480.21560 0.37154
9362 36.69840 480.20970 480.88385 0.37088
9363 36.70200 481.67783 482.67303 0.37001
9364 36.70560 483.32889 484.07132 0.36784
9365 36.70920 485.12758 490.26124 0.36452
9366 36.71280 487.03086 493.66484 0.36132
9367 36.71640 488.98976 494.96684 0.36049
9368 36.72000 490.95083 494.47163 0.35997
9369 36.72360 492.85837 500.28431 0.35697
9370 36.72720 494.65629 499.87478 0.35662
9371 36.73080 496.29003 503.36083 0.35459
9372 36.73440 497.70830 507.85767 0.35042
9373 36.73800 498.86431 507.86820 0.35163
9374 36.74160 499.71669 509.96036 0.34963
9375 36.74520 500.23027 509.97575 0.34987
9376 36.74880 500.37646 508.88203 0.35042
9377 36.75240 500.13343 507.89140 0.35168
9378 36.75600 499.48645 505.06966 0.35332
9379 36.75960 498.42886 507.86859 0.35069
9380 36.76320 496.95992 506.47993 0.35266
9381 36.76680 495.08281 502.37166 0.35574
9382 36.77040 492.82229 500.11195 0.35628
9383 36.77400 490.20529 497.10165 0.35914
9384 36.77760 487.25906 492.36314 0.36151
9385 36.78120 484.02032 489.01863 0.36510
9386 36.78480 480.52880 486.18340 0.36769
9387 36.78840 476.82377 482.38352 0.36993
9388 36.79200 472.94654 479.06222 0.37305
9389 36.79560 468.93022 473.60234 0.37785
9390 36.79920 464.80312 470.32530 0.37988
9391 36.80280 460.58628 464.08685 0.38501
9392 36.80640 456.29307 461.77856 0.38787
9393 36.81000 451.92941 457.14998 0.39205
9394 36.81360 447.49532 453.20711 0.39476
9395 36.81720 442.98648 449.76297 0.39761
9396 36.82080 438.39313 444.47585 0.40159
9397 36.82440 433.70921 442.74545 0.40462
9398 36.82800 428.92947 434.37012 0.41306
9399 36.83160 424.05295 430.97324 0.41532
9400 36.83520 419.08391 428.92902 0.41530
9401 36.83880 414.03299 424.74762 0.41925
9402 36.84240 408.92010 418.77975 0.42582
9403 36.84600 403.76732 414.71750 0.43117
9404 36.84960 398.60263 410.61637 0.43494
9405 36.85320 393.45725 404.56427 0.44255
9406 36.85680 388.36316 399.94298 0.44822
9407 36.86040 383.35275 394.24851 0.45382
9408 36.86400 378.45751 390.00154 0.45791
9409 36.86760 373.70396 385.22107 0.46457
9410 36.87120 369.11802 381.27293 0.46877
9411 36.87480 364.72127 378.23594 0.47351
9412 36.87840 360.53182 371.79504 0.48092
9413 36.88200 356.56439 367.54368 0.48557
9414 36.88560 352.83060 365.05823 0.48959
9415 36.88920 349.33929 361.39235 0.49236
9416 36.89280 346.09689 358.62286 0.49770
9417 36.89640 343.10797 354.14168 0.50509
9418 36.90000 340.37470 352.61564 0.50742
9419 36.90360 337.89482 350.49158 0.51035
9420 36.90720 335.67318 349.44883 0.51221
9421 36.91080 333.70724 346.20936 0.51628
9422 36.91440 331.99304 342.62693 0.52318
9423 36.91800 330.52663 339.94620 0.52652
9424 36.92160 329.30301 341.01148 0.52416
9425 36.92520 328.31632 339.87795 0.52534
9426 36.92880 327.55952 339.02112 0.52638
9427 36.93240 327.02472 338.07315 0.52736
9428 36.93600 326.70262 336.47644 0.53093
9429 36.93960 326.58357 337.09733 0.52965
9430 36.94320 326.65561 337.37312 0.52931
9431 36.94680 326.90672 337.80355 0.52980
9432 36.95040 327.32334 337.94659 0.52918
9433 36.95400 327.89070 338.30821 0.52690
9434 36.95760 328.59290 338.55177 0.52720
9435 36.96120 329.41291 337.67749 0.52915
9436 36.96480 330.33347 339.59434 0.52670
9437 36.96840 331.33491 341.80668 0.52302
9438 36.97200 332.39782 342.82044 0.51960
9439 36.97560 333.50343 341.79931 0.52284
9440 36.97920 334.63196 345.44230 0.51804
9441 36.98280 335.76444 347.88302 0.51212
9442 36.98640 336.88245 348.19462 0.51143
9443 36.99000 337.96816 348.69967 0.51040
9444 36.99360 339.00446 351.25548 0.50862
9445 36.99720 339.97497 355.90057 0.50036
9446 37.00080 340.86408 357.88448 0.49783
9447 37.00440 341.65708 359.54806 0.49500
9448 37.00800 342.34083 358.60246 0.49653
9449 37.01160 342.90414 360.81202 0.49442
9450 37.01520 343.33513 364.62369 0.49057
9451 37.01880 343.62882 365.34058 0.48826
9452 37.02240 343.78277 365.53022 0.48825
9453 37.02600 343.79625 366.28802 0.48709
9454 37.02960 343.68227 365.68951 0.48804
9455 37.03320 343.45075 364.72012 0.49069
9456 37.03680 343.11878 366.33822 0.48715
9457 37.04040 342.70750 365.95533 0.48845
9458 37.04400 342.24148 364.11948 0.49136
9459 37.04760 341.74715 361.28137 0.49405
9460 37.05120 341.25165 361.03073 0.49455
9461 37.05480 340.78171 360.73711 0.49482
9462 37.05840 340.36263 357.26896 0.49987
9463 37.06200 340.01748 360.38259 0.49540
9464 37.06560 339.76598 354.93879 0.50477
9465 37.06920 339.62254 351.23107 0.50843
9466 37.07280 339.60730 349.63096 0.51245
9467 37.07640 339.72652 349.38819 0.51130
9468 37.08000 339.98667 349.34725 0.51093
9469 37.08360 340.38907 347.70870 0.51329
9470 37.08720 340.93261 346.49956 0.51505
9471 37.09080 341.61197 347.55954 0.51414
9472 37.09440 342.41800 345.35951 0.51707
9473 37.09800 343.33786 347.10318 0.51621
9474 37.10160 344.35513 346.59684 0.51504
9475 37.10520 345.44968 348.71999 0.51173
9476 37.10880 346.59918 348.77148 0.51211
9477 37.11240 347.77905 351.06042 0.50781
9478 37.11600 348.96245 350.53550 0.50911
9479 37.11960 350.12261 348.59410 0.51144
9480 37.12320 351.23382 350.91152 0.50863
9481 37.12680 352.27293 352.53569 0.50801
9482 37.13040 353.22095 350.15788 0.51107
9483 37.13400 354.06445 353.46373 0.50569
9484 37.13760 354.79660 352.94140 0.50540
9485 37.14120 355.41795 353.02856 0.50467
9486 37.14480 355.93640 351.53159 0.50802
9487 37.14840 356.36670 353.15323 0.50565
9488 37.15200 356.72932 351.49558 0.50774
9489 37.15560 357.04903 350.55477 0.51090
9490 37.15920 357.35321 353.84158 0.50605
9491 37.16280 357.67019 352.48557 0.50698
9492 37.16640 358.02689 354.13915 0.50431
9493 37.17000 358.44877 353.46848 0.50449
9494 37.17360 358.96017 353.95867 0.50473
9495 37.17720 359.57781 352.25049 0.50769
9496 37.18080 360.31359 352.77828 0.50643
9497 37.18440 361.17767 354.27586 0.50420
9498 37.18800 362.17233 354.42695 0.50295
9499 37.19160 363.29365 356.22171 0.50045
9500 37.19520 364.53264 357.38147 0.50025
9501 37.19880 365.87466 356.60247 0.50099
9502 37.20240 367.29977 358.87317 0.49755
9503 37.20600 368.78320 362.62817 0.49119
9504 37.20960 370.29718 365.41172 0.48966
9505 37.21320 371.80829 366.71763 0.48611
9506 37.21680 373.28301 367.78548 0.48528
9507 37.22040 374.68787 368.83845 0.48247
9508 37.22400 375.98952 370.88882 0.48040
9509 37.22760 377.15750 371.92478 0.48012
9510 37.23120 378.16483 372.77925 0.47866
9511 37.23480 378.98827 372.72725 0.47753
9512 37.23840 379.60977 375.65525 0.47317
9513 37.24200 380.01566 376.16249 0.47275
9514 37.24560 380.19646 375.49352 0.47232
9515 37.24920 380.14633 373.59891 0.47674
9516 37.25280 379.86255 375.44193 0.47502
9517 37.25640 379.34500 374.59980 0.47474
9518 37.26000 378.59760 375.92075 0.47339
9519 37.26360 377.62580 373.40772 0.47978
9520 37.26720 376.43860 372.35407 0.48117
9521 37.27080 375.04970 371.08431 0.48181
9522 37.27440 373.47332 366.83421 0.48610
9523 37.27800 371.73107 366.82412 0.48589
9524 37.28160 369.84597 365.78660 0.48866
9525 37.28520 367.84469 361.73939 0.49447
9526 37.28880 365.75550 361.36820 0.49491
9527 37.29240 363.60749 358.78821 0.49825
9528 37.29600 361.42965 354.71277 0.50525
9529 37.29960 359.25099 356.03872 0.50244
9530 37.30320 357.09654 352.90941 0.50490
9531 37.30680 354.99082 351.43351 0.50654
9532 37.31040 352.95498 350.91326 0.50814
9533 37.31400 351.00790 349.00369 0.51157
9534 37.31760 349.16572 344.68950 0.51898
9535 37.32120 347.44220 340.99257 0.52280
9536 37.32480 345.84938 340.52266 0.52401
9537 37.32840 344.39500 339.67295 0.52634
9538 37.33200 343.08781 339.40945 0.52583
9539 37.33560 341.93460 338.56565 0.52649
9540 37.33920 340.93864 337.41225 0.52840
9541 37.34280 340.10221 334.11698 0.53442
9542 37.34640 339.42570 333.86254 0.53536
9543 37.35000 338.90765 333.42315 0.53454
9544 37.35360 338.54469 333.67801 0.53357
9545 37.35720 338.33121 334.11481 0.53329
9546 37.36080 338.25983 333.34751 0.53596
9547 37.36440 338.32061 331.86522 0.53802
9548 37.36800 338.50377 333.05557 0.53573
9549 37.37160 338.79599 333.04882 0.53574
9550 37.37520 339.18318 332.50433 0.53731
9551 37.37880 339.65026 332.74620 0.53734
9552 37.38240 340.18143 335.74168 0.53058
9553 37.38600 340.76083 338.09571 0.52689
9554 37.38960 341.37147 336.15321 0.53069
9555 37.39320 341.99708 338.74585 0.52761
9556 37.39680 342.62131 339.79191 0.52527
9557 37.40040 343.22796 341.96969 0.52009
9558 37.40400 343.80042 345.10955 0.51571
9559 37.40760 344.32241 347.59035 0.51352
9560 37.41120 344.77713 348.12418 0.51219
9561 37.41480 345.14891 347.28531 0.51471
9562 37.41840 345.42147 351.13749 0.50792
9563 37.42200 345.58189 353.60483 0.50484
9564 37.42560 345.61788 355.55000 0.50145
9565 37.42920 345.52048 356.98347 0.49976
9566 37.43280 345.29316 356.38441 0.50245
9567 37.43640 344.93337 358.81067 0.49860
9568 37.44000 344.44777 358.68492 0.49748
9569 37.44360 343.84774 358.50245 0.49896
9570 37.44720 343.14735 357.62527 0.49996
9571 37.45080 342.36918 354.79775 0.50438
9572 37.45440 341.53303 353.81938 0.50376
9573 37.45800 340.66138 352.96658 0.50633
9574 37.46160 339.77672 351.91824 0.50780
9575 37.46520 338.90043 352.87903 0.50610
9576 37.46880 338.05189 348.31809 0.51210
9577 37.47240 337.24779 346.07410 0.51456
9578 37.47600 336.50162 344.48688 0.51841
9579 37.47960 335.82335 343.19279 0.52075
9580 37.48320 335.21925 340.80773 0.52258
9581 37.48680 334.69176 338.77470 0.52594
9582 37.49040 334.23957 336.41005 0.53009
9583 37.49400 333.85770 335.85608 0.53159
9584 37.49760 333.53768 335.59583 0.53349
9585 37.50120 333.26867 336.83633 0.53068
9586 37.50480 333.03483 335.98209 0.53183
9587 37.50840 332.82017 335.86033 0.53322
9588 37.51200 332.60666 336.55485 0.53153
9589 37.51560 332.37555 335.07239 0.53453
9590 37.51920 332.10912 334.92204 0.53325
9591 37.52280 331.78940 336.00400 0.53103
9592 37.52640 331.40126 336.25492 0.53088
9593 37.53000 330.93381 335.68291 0.53218
9594 37.53360 330.37990 334.05399 0.53528
9595 37.53720 329.73707 333.90389 0.53426
9596 37.54080 329.00469 339.01887 0.52557
9597 37.54440 328.19427 335.67692 0.53147
9598 37.54800 327.31618 333.81189 0.53543
9599 37.55160 326.38435 333.64225 0.53637
9600 37.55520 325.41635 332.55812 0.53719
9601 37.55880 324.43157 333.16869 0.53646
9602 37.56240 323.45067 334.44227 0.53374
9603 37.56600 322.49394 332.25121 0.53822
9604 37.56960 321.58171 330.02929 0.54112
9605 37.57320 320.73358 328.40153 0.54324
9606 37.57680 319.96793 327.35861 0.54531
9607 37.58040 319.30175 327.00057 0.54597
9608 37.58400 318.74762 326.75092 0.54676
9609 37.58760 318.32604 326.76327 0.54683
9610 37.59120 318.04686 328.38722 0.54490
9611 37.59480 317.92123 323.51978 0.55116
9612 37.59840 317.95904 324.95383 0.54940
9613 37.60200 318.16872 325.63881 0.54880
9614 37.60560 318.55724 326.26040 0.54602
9615 37.60920 319.13023 325.44247 0.54743
9616 37.61280 319.89132 326.04955 0.54825
9617 37.61640 320.84293 327.16026 0.54625
9618 37.62000 321.98562 326.22503 0.54782
9619 37.62360 323.31813 327.09272 0.54682
9620 37.62720 324.83725 327.80919 0.54573
9621 37.63080 326.53768 329.17938 0.54349
9622 37.63440 328.41192 331.84139 0.53745
9623 37.63800 330.45124 333.55716 0.53712
9624 37.64160 332.64051 332.29982 0.53748
9625 37.64520 334.96584 335.28124 0.53439
9626 37.64880 337.40879 333.35831 0.53673
9627 37.65240 339.93945 337.68286 0.52826
9628 37.65600 342.54991 338.95456 0.52649
9629 37.65960 345.20424 341.27801 0.52265
9630 37.66320 347.87484 345.50690 0.51576
9631 37.66680 350.52741 348.02523 0.51397
9632 37.67040 353.12716 349.46915 0.51180
9633 37.67400 355.63855 350.83217 0.50958
9634 37.67760 358.02622 351.69125 0.50948
9635 37.68120 360.25502 356.74820 0.49994
9636 37.68480 362.29246 359.58400 0.49572
9637 37.68840 364.11919 359.68948 0.49665
9638 37.69200 365.71051 361.76311 0.49356
9639 37.69560 367.05307 363.90981 0.49155
9640 37.69920 368.14064 364.58405 0.48941
9641 37.70280 368.97555 368.39770 0.48330
9642 37.70640 369.56787 371.05244 0.48109
9643 37.71000 369.93493 371.76679 0.48109
9644 37.71360 370.10052 373.42149 0.47982
9645 37.71720 370.09379 372.75852 0.48115
9646 37.72080 369.94819 371.30274 0.48132
9647 37.72440 369.70031 371.12490 0.48164
9648 37.72800 369.38880 373.75457 0.47660
9649 37.73160 369.04558 373.78192 0.47680
9650 37.73520 368.72667 372.13641 0.47941
9651 37.73880 368.46376 373.67907 0.47812
9652 37.74240 368.29465 372.08855 0.47856
9653 37.74600 368.25477 371.10800 0.48248
9654 37.74960 368.37810 370.94363 0.48234
9655 37.75320 368.69486 368.40280 0.48446
9656 37.75680 369.23152 371.13497 0.48088
9657 37.76040 370.01033 371.48519 0.48092
9658 37.76400 371.04886 371.71836 0.48021
9659 37.76760 372.35970 372.99863 0.47817
9660 37.77120 373.95005 372.34251 0.47832
9661 37.77480 375.81993 373.91107 0.47779
9662 37.77840 377.96611 376.00093 0.47534
9663 37.78200 380.38110 378.32637 0.47153
9664 37.78560 383.04643 380.35644 0.46878
9665 37.78920 385.93979 379.32763 0.47014
9666 37.79280 389.03285 381.47431 0.46717
9667 37.79640 392.29166 387.75005 0.46037
9668 37.80000 395.67683 389.68467 0.45770
9669 37.80360 399.14407 392.73796 0.45403
9670 37.80720 402.64464 399.75318 0.44638
9671 37.81080 406.12605 402.44636 0.44279
9672 37.81440 409.53284 402.47462 0.44282
9673 37.81800 412.80734 406.20283 0.43717
9674 37.82160 415.89068 409.40044 0.43487
9675 37.82520 418.72379 413.29756 0.43101
9676 37.82880 421.24870 416.03787 0.42717
9677 37.83240 423.40985 419.76297 0.42313
9678 37.83600 425.15579 420.24248 0.42441
9679 37.83960 426.43970 423.90446 0.42034
9680 37.84320 427.22239 423.72755 0.42015
9681 37.84680 427.47367 425.02043 0.41852
9682 37.85040 427.17330 426.16015 0.41785
9683 37.85400 426.31169 427.36362 0.41618
9684 37.85760 424.89115 428.18892 0.41613
9685 37.86120 422.92593 425.19754 0.41917
9686 37.86480 420.44381 427.89251 0.41484
9687 37.86840 417.48071 427.61710 0.41506
9688 37.87200 414.08209 420.79134 0.42199
9689 37.87560 410.30348 418.22688 0.42438
9690 37.87920 406.20359 413.63746 0.43062
9691 37.88280 401.84528 411.92501 0.43262
9692 37.88640 397.29266 407.45533 0.43690
9693 37.89000 392.60872 402.43473 0.44260
9694 37.89360 387.85467 396.95234 0.44938
9695 37.89720 383.08791 395.44561 0.45025
9696 37.90080 378.36059 388.16522 0.45907
9697 37.90440 373.72017 384.23699 0.46447
9698 37.90800 369.20829 378.25089 0.47183
9699 37.91160 364.86096 372.70418 0.47801
9700 37.91520 360.70860 369.39030 0.48360
9701 37.91880 356.77639 362.98628 0.49316
9702 37.92240 353.08466 359.54149 0.49914
9703 37.92600 349.64914 356.30182 0.50234
9704 37.92960 346.48202 352.01010 0.50772
9705 37.93320 343.59042 349.67631 0.51034
9706 37.93680 340.97868 348.25109 0.51221
9707 37.94040 338.64870 346.72410 0.51539
9708 37.94400 336.59768 342.90244 0.52218
9709 37.94760 334.82297 340.63646 0.52646
9710 37.95120 333.32229 343.13746 0.51960
9711 37.95480 332.08597 340.50765 0.52414
9712 37.95840 331.10532 336.33517 0.53175
9713 37.96200 330.37049 337.88592 0.52884
9714 37.96560 329.87068 337.42910 0.53052
9715 37.96920 329.59439 336.53560 0.53212
9716 37.97280 329.52958 336.89330 0.53154
9717 37.97640 329.66370 336.23421 0.53209
9718 37.98000 329.98393 337.69408 0.52958
9719 37.98360 330.47713 337.99232 0.53066
9720 37.98720 331.12979 337.33773 0.53230
9721 37.99080 331.92800 337.38850 0.53133
9722 37.99440 332.85745 339.75324 0.52690
9723 37.99800 333.90327 342.04723 0.52344
9724 38.00160 335.05008 343.10346 0.52167
9725 38.00520 336.28172 347.96118 0.51320
9726 38.00880 337.58011 349.07894 0.51201
9727 38.01240 338.93140 351.28858 0.50830
9728 38.01600 340.31695 352.95597 0.50709
9729 38.01960 341.71965 357.61715 0.49821
9730 38.02320 343.12303 359.59818 0.49658
9731 38.02680 344.51111 361.65089 0.49412
9732 38.03040 345.87332 364.48790 0.48929
9733 38.03400 347.19908 366.22336 0.48680
9734 38.03760 348.48279 369.38088 0.48387
9735 38.04120 349.72359 369.77764 0.48488
9736 38.04480 350.92575 370.08476 0.48389
9737 38.04840 352.09876 372.15829 0.48060
9738 38.05200 353.25731 373.44320 0.47796
9739 38.05560 354.41923 372.51584 0.47905
9740 38.05920 355.60561 373.72125 0.47858
9741 38.06280 356.83968 371.78763 0.48119
9742 38.06640 358.14484 370.07688 0.48325
9743 38.07000 359.54412 371.28134 0.48115
9744 38.07360 361.05507 369.11640 0.48576
9745 38.07720 362.69534 370.52182 0.48195
9746 38.08080 364.47720 372.88031 0.47892
9747 38.08440 366.40801 371.90125 0.48202
9748 38.08800 368.48966 374.30207 0.47851
9749 38.09160 370.71819 377.42583 0.47365
9750 38.09520 373.08344 380.09261 0.46968
9751 38.09880 375.56891 380.98120 0.46925
9752 38.10240 378.15147 381.85619 0.46836
9753 38.10600 380.80139 384.64831 0.46462
9754 38.10960 383.48235 388.76112 0.46010
9755 38.11320 386.15196 393.54833 0.45456
9756 38.11680 388.76174 399.91056 0.44628
9757 38.12040 391.25832 401.12050 0.44485
9758 38.12400 393.58539 404.24384 0.44107
9759 38.12760 395.68485 408.66080 0.43566
9760 38.13120 397.49939 411.43917 0.43369
9761 38.13480 398.97524 414.42052 0.43107
9762 38.13840 400.06503 418.05034 0.42747
9763 38.14200 400.73064 418.53987 0.42557
9764 38.14560 400.94583 421.37398 0.42281
9765 38.14920 400.69671 424.86328 0.41939
9766 38.15280 399.98473 426.50384 0.41820
9767 38.15640 398.82450 425.21078 0.41992
9768 38.16000 397.23972 423.27650 0.42204
9769 38.16360 395.28024 421.15363 0.42423
9770 38.16720 392.98869 419.84273 0.42570
9771 38.17080 390.41935 415.43223 0.43028
9772 38.17440 387.62985 411.08282 0.43373
9773 38.17800 384.67917 408.70814 0.43588
9774 38.18160 381.62389 404.01436 0.44207
9775 38.18520 378.52335 403.15206 0.44312
9776 38.18880 375.42302 398.04024 0.44918
9777 38.19240 372.37370 392.28351 0.45592
9778 38.19600 369.42340 387.30100 0.46247
9779 38.19960 366.60296 381.51263 0.46933
9780 38.20320 363.94332 379.51719 0.47096
9781 38.20680 361.46955 376.08307 0.47491
9782 38.21040 359.20124 373.42181 0.47951
9783 38.21400 357.15263 373.01458 0.47799
9784 38.21760 355.33162 368.37700 0.48627
9785 38.22120 353.74407 366.39047 0.48917
9786 38.22480 352.39051 365.49574 0.49023
9787 38.22840 351.26537 363.55554 0.49342
9788 38.23200 350.35744 360.18648 0.49667
9789 38.23560 349.65517 360.76898 0.49537
9790 38.23920 349.14735 361.39331 0.49521
9791 38.24280 348.81019 361.59161 0.49512
9792 38.24640 348.62689 360.89208 0.49715
9793 38.25000 348.57010 358.93400 0.49977
9794 38.25360 348.61626 360.46321 0.49727
9795 38.25720 348.73545 358.80689 0.49970
9796 38.26080 348.90524 357.55669 0.50192
9797 38.26440 349.09554 358.68111 0.50003
9798 38.26800 349.27921 360.54120 0.49622
9799 38.27160 349.43015 360.90995 0.49708
9800 38.27520 349.52389 363.35623 0.49323
9801 38.27880 349.53757 360.28356 0.49581
9802 38.28240 349.45256 359.93851 0.49746
9803 38.28600 349.25209 359.79516 0.49833
9804 38.28960 348.92359 359.27419 0.49983
9805 38.29320 348.45878 358.37406 0.50088
9806 38.29680 347.85433 357.39618 0.49969
9807 38.30040 347.11014 358.45221 0.49654
9808 38.30400 346.23054 358.85443 0.49844
9809 38.30760 345.22759 355.88290 0.50262
9810 38.31120 344.11314 357.36717 0.50074
9811 38.31480 342.90268 354.09312 0.50484
9812 38.31840 341.61390 353.73994 0.50481
9813 38.32200 340.26565 349.86816 0.51137
9814 38.32560 338.87745 349.20018 0.51167
9815 38.32920 337.46845 348.68513 0.51266
9816 38.33280 336.05767 346.32500 0.51673
9817 38.33640 334.66330 345.76869 0.51770
9818 38.34000 333.30257 342.70015 0.52291
9819 38.34360 331.99163 343.39847 0.52087
9820 38.34720 330.74538 342.05879 0.52192
9821 38.35080 329.57672 340.23412 0.52506
9822 38.35440 328.49848 336.60434 0.53153
9823 38.35800 327.52176 334.65423 0.53395
9824 38.36160 326.65499 332.66086 0.53766
9825 38.36520 325.90562 332.05152 0.53892
9826 38.36880 325.27964 330.03206 0.54051
9827 38.37240 324.78162 328.01309 0.54612
9828 38.37600 324.41489 325.83316 0.54777
9829 38.37960 324.18174 326.58891 0.54589
9830 38.38320 324.08354 326.60966 0.54648
9831 38.38680 324.12097 323.85726 0.55279
9832 38.39040 324.29419 323.94304 0.55247
9833 38.39400 324.60293 323.55178 0.55223
9834 38.39760 325.04657 327.00242 0.54805
9835 38.40120 325.62477 325.74847 0.55025
9836 38.40480 326.33521 326.68329 0.54802
9837 38.40840 327.17690 326.90551 0.54922
9838 38.41200 328.14478 328.00995 0.54573
9839 38.41560 329.24214 328.90947 0.54358
9840 38.41920 330.46429 329.79810 0.54328
9841 38.42280 331.80730 329.28790 0.54422
9842 38.42640 333.26770 331.20803 0.53858
9843 38.43000 334.84150 332.53820 0.53813
9844 38.43360 336.52267 333.21412 0.53866
9845 38.43720 338.30737 333.88492 0.53710
9846 38.44080 340.18820 336.45006 0.53208
9847 38.44440 342.16470 339.11853 0.52858
9848 38.44800 344.22951 341.03921 0.52601
9849 38.45160 346.37675 342.68850 0.52261
9850 38.45520 348.60029 345.05033 0.51894
9851 38.45880 350.89339 348.54340 0.51313
9852 38.46240 353.24845 348.29923 0.51325
9853 38.46600 355.65721 352.49212 0.50777
9854 38.46960 358.11154 353.59831 0.50702
9855 38.47320 360.59843 357.85796 0.50046
9856 38.47680 363.10740 360.45877 0.49678
9857 38.48040 365.62578 360.72399 0.49516
9858 38.48400 368.13943 365.10227 0.48942
9859 38.48760 370.63245 369.51271 0.48454
9860 38.49120 373.08725 372.76987 0.47987
9861 38.49480 375.48417 374.96353 0.47589
9862 38.49840 377.80153 378.87641 0.47093
9863 38.50200 380.01584 380.77883 0.46911
9864 38.50560 382.10233 386.44205 0.46240
9865 38.50920 384.03575 388.96467 0.45994
9866 38.51280 385.79160 393.78760 0.45387
9867 38.51640 387.34789 397.00677 0.45034
9868 38.52000 388.68519 400.27978 0.44610
9869 38.52360 389.78971 402.08896 0.44548
9870 38.52720 390.65327 403.90682 0.44328
9871 38.53080 391.27560 405.79044 0.44077
9872 38.53440 391.66524 405.86731 0.44107
9873 38.53800 391.83482 408.21080 0.43952
9874 38.54160 391.80456 405.45296 0.44193
9875 38.54520 391.59973 402.83994 0.44510
9876 38.54880 391.24914 401.15351 0.44367
9877 38.55240 390.78338 398.00318 0.45092
9878 38.55600 390.23346 394.79437 0.45423
9879 38.55960 389.62810 391.23903 0.45843
9880 38.56320 388.99333 386.53758 0.46333
9881 38.56680 388.35184 384.52984 0.46578
9882 38.57040 387.72123 381.04532 0.47089
9883 38.57400 387.11395 380.31137 0.47166
9884 38.57760 386.53701 376.65243 0.47614
9885 38.58120 385.98976 373.88271 0.47926
9886 38.58480 385.47405 371.11637 0.48113
9887 38.58840 384.97967 371.76617 0.48096
9888 38.59200 384.49474 371.95526 0.48161
9889 38.59560 384.00466 370.30091 0.48405
9890 38.59920 383.49209 369.58229 0.48612
9891 38.60280 382.93763 367.25345 0.48790
9892 38.60640 382.32262 367.13424 0.48848
9893 38.61000 381.62824 368.01478 0.48702
9894 38.61360 380.83668 368.59845 0.48668
9895 38.61720 379.93176 366.54756 0.48935
9896 38.62080 378.89928 365.92022 0.49256
9897 38.62440 377.72781 365.13520 0.49082
9898 38.62800 376.40812 362.37657 0.49343
9899 38.63160 374.93414 362.32188 0.49351
9900 38.63520 373.30152 361.42420 0.49606
9901 38.63880 371.50964 362.28316 0.49424
9902 38.64240 369.56042 360.68696 0.49686
9903 38.64600 367.45856 360.04033 0.49674
9904 38.64960 365.21154 357.83040 0.49969
9905 38.65320 362.82956 355.32221 0.50365
9906 38.65680 360.32532 354.87308 0.50481
9907 38.66040 357.71381 351.86155 0.50863
9908 38.66400 355.01195 350.31466 0.51055
9909 38.66760 352.23822 348.68204 0.51253
9910 38.67120 349.41212 345.20124 0.51757
9911 38.67480 346.55369 344.42771 0.51883
9912 38.67840 343.68303 341.68088 0.52267
9913 38.68200 340.81955 339.17867 0.52808
9914 38.68560 337.98270 335.23773 0.53441
9915 38.68920 335.18993 332.28568 0.53902
9916 38.69280 332.45818 330.64448 0.54087
9917 38.69640 329.79979 327.29304 0.54724
9918 38.70000 327.22924 325.63201 0.54881
9919 38.70360 324.75655 325.12443 0.54973
9920 38.70720 322.39025 320.37842 0.55850
9921 38.71080 320.13686 317.59461 0.56376
9922 38.71440 318.00097 317.50590 0.56325
9923 38.71800 315.98536 314.25484 0.56681
9924 38.72160 314.09114 312.49690 0.57288
9925 38.72520 312.31796 312.57956 0.57190
9926 38.72880 310.66423 311.31316 0.57434
9927 38.73240 309.12734 311.09839 0.57364
9928 38.73600 307.70388 311.04760 0.57571
9929 38.73960 306.38991 308.55500 0.58082
9930 38.74320 305.18112 307.53618 0.58193
9931 38.74680 304.07308 305.82999 0.58585
9932 38.75040 303.06152 307.42176 0.58284
9933 38.75400 302.14172 307.69858 0.58044
9934 38.75760 301.30975 305.18200 0.58513
9935 38.76120 300.56173 303.80106 0.58866
9936 38.76480 299.89406 305.44888 0.58445
9937 38.76840 299.30345 302.81187 0.59192
9938 38.77200 298.78655 301.50081 0.59304
9939 38.77560 298.34014 304.21257 0.58847
9940 38.77920 297.96313 302.87209 0.58995
9941 38.78280 297.65262 301.70792 0.59315
9942 38.78640 297.40681 302.05632 0.59286
9943 38.79000 297.22433 303.78983 0.58890
9944 38.79360 297.10426 303.88023 0.58840
9945 38.79720 297.04615 303.10898 0.58980
9946 38.80080 297.04995 303.68894 0.58856
9947 38.80440 297.11555 304.26694 0.58810
9948 38.80800 297.24496 303.79768 0.58991
9949 38.81160 297.43876 304.49073 0.58930
9950 38.81520 297.69827 304.54511 0.58762
9951 38.81880 298.02500 305.83330 0.58537
9952 38.82240 298.42073 307.64490 0.58201
9953 38.82600 298.88711 309.41760 0.57749
9954 38.82960 299.42461 311.07434 0.57235
9955 38.83320 300.03446 313.89180 0.56808
9956 38.83680 300.71777 315.29941 0.56531
9957 38.84040 301.47503 315.42154 0.56626
9958 38.84400 302.30514 314.78905 0.56764
9959 38.84760 303.21132 317.16308 0.56179
9960 38.85120 304.18986 315.28545 0.56510
9961 38.85480 305.24087 317.29352 0.56488
9962 38.85840 306.36328 316.20296 0.56652
9963 38.86200 307.55586 315.14377 0.56776
9964 38.86560 308.81736 316.64265 0.56491
9965 38.86920 310.14652 313.40173 0.57437
9966 38.87280 311.54218 314.39202 0.57045
9967 38.87640 313.00326 314.30582 0.56910
9968 38.88000 314.52875 313.58560 0.57114
9969 38.88360 316.11757 316.30398 0.56675
9970 38.88720 317.76851 316.50926 0.56584
9971 38.89080 319.47995 318.93352 0.56087
9972 38.89440 321.24979 320.12830 0.55963
9973 38.89800 323.07524 320.73187 0.55928
9974 38.90160 324.95278 321.38496 0.55774
9975 38.90520 326.87815 323.26841 0.55470
9976 38.90880 328.84649 324.81313 0.55161
9977 38.91240 330.85279 328.66150 0.54531
9978 38.91600 332.89118 329.99313 0.54355
9979 38.91960 334.95684 331.46066 0.53920
9980 38.92320 337.04532 332.57794 0.53851
9981 38.92680 339.15305 334.27690 0.53655
9982 38.93040 341.27752 336.82032 0.53241
9983 38.93400 343.41732 340.19459 0.52766
9984 38.93760 345.57195 342.15544 0.52325
9985 38.94120 347.74152 346.33786 0.51895
9986 38.94480 349.92635 347.42093 0.51634
9987 38.94840 352.12419 351.57558 0.50970
9988 38.95200 354.33817 353.27521 0.50739
9989 38.95560 356.56512 356.10484 0.50396
9990 38.95920 358.80013 359.83534 0.49817
9991 38.96280 361.03778 358.93234 0.49850
9992 38.96640 363.26927 361.33767 0.49441
9993 38.97000 365.48624 361.95213 0.49311
9994 38.97360 367.67596 366.47444 0.48595
9995 38.97720 369.82148 365.59886 0.48634
9996 38.98080 371.90582 367.48409 0.48410
9997 38.98440 373.90952 369.73230 0.48217
9998 38.98800 375.80889 372.40305 0.48136
9999 38.99160 377.58052 374.30767 0.47669
10000 38.99520 379.19879 376.77604 0.47711
10001 38.99880 380.63818 379.99200 0.47194
10002 39.00240 381.87339 380.42172 0.47156
10003 39.00600 382.88117 380.69640 0.47109
10004 39.00960 383.64172 381.51413 0.46926
10005 39.01320 384.14011 382.95287 0.46855
10006 39.01680 384.36778 384.53435 0.46576
10007 39.02040 384.32330 386.68636 0.46191
10008 39.02400 384.01421 385.95842 0.46340
10009 39.02760 383.45457 385.92414 0.46216
10010 39.03120 382.66692 383.96920 0.46585
10011 39.03480 381.68011 383.20693 0.46687
10012 39.03840 380.52769 380.51205 0.47106
10013 39.04200 379.24744 378.23465 0.47161
10014 39.04560 377.87457 377.20668 0.47410
10015 39.04920 376.44731 375.08425 0.47643
10016 39.05280 375.00042 373.89910 0.47898
10017 39.05640 373.56513 372.55166 0.48165
10018 39.06000 372.16822 368.52040 0.48645
10019 39.06360 370.83147 368.14815 0.48687
10020 39.06720 369.57143 365.81271 0.48974
10021 39.07080 368.39947 367.68742 0.48565
10022 39.07440 367.32206 363.47423 0.48964
10023 39.07800 366.34125 362.59798 0.49074
10024 39.08160 365.45539 363.21493 0.48979
10025 39.08520 364.65988 360.79215 0.49257
10026 39.08880 363.94642 360.89680 0.49315
10027 39.09240 363.31015 362.62297 0.49337
10028 39.09600 362.74155 361.18952 0.49617
10029 39.09960 362.23254 362.07760 0.49434
10030 39.10320 361.77602 358.03153 0.49932
10031 39.10680 361.36775 358.80243 0.49808
10032 39.11040 360.99957 360.05227 0.49707
10033 39.11400 360.66890 360.34954 0.49664
10034 39.11760 360.37221 360.75451 0.49584
10035 39.12120 360.10546 360.09154 0.49654
10036 39.12480 359.86382 357.73781 0.49906
10037 39.12840 359.63992 356.03680 0.50093
10038 39.13200 359.42478 355.43433 0.50146
10039 39.13560 359.20651 354.48570 0.50324
10040 39.13920 358.97058 355.01947 0.50396
10041 39.14280 358.69965 352.39963 0.50650
10042 39.14640 358.37319 351.35378 0.50777
10043 39.15000 357.97373 349.66333 0.51081
10044 39.15360 357.48004 347.82351 0.51422
10045 39.15720 356.87285 347.61332 0.51495
10046 39.16080 356.13548 346.41220 0.51669
10047 39.16440 355.25482 345.01512 0.51847
10048 39.16800 354.22224 344.39679 0.51990
10049 39.17160 353.03422 342.99050 0.52375
10050 39.17520 351.69257 342.58529 0.52232
10051 39.17880 350.20435 340.89645 0.52392
10052 39.18240 348.58151 338.40228 0.52750
10053 39.18600 346.84010 339.52179 0.52535
10054 39.18960 344.99951 336.47400 0.53242
10055 39.19320 343.08132 336.11492 0.53282
10056 39.19680 341.10814 333.78453 0.53436
10057 39.20040 339.10532 334.26338 0.53244
10058 39.20400 337.09567 329.92860 0.54421
10059 39.20760 335.10212 327.61669 0.54778
10060 39.21120 333.14637 325.55385 0.54938
10061 39.21480 331.24861 325.31539 0.54923
10062 39.21840 329.42714 322.28489 0.55396
10063 39.22200 327.69830 324.28850 0.54871
10064 39.22560 326.07652 322.60939 0.55107
10065 39.22920 324.57409 322.39678 0.55263
10066 39.23280 323.20157 319.47679 0.55812
10067 39.23640 321.96686 319.73357 0.55961
10068 39.24000 320.87663 318.62035 0.56084
10069 39.24360 319.93579 318.21728 0.56086
10070 39.24720 319.14747 317.80099 0.56499
10071 39.25080 318.51333 318.46808 0.56223
10072 39.25440 318.03361 316.42117 0.56588
10073 39.25800 317.70782 313.78211 0.57036
10074 39.26160 317.53398 315.30826 0.56650
10075 39.26520 317.50512 315.96450 0.56508
10076 39.26880 317.61947 314.53383 0.56701
10077 39.27240 317.87026 315.39627 0.56725
10078 39.27600 318.25006 316.30788 0.56436
10079 39.27960 318.75154 317.45220 0.56337
10080 39.28320 319.36574 316.40370 0.56497
10081 39.28680 320.08108 317.06013 0.56425
10082 39.29040 320.88655 319.60913 0.55834
10083 39.29400 321.77014 318.74845 0.56093
10084 39.29760 322.71876 318.72322 0.56166
10085 39.30120 323.71663 320.41651 0.55795
10086 39.30480 324.75055 322.33654 0.55454
10087 39.30840 325.80306 322.24999 0.55571
10088 39.31200 326.85673 323.61426 0.55253
10089 39.31560 327.89548 323.34023 0.55243
10090 39.31920 328.89684 323.65201 0.55044
10091 39.32280 329.84460 324.77066 0.54806
10092 39.32640 330.72173 326.49209 0.54574
10093 39.33000 331.51299 326.68234 0.54550
10094 39.33360 332.20585 328.82390 0.54130
10095 39.33720 332.79124 329.49378 0.53746
10096 39.34080 333.26407 331.03081 0.53887
10097 39.34440 333.62329 332.19973 0.54004
10098 39.34800 333.87225 330.11739 0.54076
10099 39.35160 334.01786 329.51934 0.54113
10100 39.35520 334.06987 332.00343 0.53805
10101 39.35880 334.03996 330.51055 0.54141
10102 39.36240 333.94066 330.70806 0.54174
10103 39.36600 333.78430 327.89970 0.54589
10104 39.36960 333.58201 328.85865 0.54299
10105 39.37320 333.34299 330.21997 0.53970
10106 39.37680 333.07406 327.75156 0.54406
10107 39.38040 332.77883 326.58981 0.54526
10108 39.38400 332.45838 328.64353 0.54204
10109 39.38760 332.11141 327.44878 0.54572
10110 39.39120 331.73312 327.43829 0.54512
10111 39.39480 331.31800 325.36914 0.54783
10112 39.39840 330.85941 325.21898 0.54869
10113 39.40200 330.35106 324.41137 0.55126
10114 39.40560 329.78604 324.96702 0.55003
10115 39.40920 329.16055 324.42779 0.54994
10116 39.41280 328.47273 323.11947 0.55267
10117 39.41640 327.72358 320.97374 0.55640
10118 39.42000 326.91745 319.68667 0.56005
10119 39.42360 326.06115 320.70600 0.55577
10120 39.42720 325.16509 322.42047 0.55206
10121 39.43080 324.24091 321.74132 0.55441
10122 39.43440 323.30274 319.37035 0.55904
10123 39.43800 322.36544 318.56610 0.56231
10124 39.44160 321.44428 320.31324 0.55799
10125 39.44520 320.55446 319.75341 0.55846
10126 39.44880 319.71083 318.05342 0.56252
10127 39.45240 318.92701 316.31711 0.56578
10128 39.45600 318.21584 314.29357 0.57055
10129 39.45960 317.58909 316.20788 0.56762
10130 39.46320 317.05734 315.24675 0.56796
10131 39.46680 316.62988 314.13106 0.56965
10132 39.47040 316.31315 315.08375 0.56698
10133 39.47400 316.11387 313.75672 0.56971
10134 39.47760 316.03648 312.80264 0.57197
10135 39.48120 316.07884 314.11172 0.56815
10136 39.48480 316.25185 315.83349 0.56465
10137 39.48840 316.55036 314.30974 0.56830
10138 39.49200 316.97167 311.77883 0.57518
10139 39.49560 317.51147 315.50543 0.56695
10140 39.49920 318.16360 316.11833 0.56667
10141 39.50280 318.92004 316.00377 0.56704
10142 39.50640 319.77042 316.74602 0.56810
10143 39.51000 320.70318 319.75747 0.55951
10144 39.51360 321.70492 320.54165 0.55636
10145 39.51720 322.76091 320.89705 0.55649
10146 39.52080 323.85550 318.17900 0.56369
10147 39.52440 324.97260 319.24047 0.55677
10148 39.52800 326.09639 322.37387 0.55104
10149 39.53160 327.21194 322.23385 0.55259
10150 39.53520 328.30601 322.15490 0.55241
10151 39.53880 329.36766 325.67716 0.54807
10152 39.54240 330.38775 325.08565 0.54753
10153 39.54600 331.36290 324.41181 0.55287
10154 39.54960 332.29151 325.58358 0.54982
10155 39.55320 333.17369 326.12191 0.54859
10156 39.55680 334.01331 326.92865 0.54737
10157 39.56040 334.81598 328.08479 0.54499
10158 39.56400 335.58844 329.63942 0.54266
10159 39.56760 336.33791 329.28022 0.54197
10160 39.57120 337.07146 329.54008 0.54071
10161 39.57480 337.79557 330.85428 0.53878
10162 39.57840 338.51572 332.39175 0.53677
10163 39.58200 339.23622 331.53725 0.53897
10164 39.58560 339.96011 331.00496 0.53986
10165 39.58920 340.68914 332.40532 0.53581
10166 39.59280 341.42386 332.98746 0.53740
10167 39.59640 342.16374 334.19219 0.53425
10168 39.60000 342.90739 333.39824 0.53544
10169 39.60360 343.65282 333.22285 0.53447
10170 39.60720 344.39785 335.75729 0.53197
10171 39.61080 345.14002 335.97617 0.53176
10172 39.61440 345.87620 336.50104 0.53054
10173 39.61800 346.61234 335.08290 0.53138
10174 39.62160 347.34730 334.26057 0.53273
10175 39.62520 348.08509 335.53471 0.52983
10176 39.62880 348.83189 337.27112 0.52882
10177 39.63240 349.59582 336.83926 0.52688
10178 39.63600 350.38643 337.10340 0.52587
10179 39.63960 351.21405 338.90567 0.52499
10180 39.64320 352.08891 341.63953 0.52369
10181 39.64680 353.02031 341.44037 0.52382
10182 39.65040 354.01570 342.99880 0.52129
10183 39.65400 355.07904 343.24508 0.52041
10184 39.65760 356.21337 343.08842 0.51973
10185 39.66120 357.41595 344.22599 0.51869
10186 39.66480 358.68082 345.33535 0.51629
10187 39.66840 359.99827 345.58169 0.51668
10188 39.67200 361.35504 345.26971 0.51750
10189 39.67560 362.73449 346.30389 0.51582
10190 39.67920 364.11092 349.11024 0.51095
10191 39.68280 365.47683 350.90508 0.50848
10192 39.68640 366.80333 351.07023 0.50803
10193 39.69000 368.06631 351.20940 0.50893
10194 39.69360 369.24372 352.26978 0.50629
10195 39.69720 370.31157 351.71378 0.50718
10196 39.70080 371.24588 352.02724 0.50791
10197 39.70440 372.03009 354.27024 0.50533
10198 39.70800 372.64389 351.42874 0.50964
10199 39.71160 373.07160 351.47628 0.50921
10200 39.71520 373.30146 352.81709 0.50597
10201 39.71880 373.32665 352.73247 0.50617
10202 39.72240 373.14565 354.53769 0.50337
10203 39.72600 372.76127 350.64396 0.50927
10204 39.72960 372.18444 351.04863 0.50685
10205 39.73320 371.43103 351.82819 0.50673
10206 39.73680 370.52178 351.07873 0.50790
10207 39.74040 369.48113 347.95464 0.51358
10208 39.74400 368.33583 347.45199 0.51359
10209 39.74760 367.11322 348.41549 0.51281
10210 39.75120 365.84010 347.54476 0.51429
10211 39.75480 364.54101 348.01966 0.51395
10212 39.75840 363.23737 344.79895 0.51915
10213 39.76200 361.94616 344.50278 0.51959
10214 39.76560 360.67950 344.51514 0.51961
10215 39.76920 359.44636 343.69130 0.51960
10216 39.77280 358.24962 341.76461 0.52274
10217 39.77640 357.08824 344.41022 0.51845
10218 39.78000 355.95749 343.81039 0.51814
10219 39.78360 354.85020 343.58586 0.51885
10220 39.78720 353.75668 340.87665 0.52485
10221 39.79080 352.66456 341.78106 0.52335
10222 39.79440 351.56275 341.77009 0.52251
10223 39.79800 350.44141 340.31783 0.52458
10224 39.80160 349.29339 342.31181 0.52197
10225 39.80520 348.11004 339.59324 0.52662
10226 39.80880 346.88641 339.87241 0.52695
10227 39.81240 345.62063 340.71018 0.52584
10228 39.81600 344.31142 340.08446 0.52502
10229 39.81960 342.96055 336.88090 0.52979
10230 39.82320 341.57177 335.94220 0.53292
10231 39.82680 340.15119 337.26904 0.53264
10232 39.83040 338.70635 335.87276 0.53729
10233 39.83400 337.24507 333.13901 0.54359
10234 39.83760 335.77731 332.59273 0.49310
10235 39.84120 334.31347 331.04317 0.48769
10236 39.84480 332.86440 330.04328 0.48884
10237 39.84840 331.44109 328.13360 0.49173
10238 39.85200 330.05420 328.37459 0.49099
10239 39.85560 328.71384 327.01277 0.49429
10240 39.85920 327.42900 329.39222 0.49204
10241 39.86280 326.20748 325.03836 0.49663
10242 39.86640 325.05294 322.47986 0.49938
10243 39.87000 323.97296 324.21318 0.49716
10244 39.87360 322.97231 320.46601 0.50258
10245 39.87720 322.05016 321.01989 0.50192
10246 39.88080 321.20658 321.15475 0.50167
10247 39.88440 320.44057 318.07056 0.50710
10248 39.88800 319.75046 318.65074 0.50963
10249 39.89160 319.13390 320.11197 0.51002
10250 39.89520 318.58892 320.95627 0.51493
10251 39.89880 318.11368 319.67277 0.46385
10252 39.90240 317.70693 320.85165 0.41784
10253 39.90600 317.36784 320.55654 0.41852
10254 39.90960 317.09624 319.46510 0.41965
10255 39.91320 316.89228 319.41268 0.41922
10256 39.91680 316.75621 320.01318 0.41843
10257 39.92040 316.68808 319.84586 0.41854
10258 39.92400 316.68745 320.52744 0.41832
10259 39.92760 316.75306 320.02927 0.41829
10260 39.93120 316.88269 324.15379 0.41320
10261 39.93480 317.07304 325.43760 0.41214
10262 39.93840 317.31975 324.72163 0.41312
10263 39.94200 317.61750 323.29126 0.41416
10264 39.94560 317.96029 325.82759 0.41159
10265 39.94920 318.34167 329.01075 0.40748
10266 39.95280 318.75493 328.87553 0.40886
10267 39.95640 319.19422 326.04212 0.41165
10268 39.96000 319.65356 325.79813 0.41127
10269 39.96360 320.12795 328.25467 0.40795
10270 39.96720 320.61305 330.57346 0.40440
10271 39.97080 321.10525 329.77494 0.40592
10272 39.97440 321.60013 328.00802 0.40520
10273 39.97800 322.09529 328.63356 0.40679
10274 39.98160 322.58752 329.74223 0.40479
10275 39.98520 323.07330 333.60631 0.39863
10276 39.98880 323.54876 329.32998 0.40458
10277 39.99240 324.00935 330.86062 0.40543
10278 39.99600 324.45004 333.23910 0.40396
10279 39.99960 324.86538 333.30056 0.40353
10280 40.00320 325.24967 331.94933 0.40569
10281 40.00680 325.59732 333.15460 0.40367
10282 40.01040 325.90360 332.66700 0.40465
10283 40.01400 326.16230 334.05012 0.40195
10284 40.01760 326.37009 334.98100 0.40047
10285 40.02120 326.52385 336.76139 0.39902
10286 40.02480 326.62189 335.96995 0.40019
10287 40.02840 326.66353 333.72378 0.40221
10288 40.03200 326.64957 335.06152 0.39874
10289 40.03560 326.58222 333.93528 0.40112
10290 40.03920 326.46509 332.22163 0.40466
10291 40.04280 326.30314 332.43309 0.40414
10292 40.04640 326.10255 334.31936 0.40070
10293 40.05000 325.87062 331.84853 0.40499
10294 40.05360 325.61534 330.62426 0.40672
10295 40.05720 325.34541 327.32452 0.41149
10296 40.06080 325.06995 328.87795 0.40881
10297 40.06440 324.79818 326.68937 0.41107
10298 40.06800 324.53879 325.72774 0.41250
10299 40.07160 324.30017 326.55197 0.41162
10300 40.07520 324.08975 325.73910 0.41508
10301 40.07880 323.91381 322.62694 0.42077
10302 40.08240 323.77716 323.31929 0.42237
10303 40.08600 323.68293 319.54452 0.49617
10304 40.08960 323.63236 322.10868 0.46255
10305 40.09320 323.62467 321.97159 0.45743
10306 40.09680 323.65701 322.13565 0.45348
10307 40.10040 323.72443 319.72467 0.45512
10308 40.10400 323.82004 320.15991 0.45315
10309 40.10760 323.93528 319.78484 0.45400
10310 40.11120 324.06144 319.65893 0.45496
10311 40.11480 324.18611 318.33613 0.45618
10312 40.11840 324.29887 318.44485 0.45583
10313 40.12200 324.38888 317.52630 0.45696
10314 40.12560 324.44588 319.83363 0.45378
10315 40.12920 324.46076 321.44813 0.45149
10316 40.13280 324.42598 317.79106 0.45764
10317 40.13640 324.33577 319.36018 0.45572
10318 40.14000 324.18461 318.72793 0.45911
10319 40.14360 323.97519 317.30682 0.46616
10320 40.14720 323.70649 316.65873 0.46057
10321 40.15080 323.38156 315.40340 0.37173
10322 40.15440 323.00556 315.79267 0.37012
10323 40.15800 322.58546 317.45740 0.36970
10324 40.16160 322.12969 312.80406 0.38178
10325 40.16520 321.64715 312.24970 0.43410
10326 40.16880 321.14824 312.39733 0.43207
10327 40.17240 320.64412 313.05280 0.42974
10328 40.17600 320.14410 314.25848 0.42549
10329 40.17960 319.65725 311.07705 0.42836
10330 40.18320 319.19147 312.50677 0.42436
10331 40.18680 318.75326 313.30379 0.42181
10332 40.19040 318.34745 313.84657 0.42076
10333 40.19400 317.97673 313.99666 0.42064
10334 40.19760 317.64162 311.35713 0.42520
10335 40.20120 317.34165 310.64209 0.42451
10336 40.20480 317.07547 311.79501 0.42293
10337 40.20840 316.83533 314.26239 0.42048
10338 40.21200 316.61983 315.21613 0.41819
10339 40.21560 316.42012 311.99409 0.42223
10340 40.21920 316.22729 312.52479 0.42185
10341 40.22280 316.03926 313.42654 0.42053
10342 40.22640 315.84752 312.64386 0.42301
10343 40.23000 315.64722 313.12622 0.42130
10344 40.23360 315.43507 313.09929 0.42245
10345 40.23720 315.20957 314.88116 0.41888
10346 40.24080 314.97101 313.24522 0.42088
10347 40.24440 314.72133 316.02296 0.41847
10348 40.24800 314.46379 314.35856 0.41983
10349 40.25160 314.20201 312.33296 0.42337
10350 40.25520 313.93735 310.76346 0.42545
10351 40.25880 313.68364 310.75160 0.42672
10352 40.26240 313.44101 311.69119 0.42478
10353 40.26600 313.21377 311.79834 0.42499
10354 40.26960 313.00640 311.52902 0.42532
10355 40.27320 312.82227 313.54416 0.42127
10356 40.27680 312.66478 312.09910 0.42384
10357 40.28040 312.53670 310.08363 0.42739
10358 40.28400 312.44119 312.37655 0.42345
10359 40.28760 312.38134 311.61886 0.42522
10360 40.29120 312.36055 309.60346 0.42847
10361 40.29480 312.38257 309.22532 0.42931
10362 40.29840 312.44898 309.00670 0.42956
10363 40.30200 312.56590 309.98724 0.42881
10364 40.30560 312.73538 312.40643 0.42391
10365 40.30920 312.96049 313.18692 0.42201
10366 40.31280 313.24315 312.76609 0.42526
10367 40.31640 313.58461 311.52608 0.42597
10368 40.32000 313.98546 313.52772 0.42315
10369 40.32360 314.44503 313.09193 0.42391
10370 40.32720 314.96206 315.57766 0.42023
10371 40.33080 315.53497 315.51854 0.41912
10372 40.33440 316.16171 318.16404 0.45721
10373 40.33800 316.84012 318.32103 0.51999
10374 40.34160 317.56814 319.84004 0.51254
10375 40.34520 318.34397 320.82311 0.50728
10376 40.34880 319.16612 322.32789 0.50249
10377 40.35240 320.03346 321.41146 0.50470
10378 40.35600 320.94514 322.78096 0.50160
10379 40.35960 321.90054 323.81041 0.49969
10380 40.36320 322.89915 323.44667 0.49783
10381 40.36680 323.94059 325.59467 0.49449
10382 40.37040 325.02553 325.30986 0.49436
10383 40.37400 326.15130 325.51768 0.49639
10384 40.37760 327.31708 325.58165 0.49792
10385 40.38120 328.52579 326.11947 0.49934
10386 40.38480 329.77516 326.17320 0.50166
10387 40.38840 331.06470 327.03326 0.44415
10388 40.39200 332.39359 328.07033 0.43828
10389 40.39560 333.76156 327.11440 0.43962
10390 40.39920 335.16626 326.42759 0.44048
10391 40.40280 336.60396 327.87380 0.43703
10392 40.40640 338.07281 326.75475 0.44000
10393 40.41000 339.56888 327.82966 0.43869
10394 40.41360 341.08738 329.46156 0.47435
10395 40.41720 342.62222 329.26279 0.49260
10396 40.42080 344.16606 329.17662 0.48842
10397 40.42440 345.71006 329.63136 0.48824
10398 40.42800 347.24378 331.68680 0.48213
10399 40.43160 348.75514 334.80645 0.47737
10400 40.43520 350.23071 335.28556 0.47748
10401 40.43880 351.65532 335.83905 0.47786
10402 40.44240 353.01378 336.72711 0.47923
10403 40.44600 354.29075 339.53034 0.47807
10404 40.44960 355.47193 338.24284 0.42182
10405 40.45320 356.54607 340.62830 0.38374
10406 40.45680 357.50459 341.01244 0.38362
10407 40.46040 358.34213 341.16046 0.38342
10408 40.46400 359.05934 340.81513 0.38213
10409 40.46760 359.66135 341.32370 0.38085
10410 40.47120 360.15880 344.23891 0.37718
10411 40.47480 360.56462 343.90435 0.37932
10412 40.47840 360.89743 344.10993 0.37869
10413 40.48200 361.17570 344.08557 0.37933
10414 40.48560 361.41934 346.32625 0.37652
10415 40.48920 361.64821 343.82977 0.37882
10416 40.49280 361.88015 344.36645 0.37868
10417 40.49640 362.12901 345.98802 0.37714
10418 40.50000 362.40629 346.10877 0.37770
10419 40.50360 362.71863 347.66526 0.37600
10420 40.50720 363.06672 345.91541 0.37872
10421 40.51080 363.44760 345.27333 0.37926
10422 40.51440 363.85395 347.04681 0.37613
10423 40.51800 364.27251 346.73705 0.37724
10424 40.52160 364.68633 346.88773 0.37709
10425 40.52520 365.07334 348.29517 0.37552
10426 40.52880 365.41766 347.61117 0.37671
10427 40.53240 365.69379 347.52921 0.37581
10428 40.53600 365.88002 348.50705 0.37413
10429 40.53960 365.95652 346.96115 0.37797
10430 40.54320 365.90707 349.24064 0.37557
10431 40.54680 365.71976 349.98807 0.37632
10432 40.55040 365.38855 348.68048 0.37652
10433 40.55400 364.91303 348.33420 0.37687
10434 40.55760 364.29857 346.34677 0.37800
10435 40.56120 363.55581 347.90111 0.37647
10436 40.56480 362.69924 348.55942 0.37585
10437 40.56840 361.74887 348.13290 0.37632
10438 40.57200 360.72570 347.94532 0.37684
10439 40.57560 359.65238 346.36599 0.37879
10440 40.57920 358.55235 345.95885 0.37856
10441 40.58280 357.44897 346.08923 0.37770
10442 40.58640 356.36506 346.90054 0.37738
10443 40.59000 355.32221 345.18728 0.37976
10444 40.59360 354.34114 344.04807 0.37959
10445 40.59720 353.44121 344.03585 0.38043
10446 40.60080 352.64050 347.36490 0.37752
10447 40.60440 351.95573 346.05310 0.37911
10448 40.60800 351.40231 346.96072 0.37776
10449 40.61160 350.99402 345.10064 0.38014
10450 40.61520 350.74306 346.52446 0.37718
10451 40.61880 350.65998 344.27597 0.38031
10452 40.62240 350.75347 346.96908 0.37716
10453 40.62600 351.03034 346.41497 0.37797
10454 40.62960 351.49554 343.48097 0.38210
10455 40.63320 352.15229 345.30524 0.38118
10456 40.63680 353.00217 345.21422 0.46814
10457 40.64040 354.04522 347.11228 0.46935
10458 40.64400 355.28032 347.15346 0.46567
10459 40.64760 356.70623 350.76322 0.45850
10460 40.65120 358.31944 350.01674 0.45746
10461 40.65480 360.11533 350.95004 0.45472
10462 40.65840 362.09054 355.03361 0.44869
10463 40.66200 364.23675 353.91664 0.45010
10464 40.66560 366.54565 352.83918 0.45128
10465 40.66920 369.00591 356.41491 0.44456
10466 40.67280 371.60302 358.99336 0.44227
10467 40.67640 374.31872 361.41433 0.43949
10468 40.68000 377.13053 363.00288 0.43705
10469 40.68360 380.01087 368.15389 0.43065
10470 40.68720 382.92767 368.97771 0.43074
10471 40.69080 385.84385 371.67418 0.42809
10472 40.69440 388.71777 375.59232 0.42383
10473 40.69800 391.50410 377.57469 0.42188
10474 40.70160 394.15437 380.62955 0.41802
10475 40.70520 396.61893 383.35037 0.41475
10476 40.70880 398.84779 386.29511 0.41244
10477 40.71240 400.79068 386.40869 0.42111
10478 40.71600 402.41151 390.77222 0.45340
10479 40.71960 403.66909 390.88690 0.45038
10480 40.72320 404.53369 394.48563 0.44699
10481 40.72680 404.98461 396.56742 0.44360
10482 40.73040 405.01093 397.04401 0.44458
10483 40.73400 404.61165 397.91862 0.44419
10484 40.73760 403.79546 396.85060 0.41209
10485 40.74120 402.57976 399.43642 0.39102
10486 40.74480 400.98934 400.62737 0.38955
10487 40.74840 399.05426 396.74000 0.39476
10488 40.75200 396.80959 393.52376 0.39662
10489 40.75560 394.29213 390.39340 0.40029
10490 40.75920 391.53988 389.40139 0.40248
10491 40.76280 388.59078 388.19745 0.40347
10492 40.76640 385.48180 382.81504 0.40882
10493 40.77000 382.24835 377.95976 0.41320
10494 40.77360 378.92389 374.14095 0.41915
10495 40.77720 375.53977 369.34419 0.42502
10496 40.78080 372.12516 365.30192 0.42867
10497 40.78440 368.70704 361.87584 0.43435
10498 40.78800 365.31025 357.55290 0.44060
10499 40.79160 361.95748 354.78190 0.44757
10500 40.79520 358.66930 351.10621 0.45652
10501 40.79880 355.46416 352.16986 0.42510
10502 40.80240 352.35908 348.08474 0.37220
10503 40.80600 349.36596 341.39789 0.38122
10504 40.80960 346.49601 339.86315 0.38204
10505 40.81320 343.75756 341.06527 0.37918
10506 40.81680 341.15559 336.56293 0.38550
10507 40.82040 338.69202 334.31580 0.38902
10508 40.82400 336.36564 335.32762 0.38623
10509 40.82760 334.17217 333.09520 0.38882
10510 40.83120 332.10447 330.79352 0.39172
10511 40.83480 330.15344 329.70164 0.39337
10512 40.83840 328.30632 327.49850 0.39571
10513 40.84200 326.55387 326.78756 0.39640
10514 40.84560 324.88106 327.91921 0.39567
10515 40.84920 323.27516 325.31907 0.39867
10516 40.85280 321.72420 325.09476 0.39818
10517 40.85640 320.21777 320.76545 0.40295
10518 40.86000 318.74758 323.05809 0.40054
10519 40.86360 317.30784 322.60886 0.40258
10520 40.86720 315.89540 319.88657 0.40517
10521 40.87080 314.50965 319.72026 0.40563
10522 40.87440 313.15250 318.99511 0.40608
10523 40.87800 311.82755 317.16554 0.40971
10524 40.88160 310.53976 314.16588 0.41197
10525 40.88520 309.29547 315.65928 0.40836
10526 40.88880 308.10130 314.27228 0.41169
10527 40.89240 306.96394 313.22160 0.41433
10528 40.89600 305.88965 312.83806 0.41465
10529 40.89960 304.88401 308.34904 0.42152
10530 40.90320 303.95177 307.31876 0.42344
10531 40.90680 303.09660 306.49251 0.42372
10532 40.91040 302.32102 305.97411 0.42381
10533 40.91400 301.62635 306.04561 0.42428
10534 40.91760 301.01351 302.57393 0.42824
10535 40.92120 300.47991 304.26345 0.42594
10536 40.92480 300.02430 302.96942 0.42784
10537 40.92840 299.64369 303.02253 0.42677
10538 40.93200 299.33433 303.02224 0.42710
10539 40.93560 299.09343 300.44936 0.43048
10540 40.93920 298.91315 299.63682 0.43302
10541 40.94280 298.78996 301.45701 0.43106
10542 40.94640 298.71888 301.74879 0.43111
10543 40.95000 298.69503 300.44811 0.43183
10544 40.95360 298.71377 300.14245 0.43095
10545 40.95720 298.77075 301.23789 0.43040
10546 40.96080 298.86118 300.16405 0.43160
10547 40.96440 298.98332 299.83591 0.43232
10548 40.96800 299.13298 299.15073 0.43278
10549 40.97160 299.30706 300.86443 0.42921
10550 40.97520 299.50249 301.42928 0.42910
10551 40.97880 299.71612 300.60017 0.42947
10552 40.98240 299.94452 299.94311 0.43145
10553 40.98600 300.18388 301.94014 0.50391
10554 40.98960 300.43014 302.15002 0.53704
10555 40.99320 300.67820 299.77316 0.53535
10556 40.99680 300.92312 301.42338 0.52877
10557 41.00040 301.15955 300.31493 0.52848
10558 41.00400 301.38209 302.08482 0.52358
10559 41.00760 301.58524 304.40876 0.52131
10560 41.01120 301.76412 303.35960 0.52129
10561 41.01480 301.91436 301.74400 0.52163
10562 41.01840 302.03227 303.41550 0.51729
10563 41.02200 302.11432 303.69513 0.51707
10564 41.02560 302.16100 302.96777 0.52021
10565 41.02920 302.17080 303.12287 0.51797
10566 41.03280 302.14299 305.02371 0.51593
10567 41.03640 302.08128 307.39960 0.51142
10568 41.04000 301.98667 308.00728 0.50881
10569 41.04360 301.86079 306.93930 0.51225
10570 41.04720 301.70644 306.15107 0.51627
10571 41.05080 301.52587 307.73696 0.51360
10572 41.05440 301.32091 309.53925 0.51043
10573 41.05800 301.09243 306.81619 0.51536
10574 41.06160 300.84135 306.18337 0.51980
10575 41.06520 300.56888 308.42193 0.56410
10576 41.06880 300.27463 308.45411 0.57010
10577 41.07240 299.95848 306.96060 0.57054
10578 41.07600 299.62081 308.54089 0.56460
10579 41.07960 299.26251 309.21994 0.56159
10580 41.08320 298.88532 308.59323 0.56126
10581 41.08680 298.49273 307.97922 0.56114
10582 41.09040 298.08761 309.44408 0.56021
10583 41.09400 297.67478 309.10152 0.56127
10584 41.09760 297.25972 307.50302 0.56507
10585 41.10120 296.85142 308.21302 0.56089
10586 41.10480 296.45534 305.52807 0.56665
10587 41.10840 296.07867 307.64854 0.56210
10588 41.11200 295.72853 306.41829 0.56427
10589 41.11560 295.41175 304.30663 0.56889
10590 41.11920 295.13466 303.92826 0.56978
10591 41.12280 294.90296 303.38717 0.57125
10592 41.12640 294.72157 304.21044 0.56913
10593 41.13000 294.59455 304.15233 0.56927
10594 41.13360 294.52455 303.56464 0.56900
10595 41.13720 294.51411 300.88904 0.57512
10596 41.14080 294.56499 301.65501 0.57402
10597 41.14440 294.67697 303.55333 0.56915
10598 41.14800 294.84951 302.16782 0.57351
10599 41.15160 295.08136 303.64343 0.57144
10600 41.15520 295.37067 301.78758 0.57481
10601 41.15880 295.71515 302.85094 0.57239
10602 41.16240 296.11218 302.90880 0.57278
10603 41.16600 296.55886 304.44340 0.56985
10604 41.16960 297.05194 304.87211 0.56860
10605 41.17320 297.58781 307.02246 0.56529
10606 41.17680 298.16361 309.24052 0.56035
10607 41.18040 298.77480 308.45530 0.56228
10608 41.18400 299.41674 309.33057 0.55983
10609 41.18760 300.08422 310.63174 0.55746
10610 41.19120 300.77131 312.72484 0.55502
10611 41.19480 301.47134 313.47259 0.55399
10612 41.19840 302.17695 313.78917 0.55415
10613 41.20200 302.88015 315.02094 0.55030
10614 41.20560 303.57295 315.82957 0.54889
10615 41.20920 304.24482 317.16005 0.54531
10616 41.21280 304.88872 317.69510 0.54578
10617 41.21640 305.49509 319.30432 0.54360
10618 41.22000 306.05498 320.24255 0.54192
10619 41.22360 306.55990 324.12934 0.53489
10620 41.22720 307.00163 323.53723 0.53572
10621 41.23080 307.37208 324.74866 0.53405
10622 41.23440 307.66330 324.66833 0.53160
10623 41.23800 307.86982 324.27414 0.53368
10624 41.24160 307.98423 324.44692 0.53407
10625 41.24520 308.00080 327.00466 0.53041
10626 41.24880 307.91494 326.50844 0.53188
10627 41.25240 307.72354 327.42510 0.53016
10628 41.25600 307.42542 326.59847 0.53113
10629 41.25960 307.02173 326.80546 0.51684
10630 41.26320 306.51651 326.74910 0.49626
10631 41.26680 305.91564 327.15522 0.52980
10632 41.27040 305.22851 327.02579 0.53045
10633 41.27400 304.46669 326.40409 0.53140
10634 41.27760 303.64364 323.76847 0.53410
10635 41.28120 302.77425 323.33761 0.53497
10636 41.28480 301.87420 322.06828 0.53760
10637 41.28840 300.95940 322.24128 0.53790
10638 41.29200 300.04539 318.86991 0.54446
10639 41.29560 299.14698 317.82834 0.54681
10640 41.29920 298.27789 317.71951 0.54787
10641 41.30280 297.45047 314.76506 0.55285
10642 41.30640 296.67565 312.94081 0.55682
10643 41.31000 295.96280 310.16962 0.55665
10644 41.31360 295.31978 308.53220 0.51782
10645 41.31720 294.75289 307.38462 0.56483
10646 41.32080 294.26700 306.96698 0.56296
10647 41.32440 293.86335 304.73663 0.56975
10648 41.32800 293.54828 304.02119 0.57105
10649 41.33160 293.32067 306.66724 0.56489
10650 41.33520 293.17875 305.73981 0.56808
10651 41.33880 293.12509 306.21282 0.56757
10652 41.34240 293.15503 304.69621 0.57164
10653 41.34600 293.26614 304.10345 0.57270
10654 41.34960 293.45508 303.78684 0.57173
10655 41.35320 293.71808 305.40961 0.56802
10656 41.35680 294.05124 307.88863 0.51793
10657 41.36040 294.45097 308.51280 0.56170
10658 41.36400 294.91259 304.73538 0.56792
10659 41.36760 295.43312 305.89593 0.56571
10660 41.37120 296.00969 306.73325 0.51967
10661 41.37480 296.64040 307.13855 0.56101
10662 41.37840 297.32367 307.91471 0.56423
10663 41.38200 298.05924 309.94344 0.56016
10664 41.38560 298.84808 309.24594 0.56062
10665 41.38920 299.69213 308.53671 0.56237
10666 41.39280 300.59435 310.83213 0.55857
10667 41.39640 301.55866 311.80739 0.55737
10668 41.40000 302.58973 311.37943 0.55838
10669 41.40360 303.69277 312.53707 0.55609
10670 41.40720 304.87330 313.87628 0.55322
10671 41.41080 306.13679 313.50240 0.55374
10672 41.41440 307.48839 314.59930 0.55230
10673 41.41800 308.93254 316.01524 0.54827
10674 41.42160 310.47251 316.67998 0.51335
10675 41.42520 312.11031 315.28632 0.53452
10676 41.42880 313.84620 317.59870 0.54669
10677 41.43240 315.67844 318.56980 0.54325
10678 41.43600 317.60307 318.69848 0.54299
10679 41.43960 319.61372 319.80493 0.54249
10680 41.44320 321.70150 321.10415 0.54272
10681 41.44680 323.85495 322.43087 0.54026
10682 41.45040 326.05999 326.49108 0.53324
10683 41.45400 328.30042 328.23730 0.53125
10684 41.45760 330.55659 327.07922 0.50441
10685 41.46120 332.80782 329.38825 0.50504
10686 41.46480 335.03139 330.50539 0.52592
10687 41.46840 337.20325 331.24304 0.52474
10688 41.47200 339.29858 334.00141 0.52122
10689 41.47560 341.29251 337.47740 0.49231
10690 41.47920 343.16077 338.61829 0.48952
10691 41.48280 344.88041 340.58582 0.48782
10692 41.48640 346.43059 341.45243 0.48445
10693 41.49000 347.79334 342.18646 0.48732
10694 41.49360 348.95406 346.06306 0.47604
10695 41.49720 349.90239 346.90554 0.48211
10696 41.50080 350.63263 348.85058 0.47288
10697 41.50440 351.14359 351.07860 0.49447
10698 41.50800 351.43896 350.47056 0.47903
10699 41.51160 351.52701 350.74408 0.43015
10700 41.51520 351.41996 351.63125 0.48478
10701 41.51880 351.13329 352.00144 0.49277
10702 41.52240 350.68505 351.95872 0.47896
10703 41.52600 350.09269 351.03266 0.45037
10704 41.52960 349.37492 349.13928 0.46665
10705 41.53320 348.54701 348.72692 0.49893
10706 41.53680 347.62602 347.54024 0.49951
10707 41.54040 346.62222 346.32961 0.50192
10708 41.54400 345.54292 344.58514 0.49348
10709 41.54760 344.39191 341.27729 0.47508
10710 41.55120 343.16906 341.26844 0.51071
10711 41.55480 341.87350 339.88109 0.51240
10712 41.55840 340.50011 337.05294 0.51661
10713 41.56200 339.04359 335.80113 0.48806
10714 41.56560 337.49868 330.25012 0.51002
10715 41.56920 335.86138 331.11091 0.52605
10716 41.57280 334.12972 331.84939 0.52388
10717 41.57640 332.30493 329.55893 0.52794
10718 41.58000 330.39004 328.59540 0.52870
10719 41.58360 328.39210 326.32918 0.53218
10720 41.58720 326.32072 328.05342 0.52950
10721 41.59080 324.18860 325.37617 0.53365
10722 41.59440 322.00625 323.18634 0.53888
10723 41.59800 319.78824 318.56674 0.54690
10724 41.60160 317.54782 318.10027 0.54749
10725 41.60520 315.29749 317.59339 0.52405
10726 41.60880 313.04860 314.41356 0.52755
10727 41.61240 310.81121 314.42691 0.55306
10728 41.61600 308.59406 311.34160 0.55781
10729 41.61960 306.40478 309.76374 0.53911
10730 41.62320 304.24995 308.05815 0.53714
10731 41.62680 302.13535 308.47802 0.56536
10732 41.63040 300.06662 305.24164 0.56989
10733 41.63400 298.04919 305.34224 0.56802
10734 41.63760 296.08816 303.59981 0.57718
10735 41.64120 294.18875 299.93642 0.58223
10736 41.64480 292.35620 300.81236 0.57928
10737 41.64840 290.59559 297.96182 0.58511
10738 41.65200 288.91203 294.46883 0.59214
10739 41.65560 287.31033 296.48200 0.58780
10740 41.65920 285.79331 295.39477 0.58984
10741 41.66280 284.36538 293.32231 0.59484
10742 41.66640 283.02966 293.24087 0.59536
10743 41.67000 281.78872 290.41131 0.58752
10744 41.67360 280.64468 288.88100 0.56279
10745 41.67720 279.59917 286.39173 0.60877
10746 41.68080 278.65344 286.70887 0.60963
10747 41.68440 277.80842 285.67930 0.60904
10748 41.68800 277.06478 285.01395 0.61164
10749 41.69160 276.42301 283.08961 0.61632
10750 41.69520 275.88346 283.19586 0.61517
10751 41.69880 275.44641 282.33271 0.61873
10752 41.70240 275.11150 282.72658 0.61770
10753 41.70600 274.87847 280.82943 0.61690
10754 41.70960 274.75031 278.87800 0.57489
10755 41.71320 274.72559 279.65555 0.62370
10756 41.71680 274.80545 281.28494 0.61993
10757 41.72040 274.98829 280.92973 0.62147
10758 41.72400 275.27518 279.48427 0.62154
10759 41.72760 275.66635 282.45548 0.56480
10760 41.73120 276.16156 280.80126 0.62094
10761 41.73480 276.76060 280.85116 0.56767
10762 41.73840 277.46328 282.49791 0.61624
10763 41.74200 278.26893 280.80483 0.56875
10764 41.74560 279.17589 281.75169 0.61938
10765 41.74920 280.18242 283.47034 0.56284
10766 41.75280 281.28629 284.26144 0.61065
10767 41.75640 282.48443 283.51934 0.61551
10768 41.76000 283.77291 285.94522 0.55851
10769 41.76360 285.14710 286.13443 0.60398
10770 41.76720 286.60066 285.01428 0.61233
10771 41.77080 288.12674 287.97936 0.60757
10772 41.77440 289.71706 288.89776 0.55798
10773 41.77800 291.36247 288.95675 0.55101
10774 41.78160 293.05115 290.72867 0.59345
10775 41.78520 294.77115 292.92326 0.59565
10776 41.78880 296.50885 295.57266 0.58883
10777 41.79240 298.24928 295.93671 0.58911
10778 41.79600 299.97634 295.53940 0.54926
10779 41.79960 301.67279 298.23600 0.57371
10780 41.80320 303.32085 300.85785 0.57912
10781 41.80680 304.90233 304.37227 0.57066
10782 41.81040 306.39917 305.39605 0.54970
10783 41.81400 307.79399 306.93325 0.53584
10784 41.81760 309.07067 306.54983 0.56869
10785 41.82120 310.21562 307.28006 0.56741
10786 41.82480 311.21729 310.36770 0.56183
10787 41.82840 312.06738 309.71783 0.56077
10788 41.83200 312.76100 310.82589 0.55961
10789 41.83560 313.29670 312.28927 0.55745
10790 41.83920 313.67637 310.83892 0.55961
10791 41.84280 313.90420 310.95679 0.56113
10792 41.84640 313.98684 310.38858 0.56273
10793 41.85000 313.93217 310.21613 0.56143
10794 41.85360 313.74900 311.08762 0.56134
10795 41.85720 313.44507 309.59457 0.56427
10796 41.86080 313.02875 307.48961 0.55659
10797 41.86440 312.50739 307.41443 0.52568
10798 41.86800 311.88773 308.48681 0.56566
10799 41.87160 311.17610 307.28207 0.56743
10800 41.87520 310.37886 306.45665 0.56904
10801 41.87880 309.50280 304.86653 0.57118
10802 41.88240 308.55557 303.81388 0.57290
10803 41.88600 307.54587 303.32055 0.57489
10804 41.88960 306.48390 302.32880 0.57982
10805 41.89320 305.38201 302.17685 0.57772
10806 41.89680 304.25251 303.48845 0.57630
10807 41.90040 303.10898 300.47769 0.58126
10808 41.90400 301.96540 300.70958 0.57826
10809 41.90760 300.83534 297.19414 0.53881
10810 41.91120 299.73196 297.95829 0.58449
10811 41.91480 298.66730 297.39728 0.58524
10812 41.91840 297.65204 296.76093 0.58438
10813 41.92200 296.69528 295.22227 0.54265
10814 41.92560 295.80447 293.87260 0.59154
10815 41.92920 294.98560 293.82103 0.59467
10816 41.93280 294.24267 293.39560 0.59434
10817 41.93640 293.57873 293.56884 0.59478
10818 41.94000 292.99545 292.72033 0.59608
10819 41.94360 292.49347 292.42776 0.59668
10820 41.94720 292.07246 291.28837 0.60024
10821 41.95080 291.73152 291.94737 0.60180
10822 41.95440 291.46711 292.69976 0.59918
10823 41.95800 291.27647 292.33250 0.59809
10824 41.96160 291.16004 292.21707 0.59813
10825 41.96520 291.11099 291.81208 0.59886
10826 41.96880 291.12394 294.26287 0.59305
10827 41.97240 291.19266 293.86103 0.55236
10828 41.97600 291.31001 290.21897 0.58903
10829 41.97960 291.46803 290.34428 0.60124
10830 41.98320 291.65795 290.76660 0.60058
10831 41.98680 291.87054 292.28345 0.59748
10832 41.99040 292.09621 293.71943 0.59558
10833 41.99400 292.32595 294.46633 0.59381
10834 41.99760 292.54880 294.43838 0.59301
10835 42.00120 292.75431 292.91074 0.59540
10836 42.00480 292.93575 292.21320 0.59871
10837 42.00840 293.08946 292.83419 0.56080
10838 42.01200 293.20666 293.70995 0.57550
10839 42.01560 293.28299 293.78069 0.59643
10840 42.01920 293.31646 292.57767 0.60036
10841 42.02280 293.30381 292.19777 0.59998
10842 42.02640 293.24609 294.48674 0.56278
10843 42.03000 293.14462 294.20495 0.57311
10844 42.03360 293.00166 294.05753 0.56520
10845 42.03720 292.82021 295.86502 0.56707
10846 42.04080 292.60366 295.07852 0.56571
10847 42.04440 292.35094 293.59928 0.57596
10848 42.04800 292.07510 294.36455 0.56928
10849 42.05160 291.77650 293.73212 0.56917
10850 42.05520 291.45709 293.22925 0.59647
10851 42.05880 291.12142 294.17414 0.56793
10852 42.06240 290.77333 295.49592 0.56306
10853 42.06600 290.41671 295.64166 0.59108
10854 42.06960 290.05547 294.13816 0.59339
10855 42.07320 289.69349 292.35966 0.57544
10856 42.07680 289.33448 291.32903 0.54758
10857 42.08040 288.98190 291.71604 0.56624
10858 42.08400 288.63888 294.55870 0.59419
10859 42.08760 288.30819 294.71961 0.59313
10860 42.09120 287.99220 293.13708 0.59618
10861 42.09480 287.69314 290.22750 0.58765
10862 42.09840 287.41256 290.98458 0.56638
10863 42.10200 287.15236 289.84613 0.60418
10864 42.10560 286.91402 288.90195 0.60526
10865 42.10920 286.70005 290.74846 0.59992
10866 42.11280 286.51325 288.53073 0.60664
10867 42.11640 286.35579 287.67489 0.60936
10868 42.12000 286.23044 289.10892 0.60785
10869 42.12360 286.13954 289.92452 0.60596
10870 42.12720 286.08759 289.31381 0.60673
10871 42.13080 286.07668 287.87785 0.60762
10872 42.13440 286.10742 289.99890 0.60403
10873 42.13800 286.18251 292.42383 0.59797
10874 42.14160 286.30322 291.68481 0.59888
10875 42.14520 286.46999 290.35815 0.60253
10876 42.14880 286.68392 290.60890 0.60245
10877 42.15240 286.93853 293.44763 0.59698
10878 42.15600 287.24653 291.71908 0.59960
10879 42.15960 287.60293 293.40276 0.58957
10880 42.16320 288.00878 291.95419 0.55112
10881 42.16680 288.46603 293.98572 0.59383
10882 42.17040 288.97771 295.92951 0.59085
10883 42.17400 289.54787 296.28096 0.59044
10884 42.17760 290.18153 298.21165 0.58612
10885 42.18120 290.88443 296.11984 0.59024
10886 42.18480 291.66255 295.98542 0.58934
10887 42.18840 292.52433 299.28225 0.58944
10888 42.19200 293.47526 298.07347 0.58798
10889 42.19560 294.52159 298.76433 0.58708
10890 42.19920 295.66870 300.94976 0.58410
10891 42.20280 296.92059 302.14762 0.58229
10892 42.20640 298.27986 302.15437 0.58065
10893 42.21000 299.74763 303.18433 0.57435
10894 42.21360 301.32205 306.44064 0.52882
10895 42.21720 302.99979 304.33264 0.56690
10896 42.22080 304.77503 308.34313 0.56719
10897 42.22440 306.63883 311.77236 0.55985
10898 42.22800 308.58081 311.16092 0.56267
10899 42.23160 310.58754 312.64785 0.56047
10900 42.23520 312.64243 314.36665 0.55639
10901 42.23880 314.72698 315.37627 0.55611
10902 42.24240 316.82048 319.71568 0.54880
10903 42.24600 318.89818 321.32529 0.54558
10904 42.24960 320.94031 322.03064 0.54343
10905 42.25320 322.92101 322.28434 0.54218
10906 42.25680 324.81417 323.38885 0.50624
10907 42.26040 326.59503 326.42607 0.52318
10908 42.26400 328.24520 327.95822 0.53276
10909 42.26760 329.74157 329.77886 0.52909
10910 42.27120 331.06654 332.05656 0.49460
10911 42.27480 332.20612 330.89529 0.51565
10912 42.27840 333.15048 334.89514 0.52216
10913 42.28200 333.89439 337.37803 0.51901
10914 42.28560 334.43510 336.33601 0.50147
10915 42.28920 334.78050 337.71940 0.43410
10916 42.29280 334.93936 337.17162 0.43817
10917 42.29640 334.92127 335.38801 0.44005
10918 42.30000 334.74830 337.32813 0.44117
10919 42.30360 334.43675 337.85027 0.52100
10920 42.30720 334.00744 337.65100 0.51887
10921 42.31080 333.48201 339.09277 0.51678
10922 42.31440 332.88210 336.77040 0.52087
10923 42.31800 332.22862 337.83914 0.52008
10924 42.32160 331.54129 336.82824 0.49694
10925 42.32520 330.83827 335.29508 0.49925
10926 42.32880 330.13603 335.18974 0.52174
10927 42.33240 329.44923 337.67085 0.51917
10928 42.33600 328.79083 336.50187 0.52026
10929 42.33960 328.17167 337.77977 0.51770
10930 42.34320 327.60204 333.72635 0.52541
10931 42.34680 327.08958 335.71397 0.52282
10932 42.35040 326.64030 334.10489 0.52297
10933 42.35400 326.25801 334.24945 0.52338
10934 42.35760 325.94352 333.86199 0.50461
10935 42.36120 325.69969 333.54876 0.49343
10936 42.36480 325.52087 331.10156 0.52761
10937 42.36840 325.40577 332.94673 0.52541
10938 42.37200 325.34547 331.58282 0.52732
10939 42.37560 325.32947 330.97293 0.51338
10940 42.37920 325.34747 332.16781 0.49350
10941 42.38280 325.38728 333.96497 0.51004
10942 42.38640 325.43596 332.65375 0.49197
10943 42.39000 325.48042 332.92403 0.51268
10944 42.39360 325.50797 331.01078 0.49447
10945 42.39720 325.50685 331.93638 0.51694
10946 42.40080 325.46669 330.46020 0.49349
10947 42.40440 325.37887 330.80681 0.53007
10948 42.40800 325.23687 328.87119 0.52345
10949 42.41160 325.03646 330.05351 0.49163
10950 42.41520 324.77582 329.87539 0.53080
10951 42.41880 324.45548 331.06322 0.53001
10952 42.42240 324.07817 330.20596 0.52370
10953 42.42600 323.64862 329.19855 0.48543
10954 42.42960 323.17302 328.47710 0.49231
10955 42.43320 322.65828 327.17757 0.53529
10956 42.43680 322.11161 328.27367 0.53355
10957 42.44040 321.53972 327.00311 0.53640
10958 42.44400 320.94825 329.16550 0.52628
10959 42.44760 320.34116 326.92959 0.49389
10960 42.45120 319.72038 325.77626 0.53656
10961 42.45480 319.08550 325.39845 0.53835
10962 42.45840 318.43378 325.26103 0.53840
10963 42.46200 317.76024 321.87930 0.54242
10964 42.46560 317.05795 319.18603 0.54825
10965 42.46920 316.31847 317.96178 0.55073
10966 42.47280 315.53238 316.81523 0.55371
10967 42.47640 314.68988 315.10826 0.55645
10968 42.48000 313.78144 311.84601 0.56171
10969 42.48360 312.79846 311.79818 0.56130
10970 42.48720 311.73384 312.12049 0.56127
10971 42.49080 310.58249 309.82418 0.56420
10972 42.49440 309.34176 307.53867 0.56861
10973 42.49800 308.01191 304.99987 0.57253
10974 42.50160 306.59546 304.70926 0.57323
10975 42.50520 305.09831 304.45503 0.57359
10976 42.50880 303.52878 302.50722 0.57669
10977 42.51240 301.89729 301.32620 0.57825
10978 42.51600 300.21616 298.77416 0.58506
10979 42.51960 298.49885 298.88980 0.58466
10980 42.52320 296.75932 297.78685 0.58781
10981 42.52680 295.01156 297.35779 0.58814
10982 42.53040 293.27033 295.15037 0.59160
10983 42.53400 291.54797 293.03411 0.59629
10984 42.53760 289.85622 292.60448 0.52611
10985 42.54120 288.20534 292.89973 0.50173
10986 42.54480 286.60415 291.82717 0.50222
10987 42.54840 285.05925 287.75703 0.51014
10988 42.55200 283.57596 288.41680 0.56816
10989 42.55560 282.15791 288.37314 0.60780
10990 42.55920 280.80692 287.44778 0.60829
10991 42.56280 279.52336 285.68794 0.61125
10992 42.56640 278.30625 281.94020 0.62007
10993 42.57000 277.15202 282.06369 0.62054
10994 42.57360 276.05912 281.57675 0.62273
10995 42.57720 275.02440 280.66268 0.62450
10996 42.58080 274.04236 281.65711 0.62253
10997 42.58440 273.10822 280.15096 0.62515
10998 42.58800 272.21726 279.47947 0.62714
10999 42.59160 271.36497 279.90401 0.62606
11000 42.59520 270.54730 278.91949 0.63119
11001 42.59880 269.76084 276.49959 0.63356
11002 42.60240 269.00310 276.21735 0.63667
11003 42.60600 268.27176 276.98930 0.63452
11004 42.60960 267.56592 274.90817 0.63584
11005 42.61320 266.88507 275.44315 0.63584
11006 42.61680 266.22946 274.58887 0.63728
11007 42.62040 265.59983 272.47280 0.64268
11008 42.62400 264.99731 272.56716 0.64237
11009 42.62760 264.42334 271.26771 0.64593
11010 42.63120 263.87959 271.79157 0.64451
11011 42.63480 263.36776 269.64236 0.64976
11012 42.63840 262.88950 269.10097 0.65060
11013 42.64200 262.44666 269.48707 0.65011
11014 42.64560 262.04098 266.59674 0.65915
11015 42.64920 261.67408 266.64762 0.65833
11016 42.65280 261.34752 266.27904 0.65948
11017 42.65640 261.06275 266.41214 0.65748
11018 42.66000 260.82113 267.66378 0.65348
11019 42.66360 260.62393 263.33855 0.66524
11020 42.66720 260.47234 265.10797 0.66289
11021 42.67080 260.36742 265.40824 0.66252
11022 42.67440 260.31017 264.26355 0.66268
11023 42.67800 260.30153 264.05532 0.66310
11024 42.68160 260.34234 263.20069 0.66617
11025 42.68520 260.43323 265.01217 0.66135
11026 42.68880 260.57174 263.16232 0.66470
11027 42.69240 260.76376 264.45314 0.66101
11028 42.69600 261.00880 261.47513 0.67027
11029 42.69960 261.30394 264.19434 0.66359
11030 42.70320 261.64982 263.87496 0.66163
11031 42.70680 262.04587 263.45873 0.66346
11032 42.71040 262.49105 265.69065 0.65648
11033 42.71400 262.98395 265.92849 0.65658
11034 42.71760 263.52270 268.11002 0.65205
11035 42.72120 264.10504 265.67043 0.65785
11036 42.72480 264.72828 264.25466 0.66163
11037 42.72840 265.38933 265.50914 0.65908
11038 42.73200 266.08479 266.39361 0.65629
11039 42.73560 266.81105 267.18325 0.65403
11040 42.73920 267.56435 267.87857 0.65233
11041 42.74280 268.34094 267.34924 0.65326
11042 42.74640 269.13717 268.69879 0.65131
11043 42.75000 269.94965 267.70650 0.65300
11044 42.75360 270.77519 269.71117 0.64853
11045 42.75720 271.61093 269.63157 0.64814
11046 42.76080 272.45421 272.28283 0.64134
11047 42.76440 273.30306 273.41120 0.63879
11048 42.76800 274.15364 274.23615 0.63785
11049 42.77160 275.00357 273.10262 0.64055
11050 42.77520 275.84948 275.02046 0.63636
11051 42.77880 276.68728 275.26476 0.63470
11052 42.78240 277.51213 276.75746 0.63092
11053 42.78600 278.31779 276.64801 0.63111
11054 42.78960 279.09816 276.60713 0.63152
11055 42.79320 279.84521 277.62404 0.62935
11056 42.79680 280.55497 277.70369 0.62905
11057 42.80040 281.21835 278.55713 0.62667
11058 42.80400 281.82846 279.02265 0.62563
11059 42.80760 282.37947 280.60901 0.62192
11060 42.81120 282.86676 281.34374 0.61852
11061 42.81480 283.28725 279.68635 0.62276
11062 42.81840 283.63955 281.02686 0.61888
11063 42.82200 283.92397 280.68673 0.61991
11064 42.82560 284.14246 279.67693 0.62279
11065 42.82920 284.29745 278.64638 0.62634
11066 42.83280 284.39101 277.79029 0.62688
11067 42.83640 284.43262 280.01236 0.59094
11068 42.84000 284.42457 279.50762 0.52087
11069 42.84360 284.37165 278.65641 0.52112
11070 42.84720 284.27823 278.53769 0.52391
11071 42.85080 284.14945 277.17937 0.54252
11072 42.85440 283.99022 275.67126 0.63535
11073 42.85800 283.80386 276.44813 0.63247
11074 42.86160 283.59539 274.57346 0.63643
11075 42.86520 283.36969 276.39848 0.63050
11076 42.86880 283.13197 277.17195 0.63035
11077 42.87240 282.88769 275.61948 0.63283
11078 42.87600 282.64276 276.06043 0.63168
11079 42.87960 282.40327 275.85755 0.63275
11080 42.88320 282.17543 274.54671 0.63667
11081 42.88680 281.96517 274.36974 0.63611
11082 42.89040 281.77844 274.91951 0.63567
11083 42.89400 281.62154 276.19329 0.63278
11084 42.89760 281.49920 277.78231 0.62769
11085 42.90120 281.41598 276.52738 0.63032
11086 42.90480 281.37576 276.64009 0.63113
11087 42.90840 281.38178 275.99705 0.63104
11088 42.91200 281.43659 276.61511 0.62922
11089 42.91560 281.54017 276.33975 0.63114
11090 42.91920 281.69332 273.49262 0.63897
11091 42.92280 281.89476 273.52502 0.64001
11092 42.92640 282.14283 276.34743 0.63310
11093 42.93000 282.43397 275.67962 0.63323
11094 42.93360 282.76378 276.51927 0.62996
11095 42.93720 283.12681 274.52022 0.63691
11096 42.94080 283.51673 275.47538 0.63413
11097 42.94440 283.92642 275.66381 0.63672
11098 42.94800 284.34795 276.00764 0.63289
11099 42.95160 284.77356 276.10373 0.63352
11100 42.95520 285.19384 275.55671 0.63528
11101 42.95880 285.60023 275.72082 0.63231
11102 42.96240 285.98339 275.04493 0.63507
11103 42.96600 286.33691 278.22598 0.62703
11104 42.96960 286.65199 278.38535 0.62617
11105 42.97320 286.92145 278.15780 0.62945
11106 42.97680 287.13880 278.68683 0.62844
11107 42.98040 287.29841 278.65684 0.62886
11108 42.98400 287.39539 276.45639 0.63216
11109 42.98760 287.42552 278.54069 0.62942
11110 42.99120 287.38511 280.45548 0.62332
11111 42.99480 287.27087 278.93847 0.62784
11112 42.99840 287.08018 279.50481 0.62933
11113 43.00200 286.81043 278.05652 0.63102
11114 43.00560 286.45965 279.15304 0.62636
11115 43.00920 286.02507 279.16236 0.62714
11116 43.01280 285.50979 280.42265 0.62403
11117 43.01640 284.91283 279.77930 0.62437
11118 43.02000 284.23600 279.69516 0.62473
11119 43.02360 283.48426 281.06177 0.62186
11120 43.02720 282.66261 281.78021 0.62271
11121 43.03080 281.77799 277.57433 0.63108
11122 43.03440 280.83884 278.58609 0.62957
11123 43.03800 279.85440 277.04860 0.63153
11124 43.04160 278.83465 277.02632 0.63109
11125 43.04520 277.78977 278.05506 0.63022
11126 43.04880 276.72979 277.19234 0.62985
11127 43.05240 275.66424 275.56626 0.63366
11128 43.05600 274.60190 275.00946 0.63477
11129 43.05960 273.55084 274.99455 0.63517
11130 43.06320 272.51742 274.58525 0.63590
11131 43.06680 271.50711 272.00130 0.64414
11132 43.07040 270.52456 270.13792 0.64835
11133 43.07400 269.57322 269.50467 0.64794
11134 43.07760 268.65559 269.34831 0.64986
11135 43.08120 267.77346 268.60711 0.64961
11136 43.08480 266.92809 269.24070 0.64846
11137 43.08840 266.12035 268.30629 0.65209
11138 43.09200 265.35096 268.32662 0.65236
11139 43.09560 264.62073 267.86128 0.65222
11140 43.09920 263.93063 265.56280 0.65907
11141 43.10280 263.28198 264.11718 0.66237
11142 43.10640 262.67628 262.39370 0.66689
11143 43.11000 262.11506 262.18718 0.66637
11144 43.11360 261.60179 265.21427 0.65645
11145 43.11720 261.13838 265.61518 0.65683
11146 43.12080 260.72708 264.46906 0.65972
11147 43.12440 260.37000 263.11832 0.66214
11148 43.12800 260.07237 264.17787 0.66191
11149 43.13160 259.83533 262.07675 0.66681
11150 43.13520 259.66127 262.40991 0.66561
11151 43.13880 259.55238 261.91341 0.66716
11152 43.14240 259.51059 260.66090 0.66865
11153 43.14600 259.53754 260.98970 0.66926
11154 43.14960 259.63464 261.41607 0.66916
11155 43.15320 259.80280 261.20147 0.66860
11156 43.15680 260.04279 261.71940 0.66827
11157 43.16040 260.35501 261.24439 0.66879
11158 43.16400 260.73948 259.56531 0.67196
11159 43.16760 261.19588 261.13038 0.66934
11160 43.17120 261.72347 262.61010 0.66466
11161 43.17480 262.32108 263.60714 0.66300
11162 43.17840 262.98704 261.63818 0.66681
11163 43.18200 263.71915 263.76692 0.66195
11164 43.18560 264.51459 262.67045 0.65663
11165 43.18920 265.36991 263.43874 0.56002
11166 43.19280 266.28078 263.83000 0.55252
11167 43.19640 267.24262 263.84122 0.55489
11168 43.20000 268.24904 264.50473 0.55773
11169 43.20360 269.29306 266.33395 0.64075
11170 43.20720 270.36776 266.44340 0.65627
11171 43.21080 271.46415 267.96131 0.65191
11172 43.21440 272.57355 268.96676 0.64917
11173 43.21800 273.68661 269.14150 0.64970
11174 43.22160 274.79442 268.82052 0.65219
11175 43.22520 275.88730 271.48616 0.64611
11176 43.22880 276.95543 272.09040 0.64378
11177 43.23240 277.99166 271.60241 0.64492
11178 43.23600 278.98943 272.61681 0.64327
11179 43.23960 279.94360 273.58529 0.64145
11180 43.24320 280.85063 272.86336 0.64212
11181 43.24680 281.70863 273.99845 0.63780
11182 43.25040 282.51719 274.68519 0.63600
11183 43.25400 283.27708 274.44380 0.63771
11184 43.25760 283.98995 274.41566 0.63782
11185 43.26120 284.65785 275.72463 0.63379
11186 43.26480 285.28282 277.95624 0.62882
11187 43.26840 285.86648 277.01202 0.63043
11188 43.27200 286.40967 276.67943 0.63099
11189 43.27560 286.91202 277.28559 0.63159
11190 43.27920 287.37266 278.50742 0.62964
11191 43.28280 287.78899 279.86887 0.62518
11192 43.28640 288.15759 279.81250 0.62434
11193 43.29000 288.47271 280.47444 0.62359
11194 43.29360 288.73256 281.94722 0.62048
11195 43.29720 288.93036 282.45788 0.61873
11196 43.30080 289.06419 281.84369 0.62211
11197 43.30440 289.12872 281.73274 0.62161
11198 43.30800 289.12170 283.63041 0.61685
11199 43.31160 289.04127 283.66564 0.61685
11200 43.31520 288.88690 282.23354 0.61947
11201 43.31880 288.65871 283.95456 0.61538
11202 43.32240 288.35998 284.58956 0.61475
11203 43.32600 287.99360 281.81407 0.62187
11204 43.32960 287.56414 281.66224 0.62136
11205 43.33320 287.07568 280.73014 0.62340
11206 43.33680 286.53487 281.70382 0.62053
11207 43.34040 285.94895 282.86763 0.61884
11208 43.34400 285.32497 283.58375 0.61640
11209 43.34760 284.67096 282.34558 0.61904
11210 43.35120 283.99534 282.45455 0.62038
11211 43.35480 283.30514 280.96393 0.62293
11212 43.35840 282.60939 279.01067 0.62740
11213 43.36200 281.91623 277.33475 0.63038
11214 43.36560 281.23384 279.07662 0.62702
11215 43.36920 280.56984 278.58231 0.62742
11216 43.37280 279.93134 278.35727 0.62730
11217 43.37640 279.32498 276.22718 0.63397
11218 43.38000 278.75662 273.55547 0.63960
11219 43.38360 278.23128 274.61817 0.63571
11220 43.38720 277.75302 275.55737 0.63592
11221 43.39080 277.32487 275.13141 0.63507
11222 43.39440 276.94950 275.05259 0.63437
11223 43.39800 276.62626 274.44335 0.63634
11224 43.40160 276.35539 273.78165 0.63664
11225 43.40520 276.13548 272.92372 0.64019
11226 43.40880 275.96396 271.47793 0.64307
11227 43.41240 275.83702 273.59833 0.63823
11228 43.41600 275.75023 272.63136 0.64024
11229 43.41960 275.69966 273.01533 0.63962
11230 43.42320 275.67781 271.27281 0.64418
11231 43.42680 275.67900 272.56500 0.64108
11232 43.43040 275.69673 272.19019 0.64065
11233 43.43400 275.72366 273.53411 0.63834
11234 43.43760 275.75388 273.05733 0.63983
11235 43.44120 275.78304 271.29697 0.64394
11236 43.44480 275.80475 271.34027 0.64503
11237 43.44840 275.81469 271.06732 0.64436
11238 43.45200 275.80967 270.73819 0.64378
11239 43.45560 275.78777 272.56712 0.64059
11240 43.45920 275.74424 271.63381 0.64113
11241 43.46280 275.68842 271.96525 0.63911
11242 43.46640 275.61957 271.40217 0.64225
11243 43.47000 275.53960 271.66916 0.64123
11244 43.47360 275.45425 272.75658 0.63812
11245 43.47720 275.36894 272.04680 0.64007
11246 43.48080 275.28710 272.61521 0.63914
11247 43.48440 275.22030 270.81445 0.64255
11248 43.48800 275.17286 270.96031 0.64438
11249 43.49160 275.15025 270.82298 0.64111
11250 43.49520 275.15778 271.21466 0.63938
11251 43.49880 275.19960 271.09228 0.64283
11252 43.50240 275.27876 268.75708 0.64877
11253 43.50600 275.39704 270.55623 0.64590
11254 43.50960 275.55485 271.46265 0.64295
11255 43.51320 275.75102 269.75168 0.64703
11256 43.51680 275.98342 270.43093 0.64413
11257 43.52040 276.24687 270.35789 0.64536
11258 43.52400 276.53582 271.26519 0.64331
11259 43.52760 276.84354 268.06064 0.65167
11260 43.53120 277.16197 269.64252 0.64954
11261 43.53480 277.48178 270.05357 0.64834
11262 43.53840 277.79329 271.15608 0.64574
11263 43.54200 278.08634 270.80118 0.64456
11264 43.54560 278.35076 268.89732 0.65045
11265 43.54920 278.57675 272.60581 0.64177
11266 43.55280 278.75525 270.16824 0.64822
11267 43.55640 278.87839 272.53320 0.64107
11268 43.56000 278.93968 270.99105 0.64487
11269 43.56360 278.93439 271.20366 0.64428
11270 43.56720 278.85984 272.94841 0.63905
11271 43.57080 278.71542 273.67388 0.63718
11272 43.57440 278.50263 272.06057 0.64250
11273 43.57800 278.22502 271.40346 0.64643
11274 43.58160 277.88801 269.83315 0.64699
11275 43.58520 277.49860 270.85339 0.64450
11276 43.58880 277.06506 271.69066 0.64294
11277 43.59240 276.59632 271.40354 0.64440
11278 43.59600 276.10204 271.92202 0.64183
11279 43.59960 275.59221 270.99525 0.64270
11280 43.60320 275.07630 272.04227 0.64222
11281 43.60680 274.56360 271.63300 0.64376
11282 43.61040 274.06336 270.56317 0.64450
11283 43.61400 273.58241 269.55463 0.64705
11284 43.61760 273.12864 268.78646 0.64951
11285 43.62120 272.70857 270.39598 0.64496
11286 43.62480 272.32786 270.24344 0.64682
11287 43.62840 271.99140 270.31451 0.64673
11288 43.63200 271.70268 270.63995 0.64475
11289 43.63560 271.46515 270.83771 0.64459
11290 43.63920 271.28047 271.59665 0.64283
11291 43.64280 271.14945 270.67260 0.64430
11292 43.64640 271.07172 271.68907 0.64160
11293 43.65000 271.04584 272.08676 0.64203
11294 43.65360 271.06895 273.31290 0.63907
11295 43.65720 271.13715 275.86480 0.63351
11296 43.66080 271.24546 276.76975 0.63080
11297 43.66440 271.38779 276.73052 0.63052
11298 43.66800 271.55662 280.95949 0.62132
11299 43.67160 271.74310 281.54421 0.61917
11300 43.67520 271.94298 282.92934 0.61680
11301 43.67880 272.14581 284.26952 0.61392
11302 43.68240 272.34327 285.80778 0.61069
11303 43.68600 272.52790 288.77806 0.60456
11304 43.68960 272.69278 290.21234 0.60115
11305 43.69320 272.83210 288.57138 0.60553
11306 43.69680 272.94200 287.32550 0.60776
11307 43.70040 273.02010 287.38181 0.60622
11308 43.70400 273.06581 287.46100 0.60581
11309 43.70760 273.08029 289.44850 0.60260
11310 43.71120 273.06628 288.64878 0.60397
11311 43.71480 273.02787 286.53669 0.60797
11312 43.71840 272.97018 284.45253 0.61329
11313 43.72200 272.89900 282.11604 0.61629
11314 43.72560 272.82043 278.61616 0.62395
11315 43.72920 272.74053 277.13051 0.62631
11316 43.73280 272.66503 276.84064 0.62605
11317 43.73640 272.59897 274.12646 0.63543
11318 43.74000 272.54660 273.90379 0.63731
11319 43.74360 272.51101 271.94049 0.64030
11320 43.74720 272.49444 270.47103 0.64376
11321 43.75080 272.49772 270.68108 0.64287
11322 43.75440 272.52040 269.07659 0.64706
11323 43.75800 272.56072 269.33086 0.64647
11324 43.76160 272.61602 267.19009 0.65130
11325 43.76520 272.68165 267.01817 0.65093
11326 43.76880 272.75204 266.80813 0.65039
11327 43.77240 272.82073 266.33918 0.65466
11328 43.77600 272.88005 267.10895 0.65102
11329 43.77960 272.91950 268.34208 0.64978
11330 43.78320 272.92830 268.20346 0.65250
11331 43.78680 272.90581 271.07878 0.64360
11332 43.79040 272.83739 269.49564 0.64732
11333 43.79400 272.71434 267.91840 0.65112
11334 43.79760 272.52908 270.07794 0.64383
11335 43.80120 272.27562 269.65929 0.64495
11336 43.80480 271.94903 269.27540 0.64699
11337 43.80840 271.54955 270.08687 0.64593
11338 43.81200 271.07713 268.80750 0.64869
11339 43.81560 270.53499 270.58172 0.64424
11340 43.81920 269.92869 269.09005 0.64724
11341 43.82280 269.26575 270.54253 0.64332
11342 43.82640 268.55524 269.34436 0.64676
11343 43.83000 267.80728 267.31348 0.65034
11344 43.83360 267.03259 268.80775 0.64829
11345 43.83720 266.24207 267.42191 0.65092
11346 43.84080 265.44633 266.62483 0.65098
11347 43.84440 264.65547 265.98339 0.65352
11348 43.84800 263.87881 265.67915 0.65506
11349 43.85160 263.12493 264.76923 0.65813
11350 43.85520 262.40156 263.84990 0.65919
11351 43.85880 261.71386 262.91333 0.66071
11352 43.86240 261.06790 263.52701 0.66030
11353 43.86600 260.46795 261.42657 0.66382
11354 43.86960 259.91744 261.91342 0.66244
11355 43.87320 259.41888 258.40709 0.67562
11356 43.87680 258.97392 259.05260 0.67593
11357 43.88040 258.58345 259.56569 0.67218
11358 43.88400 258.24745 258.07999 0.67429
11359 43.88760 257.96581 259.42202 0.67221
11360 43.89120 257.73736 257.96475 0.67692
11361 43.89480 257.56069 260.49825 0.66846
11362 43.89840 257.43363 259.34751 0.67257
11363 43.90200 257.35412 260.31409 0.67020
11364 43.90560 257.31971 260.51028 0.67105
11365 43.90920 257.32751 260.08154 0.67141
11366 43.91280 257.37528 260.21504 0.67111
11367 43.91640 257.45962 260.20861 0.67054
11368 43.92000 257.57874 261.09359 0.66722
11369 43.92360 257.72942 260.88921 0.66863
11370 43.92720 257.90843 260.25816 0.67203
11371 43.93080 258.11275 260.91545 0.66977
11372 43.93440 258.33916 260.25320 0.67242
11373 43.93800 258.58435 261.83512 0.67029
11374 43.94160 258.84491 261.17510 0.67002
11375 43.94520 259.11487 260.11915 0.67330
11376 43.94880 259.39485 260.77443 0.67022
11377 43.95240 259.67951 262.67093 0.66586
11378 43.95600 259.96445 261.81192 0.66982
11379 43.95960 260.24609 263.31358 0.66375
11380 43.96320 260.52070 264.37640 0.66266
11381 43.96680 260.78469 264.64556 0.66329
11382 43.97040 261.03436 265.16136 0.66090
11383 43.97400 261.26618 264.49851 0.66194
11384 43.97760 261.47677 265.58459 0.65867
11385 43.98120 261.66301 270.19857 0.64681
11386 43.98480 261.82107 269.13536 0.65052
11387 43.98840 261.94783 270.55073 0.64760
11388 43.99200 262.04127 271.11526 0.64714
11389 43.99560 262.09841 273.11954 0.64243
11390 43.99920 262.11728 273.64569 0.64105
11391 44.00280 262.09657 274.99213 0.63610
11392 44.00640 262.03594 274.79821 0.63707
11393 44.01000 261.93610 276.20437 0.63367
11394 44.01360 261.79898 276.63758 0.63172
11395 44.01720 261.62779 276.17763 0.63215
11396 44.02080 261.42702 273.27919 0.64054
11397 44.02440 261.20231 274.47022 0.63696
11398 44.02800 260.96024 271.98545 0.64283
11399 44.03160 260.70815 271.15794 0.64255
11400 44.03520 260.45382 269.83838 0.64711
11401 44.03880 260.20518 266.11508 0.65759
11402 44.04240 259.96984 267.03251 0.65304
11403 44.04600 259.75585 266.03669 0.65381
11404 44.04960 259.56998 262.50303 0.66673
11405 44.05320 259.41860 259.81322 0.67137
11406 44.05680 259.30733 257.46472 0.67814
11407 44.06040 259.24102 259.31246 0.67405
11408 44.06400 259.22350 259.89406 0.67222
11409 44.06760 259.25824 258.28807 0.67591
11410 44.07120 259.34757 257.55497 0.67741
11411 44.07480 259.49299 257.58081 0.67919
11412 44.07840 259.69525 257.87801 0.67797
11413 44.08200 259.95436 257.10685 0.67980
11414 44.08560 260.26954 255.61269 0.68482
11415 44.08920 260.63925 257.05636 0.67989
11416 44.09280 261.06117 255.88516 0.68186
11417 44.09640 261.53216 255.20546 0.68472
11418 44.10000 262.04822 256.57927 0.68011
11419 44.10360 262.60390 256.51884 0.68127
11420 44.10720 263.19503 259.48409 0.67247
11421 44.11080 263.81426 260.25016 0.67140
11422 44.11440 264.45411 259.62627 0.67269
11423 44.11800 265.10625 260.43487 0.66763
11424 44.12160 265.76158 262.17079 0.66446
11425 44.12520 266.41027 260.90317 0.66900
11426 44.12880 267.04200 262.36607 0.66515
11427 44.13240 267.64624 262.18878 0.66438
11428 44.13600 268.21243 263.70536 0.65937
11429 44.13960 268.73038 267.01477 0.65369
11430 44.14320 269.18949 267.54547 0.65294
11431 44.14680 269.58368 265.88198 0.65605
11432 44.15040 269.90517 265.39658 0.65743
11433 44.15400 270.14887 265.52949 0.65841
11434 44.15760 270.31183 267.54469 0.65388
11435 44.16120 270.39324 266.74577 0.65443
11436 44.16480 270.39451 266.59266 0.65483
11437 44.16840 270.31910 266.97149 0.65416
11438 44.17200 270.17228 267.35053 0.65276
11439 44.17560 269.96081 264.17451 0.66068
11440 44.17920 269.69254 264.68804 0.65884
11441 44.18280 269.37599 264.49294 0.65793
11442 44.18640 269.01794 263.89026 0.66212
11443 44.19000 268.63050 263.14942 0.66383
11444 44.19360 268.22122 265.09121 0.65884
11445 44.19720 267.79726 266.09447 0.65601
11446 44.20080 267.36475 262.64558 0.66654
11447 44.20440 266.93015 263.25561 0.66325
11448 44.20800 266.50114 262.09527 0.66573
11449 44.21160 266.08165 263.26771 0.66447
11450 44.21520 265.67571 263.72337 0.66345
11451 44.21880 265.28690 259.02616 0.67365
11452 44.22240 264.91843 262.64823 0.66581
11453 44.22600 264.57305 261.43635 0.67004
11454 44.22960 264.25310 259.63822 0.67533
11455 44.23320 263.96060 259.83392 0.67347
11456 44.23680 263.69723 260.39922 0.67102
11457 44.24040 263.46406 259.48851 0.67518
11458 44.24400 263.26263 259.05429 0.67525
11459 44.24760 263.09377 260.89974 0.67013
11460 44.25120 262.95784 261.74362 0.66788
11461 44.25480 262.85505 262.23076 0.66801
11462 44.25840 262.78528 261.42927 0.66981
11463 44.26200 262.74805 261.96833 0.66836
11464 44.26560 262.74253 259.78486 0.67243
11465 44.26920 262.76752 259.98619 0.67177
11466 44.27280 262.82130 258.43742 0.67652
11467 44.27640 262.90126 260.04300 0.67320
11468 44.28000 263.00748 261.86985 0.66585
11469 44.28360 263.13642 262.01996 0.66477
11470 44.28720 263.28552 259.69057 0.67399
11471 44.29080 263.45202 258.73986 0.67476
11472 44.29440 263.63201 259.62990 0.67165
11473 44.29800 263.82445 259.26231 0.67283
11474 44.30160 264.02604 259.98277 0.67105
11475 44.30520 264.23300 261.86215 0.66704
11476 44.30880 264.44190 262.95432 0.66457
11477 44.31240 264.64918 262.11114 0.66697
11478 44.31600 264.85109 262.13836 0.66613
11479 44.31960 265.04291 263.14869 0.66420
11480 44.32320 265.22192 264.45300 0.66112
11481 44.32680 265.38470 263.14534 0.66509
11482 44.33040 265.52687 262.41657 0.66738
11483 44.33400 265.64400 263.57822 0.66312
11484 44.33760 265.73461 263.65727 0.66274
11485 44.34120 265.79550 262.26874 0.66617
11486 44.34480 265.82418 264.34924 0.66152
11487 44.34840 265.81901 264.40897 0.66148
11488 44.35200 265.77897 263.79849 0.66139
11489 44.35560 265.70358 265.00705 0.65965
11490 44.35920 265.59302 263.98078 0.66226
11491 44.36280 265.44896 264.32047 0.66128
11492 44.36640 265.27267 264.75836 0.66024
11493 44.37000 265.06634 263.47190 0.66213
11494 44.37360 264.83259 260.78689 0.66831
11495 44.37720 264.57433 262.36645 0.66471
11496 44.38080 264.29465 263.01539 0.66156
11497 44.38440 263.99666 261.22470 0.66834
11498 44.38800 263.68347 260.67419 0.66873
11499 44.39160 263.35810 261.91473 0.66668
11500 44.39520 263.02349 261.15912 0.66783
11501 44.39880 262.68257 261.25132 0.66887
11502 44.40240 262.33833 260.56049 0.67015
11503 44.40600 261.99390 260.92229 0.66798
11504 44.40960 261.65265 259.58128 0.67139
11505 44.41320 261.31823 258.79451 0.67360
11506 44.41680 260.99465 258.26724 0.67481
11507 44.42040 260.68625 259.95052 0.67055
11508 44.42400 260.39767 260.75960 0.67139
11509 44.42760 260.13374 259.71556 0.67312
11510 44.43120 259.89944 259.26753 0.67478
11511 44.43480 259.69983 258.56185 0.67395
11512 44.43840 259.54007 259.75247 0.67188
11513 44.44200 259.42488 260.91510 0.66921
11514 44.44560 259.35884 260.23823 0.67195
11515 44.44920 259.34621 261.57616 0.66648
11516 44.45280 259.39080 261.64731 0.66849
11517 44.45640 259.49596 262.94921 0.66549
11518 44.46000 259.66442 263.78139 0.66325
11519 44.46360 259.89830 263.46521 0.66320
11520 44.46720 260.19901 265.33786 0.65678
11521 44.47080 260.56717 266.23394 0.65461
11522 44.47440 261.00259 268.01393 0.65091
11523 44.47800 261.50421 269.61539 0.64869
11524 44.48160 262.07000 273.10670 0.63723
11525 44.48520 262.69708 274.83816 0.63490
11526 44.48880 263.38178 275.78443 0.63444
11527 44.49240 264.11923 276.43741 0.63179
11528 44.49600 264.90382 277.97920 0.62875
11529 44.49960 265.72909 279.54048 0.62535
11530 44.50320 266.58790 281.07353 0.62170
11531 44.50680 267.47247 281.33977 0.62072
11532 44.51040 268.37456 280.86568 0.62204
11533 44.51400 269.28564 282.44229 0.61948
11534 44.51760 270.19701 282.15285 0.61967
11535 44.52120 271.09997 281.58863 0.62068
11536 44.52480 271.98606 279.92946 0.62499
11537 44.52840 272.84712 282.51507 0.61879
11538 44.53200 273.67553 280.05739 0.62416
11539 44.53560 274.46434 278.73786 0.62717
11540 44.53920 275.20737 280.01037 0.62420
11541 44.54280 275.89940 279.17160 0.62541
11542 44.54640 276.53614 279.66776 0.62381
11543 44.55000 277.11431 279.38217 0.62634
11544 44.55360 277.63158 279.08918 0.62482
11545 44.55720 278.08651 278.85254 0.62688
11546 44.56080 278.47833 280.88169 0.62307
11547 44.56440 278.80674 281.17080 0.62092
11548 44.56800 279.07211 277.96595 0.62728
11549 44.57160 279.27466 279.30737 0.62520
11550 44.57520 279.41521 280.13693 0.62322
11551 44.57880 279.49481 277.81491 0.62827
11552 44.58240 279.51462 277.10363 0.62976
11553 44.58600 279.47631 275.35773 0.63414
11554 44.58960 279.38218 279.57079 0.59442
11555 44.59320 279.23525 278.07588 0.55081
11556 44.59680 279.03935 275.12032 0.63270
11557 44.60040 278.79907 275.10934 0.63220
11558 44.60400 278.51965 274.61381 0.63412
11559 44.60760 278.20670 273.08188 0.63830
11560 44.61120 277.86620 271.57730 0.64305
11561 44.61480 277.50391 271.77283 0.64244
11562 44.61840 277.12524 270.96079 0.64524
11563 44.62200 276.73506 272.85347 0.63909
11564 44.62560 276.33738 272.96603 0.63799
11565 44.62920 275.93436 271.31978 0.64175
11566 44.63280 275.53135 270.59949 0.64352
11567 44.63640 275.12887 271.55146 0.64179
11568 44.64000 274.72830 268.79671 0.65000
11569 44.64360 274.33064 268.42966 0.65126
11570 44.64720 273.93669 269.99470 0.64698
11571 44.65080 273.54715 268.89733 0.65002
11572 44.65440 273.16270 269.64444 0.64643
11573 44.65800 272.78404 268.22094 0.65064
11574 44.66160 272.41129 268.25519 0.65112
11575 44.66520 272.04644 267.74226 0.65387
11576 44.66880 271.68965 268.80106 0.64897
11577 44.67240 271.34153 268.39909 0.65058
11578 44.67600 271.00264 267.20963 0.65398
11579 44.67960 270.67338 268.68511 0.65169
11580 44.68320 270.35401 266.95518 0.65666
11581 44.68680 270.04444 265.52314 0.65857
11582 44.69040 269.74407 267.19216 0.65549
11583 44.69400 269.45390 266.44092 0.65713
11584 44.69760 269.17241 265.03538 0.65981
11585 44.70120 268.89849 266.82262 0.65578
11586 44.70480 268.63063 265.40756 0.65893
11587 44.70840 268.36697 264.37637 0.66008
11588 44.71200 268.10523 264.52572 0.66005
11589 44.71560 267.84284 263.90388 0.66312
11590 44.71920 267.57652 264.56070 0.66048
11591 44.72280 267.30347 265.53615 0.65876
11592 44.72640 267.02306 263.34925 0.66395
11593 44.73000 266.73098 265.60972 0.65779
11594 44.73360 266.42407 264.83275 0.65881
11595 44.73720 266.10595 261.84265 0.66651
11596 44.74080 265.77343 262.86700 0.66182
11597 44.74440 265.42637 263.76486 0.66103
11598 44.74800 265.06545 263.50565 0.66272
11599 44.75160 264.69197 261.58892 0.66675
11600 44.75520 264.30778 260.60268 0.66866
11601 44.75880 263.91526 263.06254 0.66152
11602 44.76240 263.51719 261.99870 0.66622
11603 44.76600 263.11667 261.73348 0.66713
11604 44.76960 262.71701 263.96603 0.66095
11605 44.77320 262.32156 262.11643 0.66645
11606 44.77680 261.93362 261.37317 0.66929
11607 44.78040 261.55624 261.83195 0.66685
11608 44.78400 261.19211 261.59861 0.66647
11609 44.78760 260.84339 261.48992 0.66672
11610 44.79120 260.51159 261.53468 0.66582
11611 44.79480 260.19754 261.78411 0.66482
11612 44.79840 259.90085 260.81223 0.66948
11613 44.80200 259.62170 261.50877 0.66878
11614 44.80560 259.35842 260.92743 0.67124
11615 44.80920 259.10909 260.91843 0.67109
11616 44.81280 258.87147 260.67651 0.67239
11617 44.81640 258.64246 261.76846 0.66727
11618 44.82000 258.42015 262.06040 0.66974
11619 44.82360 258.20366 261.29245 0.67662
11620 44.82720 257.99107 262.08690 0.67892
11621 44.83080 257.78150 263.65617 0.66030
11622 44.83440 257.57514 262.85019 0.60594
11623 44.83800 257.37315 261.86099 0.61047
11624 44.84160 257.17760 262.15256 0.51981
11625 44.84520 256.99139 264.48988 0.57948
11626 44.84880 256.81806 262.35728 0.60783
11627 44.85240 256.66167 262.22143 0.60866
11628 44.85600 256.52652 261.49259 0.60863
11629 44.85960 256.41698 260.25014 0.61342
11630 44.86320 256.33733 260.43689 0.61486
11631 44.86680 256.29158 260.95177 0.61305
11632 44.87040 256.28338 260.08593 0.61501
11633 44.87400 256.31599 261.33015 0.61284
11634 44.87760 256.39210 259.21829 0.61845
11635 44.88120 256.51250 259.55043 0.62022
11636 44.88480 256.68251 259.25087 0.62336
11637 44.88840 256.90153 261.18531 0.62578
11638 44.89200 257.17167 259.29696 0.63903
11639 44.89560 257.49218 259.12479 0.53124
11640 44.89920 257.86610 258.67744 0.50950
11641 44.90280 258.29265 260.76600 0.50317
11642 44.90640 258.77171 260.30800 0.50518
11643 44.91000 259.30288 262.82777 0.50019
11644 44.91360 259.88525 261.75449 0.50196
11645 44.91720 260.51707 262.91006 0.49936
11646 44.92080 261.19703 264.04523 0.49589
11647 44.92440 261.92191 263.01985 0.49815
11648 44.92800 262.68798 264.87481 0.49403
11649 44.93160 263.49058 265.21524 0.49399
11650 44.93520 264.32394 263.62340 0.49828
11651 44.93880 265.18142 265.31735 0.49461
11652 44.94240 266.05508 268.15359 0.48861
11653 44.94600 266.93602 271.33644 0.48276
11654 44.94960 267.81441 269.02863 0.48739
11655 44.95320 268.67965 270.89301 0.48381
11656 44.95680 269.52063 272.88052 0.48028
11657 44.96040 270.32601 273.07201 0.48019
11658 44.96400 271.08455 273.67538 0.47905
11659 44.96760 271.78553 274.13762 0.47970
11660 44.97120 272.41907 275.19745 0.47701
11661 44.97480 272.97658 275.22823 0.47889
11662 44.97840 273.45100 276.03385 0.47720
11663 44.98200 273.83744 277.89525 0.47442
11664 44.98560 274.13308 276.92741 0.47408
11665 44.98920 274.33739 276.53872 0.47525
11666 44.99280 274.45234 276.87101 0.47434
11667 44.99640 274.48237 277.41122 0.47445
11668 45.00000 274.43422 275.98131 0.47644
11669 45.00360 274.31681 275.46018 0.47851
11670 45.00720 274.14088 275.24182 0.47610
11671 45.01080 273.91858 274.66040 0.47807
11672 45.01440 273.66309 274.35335 0.47985
11673 45.01800 273.38810 272.02833 0.48532
11674 45.02160 273.10706 272.69712 0.48188
11675 45.02520 272.83410 273.52594 0.47969
11676 45.02880 272.58169 273.34729 0.48015
11677 45.03240 272.36157 273.14839 0.48013
11678 45.03600 272.18429 273.21208 0.48032
11679 45.03960 272.05908 271.58617 0.48262
11680 45.04320 271.99372 272.99072 0.48015
11681 45.04680 271.99458 273.50474 0.48009
11682 45.05040 272.06655 273.91102 0.47933
11683 45.05400 272.21317 273.10938 0.48076
11684 45.05760 272.43663 270.92212 0.48444
11685 45.06120 272.73785 272.98053 0.48105
11686 45.06480 273.11653 271.62605 0.48496
11687 45.06840 273.57121 271.35114 0.48699
11688 45.07200 274.09694 274.60461 0.48351
11689 45.07560 274.69401 275.01549 0.48732
11690 45.07920 275.35623 274.30614 0.49107
11691 45.08280 276.07697 273.65805 0.44091
11692 45.08640 276.84897 275.69475 0.42075
11693 45.09000 277.66389 277.81725 0.48442
11694 45.09360 278.51236 279.68600 0.53068
11695 45.09720 279.38416 276.08054 0.53006
11696 45.10080 280.26835 275.63237 0.52687
11697 45.10440 281.15361 276.69275 0.52129
11698 45.10800 282.02848 278.21274 0.51765
11699 45.11160 282.88172 276.08923 0.52153
11700 45.11520 283.70267 278.13285 0.51630
11701 45.11880 284.48159 281.05723 0.50941
11702 45.12240 285.21006 282.70787 0.50789
11703 45.12600 285.88117 281.35227 0.51175
11704 45.12960 286.48982 280.65154 0.51375
11705 45.13320 287.03283 282.95674 0.51144
11706 45.13680 287.50896 282.64559 0.51685
11707 45.14040 287.91889 283.96776 0.48523
11708 45.14400 288.26497 283.83126 0.41513
11709 45.14760 288.55100 285.68121 0.40171
11710 45.15120 288.78001 284.44588 0.40428
11711 45.15480 288.96104 285.56868 0.42126
11712 45.15840 289.09807 286.57719 0.46497
11713 45.16200 289.19698 286.42651 0.46422
11714 45.16560 289.26253 286.11504 0.46036
11715 45.16920 289.29893 285.75196 0.45895
11716 45.17280 289.30943 287.52951 0.45471
11717 45.17640 289.29629 286.56476 0.45550
11718 45.18000 289.26085 285.82842 0.45562
11719 45.18360 289.20373 287.50784 0.45153
11720 45.18720 289.12509 288.47159 0.44916
11721 45.19080 289.02463 287.66306 0.45143
11722 45.19440 288.90296 287.64823 0.45077
11723 45.19800 288.76035 288.03933 0.45226
11724 45.20160 288.59784 287.32962 0.45269
11725 45.20520 288.41712 288.45548 0.44990
11726 45.20880 288.22056 288.93107 0.44871
11727 45.21240 288.01104 287.18669 0.45324
11728 45.21600 287.79172 284.61196 0.45619
11729 45.21960 287.56572 285.48302 0.45423
11730 45.22320 287.33580 287.76149 0.45053
11731 45.22680 287.10402 287.11426 0.45248
11732 45.23040 286.87139 288.27097 0.45207
11733 45.23400 286.63767 287.16589 0.45382
11734 45.23760 286.40118 285.34549 0.45530
11735 45.24120 286.15878 285.02979 0.45598
11736 45.24480 285.90595 286.09452 0.45541
11737 45.24840 285.63694 282.34115 0.46029
11738 45.25200 285.34510 284.11583 0.45730
11739 45.25560 285.02323 283.28165 0.45936
11740 45.25920 284.66404 283.77255 0.45910
11741 45.26280 284.26068 283.92621 0.45780
11742 45.26640 283.80718 282.27291 0.46218
11743 45.27000 283.29893 282.54439 0.46114
11744 45.27360 282.73308 280.34467 0.46547
11745 45.27720 282.10878 281.28896 0.46362
11746 45.28080 281.42751 280.14921 0.46513
11747 45.28440 280.69292 279.22586 0.46755
11748 45.28800 279.91080 277.51584 0.46967
11749 45.29160 279.08686 276.93976 0.47025
11750 45.29520 278.23432 276.03960 0.47265
11751 45.29880 277.36210 275.32547 0.47427
11752 45.30240 276.48154 274.85928 0.47543
11753 45.30600 275.60469 274.20040 0.47641
11754 45.30960 274.74382 271.87839 0.48043
11755 45.31320 273.91114 274.09192 0.47656
11756 45.31680 273.11860 273.61675 0.47795
11757 45.32040 272.37767 273.29093 0.47685
11758 45.32400 271.69921 273.57706 0.47717
11759 45.32760 271.09338 271.00028 0.48169
11760 45.33120 270.56955 269.92820 0.48434
11761 45.33480 270.13624 270.59417 0.48252
11762 45.33840 269.80039 270.40133 0.49472
11763 45.34200 269.57002 269.51283 0.60963
11764 45.34560 269.45030 270.45752 0.59922
11765 45.34920 269.44597 269.71989 0.59478
11766 45.35280 269.56083 267.86426 0.59652
11767 45.35640 269.79767 268.31364 0.59420
11768 45.36000 270.15828 270.49617 0.58672
11769 45.36360 270.64341 270.30551 0.58646
11770 45.36720 271.25274 271.31254 0.58558
11771 45.37080 271.98485 268.64523 0.59374
11772 45.37440 272.83722 269.52755 0.59536
11773 45.37800 273.80578 272.60925 0.59151
11774 45.38160 274.88435 272.13467 0.57327
11775 45.38520 276.07040 272.44682 0.52370
11776 45.38880 277.35454 273.81574 0.52058
11777 45.39240 278.72804 274.56700 0.51779
11778 45.39600 280.18087 275.85585 0.51555
11779 45.39960 281.70168 276.41059 0.51618
11780 45.40320 283.27787 277.20716 0.51291
11781 45.40680 284.89562 277.50253 0.56858
11782 45.41040 286.54004 276.32939 0.58180
11783 45.41400 288.19534 278.36349 0.57446
11784 45.41760 289.84507 280.23178 0.56841
11785 45.42120 291.47244 282.40750 0.56160
11786 45.42480 293.06064 281.96175 0.56371
11787 45.42840 294.59324 283.44587 0.55952
11788 45.43200 296.05461 284.85373 0.55791
11789 45.43560 297.43021 287.77895 0.55559
11790 45.43920 298.70692 289.23245 0.55949
11791 45.44280 299.87323 291.01358 0.55951
11792 45.44640 300.91939 289.47290 0.45877
11793 45.45000 301.83617 289.80841 0.44652
11794 45.45360 302.61873 292.80819 0.44158
11795 45.45720 303.26237 294.46597 0.43793
11796 45.46080 303.76266 294.14486 0.43951
11797 45.46440 304.11701 294.74325 0.43885
11798 45.46800 304.32384 295.95888 0.43498
11799 45.47160 304.38257 296.72581 0.43524
11800 45.47520 304.29359 296.47673 0.43563
11801 45.47880 304.05830 297.51951 0.43466
11802 45.48240 303.67935 298.18009 0.43328
11803 45.48600 303.16073 298.80498 0.43287
11804 45.48960 302.50390 298.22813 0.42177
11805 45.49320 301.72411 297.00730 0.35147
11806 45.49680 300.82693 295.81874 0.43395
11807 45.50040 299.82296 294.80391 0.43818
11808 45.50400 298.72486 294.24478 0.43904
11809 45.50760 297.54683 295.79280 0.43740
11810 45.51120 296.30429 294.42695 0.44060
11811 45.51480 295.01341 292.73202 0.44294
11812 45.51840 293.69070 291.47036 0.44541
11813 45.52200 292.35248 291.57804 0.44545
11814 45.52560 291.01442 290.67261 0.44663
11815 45.52920 289.69108 286.14306 0.45358
11816 45.53280 288.39558 285.65601 0.45466
11817 45.53640 287.13928 284.29903 0.45590
11818 45.54000 285.93161 284.26175 0.45602
11819 45.54360 284.77997 284.78753 0.45554
11820 45.54720 283.68968 284.24199 0.45764
11821 45.55080 282.66408 282.37041 0.45968
11822 45.55440 281.70461 283.47330 0.45823
11823 45.55800 280.81098 280.93201 0.46231
11824 45.56160 279.98143 278.76210 0.46603
11825 45.56520 279.21174 278.11641 0.46807
11826 45.56880 278.49967 277.89485 0.46700
11827 45.57240 277.84057 280.32526 0.46264
11828 45.57600 277.22844 277.30832 0.46813
11829 45.57960 276.65831 278.81945 0.46573
11830 45.58320 276.12463 278.11207 0.46928
11831 45.58680 275.62166 279.18547 0.46614
11832 45.59040 275.14508 278.03975 0.46763
11833 45.59400 274.69012 280.30941 0.46357
11834 45.59760 274.25212 277.96542 0.46664
11835 45.60120 273.82692 278.18183 0.46811
11836 45.60480 273.41050 278.13031 0.46792
11837 45.60840 272.99824 280.60518 0.46541
11838 45.61200 272.58840 278.77640 0.46649
11839 45.61560 272.17643 278.80292 0.46653
11840 45.61920 271.75876 278.97118 0.46718
11841 45.62280 271.33187 278.12251 0.46881
11842 45.62640 270.89225 280.90740 0.46439
11843 45.63000 270.43643 277.88297 0.46854
11844 45.63360 269.96104 279.36660 0.46615
11845 45.63720 269.46290 278.49380 0.46727
11846 45.64080 268.93912 279.26073 0.53761
11847 45.64440 268.38723 280.22156 0.58204
11848 45.64800 267.80529 279.55709 0.57525
11849 45.65160 267.19202 278.56982 0.57342
11850 45.65520 266.54700 277.85443 0.57328
11851 45.65880 265.87057 277.27795 0.57158
11852 45.66240 265.16397 275.96091 0.57239
11853 45.66600 264.42930 275.56126 0.57346
11854 45.66960 263.66945 275.33497 0.57564
11855 45.67320 262.88787 273.18653 0.57925
11856 45.67680 262.08771 272.85416 0.58000
11857 45.68040 261.27507 273.87040 0.57519
11858 45.68400 260.45353 273.22129 0.57600
11859 45.68760 259.62751 271.37923 0.58191
11860 45.69120 258.80133 268.33214 0.58745
11861 45.69480 257.97904 264.82380 0.59457
11862 45.69840 257.16438 263.64261 0.59916
11863 45.70200 256.36068 262.43502 0.60185
11864 45.70560 255.57088 261.69524 0.63056
11865 45.70920 254.79745 262.20639 0.67201
11866 45.71280 254.04242 260.55023 0.67551
11867 45.71640 253.30732 259.32882 0.67579
11868 45.72000 252.59322 258.85965 0.67609
11869 45.72360 251.90078 258.93519 0.67757
11870 45.72720 251.23023 257.43349 0.68565
11871 45.73080 250.58148 255.99003 0.68465
11872 45.73440 249.95420 255.48791 0.62180
11873 45.73800 249.34789 254.42831 0.61963
11874 45.74160 248.76103 254.74337 0.61846
11875 45.74520 248.19522 253.97760 0.61798
11876 45.74880 247.64933 252.98163 0.62297
11877 45.75240 247.12336 253.12455 0.62218
11878 45.75600 246.61768 251.96638 0.62339
11879 45.75960 246.13297 251.00086 0.62666
11880 45.76320 245.67051 251.02582 0.62767
11881 45.76680 245.23164 250.39045 0.62758
11882 45.77040 244.81800 250.09855 0.62850
11883 45.77400 244.43144 250.00567 0.63044
11884 45.77760 244.07391 249.03998 0.63557
11885 45.78120 243.74741 248.22457 0.63902
11886 45.78480 243.45388 246.84095 0.64571
11887 45.78840 243.19457 244.34422 0.65849
11888 45.79200 242.97257 246.76671 0.66205
11889 45.79560 242.78896 246.37263 0.57617
11890 45.79920 242.64519 247.28650 0.52217
11891 45.80280 242.54241 244.88698 0.52714
11892 45.80640 242.48247 244.42718 0.52807
11893 45.81000 242.46618 244.42512 0.52785
11894 45.81360 242.49454 244.72492 0.52772
11895 45.81720 242.56818 247.07172 0.52471
11896 45.82080 242.68753 246.29577 0.52824
11897 45.82440 242.85456 244.92390 0.53021
11898 45.82800 243.06903 242.62779 0.53615
11899 45.83160 243.33132 242.50360 0.53571
11900 45.83520 243.64175 245.26615 0.52986
11901 45.83880 243.99996 245.88012 0.52873
11902 45.84240 244.40675 245.12738 0.52968
11903 45.84600 244.86215 244.81145 0.53098
11904 45.84960 245.36563 246.93777 0.52675
11905 45.85320 245.91682 246.26931 0.52788
11906 45.85680 246.51517 244.57228 0.53193
11907 45.86040 247.15994 246.59463 0.52903
11908 45.86400 247.84999 247.20926 0.52679
11909 45.86760 248.58409 248.68508 0.52113
11910 45.87120 249.36100 245.67962 0.52646
11911 45.87480 250.17858 248.53368 0.52177
11912 45.87840 251.03454 249.99706 0.51855
11913 45.88200 251.92620 251.05040 0.51747
11914 45.88560 252.85051 249.13319 0.52018
11915 45.88920 253.80404 251.97340 0.51423
11916 45.89280 254.78304 251.71365 0.51449
11917 45.89640 255.78343 252.01164 0.51404
11918 45.90000 256.80097 251.84412 0.51431
11919 45.90360 257.83122 251.99867 0.51590
11920 45.90720 258.86974 254.48610 0.51196
11921 45.91080 259.91215 255.34645 0.50760
11922 45.91440 260.95418 255.28011 0.50808
11923 45.91800 261.99123 253.52724 0.51198
11924 45.92160 263.02146 255.79840 0.50963
11925 45.92520 264.04114 256.62628 0.50800
11926 45.92880 265.04772 258.50033 0.50261
11927 45.93240 266.03942 258.92027 0.50061
11928 45.93600 267.01580 259.34836 0.50113
11929 45.93960 267.97578 258.80453 0.50144
11930 45.94320 268.91906 261.41336 0.49637
11931 45.94680 269.84538 259.72247 0.49916
11932 45.95040 270.75344 260.16761 0.49905
11933 45.95400 271.64485 261.61739 0.49490
11934 45.95760 272.51730 261.51497 0.49745
11935 45.96120 273.36887 261.60470 0.49684
11936 45.96480 274.19676 263.18207 0.49408
11937 45.96840 274.99723 264.08996 0.49212
11938 45.97200 275.76557 265.39406 0.48943
11939 45.97560 276.49627 266.50509 0.48733
11940 45.97920 277.18293 266.96477 0.48692
11941 45.98280 277.81839 266.87650 0.48625
11942 45.98640 278.39560 268.46648 0.48346
11943 45.99000 278.90683 269.00654 0.53126
11944 45.99360 279.34455 270.91881 0.60403
11945 45.99720 279.70149 269.76231 0.59862
11946 46.00080 279.97086 270.52018 0.58986
11947 46.00440 280.14654 272.19554 0.58274
11948 46.00800 280.22323 272.45536 0.57960
11949 46.01160 280.19653 272.74232 0.57911
11950 46.01520 280.06311 273.07344 0.57743
11951 46.01880 279.82079 273.51501 0.57579
11952 46.02240 279.46871 274.64734 0.57243
11953 46.02600 279.00741 273.48983 0.57450
11954 46.02960 278.43901 271.22261 0.58051
11955 46.03320 277.76691 273.88993 0.57344
11956 46.03680 276.99612 272.36421 0.57848
11957 46.04040 276.13586 271.18629 0.58136
11958 46.04400 275.19371 270.31489 0.58237
11959 46.04760 274.17986 272.57555 0.57734
11960 46.05120 273.10562 271.20948 0.58020
11961 46.05480 271.98312 270.04472 0.59085
11962 46.05840 270.82492 269.02701 0.65303
11963 46.06200 269.64360 270.36101 0.64834
11964 46.06560 268.45179 267.93725 0.65055
11965 46.06920 267.26123 265.67229 0.65376
11966 46.07280 266.08296 263.86376 0.65559
11967 46.07640 264.92706 262.31077 0.65910
11968 46.08000 263.80251 261.88572 0.66009
11969 46.08360 262.71712 263.09723 0.65552
11970 46.08720 261.67755 260.43509 0.66234
11971 46.09080 260.68934 259.67362 0.66478
11972 46.09440 259.75624 261.58798 0.65812
11973 46.09800 258.88327 259.05760 0.66576
11974 46.10160 258.07253 258.35982 0.66768
11975 46.10520 257.32600 258.21803 0.66829
11976 46.10880 256.64511 256.92415 0.67060
11977 46.11240 256.03082 256.00800 0.67375
11978 46.11600 255.48364 256.03223 0.67376
11979 46.11960 255.00373 256.46593 0.67142
11980 46.12320 254.59091 255.14857 0.67706
11981 46.12680 254.24462 255.97775 0.67664
11982 46.13040 253.96395 256.20127 0.67550
11983 46.13400 253.74757 256.32713 0.67528
11984 46.13760 253.59364 257.31075 0.67045
11985 46.14120 253.49982 257.50767 0.67029
11986 46.14480 253.46314 255.87823 0.67628
11987 46.14840 253.47996 255.51622 0.67786
11988 46.15200 253.54586 254.44558 0.68074
11989 46.15560 253.65521 257.18734 0.67355
11990 46.15920 253.80365 257.39519 0.67382
11991 46.16280 253.98400 257.04618 0.67387
11992 46.16640 254.18915 257.87032 0.67262
11993 46.17000 254.41151 257.64196 0.67445
11994 46.17360 254.64315 258.63444 0.67156
11995 46.17720 254.87598 258.76811 0.66932
11996 46.18080 255.10198 259.55524 0.66805
11997 46.18440 255.31343 258.71083 0.66926
11998 46.18800 255.50319 259.24455 0.66814
11999 46.19160 255.66407 260.29997 0.66333
12000 46.19520 255.79218 262.79282 0.65896
12001 46.19880 255.88270 262.20307 0.66045
12002 46.20240 255.93239 260.21746 0.66489
12003 46.20600 255.93931 260.62156 0.66602
12004 46.20960 255.90260 260.01104 0.66703
12005 46.21320 255.82236 260.93898 0.66354
12006 46.21680 255.69950 260.29261 0.66535
12007 46.22040 255.53553 259.39134 0.66736
12008 46.22400 255.33248 260.13007 0.66510
12009 46.22760 255.09274 258.20079 0.67089
12010 46.23120 254.81819 258.94921 0.66880
12011 46.23480 254.51359 258.66604 0.66965
12012 46.23840 254.18144 257.40163 0.67379
12013 46.24200 253.82528 255.87760 0.67780
12014 46.24560 253.44902 255.77317 0.67656
12015 46.24920 253.05684 254.96792 0.67832
12016 46.25280 252.65312 256.57890 0.67432
12017 46.25640 252.24237 254.73934 0.68168
12018 46.26000 251.82912 254.82883 0.68128
12019 46.26360 251.41779 254.77829 0.68031
12020 46.26720 251.01255 253.12559 0.68477
12021 46.27080 250.61725 254.21127 0.68134
12022 46.27440 250.23525 253.01357 0.68440
12023 46.27800 249.86908 251.16110 0.69068
12024 46.28160 249.51915 252.52820 0.68653
12025 46.28520 249.19199 252.49185 0.68823
12026 46.28880 248.88606 250.77804 0.69246
12027 46.29240 248.60110 252.13187 0.68967
12028 46.29600 248.33878 251.80024 0.68819
12029 46.29960 248.09778 249.85328 0.69289
12030 46.30320 247.87681 250.34104 0.69145
12031 46.30680 247.67408 249.51245 0.69475
12032 46.31040 247.48726 251.96016 0.68881
12033 46.31400 247.31349 251.00242 0.69111
12034 46.31760 247.14938 249.30484 0.69562
12035 46.32120 246.99109 251.21518 0.68914
12036 46.32480 246.83443 249.95485 0.69303
12037 46.32840 246.67497 250.50720 0.69360
12038 46.33200 246.50820 250.81754 0.69180
12039 46.33560 246.32969 247.79306 0.69898
12040 46.33920 246.13548 248.44340 0.69851
12041 46.34280 245.92212 250.32865 0.69308
12042 46.34640 245.68684 250.37062 0.69242
12043 46.35000 245.42787 247.32385 0.70058
12044 46.35360 245.14437 248.36930 0.69866
12045 46.35720 244.83681 247.50137 0.70001
12046 46.36080 244.50656 247.24108 0.69972
12047 46.36440 244.15600 248.50047 0.69840
12048 46.36800 243.78834 247.15113 0.70198
12049 46.37160 243.40649 245.04705 0.70754
12050 46.37520 243.01400 245.55382 0.70391
12051 46.37880 242.61983 244.77576 0.70933
12052 46.38240 242.22589 245.34783 0.70549
12053 46.38600 241.83724 242.34590 0.71369
12054 46.38960 241.45801 243.31841 0.71203
12055 46.39320 241.09216 243.14753 0.71142
12056 46.39680 240.74349 244.45032 0.70936
12057 46.40040 240.41605 242.12074 0.71665
12058 46.40400 240.11257 244.14329 0.70983
12059 46.40760 239.83581 241.28443 0.71918
12060 46.41120 239.58817 242.07164 0.71716
12061 46.41480 239.37165 240.94662 0.71955
12062 46.41840 239.18858 241.79151 0.71720
12063 46.42200 239.04039 243.20009 0.71176
12064 46.42560 238.92858 241.10914 0.71953
12065 46.42920 238.85449 240.41854 0.72146
12066 46.43280 238.81887 242.13733 0.71564
12067 46.43640 238.82336 242.19903 0.71559
12068 46.44000 238.86927 243.02606 0.71235
12069 46.44360 238.95718 242.56178 0.71322
12070 46.44720 239.08795 241.57520 0.71717
12071 46.45080 239.26236 242.09618 0.71550
12072 46.45440 239.48112 243.20387 0.71286
12073 46.45800 239.74485 242.95449 0.71424
12074 46.46160 240.05403 243.14220 0.71103
12075 46.46520 240.40902 245.70446 0.70608
12076 46.46880 240.81004 245.22993 0.70869
12077 46.47240 241.25709 243.45310 0.71583
12078 46.47600 241.74960 245.63178 0.70694
12079 46.47960 242.28802 245.29736 0.70741
12080 46.48320 242.87127 248.72365 0.69698
12081 46.48680 243.49835 247.16172 0.70381
12082 46.49040 244.16709 248.13909 0.70033
12083 46.49400 244.87764 250.39589 0.69276
12084 46.49760 245.62713 249.78949 0.69572
12085 46.50120 246.41309 249.22305 0.69699
12086 46.50480 247.23268 249.46735 0.69752
12087 46.50840 248.08264 251.42977 0.69019
12088 46.51200 248.95935 252.89083 0.68646
12089 46.51560 249.85875 254.25039 0.68322
12090 46.51920 250.77679 254.48163 0.68250
12091 46.52280 251.70906 256.73885 0.67621
12092 46.52640 252.65119 258.26147 0.67235
12093 46.53000 253.59901 258.01243 0.67242
12094 46.53360 254.54868 259.00959 0.67095
12095 46.53720 255.49689 259.95123 0.66811
12096 46.54080 256.44103 261.26560 0.66520
12097 46.54440 257.37930 262.28048 0.66380
12098 46.54800 258.31083 262.43430 0.66079
12099 46.55160 259.23428 260.75843 0.66447
12100 46.55520 260.15318 265.68678 0.65304
12101 46.55880 261.06845 266.40048 0.65090
12102 46.56240 261.98198 265.67156 0.65236
12103 46.56600 262.89500 265.91473 0.65289
12104 46.56960 263.81474 265.80347 0.65323
12105 46.57320 264.74175 268.39417 0.64607
12106 46.57680 265.67560 269.14699 0.64518
12107 46.58040 266.62575 269.93160 0.64439
12108 46.58400 267.58988 269.73546 0.64410
12109 46.58760 268.56844 271.21044 0.64196
12110 46.59120 269.56074 273.34397 0.63695
12111 46.59480 270.56487 271.38363 0.63911
12112 46.59840 271.57760 271.11597 0.63882
12113 46.60200 272.59409 273.61022 0.63490
12114 46.60560 273.60855 273.64464 0.63510
12115 46.60920 274.61517 274.88538 0.63362
12116 46.61280 275.60567 275.88429 0.62973
12117 46.61640 276.57133 275.82993 0.63173
12118 46.62000 277.50380 277.75695 0.62598
12119 46.62360 278.39446 278.68607 0.62344
12120 46.62720 279.23454 279.71742 0.62161
12121 46.63080 280.01606 280.78036 0.61985
12122 46.63440 280.73187 281.64296 0.61635
12123 46.63800 281.37537 282.06135 0.61495
12124 46.64160 281.94215 281.44025 0.61577
12125 46.64520 282.42969 282.54008 0.61378
12126 46.64880 282.83576 284.26100 0.61074
12127 46.65240 283.16053 285.72126 0.60764
12128 46.65600 283.40597 285.97998 0.60780
12129 46.65960 283.57575 286.33917 0.60564
12130 46.66320 283.67512 286.82620 0.60532
12131 46.66680 283.71059 287.81710 0.60268
12132 46.67040 283.68955 286.64692 0.60417
12133 46.67400 283.61982 287.33622 0.60380
12134 46.67760 283.50918 287.31345 0.60471
12135 46.68120 283.36500 286.63824 0.60535
12136 46.68480 283.19367 285.01075 0.60837
12137 46.68840 283.00034 285.88266 0.60605
12138 46.69200 282.78864 285.03389 0.60821
12139 46.69560 282.56054 284.19163 0.61063
12140 46.69920 282.31630 282.02541 0.61593
12141 46.70280 282.05450 282.86382 0.61281
12142 46.70640 281.77168 282.20761 0.61438
12143 46.71000 281.46437 280.88083 0.61775
12144 46.71360 281.12639 281.81371 0.61529
12145 46.71720 280.75345 282.60081 0.61355
12146 46.72080 280.33837 281.02178 0.61855
12147 46.72440 279.87498 277.50179 0.62521
12148 46.72800 279.35760 277.14902 0.62547
12149 46.73160 278.78126 277.02429 0.62621
12150 46.73520 278.14240 276.27187 0.62685
12151 46.73880 277.43854 277.91909 0.62548
12152 46.74240 276.66878 274.66194 0.63183
12153 46.74600 275.83392 272.91745 0.63529
12154 46.74960 274.93623 273.87109 0.63282
12155 46.75320 273.97943 273.77574 0.63407
12156 46.75680 272.96848 270.65813 0.64236
12157 46.76040 271.90940 269.85405 0.64358
12158 46.76400 270.80892 269.32167 0.64465
12159 46.76760 269.67424 268.11306 0.64780
12160 46.77120 268.51275 267.08228 0.64949
12161 46.77480 267.33175 265.88672 0.65366
12162 46.77840 266.13826 263.92056 0.65762
12163 46.78200 264.93888 264.24040 0.65640
12164 46.78560 263.73962 264.05065 0.65812
12165 46.78920 262.54592 263.22984 0.66023
12166 46.79280 261.36260 260.25739 0.66846
12167 46.79640 260.19395 259.58677 0.66820
12168 46.80000 259.04375 258.48996 0.67090
12169 46.80360 257.91503 257.48238 0.67403
12170 46.80720 256.81166 258.04671 0.67384
12171 46.81080 255.73615 256.61347 0.67573
12172 46.81440 254.69120 255.81952 0.67760
12173 46.81800 253.67937 255.17794 0.68036
12174 46.82160 252.70307 254.06184 0.68233
12175 46.82520 251.76438 253.68548 0.68239
12176 46.82880 250.86534 254.00594 0.68293
12177 46.83240 250.00824 252.91088 0.68553
12178 46.83600 249.19421 251.31132 0.69185
12179 46.83960 248.42439 249.82211 0.69603
12180 46.84320 247.69956 251.19423 0.69067
12181 46.84680 247.02015 250.43137 0.69226
12182 46.85040 246.38621 249.12799 0.69604
12183 46.85400 245.79748 249.75395 0.69418
12184 46.85760 245.25338 248.17396 0.69952
12185 46.86120 244.75310 247.96010 0.69910
12186 46.86480 244.29555 246.28725 0.70364
12187 46.86840 243.87947 246.30369 0.70518
12188 46.87200 243.50284 245.32507 0.70749
12189 46.87560 243.16533 245.15018 0.70757
12190 46.87920 242.86463 244.51571 0.71129
12191 46.88280 242.59890 244.50273 0.71057
12192 46.88640 242.36620 246.16542 0.70515
12193 46.89000 242.16444 244.75332 0.70992
12194 46.89360 241.99141 243.40249 0.71242
12195 46.89720 241.84384 242.48531 0.71561
12196 46.90080 241.72105 243.99086 0.71017
12197 46.90440 241.61958 245.12703 0.70852
12198 46.90800 241.53663 243.66240 0.71233
12199 46.91160 241.46942 243.73082 0.71210
12200 46.91520 241.41515 243.96978 0.71043
12201 46.91880 241.37108 243.19677 0.71269
12202 46.92240 241.33464 242.66343 0.71584
12203 46.92600 241.30352 243.24737 0.71357
12204 46.92960 241.27574 243.80687 0.71133
12205 46.93320 241.24974 244.12233 0.71010
12206 46.93680 241.22435 242.95623 0.71385
12207 46.94040 241.19920 242.34488 0.71496
12208 46.94400 241.17419 243.07214 0.71233
12209 46.94760 241.14981 243.05920 0.71334
12210 46.95120 241.12611 243.36613 0.71358
12211 46.95480 241.10617 242.69333 0.71622
12212 46.95840 241.09121 244.52606 0.70988
12213 46.96200 241.08313 245.00192 0.70974
12214 46.96560 241.08426 243.43363 0.71416
12215 46.96920 241.09711 243.71958 0.71191
12216 46.97280 241.12429 244.03846 0.71092
12217 46.97640 241.16836 244.43653 0.71032
12218 46.98000 241.23221 244.06057 0.71154
12219 46.98360 241.31833 243.18911 0.71313
12220 46.98720 241.42929 244.45362 0.71069
12221 46.99080 241.56734 245.65314 0.70805
12222 46.99440 241.73464 243.25139 0.71423
12223 46.99800 241.93324 244.29940 0.71109
12224 47.00160 242.16470 244.26741 0.71066
12225 47.00520 242.43035 243.46587 0.71362
12226 47.00880 242.73123 242.89566 0.71653
12227 47.01240 243.06803 244.13895 0.71281
12228 47.01600 243.44107 243.70917 0.71333
12229 47.01960 243.85030 244.67207 0.70983
12230 47.02320 244.29528 244.56587 0.71029
12231 47.02680 244.77509 244.00542 0.71303
12232 47.03040 245.28838 244.55417 0.71151
12233 47.03400 245.83314 246.90314 0.70453
12234 47.03760 246.40715 245.75111 0.70549
12235 47.04120 247.00676 245.85902 0.70714
12236 47.04480 247.62901 247.94456 0.70111
12237 47.04840 248.26910 247.46597 0.70233
12238 47.05200 248.92178 249.12809 0.69770
12239 47.05560 249.58115 248.18522 0.70227
12240 47.05920 250.24069 249.11357 0.69897
12241 47.06280 250.89337 250.87787 0.69314
12242 47.06640 251.53182 249.79982 0.69657
12243 47.07000 252.14858 249.79285 0.69699
12244 47.07360 252.73627 250.80823 0.69326
12245 47.07720 253.28819 250.75051 0.69293
12246 47.08080 253.79865 252.50524 0.68748
12247 47.08440 254.26274 254.05205 0.68412
12248 47.08800 254.67713 252.30308 0.68944
12249 47.09160 255.04012 252.49772 0.68914
12250 47.09520 255.35171 252.39866 0.68924
12251 47.09880 255.61345 252.68362 0.68675
12252 47.10240 255.82806 253.74409 0.68338
12253 47.10600 256.00178 253.08720 0.68727
12254 47.10960 256.13946 252.53193 0.68910
12255 47.11320 256.24761 252.63294 0.68686
12256 47.11680 256.33320 251.18163 0.69205
12257 47.12040 256.40337 250.94944 0.69230
12258 47.12400 256.46519 253.53978 0.68528
12259 47.12760 256.52537 252.46120 0.68767
12260 47.13120 256.59016 251.90235 0.68855
12261 47.13480 256.66514 253.78642 0.68395
12262 47.13840 256.75506 254.65008 0.68458
12263 47.14200 256.86332 253.10574 0.68737
12264 47.14560 256.99344 253.64626 0.68315
12265 47.14920 257.14941 252.04896 0.68928
12266 47.15280 257.33138 251.89866 0.69064
12267 47.15640 257.53988 252.21838 0.68970
12268 47.16000 257.77458 252.87794 0.68737
12269 47.16360 258.03426 253.13022 0.68493
12270 47.16720 258.31684 252.54474 0.68499
12271 47.17080 258.61938 251.73506 0.68839
12272 47.17440 258.93808 251.19704 0.69180
12273 47.17800 259.26824 252.51515 0.68823
12274 47.18160 259.60434 252.16555 0.68869
12275 47.18520 259.94000 254.28381 0.68378
12276 47.18880 260.26801 253.21994 0.68707
12277 47.19240 260.58082 254.47294 0.68409
12278 47.19600 260.87010 253.10199 0.68694
12279 47.19960 261.12735 253.75908 0.68454
12280 47.20320 261.34412 253.84955 0.68599
12281 47.20680 261.51225 254.28091 0.68386
12282 47.21040 261.62420 254.97574 0.68037
12283 47.21400 261.67346 254.49971 0.68170
12284 47.21760 261.65480 255.15765 0.68099
12285 47.22120 261.56458 251.86696 0.68951
12286 47.22480 261.40093 255.21348 0.68054
12287 47.22840 261.16389 254.99350 0.68150
12288 47.23200 260.85540 253.78116 0.68457
12289 47.23560 260.47930 254.35425 0.68336
12290 47.23920 260.04101 254.84925 0.68278
12291 47.24280 259.54731 252.94693 0.68751
12292 47.24640 259.00640 252.23755 0.68851
12293 47.25000 258.42666 253.23359 0.68530
12294 47.25360 257.81693 252.80396 0.68782
12295 47.25720 257.18596 251.37783 0.69073
12296 47.26080 256.54210 251.27475 0.69025
12297 47.26440 255.89306 250.60167 0.69404
12298 47.26800 255.24539 249.82146 0.69623
12299 47.27160 254.60548 249.16435 0.69742
12300 47.27520 253.97813 249.30749 0.69741
12301 47.27880 253.36740 249.18052 0.69804
12302 47.28240 252.77617 247.85134 0.70376
12303 47.28600 252.20651 244.93445 0.71099
12304 47.28960 251.65966 246.20097 0.70537
12305 47.29320 251.13611 247.14295 0.70314
12306 47.29680 250.63536 244.96667 0.71008
12307 47.30040 250.15758 244.60593 0.71199
12308 47.30400 249.70110 245.07638 0.71170
12309 47.30760 249.26426 243.98706 0.71407
12310 47.31120 248.84509 243.89656 0.71441
12311 47.31480 248.44130 241.75321 0.72013
12312 47.31840 248.05045 243.34403 0.71729
12313 47.32200 247.66999 243.86687 0.71262
12314 47.32560 247.29749 242.41911 0.71903
12315 47.32920 246.93052 243.30165 0.71566
12316 47.33280 246.56692 242.40552 0.71718
12317 47.33640 246.20479 243.40845 0.71408
12318 47.34000 245.84255 243.00695 0.71597
12319 47.34360 245.47896 242.87591 0.71841
12320 47.34720 245.11314 243.45557 0.71499
12321 47.35080 244.74420 242.04181 0.71763
12322 47.35440 244.37220 241.59896 0.72034
12323 47.35800 243.99670 240.03717 0.61096
12324 47.36160 243.61752 241.11788 0.60695
12325 47.36520 243.23455 242.13278 0.70729
12326 47.36880 242.84772 241.65413 0.71933
12327 47.37240 242.45695 240.21029 0.72425
12328 47.37600 242.06245 240.24539 0.72436
12329 47.37960 241.66379 241.07523 0.72002
12330 47.38320 241.26131 239.34622 0.72556
12331 47.38680 240.85762 240.11041 0.72452
12332 47.39040 240.45251 240.35594 0.72385
12333 47.39400 240.04748 239.30661 0.72550
12334 47.39760 239.64408 239.01058 0.72728
12335 47.40120 239.24397 237.87026 0.73189
12336 47.40480 238.85137 237.52078 0.73342
12337 47.40840 238.46785 238.13685 0.73100
12338 47.41200 238.09380 237.76805 0.73022
12339 47.41560 237.73699 237.04743 0.73172
12340 47.41920 237.39771 237.97877 0.72778
12341 47.42280 237.07846 237.94606 0.73154
12342 47.42640 236.78156 237.84228 0.73083
12343 47.43000 236.50906 235.19135 0.73857
12344 47.43360 236.26270 236.64781 0.73407
12345 47.43720 236.04389 235.90216 0.73828
12346 47.44080 235.85369 236.50141 0.73828
12347 47.44440 235.69282 235.11842 0.74073
12348 47.44800 235.56167 236.49564 0.73549
12349 47.45160 235.46027 234.77440 0.74185
12350 47.45520 235.38835 234.33196 0.74116
12351 47.45880 235.34526 234.39778 0.74238
12352 47.46240 235.33008 234.44432 0.74157
12353 47.46600 235.34150 234.35669 0.74140
12354 47.46960 235.37789 233.19149 0.74531
12355 47.47320 235.43728 234.55325 0.74153
12356 47.47680 235.51589 236.76452 0.73414
12357 47.48040 235.61302 235.25943 0.73900
12358 47.48400 235.72539 238.26002 0.72857
12359 47.48760 235.85049 237.11258 0.73375
12360 47.49120 235.98401 235.06802 0.74151
12361 47.49480 236.12237 235.35116 0.73826
12362 47.49840 236.26194 237.15022 0.73231
12363 47.50200 236.39916 238.99084 0.72808
12364 47.50560 236.53071 238.10412 0.73161
12365 47.50920 236.65358 237.53021 0.73261
12366 47.51280 236.76525 236.82671 0.73460
12367 47.51640 236.86378 238.04711 0.73032
12368 47.52000 236.94788 238.55471 0.72938
12369 47.52360 237.01694 237.91308 0.72935
12370 47.52720 237.07106 237.40552 0.73128
12371 47.53080 237.11095 238.18854 0.72905
12372 47.53440 237.13782 238.67305 0.72801
12373 47.53800 237.15258 238.24616 0.72990
12374 47.54160 237.15862 238.34152 0.72916
12375 47.54520 237.15736 239.25722 0.72691
12376 47.54880 237.15086 239.84212 0.72476
12377 47.55240 237.14113 241.15260 0.72061
12378 47.55600 237.13010 239.38764 0.72696
12379 47.55960 237.11952 238.10364 0.72972
12380 47.56320 237.11096 238.91768 0.72486
12381 47.56680 237.10590 236.77951 0.73175
12382 47.57040 237.10571 236.63760 0.73120
12383 47.57400 237.11173 239.86953 0.72436
12384 47.57760 237.12529 238.43253 0.73120
12385 47.58120 237.14779 238.31250 0.73135
12386 47.58480 237.18067 239.94402 0.72768
12387 47.58840 237.22542 238.94341 0.72846
12388 47.59200 237.28357 238.01257 0.73094
12389 47.59560 237.35659 239.49145 0.72665
12390 47.59920 237.44585 239.39432 0.72747
12391 47.60280 237.55253 238.77897 0.72980
12392 47.60640 237.67754 239.05955 0.66635
12393 47.61000 237.82144 239.31234 0.60931
12394 47.61360 237.98436 240.04216 0.66044
12395 47.61720 238.16594 237.99083 0.73053
12396 47.62080 238.36528 239.64049 0.72557
12397 47.62440 238.58094 240.38818 0.72423
12398 47.62800 238.81088 239.72927 0.72415
12399 47.63160 239.05249 240.40476 0.72240
12400 47.63520 239.30265 240.23679 0.72391
12401 47.63880 239.55774 241.55720 0.71912
12402 47.64240 239.81373 241.27845 0.72163
12403 47.64600 240.06630 241.59640 0.72019
12404 47.64960 240.31091 241.06460 0.72195
12405 47.65320 240.54300 241.17568 0.71902
12406 47.65680 240.75808 237.70928 0.73309
12407 47.66040 240.95190 240.02535 0.72594
12408 47.66400 241.12060 241.36254 0.71965
12409 47.66760 241.26084 242.22351 0.71666
12410 47.67120 241.36993 240.68742 0.72133
12411 47.67480 241.44589 242.69018 0.71637
12412 47.67840 241.48755 242.52027 0.71700
12413 47.68200 241.49458 241.04885 0.72015
12414 47.68560 241.46749 241.15799 0.72017
12415 47.68920 241.40764 241.65610 0.71849
12416 47.69280 241.31713 240.46145 0.72239
12417 47.69640 241.19876 241.40861 0.71887
12418 47.70000 241.05591 241.36817 0.71964
12419 47.70360 240.89244 240.49499 0.72329
12420 47.70720 240.71253 241.25844 0.71997
12421 47.71080 240.52054 242.11339 0.71717
12422 47.71440 240.32091 239.55689 0.72505
12423 47.71800 240.11780 239.87708 0.72215
12424 47.72160 239.91559 239.79421 0.72221
12425 47.72520 239.71833 239.59100 0.72424
12426 47.72880 239.52938 241.07665 0.72130
12427 47.73240 239.35187 241.20486 0.72009
12428 47.73600 239.18847 241.48924 0.71916
12429 47.73960 239.04140 244.16775 0.71346
12430 47.74320 238.91219 242.71336 0.71847
12431 47.74680 238.80260 245.19601 0.70812
12432 47.75040 238.71335 242.63641 0.71644
12433 47.75400 238.64492 242.95152 0.71742
12434 47.75760 238.59492 243.72909 0.71516
12435 47.76120 238.56841 243.53250 0.71379
12436 47.76480 238.56282 244.79356 0.70932
12437 47.76840 238.57770 242.46484 0.71651
12438 47.77200 238.61274 241.70714 0.71944
12439 47.77560 238.66772 242.36193 0.71654
12440 47.77920 238.74259 243.88915 0.71192
12441 47.78280 238.83750 243.20845 0.71332
12442 47.78640 238.95288 242.66037 0.71456
12443 47.79000 239.08940 239.88374 0.72489
12444 47.79360 239.24797 241.74907 0.71981
12445 47.79720 239.42968 240.30445 0.72385
12446 47.80080 239.63575 240.23012 0.72248
12447 47.80440 239.86740 240.47850 0.72162
12448 47.80800 240.12578 239.32071 0.72569
12449 47.81160 240.41033 240.18005 0.72181
12450 47.81520 240.72444 240.09998 0.72162
12451 47.81880 241.06795 240.83938 0.71870
12452 47.82240 241.44045 239.82548 0.72223
12453 47.82600 241.84168 240.25898 0.72370
12454 47.82960 242.27099 240.49951 0.72255
12455 47.83320 242.72742 241.86790 0.71901
12456 47.83680 243.20976 241.65574 0.71816
12457 47.84040 243.71656 242.85211 0.71480
12458 47.84400 244.24629 242.84043 0.71469
12459 47.84760 244.79735 241.82916 0.71901
12460 47.85120 245.36817 241.32411 0.72040
12461 47.85480 245.95722 242.94152 0.71552
12462 47.85840 246.56305 244.93708 0.70925
12463 47.86200 247.18421 246.92682 0.70150
12464 47.86560 247.81922 246.16663 0.70508
12465 47.86920 248.46648 245.84911 0.70633
12466 47.87280 249.12410 245.95553 0.70690
12467 47.87640 249.78981 247.81450 0.70066
12468 47.88000 250.46052 248.27865 0.69865
12469 47.88360 251.13377 246.84048 0.70306
12470 47.88720 251.80522 247.02016 0.70274
12471 47.89080 252.47036 247.42776 0.70335
12472 47.89440 253.12415 247.94908 0.70188
12473 47.89800 253.76112 248.70029 0.70036
12474 47.90160 254.37556 248.59858 0.69834
12475 47.90520 254.96175 249.37369 0.68883
12476 47.90880 255.51422 248.07430 0.58800
12477 47.91240 256.02798 248.35407 0.59228
12478 47.91600 256.49887 248.70573 0.69322
12479 47.91960 256.92368 250.09075 0.69467
12480 47.92320 257.30041 249.90257 0.69620
12481 47.92680 257.62804 248.01043 0.70089
12482 47.93040 257.90737 251.02646 0.69295
12483 47.93400 258.14012 252.90113 0.68885
12484 47.93760 258.32876 252.55908 0.68915
12485 47.94120 258.47695 251.80698 0.68989
12486 47.94480 258.58858 251.56041 0.69183
12487 47.94840 258.66789 251.50065 0.69372
12488 47.95200 258.71915 252.18070 0.68979
12489 47.95560 258.74616 253.36869 0.68623
12490 47.95920 258.75203 251.89037 0.69162
12491 47.96280 258.74155 252.31717 0.68914
12492 47.96640 258.71662 251.90649 0.69067
12493 47.97000 258.67923 252.14532 0.68825
12494 47.97360 258.63109 251.37862 0.69010
12495 47.97720 258.57362 253.22782 0.68634
12496 47.98080 258.50807 254.11855 0.68489
12497 47.98440 258.43572 253.84556 0.68430
12498 47.98800 258.35798 252.95456 0.68774
12499 47.99160 258.27652 253.06166 0.68855
12500 47.99520 258.19326 253.68747 0.68463
12501 47.99880 258.11061 257.16816 0.67467
12502 48.00240 258.03078 257.79917 0.67434
12503 48.00600 257.95645 254.94818 0.68069
12504 48.00960 257.89093 255.73416 0.68112
12505 48.01320 257.83600 257.53890 0.67510
12506 48.01680 257.79342 256.04952 0.67978
12507 48.02040 257.76425 256.95883 0.67578
12508 48.02400 257.74865 256.16337 0.67771
12509 48.02760 257.74576 256.64234 0.67829
12510 48.03120 257.75360 257.11487 0.67547
12511 48.03480 257.76914 258.01876 0.67483
12512 48.03840 257.78827 259.25642 0.66991
12513 48.04200 257.80603 257.27838 0.67450
12514 48.04560 257.81678 257.37035 0.67415
12515 48.04920 257.81442 259.27510 0.66965
12516 48.05280 257.79225 258.34845 0.67281
12517 48.05640 257.74486 258.16146 0.67329
12518 48.06000 257.66665 259.77620 0.66704
12519 48.06360 257.55234 259.70445 0.66899
12520 48.06720 257.39781 258.34067 0.67054
12521 48.07080 257.19996 260.41611 0.66657
12522 48.07440 256.95676 260.35163 0.66692
12523 48.07800 256.66728 258.37078 0.67272
12524 48.08160 256.33164 258.93896 0.67051
12525 48.08520 255.95087 258.12521 0.67172
12526 48.08880 255.52682 257.90608 0.67185
12527 48.09240 255.06198 257.34399 0.67642
12528 48.09600 254.55931 255.52587 0.68167
12529 48.09960 254.02215 255.98745 0.67975
12530 48.10320 253.45401 256.77867 0.67820
12531 48.10680 252.85856 257.32235 0.67609
12532 48.11040 252.23950 256.37322 0.67618
12533 48.11400 251.60055 253.78834 0.68175
12534 48.11760 250.94476 253.20262 0.68315
12535 48.12120 250.27727 253.64726 0.68236
12536 48.12480 249.60123 253.28003 0.68513
12537 48.12840 248.92015 251.20630 0.69277
12538 48.13200 248.23841 251.45048 0.69171
12539 48.13560 247.55961 251.00420 0.69204
12540 48.13920 246.88752 250.03298 0.69470
12541 48.14280 246.22584 249.11988 0.69715
12542 48.14640 245.57805 248.50904 0.70119
12543 48.15000 244.94736 247.98049 0.70033
12544 48.15360 244.33665 246.83853 0.70406
12545 48.15720 243.74836 248.32522 0.69962
12546 48.16080 243.18443 247.19776 0.70190
12547 48.16440 242.64632 244.83784 0.70924
12548 48.16800 242.13495 244.24243 0.71194
12549 48.17160 241.65075 244.23921 0.71074
12550 48.17520 241.19366 244.17845 0.71037
12551 48.17880 240.76327 242.50619 0.71417
12552 48.18240 240.35882 242.72703 0.71563
12553 48.18600 239.97938 241.39007 0.71880
12554 48.18960 239.62391 242.12527 0.71544
12555 48.19320 239.29139 242.02429 0.71553
12556 48.19680 238.98093 241.31813 0.71984
12557 48.20040 238.69187 242.78479 0.71581
12558 48.20400 238.42382 241.01990 0.72049
12559 48.20760 238.17668 238.35567 0.73013
12560 48.21120 237.95088 238.82645 0.72870
12561 48.21480 237.74701 238.89763 0.72711
12562 48.21840 237.56488 240.77960 0.72136
12563 48.22200 237.40784 240.73719 0.72156
12564 48.22560 237.27632 239.61371 0.72480
12565 48.22920 237.17149 238.22369 0.72975
12566 48.23280 237.09459 238.18688 0.72878
12567 48.23640 237.04782 238.93869 0.72817
12568 48.24000 237.03193 241.65788 0.72078
12569 48.24360 237.04551 239.73638 0.72665
12570 48.24720 237.09413 239.74027 0.72542
12571 48.25080 237.17643 238.09689 0.72864
12572 48.25440 237.29259 236.94392 0.73033
12573 48.25800 237.44217 237.99715 0.63776
12574 48.26160 237.62653 238.82934 0.61043
12575 48.26520 237.84482 239.69290 0.69143
12576 48.26880 238.09676 240.21451 0.72189
12577 48.27240 238.38184 240.19378 0.72295
12578 48.27600 238.69938 240.20950 0.72294
12579 48.27960 239.04866 239.50330 0.72540
12580 48.28320 239.42897 239.18705 0.72608
12581 48.28680 239.83927 240.10514 0.72246
12582 48.29040 240.27852 240.20925 0.72114
12583 48.29400 240.74556 241.18978 0.71938
12584 48.29760 241.23913 242.44058 0.71713
12585 48.30120 241.75679 242.40776 0.71722
12586 48.30480 242.29895 242.97377 0.71307
12587 48.30840 242.86302 243.12674 0.71476
12588 48.31200 243.44686 243.48084 0.71240
12589 48.31560 244.04830 243.14413 0.71489
12590 48.31920 244.66471 241.53462 0.71759
12591 48.32280 245.29315 242.88619 0.71431
12592 48.32640 245.93031 242.36483 0.71513
12593 48.33000 246.57247 243.82179 0.71104
12594 48.33360 247.21559 247.04469 0.70246
12595 48.33720 247.85527 248.02344 0.69850
12596 48.34080 248.48690 245.13990 0.70784
12597 48.34440 249.10573 247.46747 0.70180
12598 48.34800 249.70699 246.86073 0.70351
12599 48.35160 250.28601 247.13245 0.70401
12600 48.35520 250.83782 248.65106 0.69765
12601 48.35880 251.35846 247.68052 0.70163
12602 48.36240 251.84534 248.36686 0.69948
12603 48.36600 252.29482 248.37473 0.69941
12604 48.36960 252.70421 247.87419 0.69980
12605 48.37320 253.07163 249.46128 0.69587
12606 48.37680 253.39566 250.23868 0.69465
12607 48.38040 253.67629 251.66485 0.69073
12608 48.38400 253.91332 254.03940 0.68213
12609 48.38760 254.10745 252.63910 0.68653
12610 48.39120 254.26017 252.67614 0.68542
12611 48.39480 254.37489 253.96677 0.68342
12612 48.39840 254.45303 253.88443 0.68221
12613 48.40200 254.49812 254.45842 0.68138
12614 48.40560 254.51331 256.25190 0.67747
12615 48.40920 254.50232 255.58874 0.67835
12616 48.41280 254.46913 256.63431 0.67372
12617 48.41640 254.41791 257.18723 0.67362
12618 48.42000 254.35290 255.82450 0.67748
12619 48.42360 254.27834 255.31323 0.67932
12620 48.42720 254.19832 258.67063 0.66988
12621 48.43080 254.11664 254.35512 0.68146
12622 48.43440 254.03665 255.17050 0.67912
12623 48.43800 253.96106 255.67562 0.67683
12624 48.44160 253.89183 256.22778 0.67457
12625 48.44520 253.83002 256.17811 0.67834
12626 48.44880 253.77469 255.89741 0.67860
12627 48.45240 253.72675 256.45451 0.67674
12628 48.45600 253.68327 255.18494 0.68058
12629 48.45960 253.64100 253.73645 0.68596
12630 48.46320 253.59577 253.65057 0.68549
12631 48.46680 253.54255 254.72476 0.68194
12632 48.47040 253.47553 254.81301 0.68033
12633 48.47400 253.38680 254.36317 0.68090
12634 48.47760 253.27339 253.53505 0.68501
12635 48.48120 253.12722 253.96373 0.68562
12636 48.48480 252.94227 253.55797 0.68601
12637 48.48840 252.71320 252.31686 0.68841
12638 48.49200 252.43568 256.31623 0.67847
12639 48.49560 252.10752 255.56038 0.67983
12640 48.49920 251.72691 252.61915 0.68870
12641 48.50280 251.29400 255.06535 0.68100
12642 48.50640 250.81047 254.18920 0.68470
12643 48.51000 250.27939 254.07639 0.68461
12644 48.51360 249.70500 254.87317 0.68185
12645 48.51720 249.09246 253.81904 0.68413
12646 48.52080 248.44753 251.95444 0.68882
12647 48.52440 247.77624 251.68041 0.68851
12648 48.52800 247.08464 252.79436 0.68728
12649 48.53160 246.37856 251.81404 0.68938
12650 48.53520 245.66334 249.94967 0.69446
12651 48.53880 244.94378 249.54974 0.69605
12652 48.54240 244.22398 248.50939 0.69964
12653 48.54600 243.50734 247.49898 0.70152
12654 48.54960 242.79655 246.48446 0.70531
12655 48.55320 242.09362 246.11521 0.70576
12656 48.55680 241.39995 244.37188 0.71154
12657 48.56040 240.71641 243.79303 0.71348
12658 48.56400 240.04347 243.52380 0.71368
12659 48.56760 239.38126 242.16362 0.71783
12660 48.57120 238.72974 243.68754 0.71391
12661 48.57480 238.08875 242.12625 0.71821
12662 48.57840 237.45761 240.97833 0.72148
12663 48.58200 236.83746 239.92698 0.72383
12664 48.58560 236.22795 240.23572 0.72448
12665 48.58920 235.62947 240.54300 0.72089
12666 48.59280 235.04273 238.48765 0.72948
12667 48.59640 234.46874 237.28808 0.73380
12668 48.60000 233.90869 237.41020 0.73413
12669 48.60360 233.36415 235.22689 0.74017
12670 48.60720 232.83687 237.32634 0.73269
12671 48.61080 232.32863 234.80014 0.73958
12672 48.61440 231.84138 233.55416 0.74502
12673 48.61800 231.37700 234.96884 0.74023
12674 48.62160 230.93753 235.39124 0.73850
12675 48.62520 230.52478 233.26471 0.74463
12676 48.62880 230.14047 233.38618 0.74451
12677 48.63240 229.78619 234.14219 0.74165
12678 48.63600 229.46336 233.91246 0.74246
12679 48.63960 229.17319 233.15622 0.74544
12680 48.64320 228.91670 233.12245 0.74518
12681 48.64680 228.69472 230.14369 0.75589
12682 48.65040 228.50785 230.80553 0.75312
12683 48.65400 228.35649 230.57277 0.75212
12684 48.65760 228.24083 230.21669 0.75567
12685 48.66120 228.16084 228.25537 0.76144
12686 48.66480 228.11636 230.45656 0.75392
12687 48.66840 228.10693 231.67502 0.74924
12688 48.67200 228.13189 229.07321 0.75809
12689 48.67560 228.19037 230.32731 0.75378
12690 48.67920 228.28125 230.41908 0.75444
12691 48.68280 228.40315 229.26845 0.75784
12692 48.68640 228.55442 230.56237 0.75419
12693 48.69000 228.73308 230.93695 0.75091
12694 48.69360 228.93684 230.48861 0.75355
12695 48.69720 229.16308 229.77532 0.75741
12696 48.70080 229.40875 229.05790 0.75912
12697 48.70440 229.67037 230.25930 0.75398
12698 48.70800 229.94408 229.16963 0.75923
12699 48.71160 230.22554 229.95796 0.75872
12700 48.71520 230.51000 230.49679 0.75565
12701 48.71880 230.79229 230.00648 0.75693
12702 48.72240 231.06693 231.21553 0.75185
12703 48.72600 231.32816 230.73891 0.75552
12704 48.72960 231.57014 230.35656 0.75626
12705 48.73320 231.78707 230.83477 0.75445
12706 48.73680 231.97341 232.16180 0.74908
12707 48.74040 232.12410 230.97945 0.75289
12708 48.74400 232.23478 230.38200 0.75652
12709 48.74760 232.30179 230.66987 0.75413
12710 48.75120 232.32277 230.89103 0.75468
12711 48.75480 232.29727 229.57178 0.75947
12712 48.75840 232.22501 232.03829 0.74911
12713 48.76200 232.10745 231.50254 0.75021
12714 48.76560 231.94725 232.27275 0.74950
12715 48.76920 231.74809 230.58567 0.75369
12716 48.77280 231.51453 230.63911 0.75291
12717 48.77640 231.25175 230.34607 0.75347
12718 48.78000 230.96534 232.35627 0.74778
12719 48.78360 230.66107 229.43247 0.75620
12720 48.78720 230.34470 231.23614 0.75192
12721 48.79080 230.02179 231.51313 0.75206
12722 48.79440 229.69768 230.92522 0.75434
12723 48.79800 229.37726 230.66791 0.75425
12724 48.80160 229.06499 229.56467 0.75776
12725 48.80520 228.76486 229.83413 0.75937
12726 48.80880 228.48038 229.60465 0.75790
12727 48.81240 228.21340 228.89183 0.76035
12728 48.81600 227.96838 228.95315 0.75938
12729 48.81960 227.74733 230.03343 0.75553
12730 48.82320 227.55147 229.12226 0.75868
12731 48.82680 227.38214 228.23441 0.76107
12732 48.83040 227.24034 229.43422 0.75796
12733 48.83400 227.12670 226.96678 0.76546
12734 48.83760 227.04154 228.47571 0.75926
12735 48.84120 226.98485 228.44808 0.75908
12736 48.84480 226.95629 230.42990 0.75304
12737 48.84840 226.95525 228.43400 0.76311
12738 48.85200 226.98081 228.52002 0.76183
12739 48.85560 227.03157 228.84395 0.76001
12740 48.85920 227.10649 226.71953 0.76950
12741 48.86280 227.20365 227.61432 0.76436
12742 48.86640 227.32069 228.32583 0.76302
12743 48.87000 227.45594 229.72752 0.75828
12744 48.87360 227.60755 229.89940 0.75655
12745 48.87720 227.77270 228.97679 0.76070
12746 48.88080 227.94898 229.35511 0.75873
12747 48.88440 228.13394 228.26459 0.76274
12748 48.88800 228.32518 229.86216 0.75863
12749 48.89160 228.52043 230.46861 0.75602
12750 48.89520 228.71753 230.28333 0.75565
12751 48.89880 228.91440 231.61836 0.75016
12752 48.90240 229.10910 228.89016 0.76092
12753 48.90600 229.30068 228.70486 0.76196
12754 48.90960 229.48745 229.57735 0.75910
12755 48.91320 229.66835 229.38646 0.75837
12756 48.91680 229.84252 232.68073 0.74800
12757 48.92040 230.00935 229.93553 0.75796
12758 48.92400 230.16848 231.13167 0.75329
12759 48.92760 230.31976 231.36201 0.75281
12760 48.93120 230.46322 230.72678 0.75478
12761 48.93480 230.59910 231.97870 0.75197
12762 48.93840 230.72777 231.94993 0.74991
12763 48.94200 230.84970 232.97018 0.74569
12764 48.94560 230.96538 233.66470 0.74493
12765 48.94920 231.07569 230.71151 0.75616
12766 48.95280 231.18087 230.51828 0.75473
12767 48.95640 231.28228 231.37332 0.75103
12768 48.96000 231.38040 232.70823 0.74675
12769 48.96360 231.47597 233.57461 0.74452
12770 48.96720 231.56980 232.91062 0.74652
12771 48.97080 231.66273 230.99549 0.75170
12772 48.97440 231.75566 231.07303 0.75258
12773 48.97800 231.84954 230.78847 0.75519
12774 48.98160 231.94458 233.03766 0.74645
12775 48.98520 232.04313 233.58531 0.74438
12776 48.98880 232.14616 232.61620 0.74644
12777 48.99240 232.25455 231.62114 0.75022
12778 48.99600 232.36925 231.32323 0.75399
12779 48.99960 232.49213 233.18321 0.74738
12780 49.00320 232.62425 230.60941 0.75437
12781 49.00680 232.76693 233.03511 0.74510
12782 49.01040 232.92149 232.92525 0.75079
12783 49.01400 233.08923 233.08498 0.74848
12784 49.01760 233.27134 232.73155 0.74845
12785 49.02120 233.46896 234.35928 0.74274
12786 49.02480 233.68302 234.49327 0.74224
12787 49.02840 233.91431 233.89150 0.74488
12788 49.03200 234.16173 234.69420 0.74353
12789 49.03560 234.42880 233.21208 0.74943
12790 49.03920 234.71392 233.09060 0.74940
12791 49.04280 235.01659 233.53540 0.74702
12792 49.04640 235.33590 234.25022 0.74515
12793 49.05000 235.67046 233.76847 0.74365
12794 49.05360 236.01831 235.64817 0.74173
12795 49.05720 236.37691 235.10795 0.74330
12796 49.06080 236.74310 234.91352 0.74211
12797 49.06440 237.11298 234.63002 0.74002
12798 49.06800 237.48240 233.96330 0.74422
12799 49.07160 237.84638 234.78314 0.74003
12800 49.07520 238.19967 235.67725 0.73720
12801 49.07880 238.53678 235.65197 0.73773
12802 49.08240 238.85219 236.19075 0.73607
12803 49.08600 239.14062 236.19423 0.73771
12804 49.08960 239.39723 237.18088 0.73459
12805 49.09320 239.61791 236.21657 0.73676
12806 49.09680 239.79952 235.71996 0.73698
12807 49.10040 239.94000 237.14500 0.73559
12808 49.10400 240.03855 237.42231 0.73341
12809 49.10760 240.09563 234.76994 0.74258
12810 49.11120 240.11294 235.05526 0.74127
12811 49.11480 240.09293 235.45288 0.74115
12812 49.11840 240.03950 235.29698 0.74092
12813 49.12200 239.95706 235.30112 0.73996
12814 49.12560 239.84993 236.15857 0.73587
12815 49.12920 239.72275 236.14106 0.73538
12816 49.13280 239.58000 236.31011 0.73515
12817 49.13640 239.42581 235.96226 0.73773
12818 49.14000 239.26382 235.19482 0.74001
12819 49.14360 239.09708 235.93251 0.73772
12820 49.14720 238.92810 234.49830 0.74163
12821 49.15080 238.75877 236.82834 0.73599
12822 49.15440 238.59055 235.56782 0.74077
12823 49.15800 238.42450 237.57390 0.73256
12824 49.16160 238.26148 238.42436 0.73108
12825 49.16520 238.10225 237.26813 0.73387
12826 49.16880 237.94760 237.72129 0.73123
12827 49.17240 237.79849 236.29152 0.73808
12828 49.17600 237.65611 235.64692 0.73937
12829 49.17960 237.52191 235.46501 0.74071
12830 49.18320 237.39761 235.29970 0.74102
12831 49.18680 237.28512 235.29296 0.74079
12832 49.19040 237.18649 237.49855 0.73363
12833 49.19400 237.10377 236.16848 0.73755
12834 49.19760 237.03897 235.63822 0.73949
12835 49.20120 236.99385 236.47953 0.73699
12836 49.20480 236.96993 237.31618 0.73377
12837 49.20840 236.96834 237.20606 0.73264
12838 49.21200 236.98979 236.83548 0.73464
12839 49.21560 237.03455 236.52467 0.73582
12840 49.21920 237.10241 236.51841 0.73663
12841 49.22280 237.19278 237.66404 0.73280
12842 49.22640 237.30463 237.88291 0.73469
12843 49.23000 237.43662 236.24541 0.73686
12844 49.23360 237.58715 235.02464 0.74081
12845 49.23720 237.75437 235.47287 0.73882
12846 49.24080 237.93635 235.98173 0.73589
12847 49.24440 238.13111 235.54222 0.73973
12848 49.24800 238.33669 238.05545 0.73182
12849 49.25160 238.55122 237.86190 0.73306
12850 49.25520 238.77302 237.03202 0.73463
12851 49.25880 239.00062 238.49890 0.73094
12852 49.26240 239.23285 237.90145 0.73299
12853 49.26600 239.46845 238.91772 0.72806
12854 49.26960 239.70646 238.42642 0.72982
12855 49.27320 239.94834 237.29842 0.73422
12856 49.27680 240.19284 240.39723 0.72548
12857 49.28040 240.43982 239.91011 0.72651
12858 49.28400 240.68953 240.79080 0.72281
12859 49.28760 240.94171 238.80513 0.72982
12860 49.29120 241.19601 239.88464 0.72595
12861 49.29480 241.45175 240.33881 0.72397
12862 49.29840 241.70834 240.49848 0.72353
12863 49.30200 241.96438 240.00614 0.72433
12864 49.30560 242.21830 240.09345 0.72393
12865 49.30920 242.46831 240.68768 0.72270
12866 49.31280 242.71247 240.79319 0.72154
12867 49.31640 242.94879 239.33804 0.72630
12868 49.32000 243.17539 239.52227 0.72616
12869 49.32360 243.39059 240.47057 0.72225
12870 49.32720 243.59294 240.22290 0.72322
12871 49.33080 243.78159 239.47142 0.72685
12872 49.33440 243.95552 239.66794 0.72613
12873 49.33800 244.11445 240.36316 0.72494
12874 49.34160 244.25981 240.95078 0.72052
12875 49.34520 244.39094 241.73044 0.72068
12876 49.34880 244.50896 240.97248 0.72210
12877 49.35240 244.61445 242.43410 0.71844
12878 49.35600 244.70826 241.98754 0.71884
12879 49.35960 244.79132 242.71302 0.71814
12880 49.36320 244.86455 239.99933 0.72548
12881 49.36680 244.92808 243.27454 0.71531
12882 49.37040 244.98444 243.29252 0.71717
12883 49.37400 245.03381 242.62118 0.71735
12884 49.37760 245.07679 242.91983 0.71700
12885 49.38120 245.11437 242.33138 0.71927
12886 49.38480 245.14686 241.35384 0.72401
12887 49.38840 245.17443 244.38297 0.71362
12888 49.39200 245.19688 243.15506 0.71810
12889 49.39560 245.21358 243.58522 0.71558
12890 49.39920 245.22321 246.00058 0.70778
12891 49.40280 245.22434 243.70365 0.71591
12892 49.40640 245.21542 243.96171 0.71590
12893 49.41000 245.19377 245.57101 0.71094
12894 49.41360 245.15680 246.56464 0.70726
12895 49.41720 245.10185 245.78770 0.70844
12896 49.42080 245.02636 245.70415 0.71020
12897 49.42440 244.92798 246.72801 0.70573
12898 49.42800 244.80483 247.92678 0.70435
12899 49.43160 244.65553 246.54614 0.70761
12900 49.43520 244.47938 248.14358 0.70292
12901 49.43880 244.27655 248.04273 0.70489
12902 49.44240 244.04767 248.48179 0.70325
12903 49.44600 243.79413 248.53767 0.70075
12904 49.44960 243.51788 248.57420 0.70180
12905 49.45320 243.22128 249.37018 0.70021
12906 49.45680 242.90703 249.60728 0.69776
12907 49.46040 242.57797 249.77406 0.69697
12908 49.46400 242.23703 250.00152 0.69696
12909 49.46760 241.88700 248.66710 0.70055
12910 49.47120 241.53071 251.82997 0.69125
12911 49.47480 241.17138 250.31223 0.69704
12912 49.47840 240.81148 250.06851 0.69526
12913 49.48200 240.45377 250.18270 0.69629
12914 49.48560 240.10102 249.71212 0.69938
12915 49.48920 239.75612 249.46684 0.69831
12916 49.49280 239.42206 248.07598 0.70322
12917 49.49640 239.10166 247.62246 0.70471
12918 49.50000 238.79866 247.77629 0.70445
12919 49.50360 238.51564 244.59411 0.71209
12920 49.50720 238.25723 244.53574 0.71268
12921 49.51080 238.02617 239.80496 0.72623
12922 49.51440 237.82577 242.73522 0.71768
12923 49.51800 237.65924 242.22762 0.72072
12924 49.52160 237.52953 239.76044 0.72878
12925 49.52520 237.43938 239.73407 0.72835
12926 49.52880 237.39186 239.12342 0.73087
12927 49.53240 237.38898 239.21520 0.72967
12928 49.53600 237.43273 236.55224 0.73657
12929 49.53960 237.52478 239.52459 0.72811
12930 49.54320 237.66645 239.14636 0.72880
12931 49.54680 237.85871 238.29484 0.73181
12932 49.55040 238.10216 239.85730 0.72594
12933 49.55400 238.39702 239.97195 0.72560
12934 49.55760 238.74314 238.77917 0.73066
12935 49.56120 239.13995 239.82985 0.72775
12936 49.56480 239.58649 237.27071 0.73554
12937 49.56840 240.08137 236.37929 0.73722
12938 49.57200 240.62270 239.79869 0.72708
12939 49.57560 241.20816 238.43137 0.73127
12940 49.57920 241.83501 240.04728 0.72728
12941 49.58280 242.49983 240.87753 0.72386
12942 49.58640 243.19866 239.77061 0.72883
12943 49.59000 243.92694 241.63335 0.72235
12944 49.59360 244.67945 243.83137 0.71521
12945 49.59720 245.45031 242.69477 0.71729
12946 49.60080 246.23219 243.37546 0.71613
12947 49.60440 247.01934 244.09944 0.71540
12948 49.60800 247.80332 245.32663 0.70949
12949 49.61160 248.57572 247.46529 0.70629
12950 49.61520 249.32781 250.24185 0.69587
12951 49.61880 250.05065 251.25956 0.69521
12952 49.62240 250.73479 252.93519 0.68672
12953 49.62600 251.37148 253.19246 0.68868
12954 49.62960 251.95354 254.52321 0.68497
12955 49.63320 252.47247 257.63901 0.67614
12956 49.63680 252.92163 259.16452 0.67267
12957 49.64040 253.29536 261.79564 0.66640
12958 49.64400 253.58942 261.94820 0.66728
12959 49.64760 253.80127 261.13543 0.66787
12960 49.65120 253.93010 261.77830 0.66618
12961 49.65480 253.97677 262.18601 0.66379
12962 49.65840 253.94402 262.84911 0.66112
12963 49.66200 253.83637 263.46539 0.66220
12964 49.66560 253.66002 264.82672 0.65816
12965 49.66920 253.42262 260.80155 0.66819
12966 49.67280 253.13292 260.51827 0.66809
12967 49.67640 252.80060 261.17156 0.66504
12968 49.68000 252.43637 258.25575 0.67536
12969 49.68360 252.05055 257.46233 0.67636
12970 49.68720 251.65365 256.42991 0.68106
12971 49.69080 251.25580 252.64985 0.69058
12972 49.69440 250.86657 251.50633 0.69289
12973 49.69800 250.49477 251.94108 0.69300
12974 49.70160 250.14830 250.10502 0.69876
12975 49.70520 249.83404 247.25264 0.70659
12976 49.70880 249.55786 248.17567 0.70142
12977 49.71240 249.32452 247.76993 0.70209
12978 49.71600 249.13770 246.85299 0.70421
12979 49.71960 249.00000 245.83608 0.70748
12980 49.72320 248.91298 244.81598 0.71271
12981 49.72680 248.87701 244.34088 0.71463
12982 49.73040 248.89179 244.41686 0.71334
12983 49.73400 248.95577 246.53049 0.70637
12984 49.73760 249.06649 246.14961 0.70893
12985 49.74120 249.22067 245.10694 0.71114
12986 49.74480 249.41417 246.06530 0.70857
12987 49.74840 249.64214 245.89320 0.70814
12988 49.75200 249.89912 247.16537 0.70458
12989 49.75560 250.17886 245.16120 0.71056
12990 49.75920 250.47458 245.29821 0.71095
12991 49.76280 250.78168 246.42537 0.70654
12992 49.76640 251.09258 246.59423 0.70867
12993 49.77000 251.40120 245.20917 0.71380
12994 49.77360 251.70164 246.40243 0.70785
12995 49.77720 251.98863 248.15362 0.70350
12996 49.78080 252.25759 247.81686 0.70372
12997 49.78440 252.50446 248.91753 0.69946
12998 49.78800 252.72686 248.10652 0.70150
12999 49.79160 252.92245 247.36575 0.70383
13000 49.79520 253.08996 247.81523 0.70377
13001 49.79880 253.22882 247.54111 0.70402
13002 49.80240 253.33903 246.99656 0.70710
13003 49.80600 253.42097 247.60756 0.70574
13004 49.80960 253.47527 247.54868 0.70652
13005 49.81320 253.50262 247.50337 0.70892
13006 49.81680 253.50368 248.67373 0.70645
13007 49.82040 253.47896 249.16219 0.70926
13008 49.82400 253.42856 248.38781 0.69590
13009 49.82760 253.35312 247.57950 0.64122
13010 49.83120 253.25254 248.61736 0.63908
13011 49.83480 253.12687 249.85071 0.63564
13012 49.83840 252.97626 249.02057 0.63796
13013 49.84200 252.80104 247.55484 0.64109
13014 49.84560 252.60183 249.03155 0.63577
13015 49.84920 252.37958 249.34538 0.63543
13016 49.85280 252.13559 250.42812 0.63252
13017 49.85640 251.87154 250.55005 0.63316
13018 49.86000 251.58945 249.08280 0.63714
13019 49.86360 251.29165 250.60694 0.63280
13020 49.86720 250.98063 249.92267 0.63623
13021 49.87080 250.65882 249.25012 0.63633
13022 49.87440 250.32832 249.34933 0.63687
13023 49.87800 249.99306 250.06115 0.63716
13024 49.88160 249.65454 249.66538 0.63797
13025 49.88520 249.31496 250.72534 0.63588
13026 49.88880 248.97600 249.11983 0.64319
13027 49.89240 248.63855 248.77027 0.64910
13028 49.89600 248.30333 249.96683 0.65339
13029 49.89960 247.97063 249.73164 0.64386
13030 49.90320 247.64042 249.93117 0.52305
13031 49.90680 247.31241 249.43543 0.52318
13032 49.91040 246.98613 248.59640 0.52550
13033 49.91400 246.66103 246.64545 0.53036
13034 49.91760 246.33649 247.14728 0.52920
13035 49.92120 246.01195 247.56874 0.52869
13036 49.92480 245.68680 246.18686 0.53014
13037 49.92840 245.36044 246.55724 0.52890
13038 49.93200 245.03218 246.58804 0.53007
13039 49.93560 244.70117 246.80845 0.53001
13040 49.93920 244.36651 247.98394 0.52753
13041 49.94280 244.02698 246.74347 0.53202
13042 49.94640 243.68121 247.23012 0.53072
13043 49.95000 243.32769 245.46031 0.53225
13044 49.95360 242.96482 242.80389 0.53922
13045 49.95720 242.59108 246.17314 0.53151
13046 49.96080 242.20513 244.21668 0.53587
13047 49.96440 241.80593 243.52165 0.53578
13048 49.96800 241.39293 244.21895 0.53445
13049 49.97160 240.96611 244.72329 0.53358
13050 49.97520 240.52607 244.35171 0.53564
13051 49.97880 240.07404 240.04419 0.54600
13052 49.98240 239.61182 241.49000 0.54229
13053 49.98600 239.14143 242.22122 0.54066
13054 49.98960 238.66609 241.98347 0.54102
13055 49.99320 238.18846 241.60469 0.54056
13056 49.99680 237.71151 240.31657 0.54589
13057 50.00040 237.23817 240.63268 0.54455
