#------------------------------------------------------------------------------
#$Date: 2017-01-09 05:35:54 +0200 (Mon, 09 Jan 2017) $
#$Revision: 190195 $
#$URL: file:///home/coder/svn-repositories/cod/cif/7/04/07/7040751.cif $
#------------------------------------------------------------------------------
#
# This file is available in the Crystallography Open Database (COD),
# http://www.crystallography.net/
#
# All data on this site have been placed in the public domain by the
# contributors.
#
data_7040751
loop_
_publ_author_name
'Suhr, Kristin J.'
'Bastatas, Lyndon D.'
'Shen, Yulong'
'Mitchell, Lauren A.'
'Frazier, Gary A.'
'Taylor, David W.'
'Slinker, Jason D.'
'Holliday, Bradley J.'
_publ_section_title
;
 Phenyl substitution of cationic bis-cyclometalated iridium(iii) complexes
 for iTMC-LEECs.
;
_journal_issue                   44
_journal_name_full
'Dalton transactions (Cambridge, England : 2003)'
_journal_page_first              17807
_journal_page_last               17823
_journal_paper_doi               10.1039/c6dt03415b
_journal_volume                  45
_journal_year                    2016
_chemical_formula_moiety         'C10 H6 Br2 N2'
_chemical_formula_sum            'C10 H6 Br2 N2'
_chemical_formula_weight         313.99
_chemical_name_systematic
;
4,4'-dibromo-2,2'-bipyridine
;
_space_group_crystal_system      monoclinic
_space_group_IT_number           14
_space_group_name_Hall           '-P 2yn'
_space_group_name_H-M_alt        'P 1 21/n 1'
_symmetry_space_group_name_Hall  '-P 2yn'
_symmetry_space_group_name_H-M   'P 1 21/n 1'
_atom_sites_solution_hydrogens   geom
_audit_creation_method           SHELXL-2013
_audit_update_record
;
2015-03-17 deposited with the CCDC.
2016-09-27 downloaded from the CCDC.
;
_cell_angle_alpha                90
_cell_angle_beta                 93.273(9)
_cell_angle_gamma                90
_cell_formula_units_Z            2
_cell_length_a                   3.9238(11)
_cell_length_b                   15.660(5)
_cell_length_c                   7.824(2)
_cell_measurement_reflns_used    1618
_cell_measurement_temperature    100(2)
_cell_measurement_theta_max      25.0
_cell_measurement_theta_min      3.0
_cell_volume                     480.0(2)
_computing_cell_refinement       'CrystalClear (Rigaku Inc., 2008)'
_computing_data_collection       'CrystalClear (Rigaku Inc., 2008)'
_computing_data_reduction        'CrystalClear (Rigaku Inc., 2008)'
_computing_molecular_graphics    'XP SHELXTL/PC, Siemens Analytical'
_computing_publication_material  'XP SHELXTL/PC, Siemens Analytical'
_computing_structure_refinement  'SHELXL-2013 (Sheldrick, 2013)'
_computing_structure_solution
;

SIR97 - Altomare A., Burla M.C., Camalli M., Cascarano G.L., Giacovazzo C., 
Guagliardi A., Moliterni A.G.G., Polidori G.,Spagna R.
;
_diffrn_ambient_temperature      100(2)
_diffrn_measured_fraction_theta_full 0.950
_diffrn_measured_fraction_theta_max 0.972
_diffrn_measurement_device_type  'Rigaku AFC-12 with Saturn 724+ CCD'
_diffrn_measurement_method       \w-scans
_diffrn_radiation_type           MoK\a
_diffrn_radiation_wavelength     0.71075
_diffrn_reflns_av_R_equivalents  0.1668
_diffrn_reflns_av_unetI/netI     0.0792
_diffrn_reflns_Laue_measured_fraction_full 0.950
_diffrn_reflns_Laue_measured_fraction_max 0.972
_diffrn_reflns_limit_h_max       4
_diffrn_reflns_limit_h_min       -4
_diffrn_reflns_limit_k_max       15
_diffrn_reflns_limit_k_min       -18
_diffrn_reflns_limit_l_max       8
_diffrn_reflns_limit_l_min       -9
_diffrn_reflns_number            5251
_diffrn_reflns_point_group_measured_fraction_full 0.950
_diffrn_reflns_point_group_measured_fraction_max 0.972
_diffrn_reflns_theta_full        25.242
_diffrn_reflns_theta_max         24.969
_diffrn_reflns_theta_min         3.684
_diffrn_source                   'sealed tube'
_exptl_absorpt_coefficient_mu    8.400
_exptl_absorpt_correction_T_max  1.00
_exptl_absorpt_correction_T_min  0.570
_exptl_absorpt_correction_type   multi-scan
_exptl_absorpt_process_details
;
Abscor. T. Higashi (2001). The Rigaku Corporation, Tokyo, Japan.
;
_exptl_crystal_colour            colorless
_exptl_crystal_density_diffrn    2.173
_exptl_crystal_description       prism
_exptl_crystal_F_000             300
_exptl_crystal_recrystallization_method
'Re-crystallisation from solvent: Acetonitrile'
_exptl_crystal_size_max          0.230
_exptl_crystal_size_mid          0.060
_exptl_crystal_size_min          0.010
_refine_diff_density_max         1.830
_refine_diff_density_min         -1.186
_refine_diff_density_rms         0.228
_refine_ls_extinction_method     none
_refine_ls_goodness_of_fit_ref   1.101
_refine_ls_hydrogen_treatment    constr
_refine_ls_matrix_type           full
_refine_ls_number_parameters     64
_refine_ls_number_reflns         828
_refine_ls_number_restraints     0
_refine_ls_restrained_S_all      1.101
_refine_ls_R_factor_all          0.0528
_refine_ls_R_factor_gt           0.0488
_refine_ls_shift/su_max          0.001
_refine_ls_shift/su_mean         0.000
_refine_ls_structure_factor_coef Fsqd
_refine_ls_weighting_details
'w=1/[\s^2^(Fo^2^)+(0.0804P)^2^+0.8513P] where P=(Fo^2^+2Fc^2^)/3'
_refine_ls_weighting_scheme      calc
_refine_ls_wR_factor_gt          0.1305
_refine_ls_wR_factor_ref         0.1351
_reflns_Friedel_coverage         0.000
_reflns_number_gt                760
_reflns_number_total             828
_reflns_threshold_expression     'I > 2\s(I)'
_cod_data_source_file            c6dt03415b2.cif
_cod_data_source_block           shelx
_cod_depositor_comments
'Adding full bibliography for 7040751--7040757.cif.'
_cod_database_code               7040751
_shelx_space_group_comment
;
The symmetry employed for this shelxl refinement is uniquely defined
by the following loop, which should always be used as a source of
symmetry information in preference to the above space-group names.
They are only intended as comments.
;
_shelx_estimated_absorpt_t_min   0.248
_shelx_estimated_absorpt_t_max   0.921
_shelxl_version_number           2013-4
_shelx_res_file
;
TITL ks57b-redo colorless
CELL  0.71075   3.9238  15.6600   7.8240   90.000   93.273   90.000
ZERR     2.00   0.0011   0.0050   0.0020    0.000    0.009    0.000
LATT   1
SYMM  1/2 - X, 1/2 + Y, 1/2 - Z
SFAC  C    H    BR   N
UNIT  20   12   4    4
MERG   2
OMIT    -4.00  50.00
rem isor .01 .02 c1 > n1
ACTA
size .23 .06 .01
BOND   $H
CONF
LIST   4
L.S.   4
TEMP  -173.00
WGHT    0.080400    0.851300
FVAR       0.39133
C1    1    0.835362    0.331715    0.508882    11.00000    0.02776    0.01432 =
         0.02406   -0.00117    0.00443    0.00426
AFIX  43
H1    2    0.906383    0.287245    0.585455    11.00000   -1.20000
AFIX   0
C2    1    0.891801    0.321621    0.337288    11.00000    0.03202    0.01072 =
         0.02102   -0.00145    0.00340    0.00137
AFIX  43
H2    2    0.994960    0.271372    0.295973    11.00000   -1.20000
AFIX   0
C3    1    0.792778    0.387133    0.229006    11.00000    0.01829    0.01641 =
         0.02108   -0.00291    0.00548   -0.00323
C4    1    0.639548    0.459180    0.288567    11.00000    0.02522    0.01117 =
         0.01932    0.00133    0.00307   -0.00005
AFIX  43
H4    2    0.571756    0.504608    0.213664    11.00000   -1.20000
AFIX   0
C5    1    0.587386    0.463170    0.462264    11.00000    0.02444    0.01064 =
         0.02284    0.00158    0.00076   -0.00348
BR1   3    0.865234    0.379992   -0.007195    11.00000    0.02899    0.01487 =
         0.01984   -0.00141    0.00566    0.00073
N1    4    0.686813    0.400350    0.573194    11.00000    0.02932    0.01167 =
         0.02487   -0.00193    0.00143    0.00143
HKLF    4

REM  ks57b-redo colorless
REM R1 =  0.0488 for     760 Fo > 4sig(Fo)  and  0.0528 for all     828 data
REM     64 parameters refined using      0 restraints

END

WGHT      0.0722      1.3766

REM Highest difference peak  1.830,  deepest hole -1.186,  1-sigma level  0.228
Q1    1   0.6245  0.3821 -0.0469  11.00000  0.05    1.83
Q2    1   1.1056  0.3804  0.0322  11.00000  0.05    1.59
Q3    1   0.5538  0.4366 -0.0273  11.00000  0.05    0.76
Q4    1   0.8486  0.3779 -0.1887  11.00000  0.05    0.74
Q5    1   0.8602  0.3826  0.1768  11.00000  0.05    0.71
Q6    1   0.9004  0.3604  0.5332  11.00000  0.05    0.69
Q7    1   1.2051  0.3215  0.0399  11.00000  0.05    0.69
Q8    1   0.9486  0.2188  0.3743  11.00000  0.05    0.63
Q9    1   0.2806  0.4748  0.1042  11.00000  0.05    0.61
Q10   1   0.5038  0.3245 -0.0602  11.00000  0.05    0.56
Q11   1   1.3490  0.3803 -0.0514  11.00000  0.05    0.54
Q12   1   1.0943  0.2446  0.5730  11.00000  0.05    0.53
Q13   1   0.4392  0.3841  0.1881  11.00000  0.05    0.52
Q14   1   0.8099  0.2761 -0.0486  11.00000  0.05    0.48
Q15   1   0.8821  0.4730  0.0376  11.00000  0.05    0.47
Q16   1   0.3436  0.4949  0.1896  11.00000  0.05    0.46
Q17   1   0.8117  0.2522  0.6204  11.00000  0.05    0.45
Q18   1   0.5209  0.4163  0.5115  11.00000  0.05    0.44
Q19   1   0.5965  0.3399  0.3070  11.00000  0.05    0.44
Q20   1   0.5633  0.4645  0.3849  11.00000  0.05    0.42
;
_shelx_res_checksum              6917
_shelx_hkl_file
;
   0   2  -1 195.940 11.1700   1
   0  -2   1 218.900 12.6100   1
   0  -2   1 226.100 12.7400   1
   0  -2   1 169.460 8.94000   1
   0   2  -1 184.830 8.94000   1
   0   2  -1 189.310 10.8400   1
   0   2   1 115.140 5.69000   1
   0   2   1 113.500 5.74000   1
   0   2   1 112.530 6.90000   1
   0  -2  -1 121.380 7.79000   1
   0  -2  -1 107.740 6.00000   1
   0  -2  -1 105.020 5.97000   1
   0   3   0 -1.0700 2.09000   1
   0   3   0 0.76000 1.78000   1
   0  -3   0 -0.7400 2.43000   1
   0  -3   0 -0.5800 2.00000   1
   0  -3   0 -0.5300 2.29000   1
   0  -3   0 -1.5000 2.03000   1
   0   3   0 -1.7900 2.09000   1
   0  -3   1 805.200 84.5700   1
   0  -3   1 917.210 96.8000   1
   0   3  -1 875.400 89.9300   1
   0  -3   1 972.300 102.490   1
   0   3  -1 720.920 72.8700   1
   0   3  -1 888.920 91.3000   1
   0   3   1 443.970 29.8900   1
   0   3   1 326.060 25.2600   1
   0  -3  -1 516.850 37.4200   1
   0  -3  -1 510.050 37.3100   1
   0  -3  -1 464.950 38.0500   1
   0   3   1 444.430 30.0400   1
   0   4   0 3177.92 789.520   1
   0   4   0 3220.66 800.420   1
   0   4   0 2890.95 732.970   1
   0  -4   0 3710.00 933.530   1
   0  -4   0 2977.14 758.300   1
   0  -4   0 3171.88 808.570   1
   0  -4   0 2949.86 753.490   1
   0   0  -2 2929.74 601.540   1
   0   0   2 2382.63 482.420   1
   0   0  -2 2780.44 570.770   1
   0   0  -2 2381.82 494.440   1
   0   0  -2 2371.34 474.680   1
  -1   0   0 1.16000 1.03000   1
  -1   0   0 0.44000 0.93000   1
  -1   0   0 0.42000 0.92000   1
  -1   0   0 0.08000 0.90000   1
   1   0   0 0.43000 1.04000   1
  -1   0   0 -0.1300 1.44000   1
   1   0   0 -0.6400 1.51000   1
  -1   0   0 0.27000 1.06000   1
   0   1  -2 15.0400 1.72000   1
   0  -1   2 13.5900 1.39000   1
   0   1  -2 13.7200 1.41000   1
   0   1  -2 21.9400 1.79000   1
   0   1  -2 17.8800 1.78000   1
   0  -1   2 20.9100 2.27000   1
   0  -1   2 15.0000 1.60000   1
   0  -1   2 17.4800 2.32000   1
   0   1   2 16.9700 1.62000   1
   0   1   2 15.3500 1.67000   1
   0   1   2 15.6300 1.89000   1
   0  -1  -2 13.7700 2.26000   1
   0  -1  -2 15.3700 1.94000   1
   0  -1  -2 16.7900 1.91000   1
   1   1   0 199.540 9.85000   1
   1   1   0 217.240 12.2200   1
   1   1   0 194.160 9.55000   1
   1   1   0 189.520 10.2900   1
  -1  -1   0 181.090 9.63000   1
  -1  -1   0 196.990 9.82000   1
  -1  -1   0 204.210 11.7600   1
  -1  -1   0 196.570 9.74000   1
   1  -1   0 178.630 9.23000   1
   1  -1   0 159.890 8.08000   1
  -1   1   0 172.100 10.5300   1
   1  -1   0 168.870 9.82000   1
  -1   1   0 186.170 9.74000   1
  -1   1   0 184.980 9.73000   1
  -1   1   0 166.440 8.86000   1
   1   0  -1 438.680 28.5000   1
  -1   0   1 399.260 25.9100   1
   0  -4   1 2.30000 2.21000   1
   0   4  -1 0.81000 1.55000   1
   0   4  -1 1.64000 1.71000   1
   0  -4   1 4.30000 2.23000   1
   0   4  -1 0.43000 1.82000   1
   0  -4   1 2.99000 2.30000   1
   0  -4  -1 -0.2700 2.39000   1
   0  -4  -1 2.61000 1.85000   1
   0   4   1 1.20000 1.19000   1
   0   4   1 0.82000 1.61000   1
   0   4   1 1.66000 1.20000   1
   0  -4  -1 1.27000 1.83000   1
   0  -2   2 4.70000 1.51000   1
   0  -2   2 4.66000 1.95000   1
   0   2  -2 3.57000 1.04000   1
   0   2  -2 4.16000 1.32000   1
   0   2  -2 3.52000 1.36000   1
   0   2  -2 3.46000 1.36000   1
   0  -2   2 4.17000 0.96000   1
   0  -2   2 7.79000 1.90000   1
   0  -2  -2 4.07000 2.02000   1
   0  -2  -2 3.13000 1.64000   1
   0   2   2 2.56000 1.48000   1
   0   2   2 2.48000 1.04000   1
   0   2   2 4.62000 1.05000   1
   0  -2  -2 3.47000 1.59000   1
  -1  -1   1 239.290 14.3700   1
  -1  -1   1 271.660 15.5600   1
   1   1  -1 317.570 15.3500   1
   1   1  -1 314.270 15.1800   1
  -1   1   1 196.050 10.8000   1
  -1   1   1 240.820 10.7000   1
   1  -1  -1 187.830 10.3800   1
  -1   1   1 243.130 10.7900   1
   1  -1  -1 204.170 10.2500   1
   1  -1  -1 217.490 10.5800   1
   1   2   0 3890.02 1146.93   1
  -1  -2   0 3928.35 1162.36   1
  -1  -2   0 3890.34 1155.55   1
  -1  -2   0 4658.02 1339.61   1
  -1  -2   0 4683.97 1347.72   1
   1   2   0 3874.95 1121.73   1
   1   2   0 3903.03 1132.03   1
  -1   2   0 3241.85 803.100   1
  -1   2   0 3360.71 842.690   1
   1  -2   0 3287.16 829.150   1
  -1   2   0 3340.72 840.310   1
   1  -2   0 3449.44 859.560   1
   1  -2   0 3136.90 786.940   1
  -1   0  -1 1395.15 190.060   1
  -1   0  -1 1528.24 215.620   1
  -1   0  -1 1297.61 177.300   1
  -1   0  -1 1408.71 191.520   1
  -1   0  -1 1556.08 213.000   1
   1   0   1 1415.68 196.220   1
   1   0   1 1540.68 212.400   1
  -1   0  -1 1273.27 174.700   1
  -1  -1  -1 43.6900 2.64000   1
  -1  -1  -1 34.0500 2.51000   1
  -1  -1  -1 42.9200 3.70000   1
   1   1   1 40.7800 3.38000   1
  -1  -1  -1 44.4600 2.64000   1
   1   1   1 39.3900 2.06000   1
   1   1   1 37.5100 2.03000   1
   1   1   1 40.7800 2.75000   1
   1  -1   1 33.4300 2.37000   1
  -1   1  -1 36.8000 2.28000   1
   1  -1   1 37.0200 2.55000   1
   1  -1   1 36.6500 2.59000   1
   1  -1   1 43.7400 3.53000   1
  -1   1  -1 34.6700 2.44000   1
  -1   1  -1 36.9800 3.46000   1
  -1   1  -1 28.5000 2.19000   1
  -1  -2   1 103.860 5.72000   1
   1   2  -1 93.0200 4.54000   1
   1   2  -1 135.840 5.84000   1
   1   2  -1 135.820 5.82000   1
  -1  -2   1 109.280 6.07000   1
  -1  -2   1 92.4700 4.63000   1
   1  -2  -1 77.0600 4.87000   1
  -1   2   1 67.8700 3.50000   1
   1  -2  -1 64.9600 3.71000   1
  -1   2   1 66.4900 3.33000   1
   1  -2  -1 73.6400 4.72000   1
  -1   2   1 73.0900 3.68000   1
   0  -5   0 -1.1200 2.63000   1
   0   5   0 -0.6100 1.58000   1
   0   5   0 1.49000 1.58000   1
   0   5   0 -1.6500 1.74000   1
   0  -5   0 -4.3800 2.23000   1
   0  -5   0 -1.1100 2.13000   1
   0  -3   2 3.12000 1.44000   1
   0   3  -2 4.20000 1.24000   1
   0  -3   2 4.74000 2.07000   1
   0   3  -2 2.16000 1.40000   1
   0   3  -2 4.79000 1.36000   1
   0   3  -2 3.53000 1.31000   1
   0  -3   2 5.21000 1.94000   1
   0  -3  -2 3.57000 2.01000   1
   0  -3  -2 1.23000 1.76000   1
   0   3   2 1.64000 1.46000   1
   0   3   2 1.43000 1.03000   1
   0   3   2 2.21000 0.99000   1
   0  -3  -2 3.57000 1.78000   1
   1   3   0 1532.91 219.480   1
   1   3   0 1565.39 223.930   1
   1   3   0 1406.97 208.450   1
  -1  -3   0 1662.66 238.240   1
  -1  -3   0 1689.94 242.430   1
  -1  -3   0 1424.72 213.800   1
   1  -3   0 1067.18 133.940   1
  -1   3   0 1104.31 136.730   1
  -1   3   0 1222.38 151.730   1
  -1   3   0 1165.75 142.230   1
   1  -3   0 1198.54 149.430   1
   1  -3   0 1241.73 157.610   1
  -1  -2  -1 230.940 12.7200   1
   1   2   1 223.770 13.3900   1
  -1  -2  -1 219.320 14.4900   1
   1   2   1 224.970 11.5000   1
  -1  -2  -1 231.100 13.2400   1
  -1  -2  -1 206.090 11.7800   1
   1   2   1 225.900 11.4400   1
  -1   2  -1 194.800 11.0200   1
  -1   2  -1 197.380 10.7600   1
  -1   2  -1 208.360 11.1800   1
   1  -2   1 201.130 11.8100   1
   1  -2   1 187.430 12.5000   1
   1  -2   1 210.390 12.0500   1
  -1   2  -1 188.620 12.6000   1
   1   3  -1 326.050 19.0100   1
  -1  -3   1 296.950 19.7200   1
   1   3  -1 325.670 18.9900   1
  -1  -3   1 340.980 22.3500   1
   1   3  -1 243.330 14.2600   1
  -1  -3   1 274.540 16.9000   1
   1  -3  -1 194.600 10.8000   1
  -1   3   1 156.090 8.76000   1
  -1   3   1 178.280 9.53000   1
  -1   3   1 170.870 9.30000   1
   1  -3  -1 158.210 10.8500   1
   1  -3  -1 178.820 12.0900   1
   0   5  -1 1690.20 276.620   1
   0   5  -1 1655.59 269.020   1
   0   5  -1 1616.55 263.210   1
   0  -5   1 1858.78 307.540   1
   0  -5   1 1743.07 291.070   1
   0  -5   1 1912.42 315.990   1
   0  -5  -1 1396.04 200.040   1
   0   5   1 1239.48 158.420   1
   0   5   1 1229.16 156.870   1
   0  -5  -1 1472.51 194.490   1
   0   5   1 986.090 136.650   1
   0  -5  -1 1481.53 195.320   1
   1   0  -2 0.74000 0.87000   1
   1   0  -2 0.73000 0.73000   1
   1   0  -2 0.57000 0.90000   1
   1   0  -2 0.19000 0.74000   1
  -1   0   2 -0.0900 0.67000   1
   1   0  -2 0.79000 0.73000   1
   1   3   1 378.490 25.0300   1
   1   3   1 406.420 28.7900   1
  -1  -3  -1 428.660 32.4900   1
  -1  -3  -1 403.450 28.2800   1
  -1  -3  -1 413.210 29.2300   1
   1   3   1 420.610 27.6300   1
  -1   3  -1 391.340 23.9600   1
  -1   3  -1 318.680 22.5100   1
  -1   3  -1 326.200 21.2800   1
   1  -3   1 269.740 20.3900   1
   1  -3   1 332.190 21.9000   1
  -1   3  -1 344.470 20.9400   1
   1  -3   1 283.350 20.3100   1
   1   1  -2 359.990 21.9700   1
  -1  -1   2 398.610 22.8900   1
   1   1  -2 363.580 22.1100   1
   1   1  -2 399.660 23.4500   1
   1   1  -2 395.310 23.2500   1
   1  -1  -2 356.000 21.8900   1
  -1   1   2 418.860 23.0000   1
  -1   1   2 417.170 23.1400   1
  -1   1   2 327.050 19.9900   1
   1  -1  -2 365.670 22.9400   1
   1  -1  -2 355.890 22.0100   1
   0  -4   2 2860.28 685.600   1
   0  -4   2 3077.15 749.510   1
   0  -4   2 3096.75 753.620   1
   0   4  -2 3131.52 754.020   1
   0   4  -2 3076.87 740.090   1
   0   4  -2 3225.47 769.650   1
   0  -4  -2 1650.31 252.400   1
   0   4   2 1587.10 245.720   1
   0   4   2 1555.64 232.390   1
   0   4   2 1563.46 232.930   1
   0  -4  -2 1652.12 252.600   1
   0  -4  -2 1620.21 259.070   1
  -1  -4   0 65.4700 4.45000   1
  -1  -4   0 82.2400 4.90000   1
   1   4   0 68.7100 3.75000   1
   1   4   0 64.8100 2.91000   1
   1   4   0 64.7000 2.97000   1
  -1  -4   0 73.5500 4.64000   1
  -1   4   0 49.3600 3.02000   1
  -1   4   0 44.4400 2.89000   1
  -1   4   0 45.5900 2.90000   1
   1  -4   0 47.3200 3.95000   1
   1  -4   0 50.6200 4.02000   1
   1  -4   0 54.2900 4.25000   1
  -1  -2   2 960.730 87.6300   1
  -1  -2   2 882.060 80.4000   1
  -1  -2   2 849.980 82.8700   1
  -1  -2   2 875.800 84.9600   1
   1   2  -2 861.190 83.0500   1
   1   2  -2 854.080 82.2500   1
  -1   2   2 670.140 60.4100   1
  -1   2   2 798.250 65.9400   1
  -1   2   2 833.170 68.5500   1
  -1   2   2 658.240 64.1900   1
   1  -2  -2 676.440 61.9300   1
   1  -2  -2 667.340 60.1100   1
   1  -2  -2 681.650 62.2500   1
   1   0   2 -0.8200 0.97000   1
  -1   0  -2 1.15000 0.93000   1
  -1   0  -2 0.16000 0.94000   1
  -1   0  -2 1.34000 1.63000   1
  -1   0  -2 -2.4700 1.35000   1
  -1   0  -2 -1.0600 0.99000   1
  -1   0  -2 0.55000 1.37000   1
   1   0   2 -0.3400 1.38000   1
  -1  -4   1 1049.33 118.440   1
   1   4  -1 1040.33 113.370   1
  -1  -4   1 949.560 105.210   1
   1   4  -1 1031.32 112.550   1
   1   4  -1 852.890 93.6100   1
  -1  -4   1 1061.86 120.450   1
   1  -4  -1 537.470 47.6900   1
  -1   4   1 435.110 34.1500   1
   1  -4  -1 578.190 46.7900   1
   1  -4  -1 492.260 42.4400   1
  -1   4   1 627.870 48.2000   1
  -1   4   1 503.060 39.7500   1
  -1   1  -2 221.170 11.9300   1
  -1   1  -2 218.280 12.2400   1
  -1   1  -2 211.800 14.4100   1
  -1   1  -2 236.900 12.9000   1
   1  -1   2 234.630 14.8200   1
   1  -1   2 243.790 12.7300   1
   1   1   2 234.250 13.1500   1
  -1  -1  -2 227.990 14.8200   1
   1   1   2 230.450 12.3200   1
  -1  -1  -2 255.990 14.1000   1
  -1  -1  -2 220.780 13.5200   1
  -1  -1  -2 218.220 13.3400   1
   1   1   2 241.190 12.7800   1
   0   6   0 21.4300 2.30000   1
   0  -6   0 25.7400 3.48000   1
   0  -6   0 22.9100 3.46000   1
   0  -6   0 26.7700 4.01000   1
   0   6   0 23.8500 2.32000   1
   0   6   0 14.2000 2.11000   1
   0   0  -3 -0.1000 0.94000   1
   0   0  -3 0.93000 0.91000   1
   0   0   3 0.23000 0.97000   1
   0   0  -3 0.47000 1.31000   1
   0   0  -3 0.32000 1.28000   1
   0   0  -3 -0.3700 0.72000   1
   0   0  -3 0.37000 1.35000   1
   0  -1   3 699.270 64.0600   1
   0  -1   3 760.280 69.1100   1
   0   1  -3 742.780 65.6800   1
   0   1  -3 805.680 75.5100   1
   0   1  -3 817.430 78.5300   1
   0   1  -3 831.790 80.0100   1
   0   1  -3 796.870 75.0100   1
   0   1  -3 759.440 71.5800   1
   0  -1  -3 721.630 67.3900   1
   0  -1  -3 704.540 61.8600   1
   0  -1  -3 646.050 61.9500   1
   0   1   3 666.200 59.9100   1
   0   1   3 781.900 68.0700   1
   0   1   3 805.550 70.2100   1
   0  -1  -3 711.480 66.3600   1
   1   4   1 510.670 37.3700   1
  -1  -4  -1 592.290 48.1200   1
  -1  -4  -1 474.290 36.8700   1
  -1  -4  -1 485.900 37.7300   1
   1   4   1 510.880 37.5800   1
   1   4   1 604.880 46.9200   1
   1  -4   1 510.890 40.6200   1
  -1   4  -1 508.840 37.1200   1
   1  -4   1 533.140 42.4500   1
   1  -4   1 427.080 36.4200   1
  -1   4  -1 514.930 38.4500   1
  -1   4  -1 433.650 33.7900   1
   1  -2   2 997.700 115.480   1
   1  -2   2 1092.67 128.730   1
  -1   2  -2 1223.19 144.560   1
  -1   2  -2 1037.60 121.900   1
  -1   2  -2 1125.06 131.150   1
  -1   2  -2 1101.15 127.730   1
   1  -2   2 1056.03 125.080   1
   1  -2   2 1061.65 125.910   1
  -1  -2  -2 1162.63 141.110   1
  -1  -2  -2 1072.09 128.100   1
   1   2   2 1158.48 136.170   1
   1   2   2 1127.42 132.200   1
   1   2   2 1067.15 129.840   1
  -1  -2  -2 1087.10 134.640   1
  -1  -2  -2 1135.47 137.200   1
   1   3  -2 430.710 28.4300   1
  -1  -3   2 476.640 27.5800   1
  -1  -3   2 343.250 23.9700   1
  -1  -3   2 361.120 26.0300   1
   1   3  -2 441.560 29.1400   1
  -1   3   2 251.060 12.1600   1
   1  -3  -2 215.420 13.0500   1
   1  -3  -2 227.820 13.8700   1
  -1   3   2 207.210 13.4500   1
  -1   3   2 257.810 12.3500   1
  -1   3   2 207.920 12.6200   1
   1  -3  -2 226.460 13.7400   1
   0  -6   1 69.3600 5.85000   1
   0  -6   1 58.4000 5.87000   1
   0   6  -1 60.7400 4.47000   1
   0   6  -1 60.6600 3.92000   1
   0  -6   1 58.2100 5.57000   1
   0   6  -1 57.8800 3.98000   1
   0   6  -1 59.1900 4.11000   1
   0  -6  -1 47.0100 4.29000   1
   0   6   1 31.7400 2.81000   1
   0  -6  -1 46.0200 5.51000   1
   0  -6  -1 46.7200 5.79000   1
   0  -6  -1 53.2400 4.34000   1
   0   6   1 36.1700 2.33000   1
   0   6   1 38.0900 2.32000   1
   0  -2   3 396.880 26.3700   1
   0  -2   3 468.450 33.1200   1
   0   2  -3 419.390 28.9400   1
   0  -2   3 368.470 23.8200   1
   0   2  -3 381.370 26.3800   1
   0   2  -3 535.570 33.9100   1
   0   2  -3 440.650 30.1000   1
   0  -2   3 458.500 32.7000   1
   0  -2  -3 323.820 22.5100   1
   0   2   3 313.860 19.9700   1
   0  -2  -3 337.920 23.4200   1
   0  -2  -3 311.860 22.3300   1
   0   2   3 325.210 19.3500   1
   0   2   3 333.360 19.6400   1
   0  -5   2 2.70000 2.07000   1
   0  -5   2 2.67000 2.06000   1
   0   5  -2 2.83000 1.23000   1
   0   5  -2 1.34000 1.06000   1
   0  -5   2 2.14000 1.78000   1
   0   5  -2 0.89000 1.25000   1
   0  -5  -2 2.99000 1.70000   1
   0  -5  -2 0.84000 2.11000   1
   0   5   2 0.30000 0.94000   1
   0   5   2 4.03000 1.30000   1
   0   5   2 1.01000 0.94000   1
   0  -5  -2 0.73000 1.72000   1
  -1  -5   0 415.890 29.6300   1
  -1  -5   0 357.950 26.4800   1
  -1  -5   0 413.740 29.4400   1
   1   5   0 389.490 26.7800   1
   1   5   0 385.050 25.1800   1
   1   5   0 392.820 25.5400   1
  -1   5   0 282.920 16.5500   1
   1  -5   0 279.400 19.9500   1
   1  -5   0 280.940 19.3700   1
  -1   5   0 232.110 15.1900   1
  -1   5   0 259.000 16.1300   1
   1  -5   0 285.210 20.2100   1
  -1   3  -2 267.980 15.3300   1
   1  -3   2 277.130 17.6200   1
   1  -3   2 240.530 16.3500   1
   1  -3   2 243.600 16.7300   1
  -1   3  -2 275.160 15.7700   1
  -1   3  -2 235.330 14.3000   1
  -1   3  -2 282.730 17.8800   1
  -1  -3  -2 231.670 16.0800   1
  -1  -3  -2 240.490 15.1200   1
   1   3   2 269.440 14.3000   1
   1   3   2 262.900 15.4200   1
   1   3   2 248.140 13.6600   1
  -1  -3  -2 244.720 15.0200   1
  -1  -5   1 761.570 72.8800   1
   1   5  -1 757.820 70.5900   1
   1   5  -1 769.710 71.1200   1
   1   5  -1 670.140 61.0100   1
  -1  -5   1 657.090 61.5100   1
  -1  -5   1 788.890 77.9700   1
  -1   5   1 321.340 21.7400   1
  -1   5   1 329.480 22.1300   1
   1  -5  -1 421.510 33.6500   1
  -1   5   1 398.000 27.0000   1
   1  -5  -1 376.610 29.3900   1
   1  -5  -1 456.410 32.7700   1
   0   3  -3 983.640 105.170   1
   0   3  -3 891.750 95.2300   1
   0  -3   3 913.960 100.850   1
   0  -3   3 902.950 99.7400   1
   0   3  -3 1033.83 105.020   1
   0  -3   3 978.190 101.440   1
   0   3  -3 864.620 93.4900   1
   0   3   3 515.910 42.0000   1
   0  -3  -3 550.050 45.9100   1
   0  -3  -3 622.620 51.0900   1
   0  -3  -3 581.170 49.7000   1
   0   3   3 531.140 40.5500   1
   0   3   3 545.370 41.4100   1
  -1  -4   2 42.2900 3.31000   1
   1   4  -2 48.0900 2.52000   1
   1   4  -2 48.5400 2.62000   1
   1   4  -2 35.3800 1.76000   1
  -1  -4   2 46.6900 2.69000   1
  -1  -4   2 45.2300 3.43000   1
  -1   4   2 21.1600 1.73000   1
  -1   4   2 18.6500 1.34000   1
  -1   4   2 18.0800 1.31000   1
  -1   4   2 18.0200 2.24000   1
   1  -4  -2 23.0400 2.34000   1
   1  -4  -2 20.9600 2.04000   1
   1  -4  -2 22.1200 2.51000   1
  -1  -5  -1 130.760 8.22000   1
   1   5   1 120.570 6.76000   1
  -1  -5  -1 117.630 6.91000   1
   1   5   1 116.180 5.51000   1
  -1  -5  -1 124.970 6.94000   1
   1   5   1 106.740 5.40000   1
   1  -5   1 120.520 7.87000   1
  -1   5  -1 97.1600 5.18000   1
  -1   5  -1 93.0600 5.35000   1
   1  -5   1 103.530 6.77000   1
   1  -5   1 91.8300 7.11000   1
  -1   5  -1 112.090 5.93000   1
   0  -7   0 -0.0200 2.06000   1
   0  -7   0 -0.0800 2.14000   1
   0  -7   0 2.04000 2.43000   1
   0   7   0 -1.0300 1.16000   1
   1   0  -3 2601.86 474.830   1
   1   0  -3 2477.00 453.880   1
  -1   0   3 2037.41 372.900   1
   1   0  -3 2520.56 463.810   1
   1   0  -3 2556.28 465.390   1
   1   0  -3 1728.70 300.480   1
   1   1  -3 262.360 14.2500   1
   1   1  -3 270.670 15.5500   1
   1   1  -3 274.140 15.5000   1
  -1  -1   3 287.360 13.7800   1
   1   1  -3 258.590 14.3000   1
   1  -1  -3 235.770 12.6800   1
   1  -1  -3 191.050 9.06000   1
  -1   1   3 236.970 11.0200   1
   1  -1  -3 251.360 13.7000   1
  -1   1   3 227.500 10.6600   1
  -1   4  -2 10.5300 1.45000   1
   1  -4   2 14.1200 2.24000   1
   1  -4   2 14.9500 2.05000   1
  -1   4  -2 9.34000 1.96000   1
   1  -4   2 15.1000 2.29000   1
   1   4   2 9.51000 1.10000   1
  -1  -4  -2 10.3400 1.86000   1
  -1  -4  -2 13.5000 1.85000   1
  -1  -4  -2 14.8900 2.33000   1
   1   4   2 9.77000 1.11000   1
   0  -6   2 34.1500 3.80000   1
   0  -6   2 38.9800 3.86000   1
   0   6  -2 28.5100 2.10000   1
   0  -6   2 39.7200 3.17000   1
   0  -6  -2 20.3600 3.46000   1
   0  -6  -2 19.1000 2.46000   1
   0  -6  -2 18.7600 2.49000   1
   1   6   0 909.110 93.4000   1
   1   6   0 836.790 85.1700   1
   1   6   0 824.650 83.7200   1
  -1  -6   0 928.990 98.2100   1
  -1  -6   0 928.350 98.4200   1
  -1  -6   0 802.480 84.1700   1
   0  -4   3 40.5700 3.61000   1
   0  -4   3 43.9900 2.79000   1
   0  -4   3 53.3300 3.84000   1
   0   4  -3 35.6000 2.38000   1
   0   4  -3 45.2200 2.38000   1
  -1   6   0 607.910 54.1000   1
  -1   6   0 573.660 51.6200   1
   1  -6   0 690.690 64.6400   1
   1  -6   0 596.330 58.3800   1
   1  -6   0 692.750 65.5600   1
   0  -4  -3 28.3900 2.91000   1
   0  -4  -3 24.7900 3.39000   1
   0   4   3 22.5800 2.05000   1
   0  -4  -3 27.9300 2.87000   1
   0   7  -1 489.550 38.4300   1
   0  -7   1 478.470 42.9500   1
   0   7  -1 478.770 38.7900   1
   0  -7   1 529.280 46.7600   1
   0  -7   1 517.540 45.8900   1
   0  -7  -1 450.640 38.6700   1
   0  -7  -1 455.980 43.8000   1
   0  -7  -1 448.920 43.0400   1
   0  -7  -1 459.100 38.9000   1
  -1  -2   3 31.3000 2.06000   1
   1   2  -3 26.5500 1.75000   1
   1   2  -3 26.3800 1.73000   1
  -1  -2   3 30.4500 2.03000   1
   1  -2  -3 19.3600 1.93000   1
   1  -2  -3 19.8300 1.79000   1
  -1   2   3 23.3400 1.35000   1
  -1   2   3 17.0300 1.54000   1
  -1   2   3 22.2400 1.24000   1
   1  -2  -3 19.8100 1.98000   1
   1   6  -1 251.710 13.9700   1
   1   6  -1 214.810 12.2500   1
  -1  -6   1 254.790 16.3700   1
  -1  -6   1 204.120 12.8900   1
  -1  -6   1 256.700 18.2400   1
   1   6  -1 247.280 14.6900   1
  -1  -5   2 261.270 17.9200   1
  -1  -5   2 269.940 18.6500   1
   1   5  -2 222.330 12.2300   1
   1   5  -2 286.490 16.2800   1
   1   5  -2 277.570 15.7200   1
  -1  -5   2 277.380 16.9900   1
   1  -6  -1 190.920 11.0700   1
   1  -6  -1 125.530 9.17000   1
  -1   6   1 113.970 6.12000   1
  -1   6   1 116.660 6.15000   1
   1  -6  -1 136.660 9.63000   1
  -1   5   2 102.280 4.59000   1
  -1   5   2 111.910 6.21000   1
   1  -5  -2 103.790 6.54000   1
   1  -5  -2 128.430 8.30000   1
   1  -5  -2 133.850 7.99000   1
  -1   5   2 102.820 4.60000   1
  -1   0  -3 124.170 7.76000   1
   1   0   3 140.350 7.44000   1
  -1   0  -3 125.010 6.05000   1
  -1   0  -3 122.160 7.46000   1
  -1   0  -3 131.350 7.74000   1
  -1   1  -3 337.080 21.4000   1
  -1   1  -3 373.550 23.7400   1
   1  -1   3 272.000 17.7500   1
  -1   1  -3 292.860 17.0000   1
  -1   1  -3 289.450 19.4000   1
  -1  -1  -3 323.030 21.2100   1
  -1  -1  -3 319.040 20.9600   1
  -1  -1  -3 291.960 20.6100   1
  -1  -6  -1 55.4600 4.11000   1
  -1  -6  -1 42.9000 3.16000   1
  -1  -6  -1 42.6600 3.10000   1
   1  -6   1 52.1100 4.82000   1
   1  -6   1 42.3300 4.85000   1
   1  -6   1 47.6800 4.38000   1
   1   3  -3 515.970 37.3400   1
   1   3  -3 501.450 36.3500   1
  -1  -3   3 523.430 38.1800   1
  -1  -3   3 531.920 38.6200   1
  -1  -3   3 430.090 29.4900   1
  -1   3   3 339.030 18.9600   1
   1  -3  -3 296.480 19.7200   1
   1  -3  -3 292.300 18.7100   1
   1  -3  -3 295.940 19.9000   1
  -1   3   3 352.560 19.8200   1
  -1   5  -2 428.680 33.3900   1
   1  -5   2 456.580 35.1600   1
   1  -5   2 459.500 36.4400   1
   1  -5   2 459.570 36.6300   1
  -1  -5  -2 428.810 31.7800   1
  -1  -5  -2 413.830 34.2200   1
  -1  -5  -2 482.730 34.9600   1
   1  -2   3 3.20000 1.40000   1
   1  -2   3 3.74000 1.78000   1
  -1   2  -3 5.37000 1.65000   1
   1  -2   3 4.23000 1.71000   1
  -1  -2  -3 2.84000 1.77000   1
  -1  -2  -3 1.64000 1.33000   1
  -1  -2  -3 3.12000 1.35000   1
   0  -5   3 1073.96 130.930   1
   0  -5   3 1063.11 122.400   1
   0  -5   3 1031.42 125.930   1
   0   5  -3 1022.78 118.190   1
   0   5  -3 1186.29 134.860   1
   0  -5  -3 568.790 50.0800   1
   0  -5  -3 581.430 50.5200   1
   0  -5  -3 560.030 52.4400   1
   0  -8   0 1026.71 134.300   1
   0  -8   0 1065.55 139.020   1
   0  -8   0 1169.01 152.370   1
   0   0  -4 2021.25 361.500   1
   0   0  -4 1972.10 352.620   1
   0   0  -4 1978.96 352.680   1
   0   0   4 2100.71 370.750   1
   0   0  -4 1982.22 354.770   1
  -1   3  -3 283.680 18.8300   1
   1  -3   3 285.330 18.0800   1
   1  -3   3 299.430 19.6600   1
   1  -3   3 297.020 19.5300   1
  -1  -3  -3 286.280 18.8300   1
  -1  -3  -3 294.160 19.2200   1
  -1  -3  -3 296.200 20.6500   1
  -2   0   0 91.2100 4.00000   1
  -2   0   0 81.3000 4.00000   1
  -2   0   0 91.3100 5.42000   1
  -2   0   0 75.7200 3.60000   1
  -2   0   0 94.5800 4.33000   1
   2   0   0 105.020 5.60000   1
   0   7  -2 107.580 5.81000   1
   0  -7   2 134.910 8.21000   1
   0  -7   2 148.630 9.96000   1
   0  -7   2 148.980 10.2200   1
   0  -7  -2 92.4700 6.66000   1
   0  -7  -2 88.3800 6.51000   1
   0  -7  -2 94.3400 9.21000   1
  -1  -7   0 224.940 14.9400   1
  -1  -7   0 291.490 20.4300   1
  -1  -7   0 287.690 20.0200   1
   1   7   0 221.340 13.2600   1
   1  -7   0 184.970 14.7600   1
   1  -7   0 177.410 14.6900   1
   1  -7   0 218.640 15.2700   1
  -1  -4   3 1804.96 298.090   1
   1   4  -3 1824.88 303.040   1
   1   4  -3 1802.76 299.690   1
  -1  -4   3 1890.31 304.880   1
  -1  -4   3 1769.27 292.550   1
   1  -4  -3 936.050 93.5000   1
  -1   4   3 936.500 88.0200   1
  -1   4   3 592.210 61.7800   1
  -1   4   3 768.440 75.1500   1
   1  -4  -3 1082.82 107.010   1
   1  -4  -3 942.730 94.2400   1
   0   1  -4 6.83000 0.93000   1
   0   1  -4 6.04000 1.45000   1
   0   1  -4 4.65000 1.51000   1
   0   1  -4 4.77000 1.51000   1
   0  -1   4 7.49000 0.97000   1
   0   1   4 4.26000 1.12000   1
   0  -1  -4 4.61000 0.80000   1
   0  -1  -4 7.11000 1.86000   1
   0  -1  -4 5.95000 1.44000   1
   0  -1  -4 4.43000 1.43000   1
   2   1   0 842.680 75.0200   1
  -2  -1   0 551.570 47.5000   1
  -2  -1   0 551.620 47.8400   1
  -2  -1   0 789.660 64.6500   1
  -2  -1   0 775.010 63.4900   1
  -2  -1   0 837.440 74.2600   1
  -2   1   0 802.850 70.8900   1
  -2   1   0 660.640 61.0600   1
  -2   1   0 662.140 60.9500   1
  -2   1   0 840.540 78.6800   1
   2  -1   0 700.680 67.3000   1
  -2   1   0 774.100 68.2200   1
   1   6  -2 855.770 82.6800   1
   1   6  -2 869.240 85.0300   1
   1   6  -2 643.790 61.1300   1
  -1  -6   2 829.460 85.6000   1
  -1  -6   2 828.790 82.7200   1
  -1  -6   2 793.440 82.4300   1
   1  -6  -2 332.520 23.6800   1
  -1   6   2 303.130 18.5100   1
   1  -6  -2 389.030 27.7600   1
   1  -6  -2 338.840 23.8500   1
  -1   6   2 303.450 18.5600   1
  -2   0   1 -0.0700 0.36000   1
  -2   0   1 -0.6200 1.06000   1
   2   0  -1 -0.4900 1.03000   1
  -2   0   1 0.40000 0.28000   1
  -2   0   1 0.07000 0.68000   1
  -2   0   1 0.37000 0.29000   1
  -2  -1   1 -0.8200 1.13000   1
  -2  -1   1 0.12000 0.71000   1
  -2  -1   1 -0.0700 0.42000   1
  -2  -1   1 0.28000 0.40000   1
   2   1  -1 -0.0800 1.03000   1
  -2   1   1 0.02000 0.58000   1
   2  -1  -1 1.37000 1.13000   1
  -2   1   1 0.43000 0.76000   1
  -2   1   1 -0.0200 0.65000   1
  -2   1   1 -0.1600 0.61000   1
  -2   1   1 -1.1900 1.19000   1
  -2   1   1 0.74000 0.53000   1
   0  -8   1 40.2300 4.60000   1
   0  -8   1 38.7900 4.59000   1
   0   8  -1 37.1300 2.62000   1
   0  -8   1 50.3200 4.69000   1
   0  -8  -1 48.2600 6.12000   1
   0  -8  -1 46.1600 5.80000   1
   0  -8  -1 51.8200 5.98000   1
   0  -8  -1 46.8800 5.82000   1
   1   7  -1 1095.41 131.240   1
  -1  -7   1 1268.92 154.760   1
   1   7  -1 1052.73 128.320   1
  -1  -7   1 1229.63 152.380   1
  -1  -7   1 961.970 117.900   1
   1   7  -1 1035.90 126.500   1
   1  -7  -1 658.280 63.9500   1
   1  -7  -1 574.250 57.8000   1
   1  -7  -1 726.970 70.7900   1
   0  -2   4 43.5800 2.01000   1
   0  -2   4 48.7200 2.54000   1
   0   2  -4 62.9600 2.72000   1
   0   2  -4 53.2300 3.73000   1
   0   2  -4 45.5700 3.60000   1
   0   2  -4 50.1200 2.91000   1
   0  -2  -4 39.3600 3.18000   1
   0  -2  -4 40.1700 3.29000   1
   0  -2  -4 46.6900 3.47000   1
   0   2   4 40.7700 2.13000   1
  -2  -2   0 -0.2500 0.84000   1
   2   2   0 1.95000 0.67000   1
   2   2   0 0.27000 0.65000   1
  -2  -2   0 0.46000 0.87000   1
  -2  -2   0 2.21000 1.30000   1
   2  -2   0 0.21000 0.98000   1
  -2   2   0 1.81000 1.01000   1
  -2   2   0 0.32000 0.97000   1
  -2   2   0 0.76000 1.52000   1
   2  -2   0 1.64000 0.96000   1
   2  -2   0 2.61000 1.48000   1
  -1  -7  -1 547.460 45.5700   1
  -1  -7  -1 543.130 44.8200   1
  -1  -7  -1 514.880 44.3000   1
   1  -7   1 556.540 52.2400   1
   1  -7   1 530.840 48.2100   1
   1  -7   1 553.940 52.9900   1
   1  -6   2 968.550 105.400   1
   1  -6   2 803.050 88.5200   1
   1  -6   2 861.220 96.6900   1
  -1  -6  -2 871.190 91.1900   1
  -1  -6  -2 759.280 78.1000   1
  -1  -6  -2 792.050 81.1800   1
  -2  -2   1 793.380 78.0800   1
  -2  -2   1 994.270 103.180   1
  -2  -2   1 826.680 81.4400   1
  -2  -2   1 1103.20 112.980   1
   2   2  -1 1050.69 108.240   1
   2  -2  -1 827.940 81.6400   1
   2  -2  -1 841.150 82.8200   1
  -2   2   1 940.550 92.4700   1
  -2   2   1 936.490 91.9300   1
  -2   2   1 926.480 98.3400   1
   2  -2  -1 977.950 101.220   1
  -2   0  -1 -1.4800 1.13000   1
  -2   0  -1 -0.0300 0.81000   1
  -2   0  -1 2.26000 1.55000   1
  -2   0  -1 -1.3000 1.08000   1
  -2   0  -1 -0.8600 0.78000   1
   2   0   1 2.10000 1.42000   1
   1  -4   3 83.3100 5.05000   1
   1  -4   3 102.880 6.25000   1
   1  -4   3 97.3000 6.27000   1
  -1   4  -3 86.4500 5.60000   1
  -1  -4  -3 86.5000 5.45000   1
  -1  -4  -3 85.7500 5.37000   1
  -2  -1  -1 8.52000 1.01000   1
  -2  -1  -1 9.82000 2.05000   1
  -2  -1  -1 14.0600 1.29000   1
  -2  -1  -1 14.1900 1.30000   1
  -2  -1  -1 8.54000 0.99000   1
   2   1   1 9.99000 1.96000   1
  -2   1  -1 9.09000 1.46000   1
  -2   1  -1 7.94000 1.10000   1
  -2   1  -1 13.9300 1.50000   1
  -2   1  -1 13.7300 2.04000   1
   2  -1   1 16.2600 2.41000   1
  -2   1  -1 9.40000 1.15000   1
   0  -6   3 148.170 8.05000   1
   0  -6   3 159.300 10.3800   1
   0  -6   3 156.830 10.2700   1
   0   6  -3 140.110 6.76000   1
   0  -6  -3 79.7200 5.80000   1
   0  -6  -3 77.2300 5.72000   1
   0  -6  -3 82.5400 6.63000   1
   0  -3   4 15.8500 2.18000   1
   0  -3   4 18.2800 2.23000   1
   0  -3   4 13.8200 1.05000   1
   0  -3   4 12.6000 1.41000   1
   0   3  -4 13.3200 1.08000   1
   0   3  -4 12.1700 1.44000   1
   0  -3  -4 11.4100 2.07000   1
   0  -3  -4 10.0600 1.88000   1
   0  -3  -4 12.4100 1.81000   1
  -2  -3   0 295.080 18.9100   1
  -2  -3   0 341.690 19.0000   1
   2   3   0 279.200 15.7900   1
  -2  -3   0 326.170 18.4500   1
   2   3   0 283.040 16.0100   1
   2  -3   0 250.800 14.4400   1
   2  -3   0 265.070 17.2900   1
   2  -3   0 253.770 14.6600   1
  -2   3   0 283.680 18.2300   1
  -2   3   0 296.540 16.6400   1
  -2   3   0 300.940 16.8100   1
  -1  -5   3 244.340 14.3900   1
  -1  -5   3 227.880 13.7000   1
  -1  -5   3 245.500 15.6300   1
   1   5  -3 244.900 13.4700   1
   1   5  -3 242.150 13.3600   1
  -1   5   3 85.8200 3.49000   1
   1  -5  -3 91.2500 4.83000   1
   1  -5  -3 101.660 5.93000   1
  -1   5   3 84.6400 3.45000   1
   1  -5  -3 89.6500 4.85000   1
  -2  -2  -1 1115.31 132.060   1
  -2  -2  -1 1203.51 136.550   1
  -2  -2  -1 1100.38 124.850   1
   2   2   1 1004.13 114.850   1
   2   2   1 933.330 107.610   1
  -2   2  -1 982.550 115.610   1
  -2   2  -1 996.840 117.040   1
  -2   2  -1 1049.49 124.440   1
   2  -2   1 1045.63 119.580   1
   2  -2   1 1056.56 124.370   1
   2  -2   1 1023.20 116.940   1
  -2  -3   1 52.6600 2.89000   1
  -2  -3   1 47.2700 2.68000   1
  -2  -3   1 46.6400 2.79000   1
   2   3  -1 44.8900 2.34000   1
  -2  -3   1 48.3800 2.78000   1
   2  -3  -1 35.5400 2.05000   1
  -2   3   1 42.0800 2.42000   1
  -2   3   1 42.0300 2.40000   1
   2  -3  -1 43.7000 3.01000   1
   2  -3  -1 33.0500 2.01000   1
   1   0  -4 -0.3200 0.73000   1
  -1   0   4 -0.1000 0.64000   1
   1   0  -4 -1.1400 0.88000   1
   1   0  -4 -0.1100 0.88000   1
   1   0  -4 0.57000 0.71000   1
   2   0  -2 0.28000 1.01000   1
  -2   0   2 2.77000 0.99000   1
  -2   0   2 1.17000 0.70000   1
   1   1  -4 242.220 13.5800   1
  -1  -1   4 268.340 12.8800   1
   1   1  -4 246.790 14.3100   1
   1   1  -4 237.760 13.4000   1
   1   1  -4 241.700 14.2500   1
   1  -1  -4 199.020 10.8300   1
  -1   1   4 182.680 9.06000   1
   1  -1  -4 199.150 10.9800   1
  -2  -1   2 358.900 20.4600   1
  -2  -1   2 316.110 18.2200   1
   2  -1  -2 354.380 21.6400   1
  -2   1   2 345.050 20.8600   1
  -2   1   2 298.380 17.6700   1
  -1  -7   2 396.100 31.7800   1
  -1  -7   2 417.650 33.1200   1
  -1  -7   2 394.550 29.9400   1
   1   7  -2 352.710 23.8100   1
   1  -7  -2 209.330 15.8200   1
   1  -7  -2 197.330 15.6900   1
   1  -7  -2 197.860 15.1700   1
   2   3   1 42.3500 2.21000   1
  -2  -3  -1 53.7600 3.01000   1
  -2  -3  -1 51.2600 2.99000   1
  -2  -3  -1 44.1800 3.41000   1
   2   3   1 45.6400 2.34000   1
  -2   3  -1 40.9000 2.56000   1
  -2   3  -1 44.1500 3.70000   1
  -2   3  -1 41.6600 2.68000   1
   2  -3   1 46.3700 3.10000   1
   2  -3   1 46.0200 3.63000   1
   2  -3   1 44.0500 3.07000   1
   0  -8   2 1074.18 139.440   1
   0   8  -2 1043.39 130.310   1
   0  -8   2 1213.50 157.890   1
   0  -8   2 1213.55 157.610   1
   0  -8  -2 811.620 90.9500   1
   0  -8  -2 800.510 97.0300   1
   0  -8  -2 942.350 102.630   1
   0  -8  -2 768.120 93.2500   1
  -1  -8   0 35.6400 3.70000   1
  -1  -8   0 27.5700 3.50000   1
  -1  -8   0 20.7500 2.55000   1
   1  -8   0 28.0600 3.85000   1
   1  -8   0 25.4600 3.53000   1
   1  -8   0 19.8800 3.78000   1
   0   4  -4 1609.67 262.140   1
   0  -4   4 1687.31 268.050   1
   0  -4   4 1832.70 299.890   1
   0  -4   4 1817.79 298.550   1
   0   4  -4 1873.50 298.980   1
  -1  -2   4 948.430 93.9300   1
   1   2  -4 942.580 102.330   1
   1   2  -4 927.380 100.670   1
   1   2  -4 1077.60 116.720   1
   1   2  -4 972.290 106.450   1
   0  -4  -4 1113.69 140.930   1
   0  -4  -4 1134.50 143.570   1
   0  -4  -4 1092.24 138.700   1
  -1   2   4 769.540 66.5900   1
  -1   2   4 763.220 65.9200   1
  -1   2   4 634.960 57.3200   1
   1  -2  -4 675.070 60.8600   1
   1  -2  -4 725.140 66.0100   1
   1  -2  -4 658.620 56.9700   1
   1  -5   3 183.660 10.3500   1
   1  -5   3 185.200 11.7400   1
   1  -5   3 174.730 11.6500   1
  -1   5  -3 151.960 9.63000   1
  -1  -5  -3 149.540 10.3200   1
  -1  -5  -3 155.310 9.56000   1
  -1  -5  -3 154.360 9.53000   1
  -2  -2   2 0.86000 0.56000   1
  -2  -2   2 0.41000 0.88000   1
  -2   2   2 0.86000 0.69000   1
  -2   2   2 -0.4500 0.32000   1
  -2   2   2 0.20000 0.33000   1
   2  -2  -2 0.64000 1.10000   1
  -2  -4   0 138.000 7.20000   1
   2   4   0 118.240 5.34000   1
   2   4   0 115.180 5.00000   1
  -2  -4   0 145.130 6.62000   1
  -2  -4   0 138.910 6.27000   1
   2  -4   0 119.110 6.44000   1
   2  -4   0 118.400 6.35000   1
   2  -4   0 138.370 8.35000   1
  -2   4   0 132.790 6.68000   1
  -2   4   0 132.720 6.64000   1
   0  -9   0 -0.6400 2.02000   1
   0  -9   0 0.75000 1.99000   1
   0  -9   0 1.60000 2.43000   1
  -2  -4   1 207.880 11.7600   1
  -2  -4   1 202.530 11.5300   1
   2   4  -1 176.860 8.81000   1
   2   4  -1 164.290 7.44000   1
   2   4  -1 175.750 8.12000   1
  -2  -4   1 177.930 9.39000   1
  -2   4   1 164.090 9.24000   1
  -2   4   1 163.410 9.25000   1
   2  -4  -1 148.250 8.33000   1
   2  -4  -1 150.750 8.31000   1
   2  -4  -1 154.730 9.01000   1
  -1  -8   1 833.670 91.2600   1
  -1  -8   1 888.780 97.2400   1
   1   8  -1 806.610 85.8500   1
  -1  -8   1 866.100 94.9300   1
   1  -8  -1 545.370 49.7600   1
   1  -8  -1 581.850 54.7800   1
   1  -8  -1 474.230 45.9500   1
   1  -7   2 116.120 8.02000   1
   1  -7   2 137.030 9.84000   1
   1  -7   2 126.610 9.66000   1
  -1  -7  -2 108.650 6.85000   1
  -1  -7  -2 117.410 7.90000   1
  -1  -7  -2 99.4300 6.68000   1
  -1   0  -4 0.50000 1.46000   1
  -1   0  -4 -0.6300 1.50000   1
  -1   0  -4 3.03000 1.46000   1
  -2   0  -2 46.5800 3.10000   1
  -2   0  -2 44.3300 3.03000   1
  -2   0  -2 44.3300 4.00000   1
   2   0   2 47.2200 3.59000   1
   0  -9   1 1271.48 186.370   1
   0  -9   1 1341.22 196.930   1
   0  -9   1 1330.61 194.830   1
   0  -9  -1 1394.21 206.820   1
   0  -9  -1 1151.42 178.430   1
   0  -9  -1 1283.86 192.000   1
   0  -9  -1 1379.03 204.360   1
   0  -7   3 337.190 25.7500   1
   0  -7   3 356.710 25.0500   1
   0  -7   3 331.200 25.1300   1
  -1  -6   3 148.500 8.29000   1
   1   6  -3 119.770 4.81000   1
  -1  -6   3 148.730 9.30000   1
  -1  -6   3 130.950 7.69000   1
  -1  -8  -1 431.680 34.0900   1
  -1  -8  -1 422.300 33.7500   1
  -1  -8  -1 430.530 34.5100   1
   0  -7  -3 193.800 13.4700   1
   0  -7  -3 199.880 13.5600   1
   0  -7  -3 191.150 15.3000   1
   1  -8   1 458.380 38.3200   1
   1  -8   1 438.590 40.2200   1
   1  -8   1 420.940 39.4000   1
   1  -6  -3 51.9900 3.69000   1
   1  -6  -3 56.5300 3.81000   1
   1  -6  -3 48.6600 4.46000   1
  -1  -3   4 518.500 39.5500   1
   1   3  -4 495.800 37.4800   1
   1   3  -4 473.700 36.1400   1
  -1  -3   4 508.240 38.5700   1
   1  -3  -4 316.670 20.3700   1
  -1   3   4 284.630 15.4800   1
  -1   3   4 303.470 16.9100   1
  -1   3   4 241.190 14.9200   1
   1  -3  -4 284.950 17.3200   1
   1  -3  -4 322.650 20.6600   1
   2   3  -2 350.910 18.8200   1
   2   3  -2 352.390 19.1200   1
  -2  -3   2 380.980 21.5600   1
  -2  -3   2 312.740 18.2100   1
  -2   3   2 274.600 13.1900   1
  -2   3   2 258.050 14.8800   1
  -2   3   2 284.060 13.5500   1
   2  -3  -2 268.750 15.3200   1
   2  -3  -2 278.560 15.9100   1
   2  -3  -2 256.590 14.5800   1
  -1   1  -4 138.230 8.83000   1
  -1   1  -4 176.380 9.94000   1
  -1   1  -4 141.380 8.75000   1
   1  -1   4 171.590 8.79000   1
  -1  -1  -4 139.780 8.64000   1
  -1  -1  -4 166.060 9.56000   1
  -1  -1  -4 155.850 9.73000   1
  -2  -1  -2 505.160 40.8000   1
  -2  -1  -2 467.680 34.5600   1
  -2  -1  -2 463.070 34.3400   1
   2   1   2 449.390 36.2800   1
  -2   1  -2 474.930 35.9400   1
  -2   1  -2 438.340 32.2200   1
  -2   1  -2 439.600 36.6500   1
   2  -1   2 445.780 35.3900   1
  -2  -4  -1 208.190 10.8900   1
  -2  -4  -1 180.880 11.2500   1
   2   4   1 191.360 9.93000   1
   2   4   1 180.530 9.19000   1
  -2  -4  -1 209.560 11.0100   1
  -2   4  -1 186.670 11.4300   1
   2  -4   1 166.200 9.18000   1
   2  -4   1 185.230 10.9800   1
   2  -4   1 164.200 9.05000   1
  -1   2  -4 868.190 93.5000   1
   1  -2   4 884.100 91.0300   1
  -1   2  -4 875.460 95.3800   1
  -1   2  -4 881.520 95.3500   1
  -1  -2  -4 725.550 70.7200   1
  -1  -2  -4 716.890 69.7900   1
  -1  -2  -4 819.040 81.0300   1
  -2  -2  -2 27.9100 2.37000   1
  -2  -2  -2 32.7900 2.93000   1
  -2  -2  -2 31.2500 2.53000   1
   2  -2   2 33.7200 3.43000   1
  -2   2  -2 22.2000 2.22000   1
  -2   2  -2 27.0500 2.97000   1
   0   5  -4 6.05000 0.97000   1
   0   5  -4 4.91000 1.41000   1
   0  -5   4 7.10000 2.08000   1
   0  -5   4 10.0400 2.09000   1
   0  -5   4 7.37000 1.29000   1
   0  -5  -4 5.31000 2.35000   1
   0  -5  -4 6.79000 1.97000   1
   0  -5  -4 7.23000 2.01000   1
  -2  -5   0 1020.23 106.590   1
  -2  -5   0 935.120 100.820   1
   2   5   0 851.340 90.0800   1
   2   5   0 856.810 90.6900   1
  -2  -5   0 1000.80 105.070   1
  -2   5   0 708.940 69.4700   1
  -2   5   0 744.270 72.5800   1
   2  -5   0 756.810 74.7200   1
   2  -5   0 754.410 72.2900   1
   2  -5   0 746.990 71.7100   1
   1  -6   3 5.70000 2.18000   1
   1  -6   3 3.22000 2.12000   1
   1  -6   3 7.21000 1.81000   1
  -1   6  -3 6.02000 1.60000   1
  -1  -6  -3 4.45000 1.56000   1
  -1  -6  -3 5.32000 1.58000   1
  -1  -6  -3 2.11000 2.07000   1
   2   5  -1 4.44000 0.86000   1
   2   5  -1 5.64000 0.83000   1
   2   5  -1 4.08000 0.96000   1
  -2  -5   1 4.36000 1.63000   1
  -2  -5   1 5.91000 1.63000   1
  -2  -5   1 3.30000 1.36000   1
   2  -5  -1 3.25000 1.60000   1
  -2   5   1 3.47000 0.99000   1
  -2   5   1 0.74000 0.95000   1
   2  -5  -1 3.05000 1.49000   1
   2  -5  -1 4.93000 1.50000   1
  -1  -4   4 -0.1100 1.33000   1
  -1  -4   4 -1.5200 1.08000   1
  -1  -4   4 0.64000 0.58000   1
   1  -4  -4 1.73000 1.02000   1
   1  -4  -4 -3.9600 1.44000   1
   1  -4  -4 -0.8800 1.02000   1
  -2  -4   2 5.96000 1.06000   1
  -2  -4   2 5.71000 0.73000   1
   2   4  -2 6.92000 0.87000   1
   2   4  -2 3.81000 0.83000   1
   2   4  -2 3.32000 0.83000   1
  -2  -4   2 6.21000 1.06000   1
  -2  -4   2 7.27000 1.03000   1
   2  -4  -2 6.06000 1.50000   1
  -2   4   2 6.08000 0.71000   1
  -2   4   2 5.65000 0.70000   1
   2  -4  -2 7.23000 1.51000   1
   2  -4  -2 7.54000 1.44000   1
   1  -3   4 273.870 18.3800   1
  -1   3  -4 245.280 16.4400   1
   1  -3   4 263.350 17.7900   1
   1  -3   4 233.900 14.3700   1
  -1  -3  -4 210.370 14.0700   1
  -1  -3  -4 235.610 15.3100   1
  -1  -3  -4 218.720 14.6500   1
  -2  -3  -2 482.740 35.3100   1
  -2  -3  -2 475.770 34.5200   1
  -2  -3  -2 415.850 33.7700   1
  -2   3  -2 523.910 39.9300   1
   2  -3   2 437.470 32.8100   1
   2  -3   2 404.440 34.2500   1
   2  -3   2 433.200 32.5000   1
   1   8  -2 4.59000 1.00000   1
  -1  -8   2 3.28000 2.01000   1
  -1  -8   2 4.24000 2.39000   1
  -1  -8   2 7.16000 2.02000   1
   1  -8  -2 3.20000 2.23000   1
   1  -8  -2 0.23000 2.51000   1
   1  -8  -2 5.81000 2.47000   1
   2   0  -3 0.08000 0.76000   1
  -2   0   3 -0.3500 0.85000   1
  -2   0   3 0.45000 0.53000   1
  -2  -1   3 0.72000 0.55000   1
  -2  -1   3 0.45000 0.75000   1
   2  -1  -3 0.80000 0.89000   1
   2  -1  -3 -0.0400 0.43000   1
  -2   1   3 0.70000 0.62000   1
   2  -1  -3 0.41000 0.46000   1
  -2  -5  -1 0.91000 1.17000   1
  -2  -5  -1 1.20000 1.20000   1
  -2  -5  -1 0.52000 1.44000   1
   2  -5   1 0.48000 1.72000   1
   2  -5   1 1.99000 1.31000   1
  -2   5  -1 -1.5300 1.68000   1
   2  -5   1 2.41000 1.27000   1
   0  -9   2 19.0900 3.44000   1
   0  -9   2 21.2600 3.42000   1
   0  -9   2 25.1900 3.24000   1
   0  -9  -2 19.9700 4.36000   1
   0  -9  -2 17.5100 3.06000   1
   0  -9  -2 23.6400 3.13000   1
   0  -9  -2 20.3100 4.20000   1
  -1  -9   0 319.150 24.4000   1
  -1  -9   0 396.080 31.9300   1
  -1  -9   0 381.830 31.3100   1
   1  -9   0 241.240 21.1300   1
   1  -9   0 315.790 23.8700   1
   1  -9   0 244.630 21.4500   1
   1   7  -3 431.310 29.5200   1
  -1  -7   3 505.040 40.1900   1
  -1  -7   3 526.580 41.3800   1
  -1  -7   3 472.510 36.6000   1
   1  -7  -3 170.250 13.7100   1
   1  -7  -3 223.540 14.5000   1
   1  -7  -3 224.900 14.5800   1
   1  -8   2 57.4700 5.84000   1
   1  -8   2 62.7300 5.94000   1
   1  -8   2 68.0900 5.12000   1
  -1  -8  -2 51.8500 4.20000   1
  -1  -8  -2 43.3600 3.44000   1
  -1  -8  -2 43.1800 3.49000   1
   2   2  -3 692.590 49.2600   1
   2   2  -3 695.320 49.3300   1
   2   2  -3 519.450 36.3900   1
  -2   2   3 901.730 92.5600   1
  -2   2   3 955.210 98.0500   1
  -2   2   3 1093.36 122.030   1
   2  -2  -3 1008.87 112.850   1
   2  -2  -3 969.550 108.610   1
   2  -2  -3 1330.08 142.160   1
   0 -10   0 142.210 11.0000   1
   0 -10   0 104.970 8.92000   1
   0 -10   0 121.280 9.42000   1
  -1  -9   1 107.270 7.86000   1
  -1  -9   1 96.3800 7.60000   1
  -1  -9   1 104.220 7.63000   1
   0  -8   3 96.7600 7.39000   1
   0  -8   3 98.9600 7.40000   1
   0  -8   3 87.0900 6.49000   1
   1  -9  -1 67.8700 6.71000   1
   1  -9  -1 69.0400 5.85000   1
   1  -9  -1 53.9200 5.79000   1
   0  -8  -3 41.1100 3.87000   1
   0  -8  -3 53.2200 6.04000   1
   0  -8  -3 42.2100 3.89000   1
   0  -6   4 35.9500 3.15000   1
   0  -6   4 29.9100 3.00000   1
   0   6  -4 22.6500 1.82000   1
   0   6  -4 23.1700 1.69000   1
   0  -6   4 27.4300 2.29000   1
   0  -6  -4 17.5000 2.34000   1
   0  -6  -4 17.4600 2.32000   1
   0  -6  -4 17.4900 2.98000   1
   0   0   5 -0.3900 0.93000   1
   0   0  -5 -2.1500 1.41000   1
  -2  -6   0 16.2200 1.71000   1
  -2  -6   0 12.1600 1.82000   1
   2   6   0 11.6700 1.04000   1
   2   6   0 10.7700 1.08000   1
  -2  -6   0 11.4900 1.71000   1
  -1   4  -4 62.4700 4.33000   1
   1  -4   4 63.4800 4.72000   1
   1  -4   4 60.7900 4.00000   1
   1  -4   4 65.7800 4.68000   1
  -1  -4  -4 45.7900 3.52000   1
  -1  -4  -4 46.9600 3.59000   1
  -1  -4  -4 46.4400 4.19000   1
   2  -6   0 10.6300 2.24000   1
   2  -6   0 13.1500 1.81000   1
   2  -6   0 13.0400 2.39000   1
  -2  -4  -2 87.2200 6.11000   1
  -2  -4  -2 94.9400 5.18000   1
  -2  -4  -2 90.9600 5.17000   1
   2  -4   2 67.3600 5.12000   1
   2  -4   2 78.4300 4.77000   1
  -2   4  -2 85.4200 5.91000   1
   2  -4   2 85.6700 4.93000   1
  -1  -5   4 974.160 105.540   1
  -1  -5   4 909.380 94.1000   1
  -1  -5   4 970.810 108.630   1
   1  -5  -4 358.730 28.3600   1
   1  -5  -4 415.360 30.2000   1
   1  -5  -4 417.260 30.1100   1
   0   1  -5 444.140 33.7400   1
   0   1  -5 429.950 30.4200   1
   0   1  -5 431.110 32.4600   1
   0   1  -5 434.260 28.5300   1
   0  -1   5 383.050 25.7500   1
   0  -1  -5 311.820 21.7400   1
   0  -1  -5 380.280 23.1900   1
   0  -1  -5 313.520 21.6000   1
   0  -1  -5 398.790 26.9000   1
   2   5  -2 434.000 28.1600   1
  -2  -5   2 384.100 25.8300   1
  -2  -5   2 416.840 28.4500   1
  -2  -5   2 421.670 27.2800   1
   2   5  -2 430.440 27.6700   1
  -2  -5   2 401.920 27.7000   1
   2   5  -2 358.070 23.8500   1
  -2   5   2 226.590 13.0900   1
  -2   5   2 243.500 13.8800   1
   2  -5  -2 265.330 16.7600   1
   2  -5  -2 281.250 16.9500   1
   2  -5  -2 283.670 18.6000   1
  -1  -9  -1 248.880 18.2000   1
  -1  -9  -1 247.530 18.0200   1
  -1  -9  -1 263.910 18.1800   1
   1  -9   1 254.570 22.5100   1
   1  -9   1 291.670 23.7800   1
   1  -9   1 287.140 21.9000   1
   2   6  -1 825.970 84.6100   1
  -2  -6   1 973.150 103.620   1
  -2  -6   1 900.450 92.9600   1
  -2  -6   1 963.030 101.600   1
   2   6  -1 763.920 80.8300   1
   2   6  -1 808.140 82.7500   1
   2  -6  -1 716.090 61.3800   1
  -2   6   1 505.350 45.5100   1
  -2   6   1 479.670 42.9100   1
   2  -6  -1 654.530 57.7900   1
   2  -6  -1 640.380 56.7900   1
   2   3  -3 23.4100 1.22000   1
   2   3  -3 21.7100 1.22000   1
  -2  -3   3 28.3800 1.22000   1
  -2   3   3 20.1500 0.87000   1
  -2   3   3 19.7300 0.85000   1
   2  -3  -3 25.0100 1.86000   1
   2  -3  -3 22.0600 2.10000   1
   2  -3  -3 24.8400 2.22000   1
  -2   3   3 18.1400 1.35000   1
   0 -10   1 2.77000 2.51000   1
   0 -10   1 8.03000 2.60000   1
   0 -10   1 0.83000 2.44000   1
   0 -10  -1 -0.2800 2.02000   1
   0 -10  -1 -3.1900 2.72000   1
   0 -10  -1 0.89000 2.53000   1
   0 -10  -1 -3.5100 2.50000   1
  -1   7  -3 320.070 22.0600   1
   1  -7   3 309.170 23.0500   1
   1  -7   3 378.040 28.0700   1
   1  -7   3 352.030 27.2400   1
  -1  -7  -3 248.310 19.0400   1
  -1  -7  -3 282.170 18.9300   1
  -1  -7  -3 276.370 18.9600   1
   0   2  -5 89.6700 3.82000   1
   0   2  -5 89.1800 5.33000   1
   0   2  -5 87.3800 5.47000   1
   0   2  -5 77.1700 4.30000   1
   0  -2   5 72.6600 3.23000   1
   0  -2  -5 64.5700 2.95000   1
   0  -2  -5 73.0300 5.00000   1
   0  -2  -5 60.3100 4.45000   1
   0  -2  -5 59.5800 4.60000   1
  -2  -6  -1 880.800 94.0600   1
  -2  -6  -1 863.280 92.8900   1
  -2  -6  -1 885.140 95.4200   1
   2  -6   1 691.310 65.7300   1
   2  -6   1 666.890 63.3900   1
   2  -6   1 740.520 72.1300   1
  -2   0  -3 0.15000 1.37000   1
  -2   0  -3 -1.4000 1.37000   1
  -2   0  -3 -0.6300 1.79000   1
   2   0   3 0.08000 1.50000   1
  -2  -1  -3 9.70000 1.70000   1
  -2  -1  -3 10.5300 1.71000   1
  -2  -1  -3 8.60000 2.16000   1
   2  -1   3 9.58000 1.92000   1
  -2   1  -3 7.32000 1.76000   1
  -2   1  -3 6.61000 2.25000   1
  -2   1  -3 11.5100 1.81000   1
   0  -3   5 408.060 28.2100   1
   0  -3   5 390.800 26.0500   1
   0   3  -5 431.400 30.3000   1
   0   3  -5 500.730 33.3200   1
   0   3  -5 447.780 34.6900   1
   0   3  -5 465.580 36.1100   1
   0  -3  -5 303.740 20.6900   1
   0  -3  -5 276.450 16.5500   1
   0  -3  -5 295.730 20.2200   1
   0  -3  -5 342.510 22.2300   1
   1  -5   4 238.350 14.0700   1
   1  -5   4 218.570 15.6500   1
   1  -5   4 228.590 15.8900   1
  -1   5  -4 246.020 15.0400   1
  -1  -5  -4 197.740 14.0300   1
  -1  -5  -4 203.990 13.3900   1
  -1  -5  -4 197.540 13.0200   1
  -2  -5  -2 266.490 18.7500   1
  -2  -5  -2 294.610 18.7100   1
  -2  -5  -2 285.690 18.4100   1
  -2   5  -2 254.640 17.0400   1
   2  -5   2 213.800 14.4300   1
   2  -5   2 238.630 15.7700   1
   2  -5   2 258.510 16.0400   1
  -2  -4   3 51.0800 2.08000   1
   2   4  -3 46.2700 2.20000   1
   2   4  -3 48.3100 2.27000   1
  -2  -4   3 49.3400 2.09000   1
  -2  -4   3 49.3900 2.17000   1
   2  -4  -3 34.2500 3.04000   1
   2  -4  -3 28.7000 2.83000   1
   2  -4  -3 35.6800 2.50000   1
  -2   4   3 34.1900 1.98000   1
  -2   4   3 27.5600 1.19000   1
  -2  -2  -3 398.540 29.2200   1
  -2  -2  -3 357.870 28.4900   1
  -2  -2  -3 415.670 30.4500   1
  -2   2  -3 413.430 31.4900   1
  -2   2  -3 353.490 26.0600   1
  -2   2  -3 334.040 24.6500   1
   2  -2   3 462.690 33.9200   1
   1   9  -2 159.780 9.22000   1
  -1  -9   2 222.080 15.0000   1
  -1  -9   2 230.460 15.3800   1
  -1  -9   2 196.960 12.9700   1
   1  -9  -2 116.500 10.3700   1
   1  -9  -2 107.970 10.0300   1
   1  -9  -2 126.060 10.1000   1
  -1   0   5 680.800 54.0600   1
   1   0  -5 653.020 54.4200   1
   1   0  -5 603.050 49.4600   1
   1   0  -5 501.730 46.7300   1
  -1  -6   4 477.270 39.0100   1
  -1  -6   4 486.830 39.8900   1
  -1  -6   4 480.650 35.2700   1
   1  -6  -4 196.760 12.0500   1
   1  -6  -4 148.270 11.7900   1
   1  -6  -4 201.490 12.1000   1
   1   1  -5 105.680 5.59000   1
   1   1  -5 92.5800 5.53000   1
  -1  -1   5 118.870 4.60000   1
   1   1  -5 100.330 6.10000   1
  -1   1   5 85.2600 3.79000   1
   1  -1  -5 60.9500 5.91000   1
   1  -1  -5 100.810 5.84000   1
   1  -1  -5 96.4500 5.64000   1
  -2  -6   2 2.46000 1.41000   1
  -2  -6   2 0.22000 1.08000   1
   2   6  -2 1.80000 0.84000   1
  -2  -6   2 1.53000 1.44000   1
   2   6  -2 0.81000 0.83000   1
   2   6  -2 2.13000 0.80000   1
   2  -6  -2 -0.7100 1.66000   1
  -2   6   2 0.35000 0.77000   1
  -2   6   2 1.47000 0.78000   1
   2  -6  -2 4.26000 1.46000   1
   2  -6  -2 1.16000 1.72000   1
  -1  -8   3 1012.33 122.820   1
  -1  -8   3 1128.99 137.810   1
   1   8  -3 936.010 108.650   1
  -1  -8   3 1137.89 141.640   1
   1  -8  -3 489.680 40.9600   1
   1  -8  -3 487.260 40.8200   1
   1  -8  -3 388.680 36.8200   1
   0  -7   4 45.4400 4.31000   1
   0   7  -4 48.4700 3.16000   1
   0  -7   4 55.3600 3.65000   1
   0  -7   4 51.3700 4.43000   1
   0  -7  -4 31.1300 3.34000   1
   0  -7  -4 29.9700 3.29000   1
   0  -7  -4 30.9900 4.26000   1
  -2  -7   0 602.540 54.3600   1
  -2  -7   0 612.350 53.4000   1
  -2  -7   0 609.430 55.0900   1
   2  -7   0 469.280 41.3600   1
   2  -7   0 522.820 46.5100   1
   2  -7   0 524.570 46.4400   1
   1  -9   2 382.880 32.6200   1
   1  -9   2 393.170 35.2500   1
   1  -9   2 399.570 35.9500   1
  -1  -9  -2 304.230 23.0700   1
  -1  -9  -2 307.440 23.6900   1
  -1  -9  -2 395.620 28.6400   1
   1   2  -5 4.11000 1.38000   1
  -1  -2   5 3.44000 0.50000   1
   1   2  -5 2.99000 1.38000   1
   1  -2  -5 4.90000 1.07000   1
   1  -2  -5 6.36000 1.47000   1
   1  -2  -5 7.12000 1.46000   1
   1  -2  -5 5.25000 2.17000   1
  -1   2   5 2.18000 0.90000   1
   2   7  -1 1.33000 0.83000   1
  -2  -7   1 6.84000 1.79000   1
  -2  -7   1 6.78000 1.44000   1
   2   7  -1 2.59000 0.82000   1
  -2  -7   1 7.30000 1.68000   1
   2  -7  -1 2.13000 1.89000   1
   2  -7  -1 4.70000 2.05000   1
   2  -7  -1 3.49000 2.01000   1
   0 -10   2 82.7900 7.27000   1
   0 -10   2 74.3500 6.56000   1
   0 -10   2 87.5300 7.12000   1
  -2  -3  -3 3.06000 1.41000   1
  -2  -3  -3 2.19000 1.35000   1
  -2  -3  -3 3.13000 1.79000   1
  -2   3  -3 0.19000 1.76000   1
   2  -3   3 0.29000 1.57000   1
   0 -10  -2 58.2400 5.71000   1
   0 -10  -2 52.0800 5.60000   1
   0 -10  -2 65.3000 7.45000   1
   0 -10  -2 71.7700 7.27000   1
  -1 -10   0 571.260 55.4800   1
  -1 -10   0 537.860 51.0800   1
  -1 -10   0 571.880 56.0700   1
   1 -10   0 379.260 34.7200   1
   1 -10   0 381.330 35.3800   1
   1 -10   0 389.860 35.6000   1
   0  -4   5 25.2400 2.94000   1
   0  -4   5 23.0100 2.07000   1
   0  -4   5 25.2300 2.74000   1
   0   4  -5 16.9200 1.24000   1
   0   4  -5 25.0500 2.09000   1
   0  -4  -5 20.3600 2.47000   1
   0  -4  -5 12.5800 2.13000   1
   0  -4  -5 13.8000 2.14000   1
   0  -9   3 963.460 112.140   1
   0  -9   3 808.330 91.9800   1
   0  -9   3 952.690 111.260   1
   0  -9  -3 499.060 46.7000   1
   0  -9  -3 553.970 55.7100   1
   0  -9  -3 502.820 46.7800   1
   0  -9  -3 569.480 57.1300   1
  -1 -10   1 63.7400 6.23000   1
  -1 -10   1 70.4400 5.17000   1
  -1 -10   1 69.1800 6.04000   1
  -1 -10   1 68.4200 6.52000   1
   1 -10  -1 48.0000 5.04000   1
   1 -10  -1 38.7800 4.79000   1
   1 -10  -1 42.5700 5.49000   1
   1  -8   3 156.960 11.3300   1
   1  -8   3 146.280 9.81000   1
   1  -8   3 149.470 11.0200   1
  -1   8  -3 132.080 8.42000   1
  -1  -8  -3 128.270 8.90000   1
  -1  -8  -3 121.980 8.50000   1
  -1  -8  -3 117.610 8.52000   1
   2   5  -3 1.10000 0.80000   1
  -2  -5   3 0.50000 0.85000   1
  -2  -5   3 -0.3300 0.50000   1
   2   5  -3 0.10000 0.79000   1
  -2  -5   3 -0.0200 1.00000   1
  -2  -5   3 0.16000 0.57000   1
   2  -5  -3 -1.1000 1.70000   1
   2  -5  -3 1.01000 1.44000   1
   2  -5  -3 -0.3900 1.37000   1
  -2   5   3 1.62000 0.56000   1
  -2   5   3 1.15000 0.56000   1
  -2  -7  -1 3.89000 1.77000   1
  -2  -7  -1 3.81000 1.45000   1
  -2  -7  -1 5.87000 1.48000   1
   2  -7   1 4.26000 2.05000   1
   2  -7   1 3.35000 1.81000   1
   2  -7   1 3.99000 1.80000   1
   1   3  -5 309.840 19.9300   1
   1   3  -5 318.650 21.3000   1
   1  -3  -5 199.580 11.3300   1
   1  -3  -5 211.860 14.1400   1
   1  -3  -5 212.060 14.0200   1
   1  -3  -5 209.370 16.2000   1
   1  -6   4 711.710 73.3500   1
  -1   6  -4 720.790 70.5600   1
   1  -6   4 716.220 73.5500   1
   1  -6   4 746.900 71.9900   1
  -1  -6  -4 626.150 59.2900   1
  -1  -6  -4 592.670 58.1700   1
  -1  -6  -4 628.120 59.1700   1
   2   0  -4 1.09000 0.66000   1
   2   0  -4 1.32000 0.71000   1
  -2   0   4 0.36000 0.54000   1
  -2   0   4 1.54000 0.74000   1
   2   0  -4 0.87000 0.73000   1
   2   0  -4 1.69000 0.64000   1
  -2  -6  -2 1.09000 1.61000   1
  -2  -6  -2 -1.9900 1.08000   1
  -2  -6  -2 -0.4300 1.13000   1
   2  -6   2 -2.6600 1.78000   1
   2  -6   2 0.70000 1.61000   1
  -2   6  -2 0.37000 1.71000   1
   2  -6   2 -1.7100 1.55000   1
   0 -11   0 2.71000 2.79000   1
   0 -11   0 1.77000 2.21000   1
   0 -11   0 1.51000 2.13000   1
  -1 -10  -1 18.9100 2.82000   1
  -1 -10  -1 15.9300 2.57000   1
  -1 -10  -1 13.5500 2.58000   1
   1 -10   1 14.1600 3.33000   1
   1 -10   1 13.4700 3.30000   1
   1 -10   1 12.9600 3.30000   1
  -2  -1   4 347.600 20.4500   1
   2   1  -4 344.260 20.7900   1
   2   1  -4 432.130 24.9200   1
   2   1  -4 415.870 23.9300   1
   2   1  -4 340.000 20.4800   1
  -2  -1   4 454.990 25.1500   1
  -2  -1   4 300.910 17.3200   1
  -2   1   4 311.020 18.1600   1
   2  -1  -4 313.970 18.3500   1
   2  -1  -4 357.840 21.0000   1
  -2   1   4 326.490 20.6300   1
   2  -1  -4 316.520 18.1000   1
   2  -1  -4 368.970 21.8800   1
  -1   0  -5 147.230 9.62000   1
  -1   0  -5 139.020 9.04000   1
  -1   0  -5 152.140 9.76000   1
  -1   1  -5 297.250 21.7400   1
  -1   1  -5 327.810 22.6600   1
  -1   1  -5 304.400 22.5300   1
  -1  -1  -5 257.860 17.9500   1
  -1  -1  -5 315.020 20.6500   1
  -1  -1  -5 256.270 17.9200   1
  -2  -4  -3 2.53000 1.64000   1
  -2  -4  -3 -0.3100 1.24000   1
  -2  -4  -3 -0.6300 1.24000   1
   2  -4   3 1.26000 1.64000   1
   2  -4   3 1.14000 1.48000   1
  -2   4  -3 -1.4600 1.72000   1
   2  -4   3 -0.7700 1.49000   1
  -2  -2   4 15.9700 0.71000   1
  -2  -2   4 20.0700 0.80000   1
   2   2  -4 17.6300 1.13000   1
   2   2  -4 16.8900 1.07000   1
   2   2  -4 17.5200 1.04000   1
   2   2  -4 14.8700 1.03000   1
  -2  -2   4 12.9100 0.68000   1
  -2   2   4 14.4800 1.11000   1
   2  -2  -4 17.1300 1.33000   1
   2  -2  -4 9.57000 1.34000   1
   2  -2  -4 12.0500 1.32000   1
  -2   2   4 13.5600 1.27000   1
   0 -11   1 255.940 20.7700   1
   0 -11   1 236.690 20.4000   1
   0 -11   1 245.920 20.5100   1
   0 -11  -1 253.500 22.4400   1
   0 -11  -1 260.130 23.2200   1
   0 -11  -1 233.600 21.6400   1
  -1  -7   4 408.260 28.7200   1
  -1  -7   4 395.900 29.9000   1
  -1  -7   4 407.360 30.8500   1
   1  -7  -4 147.120 9.11000   1
   1  -7  -4 136.400 9.63000   1
   1  -7  -4 156.110 9.42000   1
   0   5  -5 1282.99 171.210   1
   0  -5   5 1416.06 192.460   1
   0  -5   5 1259.08 163.620   1
   0  -5   5 1407.11 190.630   1
   0   5  -5 1151.35 158.390   1
  -2  -7   2 494.650 38.4200   1
  -2  -7   2 440.160 30.0500   1
  -2  -7   2 472.230 36.1400   1
   2   7  -2 357.340 25.7100   1
   0  -5  -5 752.660 77.5400   1
   0  -5  -5 733.510 76.5000   1
   0  -5  -5 776.820 82.3100   1
   2  -7  -2 260.020 20.7300   1
   2  -7  -2 246.570 20.6000   1
   2  -7  -2 284.830 18.8800   1
  -1   2  -5 53.3100 4.46000   1
  -1   2  -5 54.4000 4.29000   1
   1  -2   5 65.3800 4.38000   1
  -1   2  -5 53.8900 4.58000   1
  -1  -2  -5 33.0200 3.04000   1
  -1  -2  -5 35.1900 3.02000   1
  -1  -2  -5 37.3900 3.38000   1
  -1  -4   5 927.410 100.950   1
  -1  -4   5 910.370 99.8300   1
   1  -4  -5 518.310 43.9000   1
   1  -4  -5 483.890 39.6300   1
   1  -4  -5 441.690 36.7000   1
   1  -4  -5 504.960 45.3300   1
   0   8  -4 1187.88 148.260   1
   0  -8   4 1199.90 161.380   1
   0  -8   4 1138.48 145.620   1
   0  -8   4 1248.57 168.140   1
   0  -8  -4 672.580 69.3000   1
   0  -8  -4 672.290 69.3800   1
   0  -8  -4 706.030 74.6900   1
  -2  -8   0 29.4600 3.16000   1
  -2  -8   0 37.5500 2.82000   1
  -2  -8   0 31.1800 2.71000   1
   2  -8   0 30.0300 3.32000   1
   2  -8   0 27.5800 3.75000   1
   2  -8   0 28.7400 3.18000   1
   2   3  -4 370.230 23.8800   1
   2   3  -4 464.280 27.4500   1
   2   3  -4 393.360 25.6000   1
   2   3  -4 451.930 27.0200   1
  -2  -3   4 317.090 18.7900   1
  -2   3   4 299.100 15.7700   1
   2  -3  -4 359.580 19.6100   1
   2  -3  -4 311.930 18.7300   1
  -2   3   4 245.060 15.4900   1
  -2   3   4 235.420 12.6200   1
   2  -3  -4 312.260 18.6400   1
  -1 -10   2 525.400 49.6700   1
  -1 -10   2 571.170 52.9500   1
  -1 -10   2 506.800 46.5500   1
  -1  -9   3 93.7200 7.13000   1
  -1  -9   3 101.700 7.62000   1
  -1  -9   3 102.930 7.63000   1
   1 -10  -2 361.080 31.4100   1
   1 -10  -2 295.490 28.3400   1
   1 -10  -2 317.790 28.5800   1
   1  -9  -3 50.4800 5.11000   1
   1  -9  -3 40.3100 4.25000   1
   1  -9  -3 40.3500 4.30000   1
  -2  -8   1 76.4700 5.62000   1
  -2  -8   1 71.0900 4.52000   1
  -2  -8   1 81.0100 5.80000   1
   2   6  -3 1031.39 126.380   1
  -2  -6   3 1166.79 138.970   1
  -2  -6   3 1069.30 119.000   1
  -2  -6   3 1135.56 134.760   1
   2   6  -3 1041.28 128.460   1
   2  -8  -1 46.2800 4.42000   1
   2  -8  -1 49.1700 5.35000   1
   2  -8  -1 52.6400 4.68000   1
   2  -6  -3 710.070 68.3300   1
   2  -6  -3 667.590 68.4500   1
   2  -6  -3 699.850 71.0400   1
  -1   3  -5 407.500 32.4100   1
  -1   3  -5 392.700 30.1900   1
  -1   3  -5 392.240 31.7200   1
   1  -3   5 411.100 30.4600   1
  -1  -3  -5 329.730 24.6100   1
  -1  -3  -5 344.990 25.8000   1
  -2  -5  -3 7.39000 1.88000   1
  -2  -5  -3 12.8300 2.27000   1
  -2  -5  -3 11.4200 1.80000   1
  -2   5  -3 8.25000 2.37000   1
   2  -5   3 7.18000 1.98000   1
   2  -5   3 12.8100 2.18000   1
   2  -5   3 10.9800 2.01000   1
   1  -7   4 60.1000 4.12000   1
  -1   7  -4 51.5900 3.98000   1
   1  -7   4 61.5700 5.53000   1
   1  -7   4 66.0700 5.38000   1
  -1  -7  -4 38.3100 3.51000   1
  -1  -7  -4 39.5500 3.53000   1
  -1  -7  -4 49.7500 4.43000   1
  -2  -7  -2 374.180 27.8600   1
  -2  -7  -2 343.490 24.6600   1
  -2  -7  -2 343.550 24.7500   1
  -2   7  -2 328.700 24.5700   1
   2  -7   2 314.320 23.3800   1
   2  -7   2 277.060 21.4400   1
   2  -7   2 357.050 24.5000   1
   1 -10   2 242.180 21.6200   1
   1 -10   2 255.400 21.8700   1
   1 -10   2 253.830 20.5000   1
  -1 -10  -2 208.490 14.7900   1
  -1 -10  -2 194.410 14.2000   1
  -1 -10  -2 188.660 14.1400   1
  -2  -8  -1 71.9200 5.00000   1
  -2  -8  -1 69.3300 5.05000   1
  -2  -8  -1 71.3100 5.06000   1
   2  -8   1 65.3100 5.55000   1
   2  -8   1 71.8200 5.70000   1
   2  -8   1 73.6200 5.99000   1
   0 -10   3 36.9900 3.61000   1
   0 -10   3 42.0700 4.52000   1
   0 -10   3 37.6100 4.62000   1
   0 -10  -3 26.4000 4.99000   1
   0 -10  -3 21.5700 3.58000   1
   0 -10  -3 24.0900 3.59000   1
   0 -10  -3 32.1300 5.08000   1
   1  -9   3 168.180 12.9100   1
   1  -9   3 161.760 12.9900   1
   1  -9   3 150.110 10.9900   1
  -1  -5   5 236.190 14.0900   1
  -1  -5   5 241.260 15.5400   1
  -1  -5   5 231.330 10.6700   1
  -1  -9  -3 114.370 8.43000   1
  -1  -9  -3 112.890 8.43000   1
  -1  -9  -3 162.540 10.4500   1
   0  -6   5 102.270 6.98000   1
   0   6  -5 92.4700 5.43000   1
   0  -6   5 104.760 6.93000   1
   0  -6   5 89.8800 4.95000   1
   1  -5  -5 134.730 9.72000   1
   1  -5  -5 100.820 6.32000   1
   1  -5  -5 96.0100 6.42000   1
   1  -5  -5 103.910 6.26000   1
   0  -6  -5 64.1100 5.26000   1
   0  -6  -5 55.4700 4.73000   1
   0  -6  -5 52.3100 4.75000   1
  -2  -4   4 1.07000 0.44000   1
   2   4  -4 0.60000 0.77000   1
   2   4  -4 2.05000 0.75000   1
   2  -4  -4 0.35000 1.32000   1
   2  -4  -4 -0.2700 0.98000   1
   2  -4  -4 -1.8600 1.29000   1
  -2   4   4 -0.2600 0.55000   1
  -2   4   4 0.07000 0.57000   1
  -2   4   4 0.84000 0.86000   1
   0 -11   2 0.05000 2.34000   1
   0 -11   2 -6.7200 2.26000   1
   0 -11   2 2.09000 2.25000   1
   0 -11  -2 1.97000 2.65000   1
   0 -11  -2 2.13000 2.65000   1
   0 -11  -2 -1.7200 2.69000   1
   0 -11  -2 -2.1800 2.88000   1
  -1 -11   0 9.52000 2.94000   1
  -1 -11   0 15.0600 2.92000   1
  -1 -11   0 18.7100 2.87000   1
   1 -11   0 10.1800 3.10000   1
   1 -11   0 2.85000 3.10000   1
   1 -11   0 7.42000 3.19000   1
  -2   0  -4 98.5100 6.69000   1
   2   0   4 88.9000 6.50000   1
  -2   0  -4 100.380 6.64000   1
  -2   0  -4 87.4300 6.84000   1
  -1   4  -5 90.5100 6.27000   1
   1  -4   5 98.1400 6.29000   1
  -1  -4  -5 60.0600 4.48000   1
  -1  -4  -5 64.4600 5.06000   1
  -1  -4  -5 56.7100 4.51000   1
  -2   1  -4 286.950 21.7600   1
   2  -1   4 321.050 21.5000   1
  -2   1  -4 270.750 19.5100   1
  -2   1  -4 272.810 19.8300   1
  -2  -1  -4 251.910 17.7600   1
  -2  -1  -4 260.900 18.0000   1
  -2  -1  -4 321.060 21.9800   1
  -1 -11   1 436.610 39.3700   1
  -1 -11   1 396.970 36.0200   1
  -1 -11   1 423.600 37.4400   1
  -1 -11   1 387.990 32.4400   1
   1 -11  -1 247.390 20.5800   1
   1 -11  -1 256.350 21.3900   1
   1 -11  -1 241.750 22.3700   1
   1   8  -4 2.75000 0.57000   1
  -1  -8   4 5.46000 1.73000   1
  -1  -8   4 -0.9100 1.79000   1
  -1  -8   4 1.56000 1.38000   1
   1   8  -4 2.23000 0.63000   1
   1  -8  -4 1.48000 1.74000   1
   1  -8  -4 5.39000 1.82000   1
   1  -8  -4 3.51000 2.78000   1
  -2  -8   2 -0.3200 1.06000   1
   2   8  -2 0.84000 0.76000   1
  -2  -8   2 1.53000 1.62000   1
  -2  -8   2 2.12000 1.70000   1
   2  -8  -2 1.18000 1.96000   1
   2  -8  -2 -0.6300 2.11000   1
   2  -8  -2 0.73000 2.25000   1
  -2   2  -4 1.99000 2.09000   1
  -2   2  -4 1.03000 1.65000   1
  -2   2  -4 2.82000 1.64000   1
   2  -2   4 1.53000 1.74000   1
  -2  -2  -4 5.53000 1.82000   1
  -2  -2  -4 -2.1900 1.36000   1
  -2  -2  -4 -0.4500 1.35000   1
  -1 -11  -1 441.330 40.7900   1
  -1 -11  -1 386.870 33.5700   1
  -1 -11  -1 439.780 40.9700   1
   1 -11   1 342.990 33.4300   1
   1 -11   1 357.700 33.9000   1
   1 -11   1 423.910 35.7800   1
  -2  -6  -3 403.240 31.8700   1
  -2  -6  -3 392.000 30.9300   1
  -2  -6  -3 407.090 31.5900   1
   2  -6   3 356.140 28.0500   1
   2  -6   3 403.860 30.5700   1
   2  -6   3 418.670 31.7700   1
  -2   6  -3 373.650 30.7600   1
   2   7  -3 1.67000 0.93000   1
   2   7  -3 2.33000 1.03000   1
   2   7  -3 1.37000 0.54000   1
  -2  -7   3 2.24000 1.60000   1
  -2  -7   3 1.08000 1.38000   1
  -2  -7   3 2.06000 0.91000   1
   2  -7  -3 1.70000 2.07000   1
   2  -7  -3 2.22000 1.99000   1
   2  -7  -3 3.34000 2.08000   1
   0 -12   0 873.450 101.370   1
   0 -12   0 758.760 88.1000   1
   0 -12   0 755.680 88.8600   1
   0   0  -6 626.240 57.7100   1
   0   0  -6 564.240 50.2400   1
   0   0  -6 677.640 59.6400   1
   0   0  -6 645.760 59.5000   1
   0  -9   4 38.4600 4.13000   1
   0  -9   4 40.3300 4.30000   1
   0   9  -4 33.7500 2.42000   1
   0  -9   4 42.4900 4.03000   1
   0  -9  -4 27.2000 3.06000   1
   0  -9  -4 24.1100 4.80000   1
   0  -9  -4 18.3000 3.01000   1
  -3   0   0 -0.0400 0.85000   1
  -3   0   0 0.57000 0.76000   1
  -3   0   0 0.29000 0.92000   1
  -3   0   0 -0.4100 0.73000   1
  -3   0   0 0.56000 1.58000   1
   3   0   0 1.98000 1.62000   1
  -2  -9   0 92.3300 7.59000   1
  -2  -9   0 102.170 6.96000   1
  -2  -9   0 66.1400 4.59000   1
  -2  -5   4 594.610 48.8200   1
   2   5  -4 588.740 50.6500   1
   2   5  -4 626.440 53.5700   1
  -2  -5   4 593.340 47.1800   1
  -2  -5   4 567.130 47.7300   1
  -2  -5   4 636.130 51.4400   1
   2  -9   0 66.6700 5.92000   1
   2  -9   0 64.9300 6.21000   1
   2  -9   0 70.7500 6.30000   1
   2  -5  -4 353.420 26.2100   1
  -2   5   4 315.210 21.5200   1
   2  -5  -4 390.650 25.1000   1
   2  -5  -4 375.920 27.3500   1
   0   1  -6 13.0800 1.12000   1
   0   1  -6 30.8900 2.55000   1
   0   1  -6 11.5300 1.85000   1
   0  -1  -6 9.62000 1.67000   1
   0  -1  -6 13.7600 1.79000   1
   0  -1  -6 12.8000 1.77000   1
   0  -1  -6 10.0100 1.01000   1
  -2   3  -4 355.090 29.2700   1
   2  -3   4 471.250 36.3700   1
  -2   3  -4 346.260 28.5000   1
  -2   3  -4 449.180 35.6000   1
  -2  -3  -4 394.330 29.7200   1
  -2  -3  -4 345.560 26.6700   1
  -2  -3  -4 368.290 29.2900   1
  -3   0   1 551.490 48.8800   1
   3   0  -1 588.440 52.2700   1
  -3  -1   0 188.120 9.43000   1
   3   1   0 169.000 12.2600   1
  -3  -1   0 180.520 11.8800   1
  -3  -1   0 192.010 9.94000   1
   3  -1   0 184.700 11.2600   1
  -3   1   0 163.130 10.3800   1
  -3   1   0 122.110 7.12000   1
  -3   1   0 169.880 7.82000   1
  -3   1   0 121.270 6.94000   1
  -3   1   0 169.820 7.79000   1
  -1   5  -5 180.660 10.6900   1
   1  -5   5 148.920 11.0900   1
   1  -5   5 146.180 11.1700   1
   1  -5   5 160.850 9.18000   1
  -1  -5  -5 122.540 8.36000   1
  -1  -5  -5 122.810 8.35000   1
  -1  -5  -5 145.690 9.72000   1
  -3  -1   1 45.0900 3.31000   1
  -3   1   1 35.5000 1.41000   1
  -3   1   1 35.0300 1.38000   1
  -3   1   1 46.3200 3.28000   1
   3  -1  -1 44.1000 3.27000   1
  -1  -6   5 45.9100 3.82000   1
  -1  -6   5 37.5300 1.79000   1
  -1  -6   5 46.1500 3.92000   1
  -2  -9   1 11.2800 2.55000   1
  -2  -9   1 11.8500 2.43000   1
  -2  -9   1 12.3800 1.95000   1
   1  -6  -5 12.2400 2.81000   1
   1  -6  -5 22.4600 4.11000   1
   1  -6  -5 21.0800 2.41000   1
   1  -6  -5 25.2300 2.43000   1
   2  -9  -1 8.84000 2.57000   1
   2  -9  -1 9.25000 2.62000   1
   2  -9  -1 10.8700 2.97000   1
   0 -12   1 7.37000 2.99000   1
   0 -12   1 5.60000 2.90000   1
   0 -12   1 5.29000 2.85000   1
   0 -12  -1 7.71000 3.28000   1
   0 -12  -1 5.44000 2.64000   1
   0 -12  -1 2.68000 2.70000   1
   1  -8   4 37.2000 4.15000   1
   1  -8   4 36.2300 4.22000   1
   1  -8   4 32.2300 3.13000   1
  -1   8  -4 31.9900 2.85000   1
  -1  -8  -4 30.7400 3.11000   1
  -1  -8  -4 23.2900 3.46000   1
  -1  -8  -4 26.7000 3.10000   1
   0   2  -6 3.53000 1.71000   1
   0   2  -6 2.99000 1.31000   1
   0   2  -6 3.69000 0.79000   1
   0   2  -6 5.55000 1.79000   1
   0  -2  -6 4.54000 1.77000   1
   0  -2  -6 3.86000 1.91000   1
   0  -2  -6 3.28000 1.74000   1
  -2  -8  -2 10.8200 1.80000   1
  -2  -8  -2 12.9100 2.30000   1
  -2  -8  -2 8.52000 1.82000   1
   2  -8   2 5.90000 2.26000   1
   2  -8   2 8.78000 2.36000   1
   2  -8   2 10.9500 2.30000   1
  -2   8  -2 4.13000 2.50000   1
  -1 -10   3 198.800 14.2300   1
  -1 -10   3 239.140 18.0800   1
  -1 -10   3 243.110 18.6000   1
   1 -10  -3 107.940 10.5100   1
   1 -10  -3 106.760 10.8400   1
   1 -10  -3 131.700 11.2600   1
  -3  -2   0 214.450 13.4400   1
  -3  -2   0 198.960 10.1000   1
  -3  -2   0 203.220 10.3100   1
   0   7  -5 300.340 19.2500   1
   0  -7   5 309.240 21.9400   1
   0  -7   5 258.090 16.6400   1
   0  -7   5 314.040 22.3200   1
  -3   2   0 164.500 10.0400   1
  -3   2   0 215.880 13.9000   1
  -3   2   0 166.850 10.0600   1
  -3   2   0 225.450 11.7100   1
   3  -2   0 266.590 17.3600   1
  -3   2   0 214.430 11.2400   1
   0  -7  -5 130.350 9.08000   1
   0  -7  -5 137.600 9.55000   1
   0  -7  -5 154.330 11.1600   1
  -3  -2   1 3.93000 0.50000   1
  -3  -2   1 4.62000 0.50000   1
  -3   2   1 23.5300 2.51000   1
   3  -2  -1 27.5800 3.01000   1
  -3   2   1 19.4900 1.19000   1
  -3   2   1 20.2600 1.20000   1
  -1 -11   2 126.860 11.0800   1
  -1 -11   2 141.960 11.4400   1
  -1 -11   2 152.120 10.6900   1
   1 -11  -2 85.3400 8.74000   1
   1 -11  -2 89.2800 8.71000   1
   1 -11  -2 115.940 10.0200   1
  -2  -9  -1 1.35000 1.47000   1
  -2  -9  -1 2.20000 1.66000   1
  -2  -9  -1 0.89000 1.46000   1
   2  -9   1 -1.3400 2.11000   1
   2  -9   1 1.94000 2.29000   1
   2  -9   1 3.26000 2.10000   1
   3   0   1 321.800 24.5700   1
  -3   0  -1 301.900 18.9300   1
  -3   0  -1 310.880 19.4900   1
  -3   0  -1 305.180 23.2400   1
   2  -4   4 128.560 10.8900   1
  -2   4  -4 152.020 11.0100   1
  -2  -4  -4 110.280 7.88000   1
  -2  -4  -4 107.810 6.82000   1
  -2  -4  -4 94.5100 6.58000   1
  -3  -1  -1 79.8500 5.75000   1
  -3  -1  -1 80.6000 4.21000   1
   3   1   1 57.1300 4.51000   1
  -3  -1  -1 77.8800 4.13000   1
   3  -1   1 78.6000 6.01000   1
  -3   1  -1 80.5600 4.56000   1
  -3   1  -1 73.2200 4.39000   1
  -3   1  -1 75.9000 6.03000   1
   0   3  -6 38.4300 3.39000   1
   0   3  -6 33.2800 1.92000   1
   0   3  -6 39.5400 2.55000   1
   0   3  -6 39.5500 3.45000   1
   0  -3  -6 26.2500 2.90000   1
   0  -3  -6 34.0600 2.82000   1
   0  -3  -6 28.3800 2.93000   1
  -3  -3   0 300.720 18.2200   1
  -3  -3   0 296.690 19.9900   1
  -3  -3   0 310.940 18.6300   1
   3  -3   0 336.000 23.1400   1
  -3   3   0 248.950 17.2500   1
  -3   3   0 304.060 18.1900   1
  -3   3   0 260.550 17.8300   1
  -3   3   0 338.610 23.0000   1
   1   0  -6 0.36000 1.57000   1
   1   0  -6 -2.3700 1.34000   1
  -1   0   6 -1.7400 0.73000   1
   1   0  -6 3.00000 1.14000   1
   2   0  -5 0.83000 0.71000   1
   2   0  -5 1.76000 0.97000   1
  -2   0   5 -0.1800 0.52000   1
   2   0  -5 0.14000 0.69000   1
   2   0  -5 1.95000 0.97000   1
   1 -11   2 19.4500 4.14000   1
   1 -11   2 18.9300 3.79000   1
   1 -11   2 20.3700 4.24000   1
  -1 -11  -2 23.3100 3.18000   1
  -1 -11  -2 23.3000 3.09000   1
  -1 -11  -2 19.3300 3.51000   1
   3   0  -2 1.72000 1.52000   1
  -3   0   2 2.57000 1.45000   1
  -3  -3   1 27.8500 1.13000   1
  -3  -3   1 28.7200 1.16000   1
  -3   3   1 75.5900 4.95000   1
  -3   3   1 63.8500 3.18000   1
  -3   3   1 57.9900 3.04000   1
   3  -3  -1 92.3500 5.23000   1
   1 -10   3 1.19000 2.57000   1
   1 -10   3 -0.9400 2.51000   1
   1 -10   3 4.46000 2.09000   1
  -1 -10  -3 1.82000 1.78000   1
  -1 -10  -3 3.65000 2.27000   1
  -1 -10  -3 2.68000 1.81000   1
  -1  -1   6 354.440 20.6600   1
   1   1  -6 375.380 25.0500   1
   1   1  -6 246.130 17.9100   1
   1   1  -6 343.300 22.6600   1
   1  -1  -6 285.010 22.4500   1
   1  -1  -6 349.440 24.1400   1
  -1   1   6 264.240 16.8500   1
   1  -1  -6 359.880 25.1800   1
   2   1  -5 7.17000 0.90000   1
   2   1  -5 5.27000 1.00000   1
  -2  -1   5 4.84000 0.73000   1
   2   1  -5 5.33000 0.86000   1
   2   1  -5 7.00000 1.05000   1
  -2   1   5 2.45000 0.69000   1
   2  -1  -5 2.87000 0.91000   1
   2  -1  -5 1.85000 0.84000   1
   2  -1  -5 6.83000 1.09000   1
   2  -1  -5 9.72000 1.14000   1
  -2  -7  -3 17.5500 2.66000   1
  -2  -7  -3 13.4000 1.91000   1
  -2  -7  -3 9.64000 1.88000   1
   2  -7   3 12.1200 2.74000   1
   2  -7   3 15.0800 2.70000   1
  -2   7  -3 15.8700 2.78000   1
   2  -7   3 17.4600 2.79000   1
  -3  -1   2 112.380 6.51000   1
  -3   1   2 115.130 7.09000   1
   3  -1  -2 112.100 6.49000   1
  -3  -2  -1 10.4600 2.08000   1
  -3  -2  -1 11.0800 1.42000   1
  -3  -2  -1 10.6800 1.41000   1
  -2  -6   4 46.1300 3.04000   1
  -2  -6   4 51.0100 3.21000   1
   2   6  -4 51.3000 3.01000   1
   2   6  -4 50.4400 2.67000   1
  -2  -6   4 46.7900 3.26000   1
  -3   2  -1 13.2800 2.44000   1
   3  -2   1 10.9900 2.43000   1
  -3   2  -1 10.8200 1.60000   1
  -3   2  -1 9.69000 1.64000   1
   2  -6  -4 30.0400 3.85000   1
   2  -6  -4 27.6900 3.82000   1
   2  -6  -4 30.6600 2.86000   1
   0 -11   3 156.050 11.9700   1
   0 -11   3 199.190 15.4200   1
   0 -11   3 191.070 15.0100   1
   0 -11  -3 99.5700 9.36000   1
   0 -11  -3 122.160 11.8900   1
   0 -11  -3 102.610 9.26000   1
   0 -11  -3 125.640 11.9500   1
  -1  -9   4 850.030 86.1700   1
  -1  -9   4 728.560 73.0600   1
   1   9  -4 634.800 60.7200   1
  -1  -9   4 853.950 86.5800   1
   1  -9  -4 320.870 28.2900   1
   1  -9  -4 379.840 31.9400   1
   1  -9  -4 455.460 39.9100   1
  -2  -9   2 246.010 13.3300   1
  -2  -9   2 221.060 15.5600   1
  -2  -9   2 228.910 15.7500   1
   2   9  -2 187.590 10.6300   1
   2  -9  -2 153.200 13.7500   1
   2  -9  -2 179.970 13.3200   1
   2  -9  -2 153.370 12.5000   1
   1  -6   5 14.4300 2.79000   1
   1  -6   5 17.6500 2.54000   1
   1  -6   5 19.4800 2.85000   1
  -1   6  -5 17.3100 2.27000   1
  -1  -6  -5 16.7500 2.85000   1
  -1  -6  -5 13.7500 2.46000   1
  -1  -6  -5 12.1800 2.51000   1
  -2  -8   3 116.680 5.95000   1
  -2  -8   3 103.150 7.07000   1
  -2  -8   3 111.280 7.53000   1
   1   2  -6 287.580 18.8000   1
  -1  -2   6 244.810 12.1600   1
   1   2  -6 219.280 13.1500   1
   1   2  -6 283.650 17.4000   1
   2  -8  -3 61.5600 6.22000   1
   2  -8  -3 75.4000 5.46000   1
   2  -8  -3 51.8200 5.81000   1
   1  -2  -6 186.460 9.10000   1
   1  -2  -6 183.340 11.4300   1
   1  -2  -6 194.490 14.1600   1
   1  -2  -6 191.330 11.5100   1
   2   2  -5 551.010 46.9100   1
   2   2  -5 633.010 49.3300   1
   2   2  -5 505.240 44.1000   1
   2   2  -5 648.330 49.8800   1
   2  -2  -5 560.950 43.7700   1
   2  -2  -5 436.630 34.7800   1
   2  -2  -5 426.770 34.4500   1
   2  -2  -5 576.960 45.0700   1
   2  -2  -5 590.090 41.6100   1
  -3  -2   2 338.830 22.4200   1
   3  -2  -2 381.220 26.5700   1
  -3   2   2 287.720 20.2000   1
   0 -12   2 478.390 45.5800   1
   0 -12   2 481.870 46.9800   1
   0 -12   2 473.570 46.1800   1
   0 -12  -2 501.530 53.2200   1
   0 -12  -2 513.750 53.3700   1
   0 -12  -2 456.670 49.1000   1
   0 -12  -2 464.330 50.7800   1
  -1 -12   0 205.910 16.4200   1
  -1 -12   0 198.580 15.6900   1
  -1 -12   0 198.260 16.4500   1
  -1 -12   0 206.410 18.1700   1
   1 -12   0 175.550 16.5700   1
   1 -12   0 184.170 16.0700   1
   1 -12   0 178.030 16.6900   1
  -1  -7   5 1366.39 191.000   1
  -1  -7   5 1243.68 163.710   1
  -1  -7   5 1401.07 195.790   1
   1  -7  -5 578.650 52.7700   1
   1  -7  -5 542.710 53.1700   1
   1  -7  -5 570.810 52.6900   1
   0   4  -6 645.880 60.8200   1
   0  -4   6 616.090 51.8200   1
   0   4  -6 669.620 63.5600   1
   0   4  -6 659.420 57.1200   1
   0   4  -6 515.490 46.1400   1
   0  -4  -6 466.840 36.6000   1
   0  -4  -6 389.640 32.4500   1
   0  -4  -6 406.680 33.2100   1
  -3  -4   0 4.29000 1.07000   1
  -3  -4   0 2.38000 0.98000   1
  -3  -4   0 3.10000 1.45000   1
   3  -4   0 3.72000 1.18000   1
  -3   4   0 3.26000 1.86000   1
  -3   4   0 4.53000 1.22000   1
  -3   4   0 2.43000 1.13000   1
   3  -4   0 0.51000 0.98000   1
   3  -4   0 2.87000 2.04000   1
  -3  -3  -1 95.9900 6.62000   1
  -3  -3  -1 103.430 5.86000   1
  -3  -3  -1 101.350 6.01000   1
  -3   3  -1 106.210 7.35000   1
  -3   3  -1 80.6100 5.04000   1
  -3   3  -1 88.5100 5.38000   1
   3  -3   1 113.170 8.60000   1
   2  -5   4 205.190 14.9700   1
   2  -5   4 221.860 16.3600   1
  -2   5  -4 254.110 17.5500   1
   2  -5   4 216.500 15.7800   1
  -2  -5  -4 199.770 14.1900   1
  -2  -5  -4 212.190 14.7600   1
  -2  -5  -4 234.880 16.3700   1
  -3  -4   1 228.240 13.0100   1
  -3  -4   1 329.380 19.0600   1
  -3  -4   1 241.320 13.8600   1
   3  -4  -1 221.970 12.4100   1
  -3   4   1 272.720 17.5400   1
  -3   4   1 266.470 17.3300   1
  -3   4   1 325.350 20.6100   1
   3  -4  -1 252.920 14.3600   1
   3  -4  -1 334.540 21.3500   1
  -1 -12   1 364.920 33.7500   1
  -1 -12   1 419.050 38.7700   1
  -1 -12   1 411.030 37.8700   1
   1 -12  -1 282.600 28.1900   1
   1 -12  -1 336.120 30.2400   1
   1 -12  -1 290.290 28.6800   1
   1   3  -6 208.980 13.7200   1
   1   3  -6 234.840 14.6400   1
   1  -3  -6 135.310 8.93000   1
   1  -3  -6 134.910 8.96000   1
   1  -3  -6 139.410 7.80000   1
   1  -3  -6 175.180 12.5000   1
   2   3  -5 2.24000 0.95000   1
   2   3  -5 2.14000 0.76000   1
   2   3  -5 1.63000 0.78000   1
   2   3  -5 2.27000 0.92000   1
  -2   3   5 0.71000 0.71000   1
  -2   3   5 -0.5200 0.59000   1
   2  -3  -5 -0.0500 1.06000   1
   2  -3  -5 -0.8800 0.77000   1
   2  -3  -5 3.29000 1.26000   1
   0 -10   4 37.7000 4.29000   1
   0 -10   4 40.1700 4.49000   1
   0 -10   4 29.8900 4.38000   1
  -3  -3   2 108.570 5.64000   1
  -3   3   2 102.620 7.13000   1
   3  -3  -2 105.790 7.34000   1
   0 -10  -4 21.9700 4.73000   1
   0 -10  -4 19.7100 2.99000   1
   0 -10  -4 20.6500 3.03000   1
   0 -10  -4 24.4900 4.48000   1
   0  -8   5 31.9900 3.58000   1
   0   8  -5 21.7100 2.24000   1
   0  -8   5 25.3600 2.63000   1
   0  -8   5 26.6600 3.44000   1
   0  -8  -5 12.7500 2.63000   1
   0  -8  -5 11.9900 2.58000   1
   0  -8  -5 16.0900 3.41000   1
  -2 -10   0 19.5400 2.32000   1
  -2 -10   0 19.1500 2.84000   1
  -2 -10   0 17.1600 3.47000   1
   2 -10   0 13.7000 3.23000   1
   2 -10   0 17.4200 3.39000   1
   2 -10   0 12.7400 3.37000   1
  -1 -12  -1 546.770 54.2400   1
  -1 -12  -1 543.380 56.9100   1
  -1 -12  -1 515.940 55.2100   1
   1 -12   1 451.470 44.8100   1
   1 -12   1 490.470 49.1100   1
   1 -12   1 454.580 46.2400   1
   1  -9   4 165.420 10.8700   1
  -1   9  -4 133.540 8.88000   1
   1  -9   4 160.700 12.4300   1
   1  -9   4 168.410 12.3800   1
  -1  -9  -4 129.570 9.56000   1
  -1  -9  -4 105.320 8.40000   1
  -1  -9  -4 105.000 8.33000   1
  -2  -9  -2 103.650 6.93000   1
  -2  -9  -2 105.200 6.84000   1
  -2  -9  -2 143.420 8.68000   1
   2  -9   2 147.190 10.0800   1
   2  -9   2 124.470 9.28000   1
   2  -9   2 93.9400 8.46000   1
  -2 -10   1 937.140 110.170   1
  -2 -10   1 801.820 89.0200   1
  -2 -10   1 937.590 109.530   1
   2 -10  -1 534.220 56.6200   1
   2 -10  -1 727.990 72.4600   1
   2 -10  -1 543.820 57.4500   1
  -1   0  -6 1.37000 1.65000   1
  -1   0  -6 1.34000 1.65000   1
  -1   0  -6 -1.1400 1.70000   1
  -3   0  -2 -0.9200 1.89000   1
   3   0   2 -3.5900 1.97000   1
  -3   0  -2 -0.3300 1.33000   1
  -3   0  -2 -0.4800 1.27000   1
  -1   1  -6 84.3800 5.59000   1
  -1   1  -6 63.1300 5.72000   1
  -1   1  -6 71.2000 5.80000   1
  -1  -1  -6 66.9700 4.95000   1
  -1  -1  -6 56.1000 4.49000   1
  -1  -1  -6 56.7700 4.41000   1
  -3  -4  -1 433.700 36.0500   1
  -3  -4  -1 468.110 34.8400   1
  -3  -4  -1 455.820 34.6100   1
   3  -4   1 397.070 30.8200   1
   3  -4   1 441.270 37.0800   1
   3  -4   1 398.690 31.5200   1
  -3   4  -1 530.310 42.0900   1
  -3  -1  -2 325.030 23.1900   1
  -3  -1  -2 328.610 23.8000   1
  -3  -1  -2 288.630 23.8300   1
  -3   1  -2 277.660 21.9100   1
   3  -1   2 289.620 22.9100   1
  -3   1  -2 298.340 20.7600   1
  -3   1  -2 293.910 20.5800   1
   0 -13   0 -1.3800 2.67000   1
   0 -13   0 1.03000 2.82000   1
   0 -13   0 -2.1900 2.49000   1
  -2  -7   4 888.160 98.9400   1
  -2  -7   4 963.870 105.230   1
  -2  -7   4 923.980 102.790   1
   0  -5   6 8.36000 1.54000   1
   0   5  -6 5.56000 1.53000   1
   2  -7  -4 618.700 64.8400   1
   2  -7  -4 574.300 54.8400   1
   2  -7  -4 644.200 67.6300   1
   0  -5  -6 5.20000 2.01000   1
   0  -5  -6 8.11000 2.28000   1
   0  -5  -6 5.90000 1.97000   1
  -1 -11   3 384.840 33.3400   1
  -1 -11   3 315.780 26.1700   1
  -1 -11   3 395.340 33.6900   1
   1 -11  -3 197.330 20.1900   1
   1 -11  -3 219.870 20.9900   1
   1 -11  -3 246.270 20.6500   1
  -3  -5   0 189.680 12.0600   1
  -3  -5   0 172.560 9.46000   1
  -3  -5   0 150.990 9.08000   1
   3  -5   0 142.670 7.69000   1
   3  -5   0 181.510 11.5200   1
   3  -5   0 139.330 7.73000   1
  -3   5   0 183.620 11.3600   1
   1   4  -6 -0.4200 1.57000   1
   1   4  -6 1.04000 1.49000   1
  -2 -10  -1 858.820 94.8700   1
  -2 -10  -1 848.080 95.9900   1
  -2 -10  -1 840.240 93.8700   1
   1  -4  -6 2.01000 2.78000   1
   1  -4  -6 1.89000 1.43000   1
   1  -4  -6 1.32000 1.95000   1
   1  -4  -6 3.10000 2.00000   1
   2   4  -5 92.1900 4.52000   1
   2   4  -5 96.5800 4.70000   1
   2 -10   1 799.090 91.3300   1
   2 -10   1 828.700 94.2300   1
   2 -10   1 699.150 82.1100   1
  -1   7  -5 478.500 39.8200   1
   1  -7   5 468.590 40.3700   1
   1  -7   5 471.710 40.0000   1
   1  -7   5 409.890 32.9600   1
   2  -4  -5 45.8000 3.34000   1
   2  -4  -5 46.3600 3.37000   1
   2  -4  -5 68.0300 3.04000   1
  -1  -7  -5 308.950 25.3200   1
  -1  -7  -5 346.060 27.5400   1
  -1  -7  -5 319.160 26.1200   1
  -2  -8  -3 18.0600 2.92000   1
  -2  -8  -3 16.1900 2.35000   1
  -2  -8  -3 17.2800 2.40000   1
   2  -8   3 22.6000 3.28000   1
   2  -8   3 18.4500 3.13000   1
  -2   8  -3 20.0400 3.08000   1
   2  -8   3 16.0200 2.99000   1
  -1   2  -6 338.910 24.5400   1
  -1   2  -6 293.120 23.3500   1
  -1   2  -6 310.580 24.5400   1
  -1  -2  -6 323.100 23.1200   1
  -1  -2  -6 288.060 22.5800   1
  -1  -2  -6 275.590 21.4500   1
  -3  -4   2 11.5600 1.50000   1
   3   5  -1 13.1600 0.91000   1
   3   5  -1 14.3400 0.90000   1
   3  -4  -2 6.64000 0.80000   1
   3  -4  -2 11.4300 2.16000   1
  -3   4   2 11.3100 1.94000   1
   3  -4  -2 6.53000 0.82000   1
  -3   5   1 22.9600 1.72000   1
  -3   5   1 22.5600 1.73000   1
  -3   5   1 41.0500 3.24000   1
   3  -5  -1 32.8000 2.99000   1
   3  -5  -1 32.0500 1.98000   1
   3  -5  -1 32.1800 2.13000   1
  -3  -2  -2 125.040 8.11000   1
  -3  -2  -2 106.460 6.80000   1
  -3  -2  -2 103.080 6.80000   1
  -3   2  -2 95.4100 7.78000   1
  -3   2  -2 95.1900 6.39000   1
  -3   2  -2 97.3100 6.37000   1
   3  -2   2 103.030 7.70000   1
  -3   0   3 337.630 22.8900   1
   3   0  -3 368.080 25.9900   1
   0 -13   1 525.460 53.6900   1
   0 -13   1 478.110 50.3500   1
   0 -13   1 515.180 53.1500   1
   0 -13  -1 403.660 40.3400   1
   0 -13  -1 502.360 48.1000   1
   0 -13  -1 418.430 42.1500   1
   2  -6   4 16.3100 2.78000   1
  -2   6  -4 16.3100 2.98000   1
   2  -6   4 19.0300 2.85000   1
   2  -6   4 18.7200 2.86000   1
  -2  -6  -4 18.2000 2.67000   1
  -2  -6  -4 19.1400 2.67000   1
  -2  -6  -4 17.8100 2.85000   1
  -3  -1   3 158.060 8.21000   1
   3  -1  -3 166.130 10.1300   1
  -3   1   3 159.360 9.15000   1
  -1 -12   2 31.7700 3.83000   1
  -1 -12   2 25.8700 3.65000   1
  -1 -12   2 17.7100 3.81000   1
   1 -12  -2 18.3400 3.79000   1
   1 -12  -2 12.7800 4.24000   1
   1 -12  -2 15.6000 3.54000   1
  -1  -8   5 554.100 47.1500   1
  -1  -8   5 664.700 60.6700   1
  -1  -8   5 644.960 59.2000   1
  -2  -9   3 4.07000 2.01000   1
  -2  -9   3 3.34000 1.81000   1
  -2  -9   3 -0.8900 2.02000   1
  -2   0  -5 0.55000 1.95000   1
  -2   0  -5 -0.2100 1.69000   1
  -2   0  -5 1.70000 1.68000   1
   1  -8  -5 254.370 19.1100   1
   1  -8  -5 311.470 24.4100   1
   1  -8  -5 246.400 18.6900   1
   2  -9  -3 2.69000 2.15000   1
   2  -9  -3 2.51000 2.33000   1
   2  -9  -3 -0.0200 2.43000   1
   1  -3   6 166.090 9.91000   1
  -1   3  -6 161.050 12.0800   1
  -1   3  -6 187.510 11.9200   1
  -1   3  -6 157.860 11.7900   1
  -1  -3  -6 151.670 10.9600   1
  -1  -3  -6 159.580 11.3600   1
  -1  -3  -6 158.980 11.3300   1
  -1 -10   4 447.010 37.7700   1
  -1 -10   4 383.990 32.2000   1
  -1 -10   4 446.700 37.2500   1
  -3  -2   3 4.81000 1.09000   1
   3  -2  -3 1.43000 1.72000   1
  -3   2   3 2.34000 1.34000   1
   1 -10  -4 181.160 14.4900   1
   1 -10  -4 162.770 13.4700   1
   1 -10  -4 232.320 17.2500   1
   1 -11   3 376.030 35.0800   1
   1 -11   3 470.110 44.6600   1
   1 -11   3 461.360 43.3600   1
  -1 -11  -3 351.400 26.6400   1
  -1 -11  -3 283.140 23.2100   1
  -1 -11  -3 283.170 23.4100   1
  -2 -10   2 12.3800 2.83000   1
  -2 -10   2 13.0500 2.94000   1
  -2 -10   2 13.8700 2.29000   1
  -2   1  -5 69.5100 5.67000   1
  -2   1  -5 66.5800 5.52000   1
  -2   1  -5 74.4100 5.64000   1
   2  -1   5 64.2300 5.46000   1
  -2  -1  -5 63.6500 4.89000   1
  -2  -1  -5 70.8700 5.87000   1
  -2  -1  -5 59.0400 4.78000   1
   2 -10  -2 8.82000 2.99000   1
   2 -10  -2 9.82000 3.02000   1
   2 -10  -2 8.42000 2.70000   1
  -3  -3  -2 149.070 9.23000   1
  -3  -3  -2 146.290 9.27000   1
  -3  -3  -2 141.620 10.0100   1
   3  -3   2 184.520 12.4600   1
  -3   3  -2 113.700 6.97000   1
  -3   3  -2 130.040 8.19000   1
  -3   3  -2 133.520 10.0100   1
  -3  -5  -1 137.880 8.86000   1
  -3  -5  -1 124.560 7.88000   1
  -3  -5  -1 132.030 7.76000   1
   3  -5   1 108.070 6.38000   1
  -3   5  -1 119.900 8.67000   1
   3  -5   1 101.970 6.31000   1
   3  -5   1 120.850 8.60000   1
   1 -12   2 78.7000 7.50000   1
   1 -12   2 62.7200 7.96000   1
   1 -12   2 75.5200 8.32000   1
  -1 -12  -2 68.1300 6.01000   1
  -1 -12  -2 55.7100 5.78000   1
  -1 -12  -2 61.0100 5.77000   1
   2  -2   5 398.110 30.1600   1
  -2   2  -5 335.980 28.2000   1
  -2   2  -5 349.730 27.9500   1
  -2   2  -5 357.810 29.4400   1
  -2  -2  -5 424.870 33.9400   1
  -2  -2  -5 358.780 30.0900   1
  -2  -2  -5 345.990 28.9500   1
   1   5  -6 284.400 19.9500   1
   1   5  -6 286.400 20.4100   1
   1  -5  -6 135.170 8.56000   1
   1  -5  -6 107.580 8.33000   1
   1  -5  -6 130.840 8.49000   1
   1  -5  -6 177.070 12.2800   1
   2  -5  -5 21.8900 1.89000   1
   2  -5  -5 26.3000 2.51000   1
   2  -5  -5 27.0600 2.58000   1
   0 -12   3 29.6700 3.45000   1
   0 -12   3 25.4900 4.42000   1
   0 -12   3 20.6400 4.19000   1
   0 -12  -3 17.1800 3.83000   1
   0 -12  -3 25.9600 5.25000   1
   0 -12  -3 26.1500 4.94000   1
   0 -12  -3 23.5200 3.91000   1
  -3  -5   2 67.6000 2.60000   1
  -3  -5   2 67.4400 2.61000   1
   3  -5  -2 66.8700 3.36000   1
   3  -5  -2 90.2800 5.17000   1
   3  -5  -2 73.2300 3.54000   1
   0   6  -6 8.54000 1.60000   1
   0  -6   6 10.4300 2.58000   1
   0  -6   6 10.1800 2.46000   1
   0  -6   6 9.23000 1.48000   1
   0  -6  -6 6.79000 2.27000   1
   0  -6  -6 3.15000 2.12000   1
   0  -6  -6 3.90000 2.15000   1
  -3  -3   3 106.460 5.11000   1
  -3   3   3 96.8900 6.25000   1
   3  -3  -3 98.8900 6.30000   1
  -3  -6   0 31.1600 2.64000   1
  -3  -6   0 39.3600 3.08000   1
  -3  -6   0 36.1100 3.03000   1
   0   9  -5 1355.04 195.470   1
   0  -9   5 1426.34 208.220   1
   0  -9   5 1407.21 214.510   1
   0  -9   5 1402.43 213.510   1
  -3   6   0 41.3500 3.90000   1
   3  -6   0 41.8900 3.74000   1
   3  -6   0 35.4100 2.82000   1
   3  -6   0 32.8500 2.69000   1
   0  -9  -5 807.410 88.0300   1
   0  -9  -5 676.850 74.4700   1
   0  -9  -5 653.480 72.4000   1
  -3  -6   1 32.8300 2.78000   1
  -3  -6   1 21.3700 2.22000   1
  -3  -6   1 24.4900 2.49000   1
   3  -6  -1 29.9200 3.11000   1
   3  -6  -1 21.8900 1.86000   1
  -3   6   1 23.0200 3.20000   1
   3  -6  -1 25.1500 2.17000   1
   1  -4   6 14.3700 2.45000   1
  -1   4  -6 18.6300 2.95000   1
  -1   4  -6 20.0500 3.03000   1
  -1   4  -6 16.2500 2.84000   1
  -1  -4  -6 13.5200 2.88000   1
  -1  -4  -6 15.9000 2.51000   1
  -1  -4  -6 16.2400 2.43000   1
  -3  -4  -2 5.42000 2.40000   1
  -3  -4  -2 13.9300 2.13000   1
  -3  -4  -2 13.1600 2.14000   1
   3  -4   2 11.4400 2.50000   1
  -3   4  -2 9.96000 2.68000   1
  -2   3  -5 45.6700 4.09000   1
  -2   3  -5 14.6000 3.21000   1
   2  -3   5 41.0300 3.42000   1
  -2   3  -5 14.3500 3.34000   1
  -2  -3  -5 17.9600 2.83000   1
  -2  -3  -5 19.1500 2.99000   1
  -2  -3  -5 20.3700 3.20000   1
  -2  -8   4 12.8300 2.11000   1
  -2  -8   4 20.1000 2.37000   1
  -2  -8   4 21.6400 2.30000   1
   1 -10   4 591.080 52.8700   1
   1 -10   4 529.000 50.8300   1
  -1  10  -4 509.650 46.8600   1
   1 -10   4 503.090 48.7400   1
  -1 -10  -4 367.660 32.1800   1
  -1 -10  -4 489.000 40.0900   1
  -1 -10  -4 358.900 31.8300   1
   2  -8  -4 9.86000 2.94000   1
   2  -8  -4 6.53000 2.00000   1
   2  -8  -4 7.12000 2.82000   1
  -2 -10  -2 17.8800 2.92000   1
  -2 -10  -2 24.6000 2.69000   1
  -2 -10  -2 24.8300 2.74000   1
   2 -10   2 24.3300 3.86000   1
   2 -10   2 19.9000 3.87000   1
   2 -10   2 25.6500 3.78000   1
   0 -13   2 -0.5600 2.61000   1
   0 -13   2 4.56000 2.60000   1
   0 -13   2 1.33000 2.56000   1
   0 -13  -2 3.19000 3.19000   1
   0 -13  -2 5.60000 3.26000   1
   0 -13  -2 6.93000 3.65000   1
  -1 -13   0 168.280 14.8000   1
  -1 -13   0 136.880 12.1100   1
  -1 -13   0 169.340 13.1600   1
  -1 -13   0 147.560 12.5700   1
   1 -13   0 132.590 13.4700   1
   1 -13   0 133.250 12.9700   1
   1 -13   0 130.630 13.1600   1
   0 -11   4 43.8300 4.73000   1
   0 -11   4 30.6500 4.76000   1
   0 -11   4 41.6700 4.76000   1
   0 -11  -4 26.3100 5.31000   1
   0 -11  -4 18.9600 3.46000   1
   0 -11  -4 19.3600 3.47000   1
   0 -11  -4 28.3800 5.03000   1
  -2 -11   0 375.790 31.0200   1
  -2 -11   0 366.910 30.8300   1
  -2 -11   0 326.960 26.6700   1
   2 -11   0 238.200 22.2100   1
   2 -11   0 293.910 24.9900   1
   2 -11   0 276.830 24.3500   1
   1  -8   5 175.710 11.4500   1
  -1   8  -5 181.290 12.6500   1
   1  -8   5 164.310 12.8900   1
   1  -8   5 166.750 12.6200   1
  -1  -8  -5 103.110 7.82000   1
  -1  -8  -5 146.490 9.51000   1
  -1  -8  -5 100.110 7.81000   1
   2  -7   4 378.440 30.1800   1
   2  -7   4 386.760 30.7200   1
  -2   7  -4 355.030 29.2900   1
   2  -7   4 338.130 27.2600   1
  -2  -7  -4 391.390 32.3700   1
  -2  -7  -4 374.210 30.3900   1
  -2  -7  -4 370.320 30.6800   1
  -2 -11   1 6.57000 1.94000   1
  -2 -11   1 2.60000 1.74000   1
  -2 -11   1 3.59000 2.48000   1
   2 -11  -1 -1.4100 2.31000   1
   2 -11  -1 -1.0500 2.36000   1
   2 -11  -1 4.61000 2.81000   1
  -2  -9  -3 13.3200 2.29000   1
  -2  -9  -3 10.4100 2.34000   1
  -2  -9  -3 16.3200 2.70000   1
  -1 -13   1 89.6000 9.34000   1
  -1 -13   1 95.5000 8.92000   1
  -1 -13   1 98.6700 8.68000   1
   2  -9   3 18.6900 3.28000   1
  -2   9  -3 15.4000 3.13000   1
   2  -9   3 23.2900 3.39000   1
   2  -9   3 19.9900 3.17000   1
   1 -13  -1 70.0700 8.70000   1
   1 -13  -1 97.6400 9.75000   1
   1 -13  -1 76.5500 9.27000   1
  -3  -4   3 406.000 27.3600   1
   3  -4  -3 81.0400 2.02000   1
   3  -4  -3 48.1300 1.43000   1
  -3  -6  -1 84.2100 5.76000   1
  -3  -6  -1 89.3700 6.12000   1
  -3  -6  -1 87.4800 5.69000   1
   3  -6   1 74.9300 5.07000   1
   3  -6   1 77.4800 6.20000   1
   3  -6   1 77.1500 5.12000   1
  -3   6  -1 90.6500 6.50000   1
  -1 -13  -1 192.350 17.9500   1
  -1 -13  -1 193.890 16.0200   1
  -1 -13  -1 179.970 16.0800   1
  -1 -13  -1 175.310 16.3700   1
   1 -13   1 171.170 16.0100   1
   1 -13   1 164.360 15.6800   1
   1 -13   1 159.270 14.9700   1
  -1  -6   6 95.8200 7.44000   1
  -1  -6   6 90.8400 7.12000   1
  -2  -6   5 546.310 45.1600   1
  -2  -6   5 584.010 47.7900   1
   1  -6  -6 34.4200 3.48000   1
   1  -6  -6 56.2100 5.41000   1
   1  -6  -6 37.7100 4.31000   1
   1  -6  -6 29.8300 3.38000   1
   2  -6  -5 346.760 27.8100   1
   2  -6  -5 338.990 26.6100   1
   2  -6  -5 330.350 22.6200   1
  -3   0  -3 158.320 10.2300   1
  -3   0  -3 186.310 13.2900   1
   3   0   3 164.780 12.5900   1
  -3   0  -3 154.700 10.1100   1
  -3  -6   2 314.820 16.8500   1
  -3  -6   2 190.060 10.8600   1
   3  -6  -2 214.520 12.8000   1
   3  -6  -2 158.220 8.77000   1
   3  -6  -2 154.280 8.76000   1
  -2   4  -5 33.9700 3.74000   1
  -2   4  -5 23.6800 3.39000   1
  -2   4  -5 30.2000 3.50000   1
   2  -4   5 27.3400 3.10000   1
  -2  -4  -5 28.0300 3.69000   1
  -2  -4  -5 27.6900 3.04000   1
  -2  -4  -5 29.0400 3.05000   1
  -2 -11  -1 76.8000 5.70000   1
  -2 -11  -1 68.6900 5.72000   1
  -2 -11  -1 72.7400 5.65000   1
   2 -11   1 64.0200 7.48000   1
   2 -11   1 84.5800 7.89000   1
   2 -11   1 77.3300 7.51000   1
  -3  -1  -3 69.3600 5.05000   1
  -3  -1  -3 63.1600 4.23000   1
  -3  -1  -3 61.5700 5.53000   1
  -3   1  -3 72.8000 6.44000   1
  -3   1  -3 69.8700 4.91000   1
  -3   1  -3 77.9900 5.88000   1
   3  -1   3 67.1700 6.04000   1
  -1   5  -6 93.0400 8.07000   1
  -1   5  -6 99.8700 8.15000   1
  -1   5  -6 109.090 8.17000   1
   1  -5   6 104.760 6.67000   1
  -1  -5  -6 94.9300 6.59000   1
  -1  -5  -6 66.9100 5.66000   1
  -1  -5  -6 65.7300 5.85000   1
  -1  -9   5 25.4100 3.17000   1
  -1  -9   5 31.7400 3.34000   1
  -1  -9   5 24.9400 2.23000   1
   1  -9  -5 12.7900 3.92000   1
   1  -9  -5 18.7000 2.80000   1
   1  -9  -5 15.6300 2.78000   1
  -3  -5  -2 96.0900 6.25000   1
  -3  -5  -2 89.6100 6.21000   1
  -3  -5  -2 94.3800 6.94000   1
   3  -5   2 80.0600 5.26000   1
  -3   5  -2 95.1800 7.27000   1
   3  -5   2 74.7100 4.96000   1
   3  -5   2 85.6900 6.64000   1
  -1 -12   3 500.280 49.9900   1
  -1 -12   3 466.820 42.3500   1
  -1 -12   3 493.630 48.7500   1
   1 -12  -3 279.830 28.3700   1
   1 -12  -3 302.380 28.8200   1
   1 -12  -3 334.240 30.7500   1
   0  -7   6 2.11000 1.95000   1
   0  -7   6 1.66000 1.13000   1
   0  -7   6 -0.6900 1.94000   1
   0   7  -6 0.20000 1.22000   1
   0  -7  -6 -0.6000 1.74000   1
   0  -7  -6 -0.8700 1.70000   1
   0  -7  -6 0.57000 2.10000   1
  -3  -7   0 172.150 11.5400   1
  -3  -7   0 149.110 10.0000   1
  -3  -7   0 168.770 11.5100   1
  -2 -10   3 793.220 94.3800   1
  -2 -10   3 868.420 98.9600   1
  -2 -10   3 839.700 97.7300   1
  -3   7   0 145.500 10.7100   1
   3  -7   0 124.170 7.91000   1
   3  -7   0 146.570 10.3600   1
   3  -7   0 134.260 8.28000   1
   2 -10  -3 548.320 50.0700   1
   2 -10  -3 471.160 48.3900   1
   2 -10  -3 423.420 41.0900   1
  -3  -2  -3 0.49000 1.32000   1
  -3  -2  -3 -1.6000 1.37000   1
  -3  -2  -3 0.47000 1.90000   1
  -3   2  -3 2.23000 2.08000   1
  -3   2  -3 0.27000 1.51000   1
  -3   2  -3 -0.7700 1.79000   1
   3  -2   3 3.22000 2.02000   1
  -3  -7   1 161.210 9.51000   1
  -3  -7   1 135.450 8.87000   1
  -3  -7   1 134.400 9.06000   1
   3  -7  -1 99.2200 6.16000   1
   3  -7  -1 109.620 8.09000   1
   3  -7  -1 107.000 6.28000   1
   0 -14   0 621.510 63.0100   1
   0 -14   0 483.210 53.8300   1
   0 -14   0 513.120 56.6900   1
   2   0  -6 1.93000 1.25000   1
   2   0  -6 3.61000 1.27000   1
   0   0  -7 1.64000 1.45000   1
   0   0  -7 0.26000 1.51000   1
   0   0  -7 0.90000 1.48000   1
  -1 -11   4 141.410 10.6300   1
  -1 -11   4 111.780 8.77000   1
  -1 -11   4 129.730 10.4400   1
  -3  -5   3 203.220 10.4500   1
  -3   0   4 -1.7600 0.94000   1
   3  -5  -3 96.6900 4.63000   1
   3  -5  -3 88.4000 4.45000   1
   3  -5  -3 127.940 6.51000   1
   1 -11  -4 52.5700 5.76000   1
   1 -11  -4 73.4500 7.14000   1
   1 -11  -4 51.2000 5.76000   1
  -2 -11   2 340.500 29.7800   1
  -2 -11   2 311.680 26.4200   1
  -2 -11   2 369.050 26.8700   1
   2 -11  -2 258.000 21.4000   1
   2 -11  -2 215.610 19.3300   1
   2 -11  -2 217.600 19.1400   1
   2   1  -6 308.180 19.6200   1
   2   1  -6 290.890 19.1900   1
   2  -1  -6 249.280 16.8700   1
   2  -1  -6 284.690 18.1800   1
   0   1  -7 256.960 19.2100   1
   0   1  -7 272.020 19.5800   1
   0   1  -7 288.140 18.5300   1
   0  -1  -7 281.980 17.3600   1
   0  -1  -7 216.340 15.1100   1
   0  -1  -7 215.120 15.0200   1
  -3  -1   4 178.200 9.03000   1
  -3   1   4 163.880 8.78000   1
   3  -1  -4 173.350 9.73000   1
  -1 -13   2 308.130 24.9600   1
  -1 -13   2 284.430 25.7000   1
  -1 -13   2 274.210 25.3200   1
   1 -13  -2 192.700 18.4500   1
   1 -13  -2 188.310 17.3700   1
   1 -13  -2 241.040 21.5100   1
   1 -12   3 152.790 14.9000   1
   1 -12   3 154.220 12.7200   1
   1 -12   3 162.740 14.9700   1
  -1 -12  -3 102.720 8.89000   1
  -1 -12  -3 106.920 8.91000   1
  -1 -12  -3 110.580 9.93000   1
   0 -14   1 8.53000 2.98000   1
   0 -14   1 2.61000 3.09000   1
   0 -14   1 7.57000 3.35000   1
  -3  -3  -3 60.9300 5.02000   1
  -3  -3  -3 56.6000 4.86000   1
  -3  -3  -3 59.1500 5.27000   1
   0 -14  -1 2.27000 2.59000   1
   0 -14  -1 4.39000 3.42000   1
   0 -14  -1 4.22000 2.67000   1
  -3   3  -3 62.9200 4.96000   1
   3  -3   3 63.1200 5.32000   1
  -3   3  -3 53.8000 4.02000   1
  -3   3  -3 61.5000 5.64000   1
   0 -10   5 2.27000 2.27000   1
   0 -10   5 3.28000 1.96000   1
   0  10  -5 0.77000 1.21000   1
   0 -10   5 -0.6600 2.32000   1
  -2   5  -5 9.54000 2.68000   1
   2  -5   5 13.1300 2.84000   1
  -2  -5  -5 12.6800 2.88000   1
  -2  -5  -5 15.0900 2.44000   1
  -2  -5  -5 15.2000 2.40000   1
   0 -10  -5 -1.1900 3.07000   1
   0 -10  -5 1.00000 1.98000   1
   0 -10  -5 -0.1500 1.91000   1
   2   2  -6 1.88000 1.23000   1
   2   2  -6 1.23000 1.02000   1
   2  -2  -6 4.19000 1.20000   1
   2  -2  -6 0.15000 1.23000   1
   0   2  -7 41.7200 2.93000   1
   0   2  -7 42.3800 4.08000   1
   0   2  -7 35.2100 3.97000   1
   0  -2  -7 35.9000 3.59000   1
   0  -2  -7 32.9900 3.67000   1
   0  -2  -7 36.8900 2.78000   1
   2  -8   4 76.2100 6.27000   1
  -2   8  -4 57.3600 5.73000   1
   2  -8   4 79.1600 6.19000   1
   2  -8   4 63.1500 5.68000   1
  -2  -8  -4 52.0600 4.28000   1
  -2  -8  -4 50.3500 4.41000   1
  -2  -8  -4 71.6600 5.48000   1
  -3  -2   4 337.770 20.8900   1
   3  -2  -4 291.730 18.9900   1
  -3   2   4 294.070 18.6100   1
  -3  -7  -1 265.330 17.9400   1
  -3  -7  -1 255.260 17.6400   1
  -3  -7  -1 287.150 19.8700   1
  -2  -9   4 142.510 10.0800   1
  -2  -9   4 155.030 10.2300   1
  -2  -9   4 159.420 9.79000   1
   3  -7   1 238.810 17.5100   1
   3  -7   1 206.260 13.7800   1
   3  -7   1 246.430 16.6000   1
  -3   7  -1 246.320 18.1900   1
   2  -9  -4 80.6600 7.39000   1
   2  -9  -4 77.3500 8.60000   1
   2  -9  -4 93.8800 7.85000   1
   1  -9   5 88.3300 7.30000   1
   1  -9   5 75.2900 6.02000   1
  -1   9  -5 83.0900 6.39000   1
   1  -9   5 81.1700 7.40000   1
  -1  -9  -5 66.0000 5.77000   1
  -1  -9  -5 49.4300 4.99000   1
  -1  -9  -5 44.8100 4.89000   1
   1  -6   6 422.480 37.6200   1
   1  -6   6 440.510 35.3800   1
   1  -6   6 431.170 37.6700   1
  -1   6  -6 404.020 33.7200   1
  -1  -6  -6 289.770 23.3300   1
  -1  -6  -6 291.450 23.8000   1
  -1  -6  -6 312.550 24.4200   1
   1 -13   2 91.6600 9.83000   1
   1 -13   2 113.820 10.8300   1
   1 -13   2 99.9000 10.7700   1
  -1 -13  -2 98.1000 10.0600   1
  -1 -13  -2 96.3100 9.86000   1
  -1 -13  -2 90.0900 9.73000   1
  -1  -7   6 165.480 9.92000   1
  -1  -7   6 140.890 6.25000   1
  -1  -7   6 166.450 10.0300   1
  -2  -7   5 8.60000 1.57000   1
  -2  -7   5 2.40000 0.76000   1
  -2  -7   5 7.56000 1.55000   1
  -3  -6  -2 66.5200 4.63000   1
  -3  -6  -2 78.3600 5.77000   1
  -3  -6  -2 68.4500 4.65000   1
   1  -7  -6 57.1700 5.56000   1
   1  -7  -6 70.3200 5.95000   1
   1  -7  -6 104.170 8.66000   1
   1  -7  -6 73.5100 6.17000   1
  -3   6  -2 60.4600 5.76000   1
   3  -6   2 54.5600 3.97000   1
   3  -6   2 70.1800 4.97000   1
   3  -6   2 73.6700 5.77000   1
   2  -7  -5 1.45000 1.39000   1
   2  -7  -5 0.93000 2.05000   1
   2  -7  -5 1.98000 2.04000   1
  -3  -7   2 73.0500 4.09000   1
  -3  -7   2 71.6500 4.06000   1
  -3  -7   2 117.090 5.47000   1
   3  -7  -2 68.0800 4.63000   1
   3  -7  -2 58.4200 3.89000   1
   3  -7  -2 72.2100 5.25000   1
   0 -13   3 476.410 48.0100   1
   0 -13   3 573.830 59.9000   1
   0 -13   3 601.170 60.8000   1
   0 -13  -3 400.470 41.0700   1
   0 -13  -3 503.860 51.7500   1
   0 -13  -3 394.480 40.9200   1
   0 -13  -3 495.710 50.1500   1
   1 -11   4 6.37000 2.62000   1
   1 -11   4 5.35000 2.70000   1
  -1  11  -4 6.26000 1.80000   1
   1 -11   4 4.03000 2.58000   1
  -1 -11  -4 4.03000 2.04000   1
  -1 -11  -4 3.24000 2.56000   1
  -1 -11  -4 3.31000 2.08000   1
  -2 -11  -2 242.890 18.4700   1
  -2 -11  -2 258.350 18.6100   1
  -2 -11  -2 245.800 18.4900   1
   2 -11   2 285.630 25.7100   1
   2 -11   2 319.850 26.2200   1
   2 -11   2 259.230 23.7500   1
   2   3  -6 320.420 20.6700   1
   2   3  -6 303.090 19.2000   1
   1   0  -7 234.790 15.5200   1
   1   0  -7 150.100 11.6400   1
   1   0  -7 239.250 14.7400   1
   0   3  -7 98.6300 7.82000   1
   0   3  -7 98.6300 7.68000   1
   0   3  -7 104.890 6.39000   1
   2  -3  -6 207.920 13.5500   1
   2  -3  -6 203.650 13.6300   1
   0  -3  -7 87.0500 5.25000   1
   0  -3  -7 62.3800 5.17000   1
   0  -3  -7 64.7000 5.27000   1
  -3  -3   4 264.000 14.2500   1
   3  -3  -4 234.170 14.7300   1
   1   1  -7 41.6800 3.41000   1
   1   1  -7 42.2500 3.48000   1
   1   1  -7 34.9000 2.97000   1
   1  -1  -7 44.8500 4.05000   1
   1  -1  -7 36.2800 2.95000   1
   1  -1  -7 34.2000 2.87000   1
  -3  -4  -3 220.790 15.9400   1
  -3  -4  -3 250.870 18.1700   1
  -3  -4  -3 240.690 16.5200   1
  -3   4  -3 209.430 14.6000   1
  -3   4  -3 204.440 14.3700   1
   3  -4   3 237.550 19.4300   1
  -3   4  -3 255.260 18.8700   1
  -2 -10  -3 226.950 16.6700   1
  -2 -10  -3 229.410 16.7900   1
  -2 -10  -3 266.980 19.2700   1
   2 -10   3 336.610 26.9600   1
   2 -10   3 282.790 24.0700   1
  -2  10  -3 269.460 23.4700   1
   2 -10   3 352.570 28.0300   1
   0 -12   4 781.690 93.2100   1
   0 -12   4 846.870 100.720   1
   0 -12   4 809.790 97.9200   1
  -3  -6   3 31.5100 1.96000   1
   0 -12  -4 449.470 45.9700   1
   0 -12  -4 509.030 54.8800   1
   0 -12  -4 520.310 55.4600   1
   0 -12  -4 441.850 45.9800   1
   3  -6  -3 20.6500 2.81000   1
   3  -6  -3 17.3100 1.81000   1
   3  -6  -3 17.2400 1.91000   1
  -2 -12   0 3.66000 1.89000   1
  -2 -12   0 6.92000 2.44000   1
  -2 -12   0 24.4200 2.68000   1
   0   8  -6 404.690 31.6100   1
   0  -8   6 497.370 40.0400   1
   0  -8   6 370.720 28.3500   1
   0  -8   6 490.240 40.1200   1
   2 -12   0 1.26000 2.89000   1
   2 -12   0 1.99000 2.75000   1
   2 -12   0 3.25000 3.22000   1
   0  -8  -6 210.610 17.0400   1
   0  -8  -6 286.790 21.4400   1
   0  -8  -6 206.840 16.8100   1
  -3  -8   0 4.08000 2.33000   1
  -3  -8   0 5.80000 1.87000   1
  -3  -8   0 7.96000 2.35000   1
  -3   8   0 5.47000 2.56000   1
   3  -8   0 4.45000 2.57000   1
   3  -8   0 9.44000 2.05000   1
   3  -8   0 5.10000 1.95000   1
   1   2  -7 1.21000 1.56000   1
   1   2  -7 -0.3400 1.33000   1
   1   2  -7 0.54000 1.10000   1
   1  -2  -7 -0.0400 1.29000   1
   1  -2  -7 -1.4000 1.29000   1
   1  -2  -7 1.58000 2.00000   1
  -3  -8   1 207.470 15.4000   1
  -3  -8   1 211.270 15.2100   1
  -3  -8   1 281.190 17.0400   1
   3  -8  -1 190.420 13.1900   1
   3  -8  -1 217.480 15.2800   1
   3  -8  -1 172.120 12.3500   1
  -2 -12   1 85.1400 7.62000   1
  -2 -12   1 94.3000 8.29000   1
  -2 -12   1 97.1000 7.22000   1
   2 -12  -1 80.5100 8.02000   1
   2 -12  -1 51.0600 6.68000   1
   2 -12  -1 54.6500 6.52000   1
  -1 -10   5 70.4200 5.83000   1
  -1 -10   5 64.1600 4.42000   1
  -1 -10   5 65.4900 5.59000   1
   2  -6   5 302.200 25.1500   1
   2  -6   5 301.310 23.0900   1
   2  -6   5 330.220 26.1500   1
  -2   6  -5 319.890 25.7200   1
  -2  -6  -5 256.350 19.3200   1
  -2  -6  -5 276.270 21.3600   1
  -2  -6  -5 247.110 19.2600   1
   1 -10  -5 22.8700 3.47000   1
   1 -10  -5 33.7800 4.24000   1
   1 -10  -5 22.4300 3.39000   1
   0 -14   2 104.840 10.0100   1
   0 -14   2 108.510 9.92000   1
   0 -14   2 87.1500 9.78000   1
  -1 -14   0 221.350 18.7100   1
  -1 -14   0 217.560 19.1800   1
  -1 -14   0 235.430 20.7300   1
  -1 -14   0 215.510 18.7400   1
   0 -14  -2 96.2900 10.8300   1
   0 -14  -2 86.6600 10.4900   1
   0 -14  -2 101.620 11.0700   1
   1 -14   0 227.580 20.8900   1
   1 -14   0 183.880 19.2200   1
   1 -14   0 199.140 19.5000   1
   2   4  -6 49.3400 3.16000   1
   2   4  -6 52.4200 3.18000   1
   0   4  -7 1.56000 1.81000   1
   0   4  -7 1.15000 1.33000   1
   0   4  -7 -0.1000 1.75000   1
   2  -4  -6 32.7500 3.03000   1
   2  -4  -6 29.5900 3.05000   1
   0  -4  -7 -1.7700 1.61000   1
   0  -4  -7 0.07000 1.75000   1
   0  -4  -7 1.73000 1.58000   1
  -3  -4   4 60.9700 2.57000   1
   3  -4  -4 49.7600 3.48000   1
  -2 -12  -1 77.8000 6.12000   1
  -2 -12  -1 84.2800 7.93000   1
  -2 -12  -1 97.6500 8.22000   1
   2 -12   1 87.1000 8.91000   1
   2 -12   1 82.8700 8.67000   1
   2 -12   1 86.7200 8.92000   1
   1   3  -7 82.7500 5.94000   1
   1   3  -7 90.4900 6.91000   1
   1  -3  -7 79.1400 6.43000   1
   1  -3  -7 55.6100 5.10000   1
   1  -3  -7 52.5400 4.34000   1
  -1 -14   1 22.8200 4.33000   1
  -1 -14   1 27.5700 4.30000   1
  -1 -14   1 23.1900 4.32000   1
   1 -14  -1 16.7200 4.77000   1
   1 -14  -1 19.4800 4.55000   1
   1 -14  -1 30.1500 4.81000   1
  -2 -11   3 5.06000 2.42000   1
  -2 -11   3 1.28000 2.18000   1
  -2 -11   3 -2.8600 2.30000   1
   2 -11  -3 -0.4200 2.49000   1
   2 -11  -3 -0.4900 2.50000   1
   2 -11  -3 0.56000 2.15000   1
  -3  -5  -3 29.6800 2.92000   1
  -3  -5  -3 29.3100 2.98000   1
  -3  -5  -3 25.9700 3.48000   1
  -3   5  -3 23.9700 3.62000   1
   3  -5   3 22.1300 3.24000   1
   1  -7   6 42.7400 4.71000   1
   1  -7   6 43.7000 4.52000   1
   1  -7   6 36.4000 3.04000   1
  -1   7  -6 35.2500 3.42000   1
  -1  -7  -6 34.6100 4.12000   1
  -1  -7  -6 35.6700 4.08000   1
  -1  -7  -6 36.8900 4.26000   1
  -3  -8  -1 439.900 37.9000   1
  -3  -8  -1 495.460 40.9800   1
  -3  -8  -1 429.820 36.7400   1
  -3   8  -1 417.820 35.9300   1
   3  -8   1 410.830 33.8500   1
   3  -8   1 439.570 37.6400   1
   3  -8   1 352.830 28.4400   1
  -3  -7  -2 82.3500 6.33000   1
  -3  -7  -2 84.6400 6.62000   1
  -3  -7  -2 89.5400 6.64000   1
  -3   7  -2 75.6100 6.74000   1
   3  -7   2 74.8300 6.29000   1
   3  -7   2 70.4000 4.88000   1
   3  -7   2 75.3800 5.03000   1
  -1 -14  -1 127.390 11.7900   1
  -1 -14  -1 117.850 11.8600   1
  -1 -14  -1 124.970 11.6000   1
  -1 -14  -1 134.290 13.4700   1
   1 -14   1 112.800 11.6000   1
   1 -14   1 107.300 11.0200   1
   1 -14   1 111.480 11.5700   1
  -1 -13   3 57.3000 6.50000   1
  -1 -13   3 51.0900 6.31000   1
  -1 -13   3 52.6500 5.10000   1
   2  -9   4 84.1500 6.79000   1
   2  -9   4 71.4800 6.97000   1
  -2   9  -4 64.2100 6.02000   1
   2  -9   4 83.7800 7.22000   1
  -2  -9  -4 68.7700 5.57000   1
  -2  -9  -4 59.4800 4.95000   1
  -2  -9  -4 48.6000 4.84000   1
   1 -13  -3 34.2400 5.58000   1
   1 -13  -3 36.0800 5.56000   1
   1 -13  -3 39.5800 6.29000   1
  -1  -8   6 47.7700 2.47000   1
  -1  -8   6 57.2300 4.58000   1
  -1  -8   6 62.1700 4.61000   1
  -2  -8   5 16.4000 1.45000   1
  -2  -8   5 28.7200 2.72000   1
  -2  -8   5 28.8200 2.54000   1
   1  -8  -6 28.9700 3.33000   1
   1  -8  -6 33.1900 4.15000   1
   1  -8  -6 24.5900 3.32000   1
   2  -8  -5 11.9700 2.30000   1
   2  -8  -5 13.7500 2.85000   1
   2  -8  -5 11.1700 2.80000   1
  -3  -8   2 16.3100 2.04000   1
  -3  -8   2 14.8100 2.09000   1
   3  -8  -2 14.3200 2.56000   1
   3  -8  -2 20.3600 2.54000   1
   3  -8  -2 23.2600 2.93000   1
  -1 -12   4 52.4600 5.47000   1
  -1 -12   4 43.1000 5.42000   1
  -1 -12   4 45.8100 4.72000   1
   1 -12  -4 29.6900 5.42000   1
   1 -12  -4 29.7700 5.47000   1
   1 -12  -4 38.1800 5.52000   1
  -2 -12   2 -2.5700 1.91000   1
  -2 -12   2 0.59000 1.64000   1
  -2 -12   2 2.19000 2.00000   1
  -2 -12   2 1.34000 2.38000   1
  -1   0  -7 24.2100 3.05000   1
  -1   0  -7 22.8500 3.03000   1
  -1   0  -7 21.2500 3.03000   1
  -2 -10   4 6.16000 2.29000   1
  -2 -10   4 4.92000 2.24000   1
  -2 -10   4 10.2200 1.93000   1
   2 -12  -2 4.28000 3.14000   1
   2 -12  -2 2.30000 2.72000   1
   2 -12  -2 4.31000 2.76000   1
   2 -10  -4 1.98000 2.43000   1
   2 -10  -4 3.18000 2.32000   1
   2 -10  -4 1.74000 2.98000   1
  -3  -7   3 131.720 6.73000   1
  -3  -7   3 189.910 8.69000   1
  -3  -7   3 125.930 6.42000   1
   3  -7  -3 105.360 7.39000   1
   3  -7  -3 107.550 7.45000   1
   3  -7  -3 125.340 8.58000   1
   0  11  -5 66.4800 4.29000   1
   0 -11   5 81.8800 7.03000   1
   0 -11   5 77.0400 6.85000   1
   0 -11   5 71.7200 5.37000   1
  -1   1  -7 124.860 9.47000   1
  -1   1  -7 119.190 9.21000   1
  -1   1  -7 140.350 9.30000   1
  -1  -1  -7 98.2700 7.71000   1
  -1  -1  -7 136.430 8.76000   1
  -1  -1  -7 102.810 7.56000   1
   0 -11  -5 39.6500 4.44000   1
   0 -11  -5 51.3000 6.90000   1
   0 -11  -5 31.7700 4.34000   1
   0 -11  -5 58.3000 6.49000   1
   1 -10   5 -0.4000 2.20000   1
   1 -10   5 4.32000 2.32000   1
  -1  10  -5 -0.6300 1.51000   1
   1 -10   5 1.86000 2.26000   1
  -2   0  -6 -2.1300 2.18000   1
  -2   0  -6 2.55000 1.85000   1
  -2   0  -6 1.72000 1.90000   1
   1   4  -7 509.070 46.3800   1
   1   4  -7 552.860 51.8100   1
   2   5  -6 334.440 22.3400   1
   2   5  -6 296.970 20.0000   1
  -1 -10  -5 1.22000 2.42000   1
  -1 -10  -5 -0.2000 2.04000   1
  -1 -10  -5 -1.9700 2.09000   1
   0   5  -7 381.590 28.1800   1
   0   5  -7 417.120 35.3700   1
   0   5  -7 441.360 37.1300   1
   0  -5   7 426.080 30.7400   1
   1  -4  -7 331.380 26.2200   1
   1  -4  -7 426.150 34.8700   1
   1  -4  -7 331.340 26.2000   1
   1  -4  -7 294.620 21.5800   1
   2  -5  -6 163.270 10.7500   1
   2  -5  -6 154.970 7.53000   1
   2  -5  -6 144.890 9.87000   1
   0  -5  -7 266.120 20.9800   1
   0  -5  -7 295.810 21.3500   1
   0  -5  -7 267.630 21.0400   1
  -3   0  -4 1.58000 2.14000   1
  -3   0  -4 -1.2700 1.51000   1
  -3   0  -4 -2.7500 1.57000   1
   3  -5  -4 137.330 8.37000   1
  -2   1  -6 256.050 19.9300   1
  -2   1  -6 269.160 20.9200   1
  -2   1  -6 257.180 20.3300   1
  -2  -1  -6 273.260 20.0800   1
  -2  -1  -6 220.690 15.9100   1
  -2  -1  -6 215.650 15.9900   1
  -3  -1  -4 162.540 11.0400   1
  -3  -1  -4 177.420 13.2700   1
  -3  -1  -4 166.780 11.1600   1
  -3   1  -4 201.040 15.0700   1
  -3   1  -4 174.980 12.3400   1
  -3   1  -4 160.090 11.7300   1
   3  -1   4 189.120 14.2800   1
   1 -13   3 91.0800 9.37000   1
   1 -13   3 69.9700 9.17000   1
   1 -13   3 80.5600 8.48000   1
  -1 -13  -3 44.8400 5.59000   1
  -1 -13  -3 60.4900 5.76000   1
  -1 -13  -3 65.0800 6.35000   1
  -1   2  -7 -0.2700 1.73000   1
  -1   2  -7 0.63000 1.96000   1
  -1   2  -7 1.39000 2.00000   1
  -1  -2  -7 2.66000 2.06000   1
  -1  -2  -7 -0.4800 1.98000   1
  -1  -2  -7 1.93000 1.97000   1
   2  -7   5 4.68000 2.50000   1
  -2   7  -5 5.10000 2.35000   1
   2  -7   5 8.67000 2.36000   1
   2  -7   5 8.48000 2.65000   1
  -2  -7  -5 7.07000 2.36000   1
  -2  -7  -5 8.71000 2.71000   1
  -2  -7  -5 7.89000 2.42000   1
   0 -15   0 0.85000 2.65000   1
   0 -15   0 -0.9900 2.98000   1
   0 -15   0 -0.7100 2.84000   1
   0   9  -6 55.0500 3.87000   1
   0  -9   6 73.4800 5.74000   1
   0  -9   6 51.4700 4.06000   1
   0  -9   6 78.0000 5.93000   1
   0  -9  -6 31.5300 3.80000   1
   0  -9  -6 30.1400 4.75000   1
   0  -9  -6 33.2800 3.88000   1
  -2   2  -6 11.7200 2.52000   1
   2  -2   6 3.24000 2.41000   1
  -2   2  -6 7.48000 2.63000   1
  -2   2  -6 9.58000 2.46000   1
  -2  -2  -6 6.94000 2.53000   1
  -2  -2  -6 9.65000 2.66000   1
  -2  -2  -6 14.0900 2.85000   1
  -1 -14   2 149.110 12.5600   1
  -1 -14   2 157.220 13.9000   1
  -1 -14   2 149.970 13.7300   1
   1 -14  -2 123.920 12.3600   1
   1 -14  -2 111.440 10.8700   1
   1 -14  -2 92.7400 10.0600   1
  -3  -2  -4 20.0900 3.43000   1
  -3  -2  -4 25.7500 3.03000   1
  -3  -2  -4 23.4800 2.94000   1
  -3   2  -4 19.9600 2.68000   1
   3  -2   4 16.6500 3.12000   1
  -3   2  -4 17.8500 2.70000   1
  -3   2  -4 14.7600 3.54000   1
  -3  -9   0 199.510 16.5000   1
  -3  -9   0 220.500 16.9400   1
  -3  -9   0 184.540 12.6800   1
   3  -9   0 139.330 10.0400   1
   3  -9   0 120.360 8.14000   1
   3  -9   0 133.860 10.7300   1
  -3  -6  -3 8.98000 2.56000   1
  -3  -6  -3 14.0900 1.89000   1
  -3  -6  -3 10.2800 1.92000   1
  -3   6  -3 7.69000 2.68000   1
   3  -6   3 10.2200 2.40000   1
   3  -6   3 7.63000 2.10000   1
   3  -6   3 3.82000 1.99000   1
  -3  -9   1 39.9700 3.28000   1
  -3  -9   1 31.6400 3.59000   1
  -3  -9   1 31.2100 3.24000   1
   3  -9  -1 24.1400 3.30000   1
   3  -9  -1 26.1500 3.67000   1
   3  -9  -1 30.8800 3.40000   1
  -2 -11  -3 23.4200 3.09000   1
  -2 -11  -3 17.8500 2.81000   1
  -2 -11  -3 13.9300 2.87000   1
   2 -11   3 25.8900 4.12000   1
  -2  11  -3 21.2600 3.81000   1
   2 -11   3 23.5500 4.28000   1
   2 -11   3 27.5500 4.12000   1
  -1  12  -4 47.1800 4.19000   1
   1 -12   4 54.7800 5.63000   1
   1 -12   4 49.3200 5.41000   1
   1 -12   4 49.7100 5.61000   1
  -1 -12  -4 41.7100 4.71000   1
  -1 -12  -4 48.9400 5.64000   1
  -1 -12  -4 41.5100 4.67000   1
  -2 -12  -2 12.7600 2.44000   1
  -2 -12  -2 7.86000 2.41000   1
  -2 -12  -2 11.8600 2.74000   1
   2 -12   2 6.39000 3.21000   1
   2 -12   2 10.1200 3.14000   1
   2 -12   2 4.67000 3.04000   1
   0 -15   1 239.160 20.0300   1
   0 -15   1 184.310 18.4300   1
   0 -15   1 201.030 19.0000   1
   0 -15  -1 165.500 15.9600   1
   0 -15  -1 227.440 19.1700   1
   0 -15  -1 171.420 16.4500   1
  -1   3  -7 355.720 27.0400   1
  -1   3  -7 331.770 28.4100   1
  -1   3  -7 313.340 27.4500   1
  -1  -3  -7 335.610 23.5900   1
  -1  -3  -7 240.680 18.9100   1
  -1  -3  -7 242.480 19.4200   1
   1 -14   2 118.530 12.7400   1
   1 -14   2 128.360 11.9300   1
   1 -14   2 127.150 13.2100   1
  -1 -14  -2 116.860 12.4300   1
  -1 -14  -2 134.950 12.4400   1
  -1 -14  -2 124.340 12.5900   1
  -1 -14  -2 125.320 13.2900   1
  -3   0   5 187.810 9.70000   1
  -2   3  -6 215.460 17.1900   1
   2  -3   6 258.860 17.5600   1
  -2   3  -6 220.350 17.4900   1
  -2   3  -6 212.930 16.8000   1
   1   5  -7 40.1800 3.41000   1
   1   5  -7 32.9800 3.26000   1
  -2  -3  -6 223.730 16.5900   1
  -2  -3  -6 193.020 14.5200   1
  -2  -3  -6 188.300 14.2300   1
   1  -5  -7 23.8000 2.74000   1
   1  -5  -7 23.2700 2.77000   1
   1  -5  -7 14.1600 2.39000   1
   1  -5  -7 22.7400 4.66000   1
  -1   8  -6 20.9200 2.82000   1
   1  -8   6 11.9300 3.07000   1
   1  -8   6 12.3500 2.56000   1
   1  -8   6 21.1200 3.08000   1
  -1  -8  -6 9.62000 2.53000   1
  -1  -8  -6 10.4000 2.78000   1
  -1  -8  -6 10.9300 2.47000   1
  -3  -3  -4 137.320 9.35000   1
  -3  -3  -4 99.8700 7.50000   1
  -3  -3  -4 104.830 7.77000   1
  -3   3  -4 108.210 9.49000   1
  -3   3  -4 110.780 7.90000   1
  -3   3  -4 113.860 8.15000   1
   3  -3   4 128.890 9.53000   1
  -3   1   5 62.7900 3.02000   1
  -3  -8  -2 1.98000 1.75000   1
  -3  -8  -2 3.21000 1.75000   1
  -3  -8  -2 -0.4100 1.93000   1
  -3   8  -2 2.39000 2.16000   1
   3  -8   2 0.49000 1.65000   1
   3  -8   2 -1.2100 1.96000   1
   3  -8   2 1.63000 1.72000   1
   0 -14   3 4.28000 3.12000   1
   0 -14   3 4.60000 2.61000   1
   0 -14   3 8.58000 3.12000   1
   0 -14  -3 9.11000 3.77000   1
   0 -14  -3 -1.3200 2.98000   1
   0 -14  -3 3.18000 3.65000   1
   0 -14  -3 12.6900 3.68000   1
  -1 -11   5 389.520 31.4800   1
  -1 -11   5 422.990 36.2500   1
  -1 -11   5 398.790 35.1200   1
   1 -11  -5 165.450 14.3700   1
   1 -11  -5 204.170 16.2500   1
   1 -11  -5 150.100 14.1500   1
   2   6  -6 28.0200 2.43000   1
   2   6  -6 24.5400 2.40000   1
   0  -6   7 108.930 6.62000   1
   0   6  -7 122.040 7.11000   1
   0   6  -7 139.800 10.0200   1
   0   6  -7 127.240 10.1200   1
   2  -6  -6 12.1500 1.58000   1
   2  -6  -6 18.8100 2.46000   1
   2  -6  -6 13.7500 2.50000   1
   0  -6  -7 89.1900 7.14000   1
   0  -6  -7 90.9400 6.91000   1
   0  -6  -7 77.6100 7.05000   1
   0 -13   4 27.4300 4.23000   1
   0 -13   4 18.7000 3.29000   1
   0 -13   4 17.9100 4.19000   1
   0 -13  -4 16.1800 3.53000   1
   0 -13  -4 11.4600 3.55000   1
   0 -13  -4 20.3700 5.02000   1
   0 -13  -4 10.0500 4.44000   1
   3  -6  -4 139.160 8.95000   1
  -3  -9  -1 2.45000 1.88000   1
  -3  -9  -1 0.97000 1.89000   1
  -3  -9  -1 0.89000 1.83000   1
  -2 -13   0 42.3900 4.19000   1
  -2 -13   0 34.2500 3.99000   1
  -2 -13   0 28.8300 3.29000   1
   3  -9   1 1.50000 1.66000   1
   3  -9   1 2.19000 2.40000   1
   3  -9   1 1.94000 1.75000   1
  -3   9  -1 -0.7100 2.28000   1
   2 -13   0 22.3500 4.68000   1
   2 -13   0 33.8900 5.42000   1
   2 -13   0 20.9600 4.82000   1
  -3   2   5 26.2000 1.94000   1
  -2 -13   1 8.12000 2.54000   1
  -2 -13   1 6.59000 2.45000   1
  -2 -13   1 2.74000 2.71000   1
  -1  -9   6 219.120 12.6800   1
  -1  -9   6 257.550 17.8800   1
  -1  -9   6 251.100 17.3200   1
   2 -13  -1 7.82000 3.02000   1
   2 -13  -1 1.14000 3.02000   1
   2 -13  -1 5.93000 3.61000   1
  -2  -9   5 41.6000 3.81000   1
  -2  -9   5 42.4900 3.79000   1
  -2  -9   5 32.4500 2.33000   1
   1  -9  -6 122.010 9.71000   1
   1  -9  -6 96.6600 7.61000   1
   1  -9  -6 81.0900 7.34000   1
   2  -9  -5 28.8700 4.82000   1
   2  -9  -5 29.2100 4.17000   1
   2  -9  -5 23.8000 3.58000   1
  -3  -8   3 249.910 15.8700   1
  -3  -8   3 296.890 16.7700   1
  -3  -8   3 248.690 15.6600   1
  -3  -9   2 78.1900 5.42000   1
  -3  -9   2 106.860 5.47000   1
  -3  -9   2 82.1600 6.06000   1
   3  -8  -3 194.210 13.3500   1
   3  -8  -3 192.740 14.2700   1
   3  -8  -3 185.920 14.4700   1
   3  -9  -2 73.2100 6.14000   1
   3  -9  -2 71.6300 6.09000   1
   3  -9  -2 83.5700 6.74000   1
  -1   4  -7 24.5700 3.49000   1
  -1   4  -7 33.7300 3.14000   1
  -1   4  -7 28.1800 3.42000   1
   1  -4   7 24.5400 3.17000   1
  -1  -4  -7 23.6000 3.13000   1
  -1  -4  -7 24.7600 3.59000   1
  -1  -4  -7 25.4300 2.96000   1
   2 -10   4 10.5800 2.96000   1
   2 -10   4 14.2000 3.27000   1
  -2  10  -4 7.13000 2.51000   1
   2 -10   4 17.9400 3.25000   1
  -2 -10  -4 5.37000 2.31000   1
  -2 -10  -4 10.1500 2.63000   1
  -2 -10  -4 7.73000 2.32000   1
   2  -4   6 34.5600 3.93000   1
  -2   4  -6 42.9700 4.41000   1
  -2   4  -6 37.3500 4.13000   1
  -2   4  -6 38.0500 4.03000   1
  -2  -4  -6 34.1600 3.83000   1
  -2  -4  -6 33.2500 3.94000   1
  -2  -4  -6 52.5400 4.68000   1
  -3  -4  -4 0.76000 1.60000   1
  -3  -4  -4 -2.1800 2.03000   1
  -3  -4  -4 -0.1300 1.61000   1
  -3   4  -4 -2.5900 1.69000   1
  -3   4  -4 -0.8900 2.37000   1
   3  -4   4 1.94000 2.15000   1
  -3   4  -4 -3.4600 1.77000   1
  -2 -12   3 181.430 14.5000   1
  -2 -12   3 199.980 13.7600   1
  -2 -12   3 186.410 16.8100   1
   2 -12  -3 102.420 9.32000   1
   2 -12  -3 101.530 9.67000   1
   2 -12  -3 110.940 10.5000   1
   2  -8   5 12.2800 2.93000   1
   2  -8   5 10.9000 2.64000   1
   2  -8   5 11.9800 2.82000   1
  -2   8  -5 12.8100 2.71000   1
  -2  -8  -5 8.37000 2.30000   1
  -2  -8  -5 8.06000 2.26000   1
  -2  -8  -5 17.3000 2.90000   1
  -2 -13  -1 20.7700 3.96000   1
  -2 -13  -1 26.7800 3.92000   1
  -2 -13  -1 20.3100 2.93000   1
   2 -13   1 13.6300 3.98000   1
   2 -13   1 13.8600 3.92000   1
   2 -13   1 14.9400 3.92000   1
  -3  -7  -3 30.5700 3.37000   1
  -3  -7  -3 42.2700 3.94000   1
  -3  -7  -3 31.9900 3.25000   1
  -3   7  -3 29.8400 4.47000   1
   3  -7   3 42.8700 4.49000   1
   3  -7   3 29.7200 3.28000   1
   3  -7   3 36.1000 3.30000   1
   0 -15   2 20.8000 4.26000   1
   0 -15   2 19.2700 4.12000   1
   0 -15   2 23.7000 4.28000   1
  -1 -15   0 42.5300 4.96000   1
  -1 -15   0 37.2900 4.82000   1
  -1 -15   0 39.8100 5.73000   1
   0 -15  -2 14.3800 4.34000   1
   0 -15  -2 17.6200 5.00000   1
   0 -15  -2 21.8400 4.17000   1
   1 -15   0 32.9400 5.50000   1
   1 -15   0 36.4900 6.02000   1
   1 -15   0 31.0000 5.76000   1
  -2 -11   4 483.800 46.6100   1
  -2 -11   4 485.430 47.3900   1
  -2 -11   4 539.200 47.1200   1
   2 -11  -4 252.450 23.4200   1
   2 -11  -4 266.210 23.5200   1
   2 -11  -4 283.910 26.5700   1
   1   6  -7 27.8000 4.22000   1
   1   6  -7 37.8600 3.52000   1
   1  -6  -7 32.4000 4.99000   1
   1  -6  -7 18.5700 2.44000   1
   1  -6  -7 18.2900 2.45000   1
   1  -6  -7 12.8700 2.84000   1
   1 -11   5 406.360 35.9300   1
  -1  11  -5 344.850 28.1400   1
   1 -11   5 404.450 35.1800   1
   1 -11   5 405.980 33.3300   1
  -1 -11  -5 240.730 20.5500   1
  -1 -11  -5 285.610 22.7500   1
  -1 -11  -5 245.880 20.8600   1
  -1 -15   1 219.370 20.3800   1
  -1 -15   1 234.540 20.6900   1
  -1 -15   1 219.590 20.8300   1
   1 -15  -1 217.910 19.5500   1
   1 -15  -1 158.820 17.4100   1
   1 -15  -1 174.390 19.0900   1
   0 -12   5 17.8000 2.98000   1
   0  12  -5 10.0300 1.83000   1
   0 -12   5 20.4600 3.50000   1
   0 -12   5 18.1400 3.46000   1
   0 -12  -5 7.47000 3.11000   1
   0 -12  -5 14.6400 4.28000   1
   0 -12  -5 17.8100 4.56000   1
   0 -12  -5 10.2400 3.11000   1
   0 -10   6 17.2400 3.09000   1
   0  10  -6 8.59000 1.52000   1
   0 -10   6 8.10000 1.84000   1
   0 -10   6 13.4000 2.98000   1
   0 -10  -6 5.68000 2.49000   1
   0 -10  -6 10.0200 3.70000   1
   0 -10  -6 4.06000 2.51000   1
  -1 -14   3 183.600 14.2200   1
  -1 -14   3 180.100 16.9300   1
  -1 -14   3 172.040 16.4000   1
  -1 -13   4 325.540 28.4600   1
  -1 -13   4 308.660 27.2700   1
  -1 -13   4 267.110 23.5400   1
   1 -14  -3 124.110 13.0900   1
   1 -14  -3 107.470 11.0400   1
   1 -14  -3 99.6800 11.0600   1
  -3 -10   0 106.010 7.73000   1
  -3 -10   0 93.1100 8.56000   1
  -3 -10   0 88.6800 8.88000   1
  -1   5  -7 39.0000 3.72000   1
  -1   5  -7 32.8800 3.92000   1
  -1   5  -7 26.7100 3.74000   1
   1  -5   7 31.5200 3.15000   1
   1 -13  -4 201.230 17.8000   1
   1 -13  -4 152.620 16.8800   1
   1 -13  -4 147.410 16.7600   1
  -2 -13   2 116.090 10.0500   1
  -2 -13   2 121.560 10.0800   1
  -2 -13   2 120.120 10.0900   1
  -1  -5  -7 20.9300 3.23000   1
  -1  -5  -7 29.9600 3.65000   1
  -1  -5  -7 26.6600 3.14000   1
   3 -10   0 67.9000 5.68000   1
   3 -10   0 76.9000 7.40000   1
   3 -10   0 82.6300 7.01000   1
   2 -13  -2 80.0100 8.53000   1
   2 -13  -2 75.0500 8.41000   1
   2 -13  -2 74.0000 9.02000   1
  -2  -7   6 390.090 28.8400   1
  -2  -7   6 365.640 28.1600   1
   0  -7   7 95.1000 6.47000   1
   0  -7   7 104.760 8.48000   1
   0  -7   7 115.410 8.99000   1
   2  -7  -6 153.020 9.21000   1
   2  -7  -6 156.820 11.8300   1
   2  -7  -6 159.840 12.4600   1
   0  -7  -7 38.3400 4.09000   1
   0  -7  -7 65.5300 5.23000   1
   0  -7  -7 34.4100 3.95000   1
  -1 -15  -1 165.860 16.0500   1
  -1 -15  -1 226.850 20.1100   1
  -1 -15  -1 211.130 18.1600   1
  -1 -15  -1 164.910 16.3700   1
   1 -15   1 172.420 18.2300   1
   1 -15   1 183.070 18.1600   1
   1 -15   1 186.610 17.7200   1
  -3 -10   1 25.4000 3.24000   1
  -3 -10   1 32.0400 2.81000   1
  -3 -10   1 28.1900 3.33000   1
   3  -7  -4 72.2600 5.13000   1
   3 -10  -1 16.1200 3.48000   1
   3 -10  -1 26.2600 3.76000   1
   3 -10  -1 20.4900 3.43000   1
   3  -4  -5 68.9000 4.05000   1
   2  -5   6 144.370 9.84000   1
  -2   5  -6 161.940 11.6900   1
  -2   5  -6 117.540 9.66000   1
  -2   5  -6 118.490 10.0500   1
  -2  -5  -6 108.160 8.63000   1
  -2  -5  -6 118.020 9.08000   1
  -2  -5  -6 137.650 10.3400   1
   2   0  -7 2.25000 1.26000   1
   2   0  -7 0.79000 1.24000   1
  -3  -5  -4 200.580 15.0900   1
  -3  -5  -4 194.700 14.2300   1
  -3  -5  -4 178.270 13.6600   1
  -3   5  -4 229.040 18.0900   1
  -3   5  -4 191.520 14.3600   1
  -3   5  -4 200.030 14.9600   1
   3  -5   4 237.330 18.6900   1
   1  -9   6 73.1400 5.21000   1
   1  -9   6 76.5100 6.79000   1
   1  -9   6 85.6700 6.99000   1
  -1   9  -6 92.1800 6.71000   1
   2   1  -7 20.3400 1.97000   1
   2   1  -7 22.7600 2.00000   1
  -1  -9  -6 55.5400 5.33000   1
  -1  -9  -6 56.8300 5.40000   1
  -1  -9  -6 62.5900 6.05000   1
   2  -1  -7 16.7500 2.17000   1
   2  -1  -7 21.9100 2.21000   1
  -3  -9  -2 54.6800 5.17000   1
  -3  -9  -2 59.2900 5.13000   1
  -3  -9  -2 67.8700 5.32000   1
  -3   9  -2 61.3900 6.17000   1
   3  -9   2 59.1500 5.69000   1
   3  -9   2 62.6200 5.08000   1
   3  -9   2 56.7500 5.19000   1
  -2 -12  -3 25.3800 3.88000   1
  -2 -12  -3 24.0100 3.17000   1
  -2 -12  -3 26.4400 3.21000   1
  -2  12  -3 27.1900 4.23000   1
   2 -12   3 29.7700 4.50000   1
   2 -12   3 25.3400 4.51000   1
   2 -12   3 24.1100 4.42000   1
   2   2  -7 306.140 21.4000   1
   2   2  -7 293.020 20.8100   1
   2  -2  -7 239.490 16.1700   1
   2  -2  -7 232.070 16.1400   1
   1 -14   3 7.00000 3.46000   1
   1 -14   3 7.17000 3.76000   1
   1 -14   3 10.7300 3.66000   1
  -1 -14  -3 7.02000 2.64000   1
  -1 -14  -3 -0.4800 2.69000   1
  -1 -14  -3 13.2200 3.52000   1
  -3 -10  -1 55.4000 5.52000   1
  -3 -10  -1 57.9400 4.81000   1
  -3 -10  -1 52.8000 5.42000   1
  -3  10  -1 58.3200 6.38000   1
   3 -10   1 56.7000 5.95000   1
   3 -10   1 48.8600 4.86000   1
   3 -10   1 62.1000 5.98000   1
  -3  -9   3 17.2600 2.04000   1
   3  -9  -3 13.6900 2.76000   1
   3  -9  -3 14.1400 2.65000   1
   3  -9  -3 15.8700 2.64000   1
  -1  13  -4 59.7100 5.11000   1
   1 -13   4 60.7900 6.56000   1
   1 -13   4 59.2600 6.81000   1
   1 -13   4 86.8100 7.13000   1
  -1 -13  -4 55.4300 5.15000   1
  -1 -13  -4 52.4300 6.11000   1
  -1 -13  -4 40.1500 5.19000   1
  -2 -13  -2 30.2600 3.81000   1
  -2 -13  -2 34.5500 3.92000   1
  -2 -13  -2 33.2100 3.68000   1
   2 -13   2 28.4500 5.29000   1
   2 -13   2 34.5500 5.28000   1
   2 -13   2 28.7700 5.21000   1
  -1 -10   6 169.640 12.1400   1
  -1 -10   6 143.430 8.31000   1
  -1 -10   6 171.770 12.2000   1
  -2 -10   5 896.050 107.190   1
  -2 -10   5 899.290 107.680   1
   1 -10  -6 57.8400 5.75000   1
   1 -10  -6 51.8300 5.77000   1
   1 -10  -6 80.1200 7.61000   1
   2 -10  -5 528.500 58.8200   1
   2 -10  -5 458.880 44.3200   1
   2 -10  -5 502.100 53.5300   1
  -3  -8  -3 183.610 13.2700   1
  -3  -8  -3 205.280 15.0700   1
  -3  -8  -3 178.220 13.2100   1
   1  -7  -7 61.7800 5.78000   1
   1  -7  -7 66.8900 5.83000   1
   1  -7  -7 67.8200 5.76000   1
   1  -7  -7 102.460 8.88000   1
  -3   8  -3 200.310 15.3800   1
   3  -8   3 148.060 10.9600   1
   3  -8   3 177.690 13.3200   1
   3  -8   3 173.770 11.8400   1
  -1 -15   2 37.1100 5.28000   1
  -1 -15   2 38.6700 5.38000   1
  -1 -15   2 40.2600 5.00000   1
  -3 -10   2 192.830 9.86000   1
  -3 -10   2 116.090 9.12000   1
  -3 -10   2 128.340 9.47000   1
   1 -15  -2 30.4700 5.09000   1
   1 -15  -2 31.3000 6.19000   1
   1 -15  -2 28.2300 5.02000   1
  -1 -12   5 436.780 39.5000   1
  -1 -12   5 392.650 34.3000   1
  -1 -12   5 426.420 38.2200   1
   3 -10  -2 146.950 11.6000   1
   3 -10  -2 136.620 11.4800   1
   3 -10  -2 121.190 11.2000   1
   3  -5  -5 53.5200 3.19000   1
   1 -12  -5 189.280 17.7400   1
   1 -12  -5 229.870 20.1800   1
   1 -12  -5 193.750 17.8800   1
   0 -16   0 191.350 20.1900   1
   0 -16   0 202.930 20.0300   1
   0 -16   0 247.500 21.9000   1
   2   3  -7 4.94000 1.22000   1
   2   3  -7 3.79000 1.23000   1
   2  -3  -7 7.11000 1.88000   1
   2  -3  -7 4.85000 1.84000   1
  -1   6  -7 0.46000 1.94000   1
  -1   6  -7 4.67000 2.36000   1
  -1   6  -7 2.05000 2.21000   1
   1  -6   7 0.77000 1.66000   1
  -1  -6  -7 0.75000 2.05000   1
  -1  -6  -7 3.33000 2.09000   1
  -1  -6  -7 0.37000 2.25000   1
  -2   9  -5 12.2900 2.75000   1
   2  -9   5 15.0100 3.06000   1
   2  -9   5 12.4400 3.24000   1
   2  -9   5 13.4700 2.66000   1
  -2  -9  -5 14.7100 3.03000   1
  -2  -9  -5 12.1200 2.67000   1
  -2  -9  -5 13.5900 2.73000   1
   0   0  -8 254.570 18.8200   1
   0   0  -8 257.500 16.9600   1
   0   0  -8 238.660 17.8300   1
  -2   6  -6 0.90000 2.02000   1
   2  -6   6 1.84000 2.09000   1
  -2   6  -6 0.64000 2.03000   1
  -2   6  -6 -3.2000 2.09000   1
  -2  -6  -6 -0.4100 2.16000   1
  -2  -6  -6 0.33000 1.92000   1
  -2  -6  -6 0.25000 1.89000   1
  -3  -6  -4 20.2200 2.79000   1
  -3  -6  -4 14.5000 3.13000   1
  -3  -6  -4 14.8800 2.73000   1
   2 -11   4 244.980 21.4500   1
   2 -11   4 218.720 18.9600   1
   2 -11   4 249.510 21.9300   1
  -2  11  -4 266.750 21.2300   1
  -2 -11  -4 187.430 14.0200   1
  -2 -11  -4 168.910 12.8200   1
  -2 -11  -4 176.610 12.9700   1
  -3   6  -4 11.2900 3.14000   1
   3  -6   4 13.4700 3.45000   1
   0   1  -8 39.6600 3.91000   1
   0   1  -8 40.7500 2.91000   1
   0   1  -8 35.6600 3.95000   1
   0  -1  -8 37.7800 4.25000   1
   0  -1  -8 33.8500 4.09000   1
   0  -1  -8 41.6300 3.23000   1
  -4   0   1 -1.9200 1.83000   1
  -4   0   0 448.970 41.2900   1
   1 -15   2 13.8200 3.99000   1
   1 -15   2 12.3500 4.14000   1
   1 -15   2 7.99000 3.77000   1
  -1 -15  -2 9.14000 3.66000   1
  -1 -15  -2 10.0300 4.26000   1
  -1 -15  -2 17.5100 3.58000   1
  -1 -15  -2 11.7600 3.88000   1
  -4  -1   1 84.1400 7.34000   1
  -4   1   1 75.6700 6.11000   1
   4  -1  -1 76.0000 6.54000   1
  -4  -1   0 11.2200 2.64000   1
   4  -1   0 15.4200 2.88000   1
  -4   1   0 6.38000 2.66000   1
   0 -16   1 15.4600 3.98000   1
   0 -16   1 13.5600 4.00000   1
   0 -16   1 21.4700 4.36000   1
   0 -16  -1 17.3600 4.73000   1
   0 -16  -1 19.5300 3.85000   1
   0 -16  -1 12.4000 3.75000   1
   0 -14   4 154.970 12.8700   1
   0 -14   4 165.320 15.6800   1
   0 -14   4 178.710 15.6800   1
   0 -14  -4 91.6500 10.3900   1
   0 -14  -4 90.4200 10.5800   1
   0 -14  -4 133.360 13.8400   1
   0 -14  -4 130.530 12.5500   1
  -2 -14   0 11.9800 2.75000   1
  -2 -14   0 11.5000 2.95000   1
  -2 -14   0 10.0000 2.87000   1
   2 -14   0 9.50000 4.11000   1
   2 -14   0 8.35000 3.57000   1
   2 -14   0 5.35000 3.65000   1
  -2  -8   6 52.3900 4.06000   1
  -2  -8   6 44.5800 3.75000   1
   0  -8   7 20.8000 2.28000   1
   0  -8   7 42.5300 3.94000   1
   0  -8   7 33.9900 4.07000   1
   2  -8  -6 20.2000 3.37000   1
   2  -8  -6 16.8500 2.14000   1
   2  -8  -6 22.2700 3.35000   1
   0 -15   3 70.5400 7.03000   1
   0 -15   3 69.9700 8.12000   1
   0 -15   3 73.3400 8.43000   1
   0  -8  -7 18.3700 3.19000   1
   0  -8  -7 9.26000 2.47000   1
   0  -8  -7 10.9800 2.47000   1
   0 -15  -3 62.3600 8.16000   1
   0 -15  -3 74.2200 9.12000   1
   0 -15  -3 56.5200 8.11000   1
   0   2  -8 0.01000 1.21000   1
   0   2  -8 3.02000 1.84000   1
   0   2  -8 -3.5400 1.75000   1
   0  -2  -8 5.85000 1.80000   1
   0  -2  -8 -0.3700 1.66000   1
   0  -2  -8 -1.7600 1.74000   1
   3  -8  -4 12.7500 2.49000   1
  -3   0  -5 178.680 13.0900   1
  -3   0  -5 164.180 12.6500   1
  -3   0  -5 225.520 16.2300   1
  -2 -14   1 382.400 35.4700   1
  -2 -14   1 329.680 29.9600   1
  -2 -14   1 352.640 33.4500   1
  -2 -14   1 364.020 33.3400   1
  -4  -2   1 21.0400 2.75000   1
  -4   2   1 20.0300 3.02000   1
   4  -2  -1 23.8900 3.09000   1
  -3  -1  -5 7.96000 2.35000   1
  -3  -1  -5 5.34000 2.79000   1
  -3  -1  -5 6.13000 2.46000   1
  -3   1  -5 10.6100 2.95000   1
  -3   1  -5 10.7100 2.38000   1
  -3   1  -5 9.64000 2.41000   1
  -4  -2   0 7.43000 2.18000   1
   4  -2   0 4.05000 2.38000   1
  -4   2   0 7.44000 2.35000   1
   2 -14  -1 220.560 22.4400   1
   2 -14  -1 246.140 24.7200   1
   2 -14  -1 232.790 23.3500   1
   2   4  -7 3.75000 1.36000   1
   2   4  -7 4.52000 1.35000   1
   2  -4  -7 6.66000 2.04000   1
   2  -4  -7 8.08000 1.97000   1
  -2 -13   3 1.74000 2.29000   1
  -2 -13   3 4.02000 2.69000   1
  -2 -13   3 -0.8800 2.34000   1
   2 -13  -3 -0.2000 2.60000   1
   2 -13  -3 0.95000 2.77000   1
   2 -13  -3 -1.1500 2.71000   1
  -2 -12   4 4.45000 2.89000   1
  -2 -12   4 10.9000 2.32000   1
  -2 -12   4 9.84000 2.28000   1
   2 -12  -4 2.63000 2.80000   1
   2 -12  -4 3.77000 2.88000   1
   2 -12  -4 2.82000 2.68000   1
   1   0  -8 -3.5700 1.93000   1
   1   0  -8 4.29000 2.01000   1
  -3  -2  -5 1.26000 1.91000   1
  -3  -2  -5 -2.1000 2.03000   1
  -3  -2  -5 1.62000 2.16000   1
   3  -2   5 -0.9400 2.11000   1
  -3   2  -5 -0.2200 2.21000   1
  -3   2  -5 -2.5600 1.90000   1
  -3   2  -5 1.58000 1.97000   1
   0 -11   6 41.1100 3.49000   1
   0 -11   6 45.5000 5.34000   1
   0 -11   6 46.4500 5.24000   1
   1 -12   5 282.730 21.6500   1
   1 -12   5 257.890 22.0300   1
   1 -12   5 266.670 21.7400   1
  -1  12  -5 220.320 16.8100   1
   0 -11  -6 17.2400 3.23000   1
   0 -11  -6 15.6700 3.29000   1
   0 -11  -6 24.3500 5.02000   1
   0 -11  -6 23.3900 4.49000   1
  -1 -12  -5 196.620 14.6100   1
  -1 -12  -5 152.770 12.7800   1
  -1 -12  -5 143.160 12.4800   1
   1   1  -8 215.640 13.9000   1
   1   1  -8 196.470 13.4100   1
   1  -1  -8 198.910 13.9500   1
   1  -1  -8 196.690 13.3100   1
   0   3  -8 43.7200 2.91000   1
   0   3  -8 51.5600 4.88000   1
   0   3  -8 43.9100 4.82000   1
  -3 -11   0 23.3000 3.84000   1
  -3 -11   0 18.3100 2.50000   1
  -3 -11   0 24.5100 3.70000   1
   0  -3  -8 44.5900 3.98000   1
   0  -3  -8 34.0200 3.81000   1
   0  -3  -8 37.8000 3.86000   1
  -4   0   2 362.610 28.4100   1
   3  -6  -5 11.2400 1.67000   1
   3 -11   0 20.7900 3.71000   1
   3 -11   0 17.4400 2.95000   1
   3 -11   0 13.4800 3.02000   1
  -2 -14  -1 384.620 32.8600   1
  -2 -14  -1 349.190 34.6700   1
  -2 -14  -1 385.150 35.8400   1
   2 -14   1 294.060 30.4300   1
   2 -14   1 330.620 32.1900   1
   2 -14   1 333.910 33.6400   1
  -4   0  -1 -1.8000 2.29000   1
  -1  10  -6 151.860 11.0500   1
   1 -10   6 146.910 12.4600   1
   1 -10   6 167.500 12.1800   1
   1 -10   6 151.140 12.5000   1
  -1 -10  -6 91.1300 8.84000   1
  -1 -10  -6 125.580 9.88000   1
  -1 -10  -6 93.1200 8.82000   1
  -3 -11   1 59.1900 6.09000   1
  -3 -11   1 87.8500 5.70000   1
  -3 -11   1 63.2700 6.24000   1
  -4  -1   2 1.74000 1.52000   1
  -4   1   2 2.97000 1.66000   1
   4  -1  -2 2.21000 2.19000   1
  -4  -3   1 88.3700 5.95000   1
   3 -11  -1 62.0600 6.85000   1
   3 -11  -1 59.8500 6.21000   1
   3 -11  -1 52.5400 5.43000   1
  -4   3   1 90.9000 6.94000   1
   4  -3  -1 87.4600 7.14000   1
  -4  -3   0 9.98000 2.29000   1
   4  -3   0 8.55000 2.64000   1
  -4   3   0 12.4600 2.61000   1
  -3 -10  -2 142.600 9.56000   1
  -3 -10  -2 106.220 8.50000   1
  -3 -10  -2 110.120 8.32000   1
  -4  -1  -1 125.810 10.1900   1
   4  -1   1 107.460 9.50000   1
  -4   1  -1 100.480 8.58000   1
  -3  10  -2 113.390 10.1300   1
   3 -10   2 110.990 8.90000   1
   3 -10   2 113.950 8.71000   1
   3 -10   2 116.900 10.4700   1
   1   2  -8 54.5900 4.33000   1
   1   2  -8 70.3700 5.24000   1
   1  -2  -8 46.3900 3.97000   1
   1  -2  -8 64.0400 5.19000   1
   1  -2  -8 49.9100 4.09000   1
   0 -13   5 425.500 41.4900   1
   0 -13   5 419.180 39.3000   1
   0 -13   5 447.700 42.9500   1
   0  13  -5 413.150 33.3100   1
  -1   7  -7 246.860 19.4400   1
   1  -7   7 268.720 20.9200   1
  -1  -7  -7 198.950 14.5500   1
  -1  -7  -7 170.170 14.0900   1
  -1  -7  -7 168.310 14.4600   1
   0 -13  -5 222.120 22.9600   1
   0 -13  -5 220.080 22.5800   1
   0 -13  -5 316.380 29.2600   1
   0 -13  -5 282.640 28.7500   1
  -1  -8   7 747.430 80.1600   1
  -1  -8   7 729.290 77.8800   1
   1  -8  -7 364.030 34.2700   1
   1  -8  -7 290.810 25.5400   1
   1  -8  -7 306.700 26.2400   1
   1  -8  -7 309.190 26.7300   1
  -4  -2   2 4.20000 1.89000   1
   4  -2  -2 4.12000 1.76000   1
  -4   2   2 0.70000 2.15000   1
  -3  -3  -5 14.5900 3.52000   1
  -3  -3  -5 19.8900 2.80000   1
  -3  -3  -5 21.9700 2.91000   1
   3  -3   5 14.7400 3.09000   1
  -3   3  -5 20.2800 2.76000   1
  -3   3  -5 14.6100 2.87000   1
  -3   3  -5 17.6600 3.62000   1
  -4  -2  -1 19.5800 2.95000   1
  -4   2  -1 18.3400 3.25000   1
   4  -2   1 16.1000 3.27000   1
  -2   7  -6 158.710 12.8100   1
   2  -7   6 166.990 13.4000   1
  -2  -7  -6 133.410 10.6400   1
  -2  -7  -6 123.910 10.2100   1
  -2  -7  -6 121.730 9.97000   1
  -3  -7  -4 63.8700 5.71000   1
  -3  -7  -4 59.1000 4.79000   1
  -3  -7  -4 56.6800 4.87000   1
   3  -7   4 75.5500 6.69000   1
   3  -7   4 77.9400 6.50000   1
   3  -7   4 79.8100 6.72000   1
  -3   7  -4 81.3400 7.62000   1
  -3  -9  -3 2.96000 2.27000   1
  -3  -9  -3 3.83000 1.91000   1
  -3  -9  -3 3.03000 1.89000   1
   0 -16   2 198.950 19.3100   1
   0 -16   2 205.930 18.7100   1
   0 -16   2 195.320 19.7100   1
   3  -9   3 0.43000 1.96000   1
   3  -9   3 3.11000 2.04000   1
  -3   9  -3 -1.2700 2.45000   1
   3  -9   3 2.86000 2.21000   1
  -1 -16   0 185.220 18.4200   1
  -1 -16   0 219.530 19.9900   1
  -1 -16   0 195.990 19.0900   1
   0 -16  -2 187.670 19.7900   1
   0 -16  -2 168.230 18.1900   1
   0 -16  -2 229.010 21.0100   1
   2   5  -7 14.6300 2.06000   1
   2   5  -7 14.8600 1.97000   1
   1 -16   0 190.400 18.8000   1
   1 -16   0 162.400 18.0100   1
   1 -16   0 169.990 18.1800   1
  -1 -14   4 200.390 18.0400   1
  -1 -14   4 205.230 18.3400   1
  -1 -14   4 188.220 16.1900   1
   2  -5  -7 19.2200 2.54000   1
   2  -5  -7 9.91000 2.51000   1
  -2 -14   2 4.72000 2.97000   1
  -2 -14   2 2.80000 2.47000   1
  -2 -14   2 1.74000 2.54000   1
   1 -14  -4 148.450 13.8200   1
   1 -14  -4 102.990 12.5300   1
   1 -14  -4 107.740 12.0300   1
   3 -10  -3 37.0300 3.70000   1
   3 -10  -3 18.5100 3.69000   1
   3 -10  -3 22.4300 3.67000   1
   2 -14  -2 4.75000 3.56000   1
   2 -14  -2 7.02000 3.29000   1
   2 -14  -2 2.68000 3.28000   1
   0   4  -8 374.950 32.9100   1
   0   4  -8 361.910 31.9200   1
   0  -4  -8 253.150 19.5200   1
   0  -4  -8 244.640 19.0400   1
   0  -4  -8 266.840 18.2900   1
  -3 -11  -1 63.7600 5.71000   1
  -3 -11  -1 79.2500 5.80000   1
  -3 -11  -1 69.4300 5.76000   1
  -3  11  -1 71.0000 7.25000   1
   3 -11   1 62.3700 7.20000   1
   3 -11   1 56.6100 5.90000   1
   3 -11   1 78.6200 6.30000   1
  -1 -15   3 217.060 17.1800   1
  -1 -15   3 187.260 19.6600   1
  -1 -15   3 189.860 19.2200   1
   1   3  -8 161.790 11.8700   1
   1   3  -8 138.740 10.1000   1
   1  -3  -8 111.950 8.36000   1
   1  -3  -8 149.710 11.5200   1
   1  -3  -8 118.250 8.62000   1
   1 -15  -3 122.790 13.6500   1
   1 -15  -3 135.150 14.9800   1
   1 -15  -3 134.080 13.4100   1
  -4  -4   1 3.82000 1.98000   1
  -4   4   1 1.44000 2.10000   1
   4  -4  -1 3.90000 2.38000   1
  -4  -4   0 216.320 15.5400   1
  -4   4   0 218.900 17.3300   1
   4  -4   0 237.630 20.5700   1
  -1 -16   1 92.2000 8.59000   1
  -1 -16   1 65.1800 8.38000   1
  -1 -16   1 76.5000 8.56000   1
   1 -16  -1 82.8300 9.87000   1
   1 -16  -1 75.7700 9.36000   1
   1 -16  -1 69.3400 9.35000   1
  -4  -3   2 -2.8600 1.60000   1
  -4   3   2 0.81000 1.72000   1
   4  -3  -2 0.53000 1.62000   1
   2 -10   5 434.670 37.3600   1
   2 -10   5 384.630 33.0200   1
   2 -10   5 383.490 35.4600   1
  -2  10  -5 329.960 30.5300   1
  -1 -11   6 110.440 8.66000   1
  -1 -11   6 98.9300 8.36000   1
  -2 -10  -5 275.190 23.0800   1
  -2 -10  -5 268.750 22.9500   1
  -2 -10  -5 317.790 24.6100   1
  -2 -11   5 1.27000 2.16000   1
  -2 -11   5 4.69000 2.18000   1
  -4  -3  -1 93.4600 7.39000   1
   1 -11  -6 34.1900 4.44000   1
   1 -11  -6 46.5200 5.25000   1
   1 -11  -6 35.5100 4.34000   1
  -4   3  -1 62.7000 3.92000   1
   4  -3   1 76.2200 6.56000   1
  -4   3  -1 85.5500 6.86000   1
  -4   3  -1 67.6500 4.24000   1
   2 -11  -5 5.32000 2.79000   1
   2 -11  -5 2.27000 3.00000   1
   2 -11  -5 0.59000 2.64000   1
  -2 -13  -3 12.6300 3.12000   1
  -2 -13  -3 19.6500 3.16000   1
  -2 -13  -3 20.1400 3.27000   1
   2 -13   3 14.3100 3.98000   1
   2 -13   3 17.6900 3.98000   1
  -2  13  -3 18.5300 3.59000   1
   2 -13   3 14.7700 4.04000   1
  -3 -11   2 67.9300 4.00000   1
  -3 -11   2 64.7700 5.57000   1
  -3 -11   2 54.9400 5.24000   1
  -2   0  -7 -0.9300 1.89000   1
  -2   0  -7 1.08000 2.27000   1
  -2   0  -7 4.00000 1.83000   1
   3 -11  -2 58.5300 6.37000   1
   3 -11  -2 55.5100 6.15000   1
   3 -11  -2 48.0200 6.22000   1
  -1 -16  -1 103.320 9.14000   1
  -1 -16  -1 71.5700 7.74000   1
  -1 -16  -1 72.9500 7.97000   1
  -1 -16  -1 53.7300 6.27000   1
   1 -16   1 77.8500 9.97000   1
   1 -16   1 93.2600 10.1100   1
   1 -16   1 89.1800 10.2600   1
  -2   1  -7 46.5600 4.85000   1
  -2   1  -7 62.2700 5.62000   1
  -2   1  -7 43.9500 4.75000   1
  -2  -1  -7 36.0400 3.92000   1
  -2  -1  -7 37.0300 3.93000   1
  -2  -1  -7 48.3900 4.87000   1
  -3  -4  -5 171.580 13.6200   1
  -3  -4  -5 179.870 13.8600   1
  -3  -4  -5 210.180 16.1200   1
  -3   4  -5 187.550 14.5300   1
   3  -4   5 206.670 15.6900   1
  -3   4  -5 163.820 13.7200   1
  -3   4  -5 222.170 17.7000   1
  -2  -9   6 82.3300 5.73000   1
  -2  -9   6 76.3700 5.63000   1
   0  -9   7 481.180 42.3300   1
   0  -9   7 411.950 34.1800   1
   0  -9   7 483.850 42.7900   1
   2  -9  -6 39.6900 4.98000   1
   2  -9  -6 37.1500 4.20000   1
   2  -9  -6 37.7200 3.55000   1
   0  -9  -7 201.530 17.5100   1
   0  -9  -7 202.770 16.9700   1
   0  -9  -7 245.360 19.5200   1
   3  -9  -4 95.5600 6.65000   1
   3  -7  -5 53.5200 3.53000   1
  -2   2  -7 74.5900 6.84000   1
  -2   2  -7 63.8700 6.28000   1
  -2   2  -7 72.5000 6.55000   1
  -2  -2  -7 58.9100 5.96000   1
  -2  -2  -7 71.6000 6.63000   1
  -2  -2  -7 70.1300 6.53000   1
  -1 -13   5 44.8400 5.03000   1
  -1 -13   5 41.4700 5.19000   1
  -1 -13   5 38.9700 4.11000   1
   1 -15   3 255.550 25.6300   1
   1 -15   3 247.350 25.6500   1
   1 -15   3 248.870 24.4400   1
  -1 -15  -3 203.230 22.0500   1
  -1 -15  -3 227.930 22.4800   1
  -1 -15  -3 222.810 22.0000   1
  -1 -15  -3 210.400 22.0600   1
   1 -14   4 232.140 20.4000   1
   1 -14   4 218.430 19.7600   1
   1 -14   4 227.570 20.1400   1
   1 -13  -5 29.8200 5.09000   1
   1 -13  -5 25.9800 4.29000   1
   1 -13  -5 19.7300 4.18000   1
  -1 -14  -4 149.610 14.0900   1
  -1 -14  -4 219.290 18.2100   1
  -1 -14  -4 147.130 14.3000   1
  -2 -14  -2 3.91000 2.32000   1
  -2 -14  -2 2.15000 2.69000   1
  -2 -14  -2 -3.9600 2.69000   1
   2 -14   2 4.50000 3.34000   1
   2 -14   2 4.07000 3.26000   1
   2 -14   2 5.86000 3.51000   1
   1   4  -8 0.82000 1.74000   1
   1   4  -8 -2.8200 1.73000   1
   2 -12   4 28.5800 4.62000   1
   2 -12   4 33.0400 5.12000   1
  -2  12  -4 38.5400 4.52000   1
   2 -12   4 36.9500 5.30000   1
  -2 -12  -4 27.4700 3.68000   1
  -2 -12  -4 21.6000 3.08000   1
  -2 -12  -4 19.1700 3.04000   1
   1  -4  -8 0.97000 2.61000   1
   1  -4  -8 -0.7100 1.80000   1
   1  -4  -8 2.46000 1.80000   1
  -1   0  -8 -0.5600 1.84000   1
  -1   0  -8 -2.5100 1.80000   1
  -1   0  -8 1.25000 1.93000   1
   0   5  -8 23.6100 3.54000   1
   0   5  -8 25.9500 3.64000   1
  -4  -4   2 345.530 25.9400   1
  -4   0   3 0.24000 1.47000   1
   0  -5  -8 16.1000 2.94000   1
   0  -5  -8 22.5900 2.92000   1
   0  -5  -8 17.1400 3.13000   1
   4  -4  -2 352.980 30.9700   1
  -4   4   2 324.820 26.7200   1
  -4  -4  -1 0.08000 1.82000   1
  -1   1  -8 18.9400 3.51000   1
  -1   1  -8 20.7700 3.13000   1
  -1   1  -8 19.2600 3.18000   1
  -1  -1  -8 19.8400 3.24000   1
  -1  -1  -8 16.9000 3.05000   1
  -1  -1  -8 15.2200 3.14000   1
  -4   4  -1 2.44000 2.27000   1
  -4   4  -1 1.49000 1.25000   1
  -4   4  -1 1.75000 1.22000   1
   4  -4   1 2.71000 2.17000   1
  -4   0  -2 163.940 11.4800   1
  -4   0  -2 165.460 10.9400   1
  -4   0  -2 200.480 15.2100   1
   2   6  -7 468.760 44.2500   1
   2   6  -7 521.260 44.2700   1
   2  -6  -7 253.850 20.2100   1
   2  -6  -7 274.850 21.5400   1
  -4  -1   3 140.970 8.89000   1
  -4   1   3 136.220 8.31000   1
   4  -1  -3 93.7800 7.30000   1
  -4  -5   1 145.590 10.2200   1
  -4   5   1 147.930 11.7200   1
   4  -5  -1 166.690 14.0100   1
  -4  -5   0 12.0100 2.19000   1
  -4   5   0 10.7900 2.73000   1
   4  -5   0 8.82000 3.17000   1
  -4  -1  -2 22.4400 3.25000   1
  -4  -1  -2 18.8900 2.17000   1
  -4  -1  -2 17.8800 2.13000   1
  -4   1  -2 22.9400 2.62000   1
  -4   1  -2 21.6100 2.50000   1
   4  -1   2 22.4300 4.02000   1
  -4   1  -2 27.1200 3.91000   1
  -1   8  -7 41.1200 4.68000   1
   1  -8   7 51.6000 4.85000   1
  -1  -8  -7 27.6400 3.63000   1
  -1  -8  -7 34.0800 4.43000   1
  -1  -8  -7 31.9800 3.72000   1
  -2   3  -7 3.72000 2.39000   1
  -2   3  -7 3.54000 2.30000   1
  -2   3  -7 5.13000 2.27000   1
  -2  -3  -7 0.28000 2.42000   1
  -2  -3  -7 4.02000 2.09000   1
  -2  -3  -7 1.95000 2.08000   1
  -1   2  -8 243.830 20.4000   1
  -1   2  -8 238.410 20.4100   1
  -1   2  -8 309.440 23.6100   1
  -2   8  -6 39.6500 4.28000   1
   2  -8   6 28.9400 5.02000   1
   2  -8   6 34.3400 3.91000   1
   2  -8   6 41.3100 4.91000   1
  -1  -2  -8 290.040 21.6500   1
  -1  -2  -8 216.050 19.5500   1
  -1  -2  -8 247.960 21.0600   1
  -2  -8  -6 30.6700 4.33000   1
  -2  -8  -6 33.4900 3.97000   1
  -2  -8  -6 30.1500 3.99000   1
  -1 -16   2 39.7000 5.06000   1
  -1 -16   2 32.3100 5.18000   1
  -1 -16   2 33.6800 5.13000   1
   1 -16  -2 24.6100 5.94000   1
   1 -16  -2 24.7500 5.19000   1
   1 -16  -2 21.5300 4.95000   1
  -3  -8  -4 -1.1600 1.82000   1
  -3  -8  -4 2.06000 2.12000   1
  -3  -8  -4 -0.6900 1.79000   1
   3  -8   4 4.54000 2.10000   1
   3  -8   4 3.06000 2.01000   1
   3  -8   4 0.35000 2.26000   1
  -3   8  -4 -0.5700 2.56000   1
  -4  -2   3 0.29000 1.31000   1
   4  -2  -3 0.76000 1.74000   1
  -4   2   3 -3.1700 1.80000   1
  -3  -5  -5 16.6800 2.83000   1
  -3  -5  -5 16.4100 2.83000   1
  -3  -5  -5 13.0300 3.10000   1
  -3   5  -5 15.0600 3.36000   1
  -3   5  -5 13.7100 2.48000   1
  -3   5  -5 10.2500 2.58000   1
   3  -5   5 10.1100 2.93000   1
  -1  -9   7 26.1100 3.37000   1
  -1  -9   7 27.2300 3.39000   1
  -4  -2  -2 -1.5800 1.41000   1
  -4  -2  -2 -0.7500 1.46000   1
  -4  -2  -2 -0.7200 2.10000   1
  -4   2  -2 3.19000 2.22000   1
  -4   2  -2 0.03000 1.23000   1
  -4   2  -2 0.76000 1.23000   1
   4  -2   2 -1.1800 2.20000   1
   1  -9  -7 6.43000 3.14000   1
   1  -9  -7 7.77000 2.37000   1
   1  -9  -7 10.9800 2.45000   1
  -1  11  -6 4.68000 1.74000   1
   1 -11   6 6.49000 2.63000   1
   1 -11   6 4.80000 2.22000   1
   1 -11   6 1.82000 2.66000   1
  -1 -11  -6 2.23000 2.60000   1
  -1 -11  -6 6.87000 2.62000   1
  -1 -11  -6 3.44000 2.64000   1
   0 -12   6 348.050 30.7300   1
   0 -12   6 296.280 24.1700   1
   0 -12   6 356.960 30.5000   1
  -3 -11  -2 34.3200 4.11000   1
  -3 -11  -2 38.8500 4.15000   1
  -3 -11  -2 39.5800 4.05000   1
   3 -11   2 52.1400 5.01000   1
   3 -11   2 42.9200 4.83000   1
   3 -11   2 35.7500 5.83000   1
  -3  11  -2 49.2500 5.66000   1
   0 -12  -6 202.490 18.3900   1
   0 -12  -6 134.220 11.9900   1
   0 -12  -6 130.920 11.8700   1
   0 -12  -6 175.800 16.0000   1
   0 -17   0 1.33000 3.44000   1
   0 -17   0 -0.7200 3.03000   1
   0 -17   0 5.21000 3.01000   1
   0 -15   4 6.08000 3.49000   1
   0 -15   4 9.09000 2.88000   1
   0 -15   4 10.1200 3.44000   1
  -3 -12   0 19.9800 2.53000   1
  -3 -12   0 10.4700 3.48000   1
  -3 -12   0 15.1200 3.43000   1
   0 -15  -4 2.68000 3.15000   1
   0 -15  -4 9.29000 4.00000   1
   0 -15  -4 9.64000 3.96000   1
   0 -15  -4 0.34000 3.97000   1
  -2 -13   4 51.5400 6.47000   1
  -2 -13   4 50.0700 5.21000   1
  -2 -13   4 64.1700 5.42000   1
  -2 -15   0 317.370 28.2200   1
  -2 -15   0 331.150 28.1000   1
  -2 -15   0 301.070 27.1200   1
   3 -12   0 10.4200 2.82000   1
   3 -12   0 11.1600 3.76000   1
   3 -12   0 7.53000 3.44000   1
   2 -15   0 275.660 29.4800   1
   2 -15   0 262.280 27.7300   1
   2 -15   0 251.550 25.8200   1
   2 -13  -4 39.6700 4.79000   1
   2 -13  -4 26.0000 4.47000   1
   2 -13  -4 25.9400 5.02000   1
   1   5  -8 338.600 29.0300   1
   1   5  -8 312.020 26.3100   1
  -3 -12   1 235.530 20.9000   1
  -3 -12   1 223.680 16.0500   1
  -3 -12   1 230.010 19.7100   1
   1 -16   2 39.3500 6.62000   1
   1 -16   2 26.1100 6.30000   1
   1 -16   2 53.7100 6.14000   1
  -1 -16  -2 64.3300 7.22000   1
  -1 -16  -2 44.4600 6.35000   1
  -1 -16  -2 49.6700 7.59000   1
  -1 -16  -2 39.3400 6.39000   1
   1  -5  -8 195.310 15.9300   1
   1  -5  -8 277.920 22.6300   1
   1  -5  -8 191.810 15.7300   1
  -2 -14   3 364.460 38.1800   1
  -2 -14   3 419.290 35.4000   1
  -2 -14   3 347.790 34.7500   1
   3 -12  -1 194.680 16.5200   1
   3 -12  -1 153.630 13.2100   1
   3 -12  -1 138.200 12.5300   1
   2 -14  -3 237.100 23.0400   1
   2 -14  -3 209.590 21.8200   1
   2 -14  -3 234.110 23.7800   1
  -1  13  -5 21.3000 2.90000   1
   1 -13   5 31.9300 4.27000   1
   1 -13   5 38.1700 4.09000   1
   1 -13   5 27.6000 4.43000   1
  -1   3  -8 5.47000 2.57000   1
  -1   3  -8 3.64000 2.56000   1
  -1   3  -8 9.13000 2.63000   1
  -1  -3  -8 8.05000 2.29000   1
  -1  -3  -8 7.82000 2.31000   1
  -1  -3  -8 5.98000 2.59000   1
  -1 -13  -5 19.1700 3.60000   1
  -1 -13  -5 17.3500 3.68000   1
  -1 -13  -5 27.2000 4.28000   1
  -3 -10  -3 20.6600 3.04000   1
  -3 -10  -3 13.9100 2.44000   1
  -3 -10  -3 8.89000 2.32000   1
   3 -10   3 20.1700 3.47000   1
   3 -10   3 26.1100 3.32000   1
  -3  10  -3 12.2600 3.83000   1
   3 -10   3 17.8300 3.17000   1
  -4  -3   3 156.820 9.32000   1
  -4  -5   2 -1.4700 1.35000   1
  -4   3   3 131.200 8.83000   1
   4  -3  -3 136.830 9.87000   1
  -2 -15   1 2.31000 3.02000   1
  -2 -15   1 6.95000 2.62000   1
  -2 -15   1 1.42000 2.87000   1
  -2 -15   1 4.21000 2.12000   1
  -4   5   2 1.90000 1.78000   1
   4  -5  -2 -1.4100 2.04000   1
   2 -15  -1 5.00000 3.98000   1
   2 -15  -1 -1.3800 3.51000   1
   2 -15  -1 12.9100 3.43000   1
  -4  -5  -1 262.340 20.4000   1
  -4   5  -1 244.730 17.4100   1
   4  -5   1 283.310 20.5200   1
  -4   5  -1 174.380 11.3300   1
  -4   5  -1 159.170 11.0400   1
  -4  -3  -2 7.67000 2.05000   1
  -4  -3  -2 10.2500 2.08000   1
  -4  -3  -2 10.7700 2.62000   1
   4  -3   2 8.54000 2.82000   1
  -4   3  -2 12.0100 1.86000   1
  -4   3  -2 10.3700 2.94000   1
  -4   3  -2 6.79000 1.79000   1
   0 -16   3 17.7500 4.54000   1
   0 -16   3 27.9500 3.97000   1
   0 -16   3 13.3100 4.50000   1
  -2   4  -7 1.25000 2.17000   1
   2  -4   7 2.78000 2.00000   1
  -2   4  -7 0.30000 2.23000   1
  -2   4  -7 2.60000 2.16000   1
   0 -16  -3 21.0200 5.14000   1
   0 -16  -3 23.0800 5.27000   1
   0 -16  -3 23.9000 5.62000   1
  -2  -4  -7 -0.1700 1.85000   1
  -2  -4  -7 1.51000 1.87000   1
  -2  -4  -7 -2.9600 2.34000   1
   0 -17   1 332.940 35.8100   1
   0 -17   1 333.490 35.2800   1
   0 -17   1 399.060 38.1400   1
   0 -17  -1 387.750 36.8600   1
   0 -17  -1 290.970 32.8600   1
   0 -17  -1 293.040 31.2800   1
   0   6  -8 -0.3000 2.13000   1
   0   6  -8 3.37000 2.04000   1
   0  -6  -8 -0.2100 2.13000   1
   0  -6  -8 0.78000 2.15000   1
   0  -6  -8 3.72000 1.92000   1
   3 -11  -3 59.5500 5.93000   1
   3 -11  -3 52.1800 6.11000   1
  -4  -6   1 7.59000 2.08000   1
  -4  -6   0 5.39000 1.84000   1
   3  -8  -5 108.630 6.74000   1
  -4   6   1 5.53000 2.20000   1
   4  -6  -1 2.39000 2.13000   1
   4  -6   0 1.17000 2.07000   1
  -4   6   0 -0.4400 2.09000   1
  -2 -15  -1 -1.5400 2.55000   1
  -2 -15  -1 2.58000 2.49000   1
  -2 -15  -1 3.84000 2.63000   1
   2 -15   1 6.25000 3.43000   1
   2 -15   1 8.41000 3.50000   1
   2 -15   1 0.86000 3.52000   1
   2   7  -7 7.14000 2.00000   1
   2   7  -7 11.3600 1.91000   1
   2  -7  -7 6.25000 2.40000   1
   2  -7  -7 6.33000 2.46000   1
   0 -14   5 4.97000 2.60000   1
   0 -14   5 1.47000 2.77000   1
   0 -14   5 2.55000 2.88000   1
  -3 -12  -1 231.140 17.7400   1
  -3 -12  -1 240.460 21.5500   1
  -3 -12  -1 248.490 22.1200   1
   2 -11   5 6.68000 3.14000   1
   2 -11   5 5.76000 2.56000   1
   2 -11   5 7.10000 3.25000   1
  -2  11  -5 8.69000 2.45000   1
  -2 -11  -5 -0.8200 2.31000   1
  -2 -11  -5 7.15000 2.36000   1
  -2 -11  -5 3.92000 2.29000   1
   0 -14  -5 2.13000 3.48000   1
   0 -14  -5 -1.3000 2.86000   1
   0 -14  -5 8.04000 4.08000   1
   0 -14  -5 5.13000 2.85000   1
   3 -12   1 211.970 19.5100   1
  -3  12  -1 217.080 19.4400   1
   3 -12   1 177.660 16.0400   1
   3 -12   1 222.920 20.1100   1
  -2 -10   6 65.0400 5.59000   1
  -2 -10   6 74.3800 5.85000   1
   0 -10   7 41.1700 4.29000   1
   0 -10   7 27.7100 2.61000   1
   0 -10   7 38.6900 4.39000   1
   2 -10  -6 28.7000 3.70000   1
   2 -10  -6 30.2400 3.96000   1
   2 -10  -6 22.7100 4.67000   1
   0 -10  -7 21.5300 3.48000   1
   0 -10  -7 14.7800 3.73000   1
   0 -10  -7 20.1000 4.80000   1
   0 -10  -7 18.8500 3.51000   1
   3 -10  -4 158.220 11.5600   1
  -3  -6  -5 6.81000 2.64000   1
  -3  -6  -5 8.72000 2.73000   1
  -3  -6  -5 13.0800 2.63000   1
  -3   6  -5 2.22000 2.15000   1
   3  -6   5 8.65000 2.89000   1
  -3   6  -5 4.10000 2.08000   1
  -3   6  -5 9.61000 2.74000   1
  -1   4  -8 2.14000 2.05000   1
  -1   4  -8 0.24000 2.15000   1
  -1   4  -8 -2.3900 2.21000   1
  -1  -4  -8 -2.8600 1.94000   1
  -1  -4  -8 -0.6600 2.16000   1
  -1  -4  -8 -0.3100 1.95000   1
  -4   4   3 -1.6400 1.64000   1
   4  -4  -3 -2.6400 2.21000   1
  -1 -12   6 14.5200 3.09000   1
  -1 -12   6 11.8700 3.23000   1
  -2 -12   5 44.6700 5.21000   1
  -2 -12   5 57.3500 5.43000   1
   1 -12  -6 8.61000 3.29000   1
   1 -12  -6 8.34000 2.92000   1
   1 -12  -6 4.92000 2.88000   1
   2 -12  -5 31.5300 4.73000   1
   2 -12  -5 21.1600 4.46000   1
   2 -12  -5 24.3400 4.28000   1
  -4  -4  -2 149.530 11.1700   1
  -4  -4  -2 218.210 14.0900   1
  -4  -4  -2 145.740 10.9500   1
  -4   4  -2 199.460 15.7400   1
   4  -4   2 191.430 15.1800   1
  -4   4  -2 171.240 12.1100   1
  -4   4  -2 159.770 11.5100   1
  -3 -12   2 34.0300 3.78000   1
  -3 -12   2 24.2800 3.77000   1
   3 -12  -2 13.2400 4.50000   1
   3 -12  -2 31.6100 4.54000   1
   3 -12  -2 16.8500 4.18000   1
   1   6  -8 103.500 8.41000   1
   1   6  -8 108.140 9.39000   1
  -1 -15   4 59.1600 6.04000   1
  -1 -15   4 52.7500 6.35000   1
  -1 -15   4 40.3900 6.42000   1
  -2   5  -7 42.2500 4.30000   1
   2  -5   7 37.1900 3.96000   1
  -2   5  -7 48.4400 4.55000   1
  -2   5  -7 34.9500 4.32000   1
  -2  -5  -7 32.8700 4.59000   1
  -2  -5  -7 33.0500 3.69000   1
  -2  -5  -7 29.0100 3.64000   1
   1  -6  -8 74.1900 6.74000   1
   1  -6  -8 48.3900 4.51000   1
   1  -6  -8 49.7700 4.54000   1
  -1   9  -7 108.050 8.37000   1
   1  -9   7 99.3000 7.76000   1
   1  -9   7 108.210 9.46000   1
   1  -9   7 112.820 10.0000   1
  -2 -15   2 296.020 25.2700   1
  -2 -15   2 267.770 25.2400   1
  -2 -15   2 271.550 25.3600   1
   1 -15  -4 33.1400 6.35000   1
   1 -15  -4 51.4900 7.15000   1
   1 -15  -4 28.5800 6.05000   1
  -1  -9  -7 56.5300 6.03000   1
  -1  -9  -7 64.8400 6.02000   1
  -1  -9  -7 91.3500 7.32000   1
   2 -15  -2 183.440 19.4000   1
   2 -15  -2 194.910 19.0200   1
   2 -15  -2 176.700 19.6200   1
  -4  -6   2 15.2000 1.94000   1
  -4   6   2 15.1800 2.79000   1
   4  -6  -2 13.4500 2.56000   1
  -4  -6  -1 82.9700 6.46000   1
   2  -9   6 25.2300 4.42000   1
   2  -9   6 30.2600 3.80000   1
   2  -9   6 31.3200 4.63000   1
  -2   9  -6 29.6500 3.80000   1
   4  -6   1 87.0400 7.94000   1
  -4   6  -1 57.4900 4.27000   1
  -4   6  -1 66.1700 4.43000   1
  -4   6  -1 76.8700 6.67000   1
  -2  -9  -6 26.4100 3.72000   1
  -2  -9  -6 14.9000 3.03000   1
  -2  -9  -6 23.6700 3.12000   1
  -2 -14  -3 181.280 16.0400   1
  -2 -14  -3 211.210 15.6600   1
  -2 -14  -3 182.110 16.0200   1
   2 -14   3 222.240 20.5500   1
   2 -14   3 223.110 21.1900   1
   2 -14   3 215.020 20.7900   1
  -2  14  -3 212.830 19.6000   1
  -3  -9  -4 145.570 11.5400   1
  -3  -9  -4 149.220 11.5700   1
  -3  -9  -4 167.320 12.5100   1
  -3   9  -4 193.260 14.7800   1
   3  -9   4 164.830 12.1200   1
   3  -9   4 137.290 12.3400   1
   3  -9   4 135.150 11.0300   1
   0 -17   2 8.81000 3.24000   1
   0 -17   2 4.04000 3.29000   1
   0 -17   2 2.46000 3.24000   1
  -1 -17   0 239.040 23.7700   1
  -1 -17   0 216.570 22.9700   1
  -1 -17   0 299.250 26.2800   1
   0 -17  -2 0.65000 3.33000   1
   0 -17  -2 -3.1000 2.91000   1
   0 -17  -2 0.98000 3.38000   1
  -1 -16   3 154.950 15.5400   1
  -1 -16   3 160.010 15.2000   1
  -1 -16   3 144.500 12.7100   1
   1 -17   0 214.230 24.0000   1
   1 -17   0 262.410 24.9600   1
   1 -17   0 230.320 24.2600   1
   1 -16  -3 125.140 12.9300   1
   1 -16  -3 88.1200 10.4900   1
   1 -16  -3 88.9800 11.2200   1
  -1 -10   7 68.3800 5.86000   1
  -1 -10   7 68.9900 5.66000   1
   1 -10  -7 23.2800 3.37000   1
   1 -10  -7 21.4300 3.37000   1
   1 -10  -7 27.3400 4.51000   1
  -2  13  -4 13.1300 3.33000   1
   2 -13   4 20.2600 3.84000   1
   2 -13   4 9.64000 3.58000   1
   2 -13   4 15.8500 3.98000   1
  -2 -13  -4 16.2400 3.22000   1
  -2 -13  -4 10.8700 2.77000   1
  -2 -13  -4 8.71000 2.78000   1
   0   7  -8 50.0000 5.09000   1
   0   7  -8 45.3600 5.11000   1
   0  -7  -8 36.8100 4.26000   1
   0  -7  -8 39.4200 4.42000   1
   0  -7  -8 41.1600 4.48000   1
  -1   5  -8 16.3700 3.15000   1
  -1   5  -8 14.3800 3.24000   1
  -1   5  -8 15.3400 2.94000   1
  -1  -5  -8 11.1200 2.57000   1
  -1  -5  -8 8.67000 2.84000   1
  -1  -5  -8 11.8200 2.55000   1
  -4   0  -3 1.84000 1.76000   1
  -4   0  -3 0.44000 1.89000   1
  -4   0  -3 0.41000 2.19000   1
  -1 -14   5 74.1000 7.75000   1
  -1 -14   5 76.1700 7.45000   1
  -1 -14   5 66.7600 6.04000   1
  -4   1   4 17.9800 2.08000   1
  -4  -7   1 50.6500 4.11000   1
   4  -5  -3 161.560 13.3300   1
  -4   5   3 148.060 11.9000   1
  -4  -7   0 1.77000 1.61000   1
   4  -7  -1 49.3800 5.62000   1
  -4   7   1 56.4400 5.48000   1
   1 -14  -5 59.3800 7.01000   1
   1 -14  -5 33.4900 7.15000   1
   1 -14  -5 44.9200 6.92000   1
   4  -7   0 2.69000 2.22000   1
  -4   7   0 3.25000 2.35000   1
  -4  -5  -2 1.78000 1.64000   1
  -4  -5  -2 -0.3800 2.13000   1
  -4  -5  -2 2.73000 1.71000   1
  -1 -17   1 60.7600 7.46000   1
  -1 -17   1 65.5000 7.43000   1
  -1 -17   1 60.2800 7.55000   1
   4  -5   2 -0.6100 2.30000   1
  -4   5  -2 0.89000 1.60000   1
  -4   5  -2 2.42000 2.32000   1
  -4   5  -2 2.92000 1.59000   1
   1 -17  -1 61.2200 8.31000   1
   1 -17  -1 50.8200 7.89000   1
   1 -17  -1 55.2600 7.85000   1
  -4  -1  -3 119.970 9.19000   1
  -4  -1  -3 97.3200 7.49000   1
  -4  -1  -3 103.890 7.74000   1
  -4   1  -3 95.5900 6.85000   1
  -4   1  -3 138.620 9.82000   1
  -4   1  -3 87.0000 6.71000   1
   4  -1   3 96.1300 7.39000   1
  -3   0  -6 1.48000 1.87000   1
  -3   0  -6 -2.0900 1.80000   1
  -3   0  -6 -0.4800 2.35000   1
   2  -2  -8 3.54000 1.82000   1
   1 -15   4 0.82000 2.67000   1
   1 -15   4 2.51000 2.58000   1
   1 -15   4 -0.6600 2.59000   1
  -1 -15  -4 5.12000 2.72000   1
  -1 -15  -4 1.77000 3.42000   1
  -1 -15  -4 3.65000 2.75000   1
  -2 -15  -2 201.550 20.0300   1
  -2 -15  -2 206.790 20.7000   1
  -2 -15  -2 231.890 18.5700   1
   2 -15   2 236.800 23.0400   1
   2 -15   2 198.810 21.3600   1
   2 -15   2 227.400 23.0400   1
  -3   1  -6 176.230 14.0400   1
  -3   1  -6 219.020 16.8000   1
  -3   1  -6 173.710 14.1100   1
  -3  -1  -6 186.550 15.9200   1
  -3  -1  -6 185.830 15.5100   1
  -3  -1  -6 176.330 14.8500   1
  -1 -17  -1 21.4800 4.17000   1
  -1 -17  -1 29.3500 5.42000   1
  -1 -17  -1 28.5200 4.41000   1
   1 -17   1 20.3100 5.03000   1
   1 -17   1 22.5600 5.06000   1
   1 -17   1 19.7800 5.14000   1
  -4   2   4 11.5200 1.99000   1
  -3  -7  -5 78.2200 6.50000   1
  -3  -7  -5 55.1800 5.96000   1
  -3  -7  -5 59.1400 5.99000   1
  -3   7  -5 62.2900 5.84000   1
   3  -7   5 74.9000 7.37000   1
  -3   7  -5 58.2400 5.65000   1
  -3   7  -5 75.9000 6.86000   1
   2   8  -7 35.0500 3.56000   1
   2   8  -7 32.4000 3.35000   1
   1 -12   6 13.2300 2.82000   1
   1 -12   6 17.3200 3.50000   1
   1 -12   6 17.7000 3.58000   1
  -1  12  -6 8.47000 2.65000   1
  -1 -12  -6 10.5200 2.80000   1
  -1 -12  -6 7.20000 2.98000   1
  -1 -12  -6 6.22000 2.86000   1
  -4  -2  -3 7.94000 1.97000   1
  -4  -2  -3 4.83000 1.98000   1
  -4  -2  -3 5.81000 2.55000   1
   4  -2   3 9.13000 2.73000   1
  -4   2  -3 4.72000 1.91000   1
  -4   2  -3 5.09000 2.73000   1
  -4   2  -3 1.37000 1.87000   1
   2  -8  -7 14.7100 2.67000   1
   2  -8  -7 18.0900 3.19000   1
   1 -16   3 113.420 11.6900   1
   1 -16   3 99.5800 11.6400   1
   1 -16   3 97.2000 11.8200   1
  -1 -16  -3 89.6300 10.5500   1
  -1 -16  -3 97.6300 10.7500   1
  -1 -16  -3 97.9400 11.8000   1
  -1 -16  -3 80.7700 10.6500   1
   3  -9  -5 19.6200 2.63000   1
  -3 -12  -2 4.75000 2.54000   1
  -3 -12  -2 -2.5400 2.01000   1
  -3 -12  -2 5.01000 1.99000   1
   3 -12   2 3.20000 2.56000   1
  -3  12  -2 -0.0500 2.71000   1
   3 -12   2 4.90000 2.90000   1
   3 -12   2 2.22000 2.41000   1
  -3 -11  -3 38.1300 3.85000   1
  -3 -11  -3 21.2700 3.61000   1
  -3 -11  -3 24.3600 3.64000   1
   3 -11   3 43.5900 4.66000   1
   3 -11   3 31.4000 4.74000   1
  -3  11  -3 21.9700 5.02000   1
   3 -11   3 50.0300 4.90000   1
  -2   6  -7 197.320 15.8500   1
  -2   6  -7 181.690 15.9000   1
   2  -6   7 213.600 15.5200   1
  -2   6  -7 221.220 16.9100   1
  -2  -6  -7 200.070 14.9400   1
  -2  -6  -7 157.390 13.0900   1
  -2  -6  -7 158.420 13.1700   1
  -3   2  -6 59.4000 6.03000   1
  -3   2  -6 48.5600 5.17000   1
  -3   2  -6 54.2200 5.06000   1
  -3  -2  -6 65.3300 6.48000   1
  -3  -2  -6 58.4800 6.16000   1
  -3  -2  -6 57.6600 5.85000   1
   0 -13   6 6.50000 3.51000   1
   0 -13   6 12.0300 2.52000   1
   0 -13   6 18.2900 3.41000   1
   0 -13  -6 6.78000 2.86000   1
   0 -13  -6 2.02000 3.78000   1
   0 -13  -6 7.91000 4.24000   1
   0 -13  -6 8.65000 2.84000   1
   1   7  -8 86.3200 6.99000   1
   1   7  -8 92.7400 7.35000   1
   1  -7  -8 82.0100 6.89000   1
   1  -7  -8 46.1100 4.86000   1
   1  -7  -8 42.1200 4.89000   1
  -3 -13   0 137.160 9.66000   1
  -3 -13   0 107.210 10.0700   1
  -3 -13   0 106.930 11.1000   1
   2  -3  -8 170.500 12.1900   1
   2  -3  -8 186.280 12.8300   1
   3 -13   0 123.750 11.2700   1
   3 -13   0 90.0200 9.07000   1
   3 -13   0 86.6900 9.18000   1
  -3 -13   1 23.5900 3.00000   1
  -3 -13   1 21.8600 4.31000   1
  -3 -13   1 19.3300 3.30000   1
  -4   3   4 6.19000 1.84000   1
   3 -13  -1 13.8300 4.48000   1
   3 -13  -1 19.7500 4.72000   1
   3 -13  -1 15.5800 3.46000   1
   4  -7  -2 0.55000 1.82000   1
  -4   7   2 -0.6900 1.94000   1
  -4  -7  -1 48.4800 4.40000   1
  -4   7  -1 60.8100 5.73000   1
   4  -7   1 47.9500 5.44000   1
  -4  -3  -3 31.9900 3.01000   1
  -4  -3  -3 44.0900 4.30000   1
  -4  -3  -3 20.1700 3.49000   1
  -4   3  -3 34.4200 3.59000   1
   4  -3   3 44.6900 5.03000   1
  -4   3  -3 51.2400 5.01000   1
  -4   3  -3 33.8500 3.61000   1
   3 -12  -3 81.2900 8.89000   1
   3 -12  -3 71.0600 8.93000   1
   3 -12  -3 135.860 10.1500   1
  -2 -14   4 0.72000 2.15000   1
  -2 -14   4 1.31000 2.10000   1
  -2 -14   4 1.22000 2.19000   1
   2 -14  -4 1.22000 2.77000   1
   2 -14  -4 1.76000 2.93000   1
   2 -14  -4 -6.4000 2.61000   1
  -1   6  -8 202.560 18.1500   1
  -1   6  -8 220.490 18.9300   1
  -1   6  -8 263.000 19.2700   1
   1  -6   8 251.090 18.5500   1
   1 -14   5 15.5200 3.45000   1
  -1  14  -5 10.5700 2.80000   1
   1 -14   5 17.7600 3.39000   1
   1 -14   5 13.7000 3.61000   1
  -2 -11   6 288.430 24.0300   1
  -2 -11   6 292.710 24.3400   1
  -1  -6  -8 178.170 14.5900   1
  -1  -6  -8 179.030 14.0700   1
  -1  -6  -8 177.430 14.2900   1
  -1 -14  -5 11.4200 3.03000   1
  -1 -14  -5 13.0100 4.23000   1
  -1 -14  -5 11.5700 3.10000   1
   0 -11   7 158.380 13.3200   1
   0 -11   7 158.070 13.2100   1
  -3   3  -6 75.0600 7.03000   1
  -3   3  -6 67.8900 6.24000   1
  -3   3  -6 66.6500 6.12000   1
   3  -3   6 64.7200 6.67000   1
  -3  -3  -6 79.3900 6.81000   1
  -3  -3  -6 57.0100 5.70000   1
  -3  -3  -6 58.8000 5.63000   1
   2 -11  -6 123.730 13.6700   1
   2 -11  -6 137.080 12.1100   1
   2 -11  -6 126.230 15.2300   1
   0 -11  -7 72.0900 8.91000   1
   0 -11  -7 54.5300 6.60000   1
   0 -11  -7 98.8000 9.23000   1
   0 -11  -7 61.8200 6.59000   1
  -4   6   3 13.0200 2.45000   1
   4  -6  -3 11.3800 2.11000   1
   3 -11  -4 5.33000 2.82000   1
  -4  -6  -2 0.67000 1.81000   1
  -4  -6  -2 1.64000 1.77000   1
  -4  -6  -2 4.58000 2.09000   1
  -1 -17   2 181.470 17.9100   1
  -1 -17   2 188.580 18.4100   1
  -1 -17   2 201.600 17.3300   1
  -4   6  -2 1.88000 1.54000   1
   4  -6   2 5.12000 2.70000   1
  -4   6  -2 0.21000 2.37000   1
  -4   6  -2 0.58000 1.49000   1
   1 -17  -2 149.420 17.0300   1
   1 -17  -2 137.290 17.7200   1
   1 -17  -2 224.790 20.8000   1
  -2 -15   3 -1.4500 2.59000   1
  -2 -15   3 5.82000 2.49000   1
  -2 -15   3 0.17000 2.61000   1
   2 -12   5 17.2900 3.97000   1
   2 -12   5 15.9600 3.47000   1
   2 -12   5 20.4000 4.01000   1
  -2  12  -5 10.8200 3.03000   1
  -2 -12  -5 9.59000 2.49000   1
  -2 -12  -5 6.49000 2.57000   1
  -2 -12  -5 13.1600 3.01000   1
   2 -15  -3 -1.8600 3.30000   1
   2 -15  -3 -0.0100 3.15000   1
   2 -15  -3 -4.1300 3.29000   1
   0 -16   4 204.590 21.1500   1
   0 -16   4 226.260 21.0900   1
   0 -16   4 203.240 18.1700   1
   1 -10   7 0.95000 2.28000   1
  -1  10  -7 -1.3700 1.82000   1
   1 -10   7 0.20000 2.24000   1
   1 -10   7 -0.4500 1.56000   1
   0 -16  -4 224.600 21.4500   1
   0 -16  -4 158.380 19.8500   1
   0 -16  -4 165.150 19.9800   1
  -2 -16   0 1.86000 2.33000   1
  -2 -16   0 1.88000 3.10000   1
  -2 -16   0 -2.8700 2.30000   1
  -2 -16   0 7.52000 2.40000   1
  -1 -10  -7 0.57000 2.32000   1
  -1 -10  -7 4.40000 2.30000   1
  -1 -10  -7 -0.8400 2.43000   1
   2 -16   0 1.78000 3.32000   1
   2 -16   0 1.18000 3.34000   1
   2 -16   0 1.37000 3.61000   1
   0   8  -8 325.940 29.3700   1
   0   8  -8 331.250 30.0100   1
   0  -8  -8 153.680 12.6900   1
   0  -8  -8 151.680 12.3700   1
   0  -8  -8 203.850 14.6700   1
  -3 -13  -1 -0.3100 1.94000   1
  -3 -13  -1 9.61000 2.67000   1
  -3 -13  -1 -1.3600 3.19000   1
   2  -4  -8 11.4600 2.33000   1
   2  -4  -8 9.23000 2.34000   1
   3 -13   1 1.55000 2.87000   1
   3 -13   1 0.35000 2.46000   1
   3 -13   1 0.42000 2.53000   1
   2 -10   6 2.11000 2.70000   1
   2 -10   6 5.26000 2.67000   1
  -2  10  -6 5.06000 2.35000   1
   2 -10   6 8.33000 2.83000   1
  -2 -10  -6 4.64000 2.38000   1
  -2 -10  -6 8.77000 2.51000   1
  -2 -10  -6 3.05000 2.54000   1
  -3 -10  -4 12.8600 2.99000   1
  -3 -10  -4 14.8200 2.93000   1
  -3 -10  -4 21.1300 3.29000   1
   3 -10   4 18.6100 3.22000   1
   3 -10   4 17.0800 3.46000   1
   3 -10   4 17.4700 3.28000   1
  -3  10  -4 19.0700 3.96000   1
  -4  -8   1 2.49000 1.77000   1
  -2 -16   1 53.9900 6.61000   1
  -2 -16   1 59.6300 6.75000   1
  -2 -16   1 60.6900 7.19000   1
  -4   4   4 201.390 13.1900   1
  -4  -8   0 115.910 8.69000   1
  -4   8   1 4.98000 2.30000   1
   4  -8  -1 -0.5400 2.17000   1
   2 -16  -1 35.2800 6.03000   1
   2 -16  -1 38.8500 6.19000   1
   2 -16  -1 36.6400 7.05000   1
  -4   8   0 129.330 10.4000   1
   4  -8   0 105.990 9.71000   1
  -4  -4  -3 4.55000 1.64000   1
  -4  -4  -3 1.55000 2.22000   1
  -4  -4  -3 0.33000 2.08000   1
   1 -17   2 75.5700 10.0000   1
   1 -17   2 75.8900 10.2400   1
   1 -17   2 89.1200 9.70000   1
  -1 -17  -2 59.3100 7.93000   1
  -1 -17  -2 67.3100 7.97000   1
  -1 -17  -2 92.1000 9.69000   1
  -1 -17  -2 94.0100 9.60000   1
   4  -4   3 2.84000 2.44000   1
  -4   4  -3 4.79000 1.96000   1
  -4   4  -3 1.08000 2.54000   1
  -4   4  -3 3.26000 1.60000   1
  -1 -13   6 364.250 33.6200   1
  -1 -13   6 376.170 34.9900   1
  -2 -13   5 8.93000 2.63000   1
  -2 -13   5 -0.8700 2.60000   1
   1 -13  -6 206.250 17.1400   1
   1 -13  -6 142.770 15.3800   1
   1 -13  -6 149.340 15.4200   1
   0 -18   0 140.620 15.4800   1
   0 -18   0 198.530 17.7600   1
   0 -18   0 135.930 15.1300   1
   2 -13  -5 -1.0000 2.81000   1
   2 -13  -5 5.89000 2.84000   1
   2 -13  -5 4.65000 2.91000   1
  -3 -13   2 64.1700 5.99000   1
  -3 -13   2 51.6700 6.12000   1
   3 -13  -2 70.9000 6.56000   1
   3 -13  -2 26.0600 4.93000   1
   3 -13  -2 26.7300 6.23000   1
  -3   4  -6 -3.4400 2.14000   1
  -3   4  -6 -4.1300 2.20000   1
  -3   4  -6 -0.4300 2.51000   1
   3  -4   6 -1.4900 2.25000   1
  -3  -4  -6 -1.6200 1.93000   1
  -3  -4  -6 0.14000 2.30000   1
  -3  -4  -6 0.59000 1.95000   1
   0 -17   3 299.050 31.3500   1
   0 -17   3 299.620 27.9600   1
   0 -17   3 308.330 30.7600   1
   2  -7   7 5.06000 2.14000   1
  -2   7  -7 8.54000 2.75000   1
  -2   7  -7 7.70000 2.69000   1
  -2   7  -7 4.58000 2.58000   1
   0 -17  -3 291.280 29.0500   1
   0 -17  -3 210.750 26.7600   1
   0 -17  -3 257.240 28.5600   1
  -2  -7  -7 8.41000 2.93000   1
  -2  -7  -7 4.07000 2.61000   1
  -2  -7  -7 9.32000 2.69000   1
   0 -15   5 73.4200 7.65000   1
   0 -15   5 62.2300 7.37000   1
   0 -15   5 64.2000 7.11000   1
  -3  -8  -5 120.400 10.2200   1
  -3  -8  -5 165.260 12.0300   1
  -3  -8  -5 125.810 10.0000   1
  -3   8  -5 164.150 14.3800   1
   3  -8   5 169.780 13.8000   1
   0 -15  -5 59.7600 7.35000   1
   0 -15  -5 38.8700 6.24000   1
   0 -15  -5 39.2900 6.05000   1
   0 -15  -5 40.0800 7.99000   1
   0   0  -9 -1.8900 2.07000   1
   0   0  -9 1.35000 1.97000   1
  -2 -16  -1 42.8700 5.80000   1
  -2 -16  -1 50.8900 6.00000   1
  -2 -16  -1 66.5500 6.22000   1
   0   1  -9 110.480 8.41000   1
   0   1  -9 116.380 8.84000   1
   0  -1  -9 123.780 10.0800   1
   0  -1  -9 119.180 10.1500   1
   2 -16   1 68.0500 8.30000   1
   2 -16   1 57.7400 7.89000   1
   2 -16   1 52.5500 7.84000   1
  -1 -11   7 132.880 10.1300   1
  -1 -11   7 115.020 9.52000   1
   1 -11  -7 68.2800 6.84000   1
   1 -11  -7 40.6600 5.21000   1
   1 -11  -7 44.4800 5.41000   1
   0 -18   1 -5.4800 2.96000   1
   0 -18   1 -2.3800 2.94000   1
   0 -18   1 2.47000 3.27000   1
   0 -18  -1 -0.0700 3.23000   1
   0 -18  -1 -1.3000 2.94000   1
   0 -18  -1 1.21000 2.81000   1
  -2  -9   7 18.7700 2.57000   1
  -2  -9   7 20.8900 2.40000   1
   2  -9  -7 5.01000 2.49000   1
   2  -9  -7 7.97000 2.95000   1
   1   8  -8 -0.8900 2.57000   1
   1   8  -8 3.06000 2.04000   1
   1  -8  -8 2.27000 2.11000   1
   1  -8  -8 0.87000 2.09000   1
   0   2  -9 25.5000 3.29000   1
   0   2  -9 24.6900 3.36000   1
   0  -2  -9 15.1500 2.85000   1
   0  -2  -9 20.7300 2.81000   1
   0  -2  -9 15.3700 2.46000   1
   2  -5  -8 73.3900 6.14000   1
   2  -5  -8 62.8600 6.14000   1
   4  -8  -2 195.960 16.3500   1
  -4   8   2 239.700 19.1500   1
   3 -10  -5 0.12000 1.42000   1
  -4  -8  -1 38.9000 3.77000   1
  -1   7  -8 11.0500 3.06000   1
   1  -7   8 11.9200 2.20000   1
  -1   7  -8 13.8700 2.92000   1
  -1   7  -8 9.03000 2.58000   1
  -4   8  -1 32.9200 4.74000   1
   4  -8   1 41.5000 4.79000   1
  -1  -7  -8 5.01000 2.58000   1
  -1  -7  -8 5.24000 2.70000   1
  -1  -7  -8 12.2300 2.69000   1
  -4   5   4 3.91000 2.03000   1
   4  -7  -3 54.4300 5.48000   1
  -4   7   3 62.1800 5.26000   1
  -4  -7  -2 10.8300 2.53000   1
  -2 -15  -3 8.96000 2.76000   1
  -2 -15  -3 9.49000 3.00000   1
  -2 -15  -3 7.47000 2.77000   1
   2 -15   3 2.76000 3.47000   1
   2 -15   3 6.57000 3.57000   1
   2 -15   3 8.07000 3.54000   1
  -4   7  -2 5.14000 2.00000   1
   4  -7   2 7.55000 3.10000   1
  -4   7  -2 6.04000 1.57000   1
  -4   7  -2 6.68000 2.69000   1
  -1 -16   4 62.1500 7.71000   1
  -1 -16   4 76.8100 6.42000   1
  -1 -16   4 65.9400 7.90000   1
  -4  -5  -3 66.6800 5.85000   1
  -4  -5  -3 62.9900 5.63000   1
  -4  -5  -3 84.8500 6.65000   1
   4  -5   3 82.0000 7.06000   1
  -4   5  -3 76.6000 7.24000   1
  -4   5  -3 72.9400 6.01000   1
  -4   5  -3 67.5000 5.90000   1
  -2 -16   2 0.56000 2.54000   1
  -2 -16   2 -1.3200 2.48000   1
  -2 -16   2 -2.8100 2.45000   1
   1 -16  -4 34.5300 5.91000   1
   1 -16  -4 36.9600 6.44000   1
   1 -16  -4 53.3300 7.57000   1
   1   0  -9 156.560 11.5500   1
   1   0  -9 162.640 11.5800   1
   2 -16  -2 3.66000 3.20000   1
   2 -16  -2 2.06000 3.23000   1
   2 -16  -2 1.83000 3.59000   1
   2 -14   4 4.96000 3.12000   1
   2 -14   4 7.76000 3.43000   1
   2 -14   4 8.35000 3.55000   1
  -2  14  -4 6.06000 2.92000   1
  -2 -14  -4 8.67000 2.92000   1
  -2 -14  -4 11.2900 2.93000   1
  -2 -14  -4 8.25000 2.86000   1
   1   1  -9 33.8100 4.16000   1
   1   1  -9 27.1300 3.24000   1
   1  -1  -9 21.8500 3.32000   1
   1  -1  -9 26.0300 3.24000   1
  -3   5  -6 83.7300 7.82000   1
  -3   5  -6 84.8100 8.04000   1
  -3   5  -6 124.460 9.87000   1
   3  -5   6 108.170 8.76000   1
  -3  -5  -6 95.4600 8.12000   1
  -3  -5  -6 84.1100 7.50000   1
  -3  -5  -6 80.2900 7.65000   1
   0   3  -9 95.3400 8.30000   1
   0   3  -9 109.980 8.52000   1
   0  -3  -9 95.4200 6.27000   1
   0  -3  -9 72.7300 6.53000   1
   0  -3  -9 79.9800 6.82000   1
  -3 -12  -3 105.040 8.41000   1
  -3 -12  -3 120.080 8.64000   1
  -3 -12  -3 88.3300 8.43000   1
  -3  12  -3 117.110 10.7600   1
   3 -12   3 107.260 10.3200   1
   3 -12   3 102.790 10.1400   1
   3 -12   3 113.140 10.0000   1
  -1  13  -6 23.3600 3.81000   1
   1 -13   6 33.5400 4.90000   1
   1 -13   6 37.3600 4.18000   1
   1 -13   6 45.0200 5.10000   1
  -1 -13  -6 18.9000 3.53000   1
  -1 -13  -6 19.9700 4.12000   1
  -1 -13  -6 18.8900 3.67000   1
  -1 -15   5 71.2400 7.84000   1
  -1 -15   5 73.3300 7.60000   1
  -1 -15   5 67.6000 6.45000   1
   1   2  -9 2.12000 2.00000   1
   1   2  -9 2.12000 1.59000   1
   1  -2  -9 0.31000 1.60000   1
   1  -2  -9 -1.5800 1.60000   1
   1 -15  -5 42.5400 7.06000   1
   1 -15  -5 45.3500 7.03000   1
   1 -15  -5 39.1800 7.15000   1
  -3 -13  -2 116.830 10.9300   1
  -3 -13  -2 172.020 11.8800   1
  -3 -13  -2 122.700 11.0700   1
   3 -13   2 144.250 12.7600   1
   3 -13   2 125.540 13.2000   1
   3 -13   2 140.650 12.8200   1
  -3  13  -2 156.750 13.4600   1
  -1 -17   3 19.9200 4.47000   1
  -1 -17   3 18.9200 3.68000   1
  -1 -17   3 10.3400 4.22000   1
   1 -17  -3 9.48000 3.96000   1
   1 -17  -3 8.41000 3.81000   1
   1 -17  -3 19.6600 4.99000   1
   0  -9  -8 2.97000 2.34000   1
   0  -9  -8 1.25000 2.32000   1
   0  -9  -8 6.18000 3.09000   1
  -2   0  -8 33.8600 4.15000   1
  -2   0  -8 40.3900 4.07000   1
  -2   0  -8 57.0100 5.41000   1
  -4  -9   1 135.730 9.30000   1
  -4  -9   0 10.9800 2.08000   1
  -4   0  -4 57.0200 5.96000   1
  -4   0  -4 56.5600 5.63000   1
  -4   0  -4 61.9200 5.07000   1
   4  -9  -1 98.9000 8.55000   1
  -4   9   1 110.580 9.77000   1
  -2   1  -8 63.2100 5.85000   1
  -2   1  -8 65.4800 5.90000   1
  -2   1  -8 105.350 7.92000   1
  -2  -1  -8 80.9600 7.59000   1
  -2  -1  -8 66.2100 6.97000   1
  -2  -1  -8 109.150 8.42000   1
   4  -9   0 10.4300 3.12000   1
  -4   9   0 14.6400 3.21000   1
   0 -18   2 38.9300 7.47000   1
   0 -18   2 79.9500 7.34000   1
   0 -18   2 41.4300 7.59000   1
  -1 -18   0 58.4100 7.78000   1
  -1 -18   0 46.7800 7.08000   1
  -1 -18   0 89.4200 8.37000   1
   0 -18  -2 40.8200 7.29000   1
   0 -18  -2 76.9700 8.38000   1
   0 -18  -2 52.0600 7.14000   1
   1 -18   0 68.8200 8.09000   1
   1 -18   0 56.5100 8.00000   1
   1 -18   0 51.2300 7.97000   1
  -2   8  -7 18.6500 3.57000   1
   2  -8   7 24.9600 3.57000   1
  -2   8  -7 17.1900 3.61000   1
  -2   8  -7 21.6400 3.53000   1
  -2  -8  -7 11.7700 3.12000   1
  -2  -8  -7 20.0100 3.52000   1
  -2  -8  -7 17.2600 3.16000   1
   1 -16   4 66.0800 7.79000   1
   1 -16   4 68.2400 7.70000   1
   1 -16   4 84.4900 8.11000   1
  -4  -1  -4 20.0200 3.31000   1
  -4  -1  -4 15.1800 2.93000   1
  -4  -1  -4 17.1400 2.91000   1
  -4   1  -4 12.2000 2.10000   1
  -4   1  -4 14.6200 3.06000   1
  -4   1  -4 14.9300 2.60000   1
   0 -14   6 58.4700 5.70000   1
   0 -14   6 72.7600 7.42000   1
   0 -14   6 77.0000 7.75000   1
  -1 -16  -4 42.8800 6.29000   1
  -1 -16  -4 57.7100 6.60000   1
  -1 -16  -4 72.3400 8.19000   1
  -1 -16  -4 76.5900 9.04000   1
  -2 -12   6 3.01000 2.32000   1
  -2 -12   6 0.38000 2.18000   1
  -2 -16  -2 16.7700 3.73000   1
  -2 -16  -2 15.7600 3.81000   1
  -2 -16  -2 13.1100 3.69000   1
   0 -14  -6 32.9900 6.81000   1
   0 -14  -6 25.6500 4.86000   1
   0 -14  -6 36.1600 5.75000   1
   0 -14  -6 25.4200 4.94000   1
   2 -16   2 2.13000 3.98000   1
   2 -16   2 11.1000 4.17000   1
   2 -16   2 14.8900 4.03000   1
   0 -12   7 8.90000 2.95000   1
   0 -12   7 5.54000 3.05000   1
   2 -12  -6 0.07000 2.94000   1
   2 -12  -6 6.06000 3.04000   1
   2 -12  -6 1.43000 3.12000   1
  -3 -13   3 8.59000 2.76000   1
   0 -12  -7 -0.1600 2.16000   1
   0 -12  -7 -1.3800 3.47000   1
   0 -12  -7 3.85000 2.83000   1
   0 -12  -7 1.01000 2.19000   1
  -3 -14   0 40.8300 5.01000   1
  -3 -14   0 60.7900 5.08000   1
  -3 -14   0 50.3000 6.37000   1
   1 -11   7 273.750 22.3100   1
   1 -11   7 227.420 17.6300   1
   1 -11   7 288.720 22.4800   1
   3 -13  -3 7.49000 3.39000   1
   3 -13  -3 7.14000 3.44000   1
   3 -13  -3 5.16000 3.27000   1
   1   3  -9 29.4100 3.12000   1
   1   3  -9 30.9700 3.13000   1
   3 -12  -4 16.0000 3.36000   1
   2  -6  -8 0.36000 1.96000   1
   2  -6  -8 3.01000 2.00000   1
  -1 -11  -7 171.640 14.7800   1
  -1 -11  -7 142.760 13.8000   1
  -1 -11  -7 181.520 14.6100   1
   3 -14   0 60.2600 6.80000   1
   3 -14   0 31.9800 5.41000   1
   3 -14   0 26.2800 5.36000   1
   1  -3  -9 27.9100 3.12000   1
   1  -3  -9 26.6600 3.10000   1
   0   4  -9 -0.6900 2.18000   1
   0   4  -9 3.14000 2.20000   1
   0  -4  -9 2.25000 1.90000   1
   0  -4  -9 -0.5300 1.46000   1
   0  -4  -9 0.36000 1.98000   1
  -3 -14   1 33.4000 4.43000   1
  -3 -14   1 43.7600 3.86000   1
  -3 -14   1 35.7000 5.80000   1
  -4   6   4 11.1400 2.14000   1
   3 -14  -1 44.5000 5.77000   1
   3 -14  -1 19.2300 4.39000   1
   3 -14  -1 20.1100 4.60000   1
  -3  -9  -5 -3.3800 2.11000   1
  -3  -9  -5 3.77000 2.11000   1
  -3  -9  -5 4.34000 2.27000   1
   3  -9   5 -0.6500 2.11000   1
   3  -9   5 -1.0800 2.30000   1
  -3   9  -5 2.25000 2.28000   1
   3  -9   5 0.17000 2.21000   1
  -2   2  -8 3.82000 2.52000   1
  -2   2  -8 2.15000 2.12000   1
  -2   2  -8 4.61000 2.21000   1
  -2  -2  -8 -2.6800 2.18000   1
  -2  -2  -8 2.44000 2.11000   1
  -2  -2  -8 -1.5800 2.29000   1
   2 -11   6 160.830 13.3900   1
   2 -11   6 154.370 12.4500   1
  -2  11  -6 138.870 11.7200   1
   2 -11   6 159.140 13.7900   1
  -2 -11  -6 126.900 9.83000   1
  -2 -11  -6 106.140 9.59000   1
  -2 -11  -6 108.120 9.59000   1
  -1 -18   1 13.5200 3.65000   1
  -1 -18   1 9.99000 3.68000   1
  -1 -18   1 13.5900 3.88000   1
   1 -18  -1 13.0100 4.07000   1
   1 -18  -1 12.5200 4.44000   1
   1 -18  -1 3.56000 4.17000   1
  -3 -11  -4 22.0200 3.10000   1
  -3 -11  -4 11.8400 2.73000   1
  -3 -11  -4 11.8300 2.75000   1
  -4  -6  -3 15.4200 2.92000   1
  -4  -6  -3 14.7700 3.03000   1
  -4  -6  -3 20.4900 3.20000   1
   3 -11   4 21.9800 3.75000   1
   3 -11   4 12.6700 3.56000   1
   3 -11   4 23.1100 3.83000   1
  -3  11  -4 32.7100 4.23000   1
  -4   6  -3 10.8100 2.40000   1
  -4   6  -3 9.63000 2.05000   1
   4  -6   3 16.1700 3.11000   1
  -4   6  -3 17.9900 3.34000   1
  -4  -2  -4 -0.7600 1.89000   1
  -4  -2  -4 0.09000 1.51000   1
  -4  -2  -4 0.18000 2.12000   1
   4  -2   4 1.52000 2.25000   1
  -4   2  -4 3.19000 2.28000   1
  -4   2  -4 0.97000 1.77000   1
  -4   2  -4 -1.8100 1.40000   1
   1 -17   3 24.4800 5.27000   1
   1 -17   3 21.1000 5.26000   1
   1 -17   3 28.2400 5.35000   1
  -1 -17  -3 6.90000 4.15000   1
  -1 -17  -3 26.7000 4.69000   1
  -1 -17  -3 10.7600 4.14000   1
  -1 -17  -3 24.1700 5.17000   1
   2 -13   5 62.6000 7.02000   1
   2 -13   5 47.1200 5.95000   1
  -2  13  -5 39.9900 4.91000   1
   2 -13   5 60.9200 6.60000   1
  -2 -13  -5 38.7100 4.37000   1
  -2 -13  -5 29.6200 3.73000   1
  -2 -13  -5 22.7600 3.68000   1
   3  -6   6 9.49000 2.70000   1
  -3   6  -6 8.40000 2.46000   1
  -3   6  -6 6.93000 3.24000   1
  -3   6  -6 10.8500 2.60000   1
  -3  -6  -6 8.26000 2.91000   1
  -3  -6  -6 12.9600 2.78000   1
  -3  -6  -6 9.86000 2.75000   1
  -1 -18  -1 19.6400 3.91000   1
  -1 -18  -1 15.7800 3.74000   1
  -1 -18  -1 18.1600 4.74000   1
   1 -18   1 19.4100 4.86000   1
   1 -18   1 20.7300 4.98000   1
   1 -18   1 14.0000 5.05000   1
  -2 -15   4 243.390 23.6100   1
  -2 -15   4 288.560 28.0700   1
  -2 -15   4 324.690 26.4600   1
   1  -8   8 6.43000 2.02000   1
  -1   8  -8 10.2100 2.94000   1
  -1   8  -8 11.4800 2.88000   1
   2 -15  -4 174.640 17.3700   1
   2 -15  -4 153.000 16.0700   1
   2 -15  -4 161.510 16.4300   1
  -1  -8  -8 8.60000 2.74000   1
  -1  -8  -8 4.22000 2.50000   1
  -1  -8  -8 2.71000 2.48000   1
   1   9  -8 377.630 34.6700   1
   1   9  -8 389.010 34.7600   1
   1  -9  -8 151.320 12.2300   1
   1  -9  -8 137.490 11.9800   1
   4  -8  -3 4.83000 2.54000   1
  -4   8   3 12.5900 2.76000   1
  -1  15  -5 169.360 13.1500   1
   1 -15   5 213.340 17.5300   1
   1 -15   5 185.680 17.1800   1
   1 -15   5 212.180 18.0300   1
  -1 -15  -5 122.230 12.3900   1
  -1 -15  -5 176.170 15.6100   1
  -1 -15  -5 125.470 12.3600   1
  -4  -8  -2 150.650 11.2300   1
  -2 -10   7 530.930 50.7600   1
  -2 -10   7 545.330 53.0000   1
  -4   8  -2 145.640 12.4700   1
   4  -8   2 138.130 11.5400   1
   2 -10  -7 158.720 15.2600   1
   2 -10  -7 181.940 15.4300   1
   4  -9  -2 3.39000 2.14000   1
  -4   9   2 5.88000 2.71000   1
;
_shelx_hkl_checksum              73539
loop_
_space_group_symop_operation_xyz
'x, y, z'
'-x+1/2, y+1/2, -z+1/2'
'-x, -y, -z'
'x-1/2, -y-1/2, z-1/2'
loop_
_atom_site_label
_atom_site_type_symbol
_atom_site_fract_x
_atom_site_fract_y
_atom_site_fract_z
_atom_site_U_iso_or_equiv
_atom_site_adp_type
_atom_site_occupancy
_atom_site_site_symmetry_order
_atom_site_calc_flag
_atom_site_refinement_flags_posn
_atom_site_refinement_flags_adp
C1 C 0.8354(14) 0.3317(4) 0.5089(7) 0.0219(13) Uani 1 1 d . .
H1 H 0.9064 0.2872 0.5855 0.026 Uiso 1 1 calc R U
C2 C 0.8918(15) 0.3216(3) 0.3373(7) 0.0212(12) Uani 1 1 d . .
H2 H 0.9950 0.2714 0.2960 0.025 Uiso 1 1 calc R U
C3 C 0.7928(14) 0.3871(3) 0.2290(8) 0.0184(12) Uani 1 1 d . .
C4 C 0.6395(13) 0.4592(3) 0.2886(7) 0.0185(12) Uani 1 1 d . .
H4 H 0.5718 0.5046 0.2137 0.022 Uiso 1 1 calc R U
C5 C 0.5874(13) 0.4632(3) 0.4623(7) 0.0193(12) Uani 1 1 d . .
Br1 Br 0.86523(13) 0.37999(3) -0.00720(6) 0.0211(3) Uani 1 1 d . .
N1 N 0.6868(12) 0.4003(3) 0.5732(7) 0.0220(11) Uani 1 1 d . .
loop_
_atom_site_aniso_label
_atom_site_aniso_U_11
_atom_site_aniso_U_22
_atom_site_aniso_U_33
_atom_site_aniso_U_23
_atom_site_aniso_U_13
_atom_site_aniso_U_12
C1 0.028(3) 0.014(3) 0.024(3) -0.001(2) 0.004(2) 0.004(2)
C2 0.032(3) 0.011(3) 0.021(3) -0.001(2) 0.003(2) 0.001(2)
C3 0.018(3) 0.016(3) 0.021(3) -0.003(2) 0.005(2) -0.0032(19)
C4 0.025(3) 0.011(3) 0.019(3) 0.001(2) 0.003(2) 0.0000(19)
C5 0.024(3) 0.011(3) 0.023(3) 0.002(2) 0.001(2) -0.003(2)
Br1 0.0290(5) 0.0149(5) 0.0198(5) -0.00141(18) 0.0057(3) 0.00073(17)
N1 0.029(2) 0.012(2) 0.025(3) -0.002(2) 0.001(2) 0.001(2)
loop_
_atom_type_symbol
_atom_type_description
_atom_type_scat_dispersion_real
_atom_type_scat_dispersion_imag
_atom_type_scat_source
C C 0.0033 0.0016 'International Tables Vol C Tables 4.2.6.8 and 6.1.1.4'
H H 0.0000 0.0000 'International Tables Vol C Tables 4.2.6.8 and 6.1.1.4'
Br Br -0.2901 2.4595 'International Tables Vol C Tables 4.2.6.8 and 6.1.1.4'
N N 0.0061 0.0033 'International Tables Vol C Tables 4.2.6.8 and 6.1.1.4'
loop_
_geom_angle_atom_site_label_1
_geom_angle_atom_site_label_2
_geom_angle_atom_site_label_3
_geom_angle
_geom_angle_site_symmetry_3
N1 C1 C2 123.8(5) .
N1 C1 H1 118.1 .
C2 C1 H1 118.1 .
C3 C2 C1 117.3(5) .
C3 C2 H2 121.3 .
C1 C2 H2 121.3 .
C2 C3 C4 121.3(6) .
C2 C3 Br1 120.4(4) .
C4 C3 Br1 118.3(4) .
C3 C4 C5 117.5(5) .
C3 C4 H4 121.3 .
C5 C4 H4 121.3 .
N1 C5 C4 122.8(5) .
N1 C5 C5 115.7(6) 3_666
C4 C5 C5 121.5(6) 3_666
C1 N1 C5 117.3(5) .
loop_
_geom_bond_atom_site_label_1
_geom_bond_atom_site_label_2
_geom_bond_distance
_geom_bond_site_symmetry_2
C1 N1 1.335(8) .
C1 C2 1.382(8) .
C1 H1 0.9500 .
C2 C3 1.372(8) .
C2 H2 0.9500 .
C3 C4 1.372(7) .
C3 Br1 1.889(6) .
C4 C5 1.387(8) .
C4 H4 0.9500 .
C5 N1 1.354(8) .
C5 C5 1.482(11) 3_666
loop_
_geom_torsion_atom_site_label_1
_geom_torsion_atom_site_label_2
_geom_torsion_atom_site_label_3
_geom_torsion_atom_site_label_4
_geom_torsion
_geom_torsion_site_symmetry_1
_geom_torsion_site_symmetry_4
N1 C1 C2 C3 1.1(8) . .
C1 C2 C3 C4 -0.9(8) . .
C1 C2 C3 Br1 179.1(4) . .
C2 C3 C4 C5 -0.2(8) . .
Br1 C3 C4 C5 179.8(4) . .
C3 C4 C5 N1 1.3(8) . .
C3 C4 C5 C5 -177.7(6) . 3_666
C2 C1 N1 C5 -0.1(8) . .
C4 C5 N1 C1 -1.2(8) . .
C5 C5 N1 C1 177.9(6) 3_666 .
