#------------------------------------------------------------------------------
#$Date: 2017-01-09 05:31:29 +0200 (Mon, 09 Jan 2017) $
#$Revision: 190176 $
#$URL: file:///home/coder/svn-repositories/cod/cif/7/04/08/7040837.cif $
#------------------------------------------------------------------------------
#
# This file is available in the Crystallography Open Database (COD),
# http://www.crystallography.net/
#
# All data on this site have been placed in the public domain by the
# contributors.
#
data_7040837
loop_
_publ_author_name
'Farinella, F.'
'Maini, L.'
'Mazzeo, P. P.'
'Fattori, V.'
'Monti, F.'
'Braga, D.'
_publ_section_title
;
 White luminescence achieved by a multiple thermochromic emission in a
 hybrid organic-inorganic compound based on 3-picolylamine and copper(i)
 iodide.
;
_journal_issue                   44
_journal_name_full
'Dalton transactions (Cambridge, England : 2003)'
_journal_page_first              17939
_journal_page_last               17947
_journal_paper_doi               10.1039/c6dt03049a
_journal_volume                  45
_journal_year                    2016
_chemical_formula_moiety         'C6 H8 Cu2 I2 N2'
_chemical_formula_sum            'C6 H8 Cu2 I2 N2'
_chemical_formula_weight         489.04
_space_group_IT_number           2
_symmetry_cell_setting           triclinic
_symmetry_space_group_name_Hall  '-P 1'
_symmetry_space_group_name_H-M   'P -1'
_audit_update_record
;
2016-08-01 deposited with the CCDC.
2016-10-10 downloaded from the CCDC.
;
_cell_angle_alpha                98.9803(19)
_cell_angle_beta                 96.2793(18)
_cell_angle_gamma                108.8729(14)
_cell_formula_units_Z            2
_cell_length_a                   9.9408(2)
_cell_length_b                   7.60946(14)
_cell_length_c                   7.63997(16)
_cell_measurement_temperature    298
_cell_volume                     532.19(2)
_diffrn_ambient_temperature      298
_diffrn_measurement_device_type  'Bragg Brentano'
_diffrn_radiation_probe          x-ray
_diffrn_radiation_type           'Cu K\a'
_diffrn_radiation_wavelength     1.541874
_exptl_crystal_colour            white
_exptl_crystal_density_diffrn    3.052
_exptl_crystal_description       powder
_exptl_crystal_preparation       ', Luminescent'
_pd_char_colour                  white
_pd_meas_number_of_points        7421
_pd_proc_2theta_range_inc        0.00836
_pd_proc_2theta_range_max        69.99848
_pd_proc_2theta_range_min        7.99967
_pd_proc_ls_prof_R_factor        0.0406
_pd_proc_ls_prof_wR_expected     0.0221
_pd_proc_ls_prof_wR_factor       0.0574
_pd_spec_mounting                'flat sample stage'
_pd_spec_mount_mode              reflection
_refine_ls_goodness_of_fit_all   2.59160
_refine_ls_number_parameters     83
_refine_ls_R_I_factor            0.0104
_refine_ls_shift/su_max          0.00556113823
_reflns_d_resolution_high        1.33489
_reflns_d_resolution_low         9.26777
_reflns_limit_h_max              7
_reflns_limit_h_min              0
_reflns_limit_k_max              5
_reflns_limit_k_min              -5
_reflns_limit_l_max              5
_reflns_limit_l_min              -5
_reflns_number_total             474
_cod_data_source_file            c6dt03049a2.cif
_cod_data_source_block           Bianco_2016
_cod_depositor_comments
;
The following automatic conversions were performed:

'_symmetry_cell_setting' value 'Triclinic' changed to 'triclinic'
according to
/usr/data/users/saulius/crontab/automatic-downloads/rss-feeds/RSC/lib/dictionaries/cif_core.dic
dictionary named 'cif_core.dic' version 2.4.2 from 2011-04-26.

Automatic conversion script
Id: cif_fix_values 4268 2015-11-12 08:31:59Z antanas 

 Adding full bibliography for 7040837--7040839.cif.
;
_cod_original_sg_symbol_H-M      P-1
_cod_database_code               7040837
loop_
_symmetry_equiv_pos_as_xyz
'x, y, z '
'-x, -y, -z '
loop_
_atom_site_label
_atom_site_type_symbol
_atom_site_symmetry_multiplicity
_atom_site_fract_x
_atom_site_fract_y
_atom_site_fract_z
_atom_site_occupancy
_atom_site_B_iso_or_equiv
Cu1 Cu 2 0.3731(11) -0.0032(15) -0.5953(14) 1 2.60(10)
Cu2 Cu 2 0.4426(12) -0.1828(13) 0.0448(17) 1 2.60(10)
I1 I 2 0.6832(6) 0.9084(6) 0.9102(8) 1 2.60(10)
I2 I 2 0.4807(5) -0.2883(7) 0.3499(8) 1 2.60(10)
C1 C 2 -0.118(4) -0.341(4) -0.528(4) 1 2.99(11)
H1 H 2 -0.211(4) -0.404(5) -0.512(5) 1 4.30(16)
C3 C 2 -0.025(5) -0.214(5) -0.393(4) 1 2.99(11)
H2 H 2 -0.052(6) -0.192(6) -0.292(4) 1 4.30(16)
C2 C 2 0.111(4) -0.118(4) -0.409(5) 1 2.99(11)
H3 H 2 0.173(6) -0.029(5) -0.311(6) 1 2.99(11)
N1 N 2 0.158(3) -0.152(4) -0.566(6) 1 2.99(11)
C4 C 2 0.063(3) -0.283(4) -0.710(5) 1 2.99(11)
H5 H 2 0.094(3) -0.307(5) -0.819(5) 1 4.30(16)
C5 C 2 -0.077(2) -0.379(3) -0.691(3) 1 2.99(11)
C6 C 2 -0.185(3) -0.516(3) -0.845(4) 1 2.99(11)
H6 H 2 -0.217(4) -0.446(4) -0.928(4) 1 4.30(16)
H7 H 2 -0.143(4) -0.600(4) -0.908(4) 1 4.30(16)
N2 N 2 -0.318(5) -0.639(8) -0.790(11) 1 2.99(11)
H12 H 2 -0.371(5) -0.570(12) -0.750(13) 1 4.30(16)
H13 H 2 -0.294(8) -0.697(10) -0.703(12) 1 4.30(16)
loop_
_pd_proc_point_id
_pd_meas_2theta_scan
_pd_proc_intensity_total
_pd_calc_intensity_total
_pd_proc_ls_weight
1 7.99967 2516.51414 2550.25000 0.00039
2 8.00803 2515.39622 2611.20996 0.00038
3 8.01638 2514.31893 2570.48999 0.00039
4 8.02474 2513.30249 2540.16016 0.00039
5 8.03310 2512.37244 2550.25000 0.00039
6 8.04145 2511.55098 2601.00000 0.00038
7 8.04981 2510.83335 2540.16016 0.00039
8 8.05816 2510.12721 2621.44019 0.00038
9 8.06652 2509.27356 2601.00000 0.00038
10 8.07487 2508.25440 2450.25000 0.00041
11 8.08323 2507.15179 2520.04004 0.00040
12 8.09158 2506.02821 2590.81006 0.00039
13 8.09994 2504.90587 2560.35986 0.00039
14 8.10830 2503.78886 2704.00000 0.00037
15 8.11665 2502.67771 2490.01025 0.00040
16 8.12501 2501.57268 2490.01025 0.00040
17 8.13336 2500.47405 2450.25000 0.00041
18 8.14172 2499.38215 2550.25000 0.00039
19 8.15007 2498.29737 2580.63989 0.00039
20 8.15843 2497.22016 2530.08984 0.00040
21 8.16679 2496.15106 2550.25000 0.00039
22 8.17514 2495.09073 2560.35986 0.00039
23 8.18350 2494.03999 2683.23999 0.00037
24 8.19185 2492.99981 2540.16016 0.00039
25 8.20021 2491.97146 2530.08984 0.00040
26 8.20856 2490.95648 2530.08984 0.00040
27 8.21692 2489.95688 2510.00977 0.00040
28 8.22527 2488.97525 2590.81006 0.00039
29 8.23363 2488.01507 2500.00000 0.00040
30 8.24199 2487.08105 2550.25000 0.00039
31 8.25034 2486.17993 2480.04004 0.00040
32 8.25870 2485.32177 2540.16016 0.00039
33 8.26705 2484.52233 2430.48999 0.00041
34 8.27541 2483.80564 2450.25000 0.00041
35 8.28376 2483.20216 2540.16016 0.00039
36 8.29212 2482.74062 2530.08984 0.00040
37 8.30048 2482.42488 2540.16016 0.00039
38 8.30883 2482.17428 2480.04004 0.00040
39 8.31719 2481.84598 2470.09009 0.00040
40 8.32554 2481.44552 2490.01025 0.00040
41 8.33390 2481.08839 2480.04004 0.00040
42 8.34225 2480.88023 2460.15991 0.00041
43 8.35061 2480.88953 2420.64014 0.00041
44 8.35897 2481.14910 2460.15991 0.00041
45 8.36732 2481.61467 2570.48999 0.00039
46 8.37568 2482.18724 2550.25000 0.00039
47 8.38403 2482.90974 2540.16016 0.00039
48 8.39239 2483.93719 2470.09009 0.00040
49 8.40074 2485.43080 2480.04004 0.00040
50 8.40910 2487.53552 2450.25000 0.00041
51 8.41745 2490.38899 2540.16016 0.00039
52 8.42581 2494.11296 2540.16016 0.00039
53 8.43417 2498.78389 2490.01025 0.00040
54 8.44252 2504.39591 2460.15991 0.00041
55 8.45088 2510.83093 2500.00000 0.00040
56 8.45923 2517.85367 2410.80981 0.00041
57 8.46759 2525.14617 2520.04004 0.00040
58 8.47594 2532.37987 2590.81006 0.00039
59 8.48430 2539.29829 2450.25000 0.00041
60 8.49266 2545.77550 2352.25000 0.00043
61 8.50101 2551.83567 2460.15991 0.00041
62 8.50937 2557.63719 2510.00977 0.00040
63 8.51772 2563.43085 2470.09009 0.00040
64 8.52608 2569.50678 2450.25000 0.00041
65 8.53443 2576.14541 2323.23999 0.00043
66 8.54279 2583.57781 2480.04004 0.00040
67 8.55114 2591.95348 2641.96021 0.00038
68 8.55950 2601.30265 2540.16016 0.00039
69 8.56786 2611.46673 2560.35986 0.00039
70 8.57621 2622.11320 2500.00000 0.00040
71 8.58457 2632.94054 2520.04004 0.00040
72 8.59292 2643.63833 2500.00000 0.00040
73 8.60128 2653.77791 2490.01025 0.00040
74 8.60963 2662.81339 2601.00000 0.00038
75 8.61799 2670.14245 2580.63989 0.00039
76 8.62635 2675.18026 2560.35986 0.00039
77 8.63470 2677.44180 2550.25000 0.00039
78 8.64306 2676.62940 2652.25000 0.00038
79 8.65141 2672.70458 2631.68994 0.00038
80 8.65977 2665.91573 2580.63989 0.00039
81 8.66812 2656.76387 2540.16016 0.00039
82 8.67648 2645.91454 2570.48999 0.00039
83 8.68483 2634.08703 2540.16016 0.00039
84 8.69319 2621.95711 2430.48999 0.00041
85 8.70155 2610.09415 2560.35986 0.00039
86 8.70990 2598.93387 2540.16016 0.00039
87 8.71826 2588.77658 2401.00000 0.00042
88 8.72661 2579.79936 2440.36011 0.00041
89 8.73497 2572.07465 2430.48999 0.00041
90 8.74332 2565.59140 2371.69019 0.00042
91 8.75168 2560.27663 2460.15991 0.00041
92 8.76004 2556.01640 2550.25000 0.00039
93 8.76839 2552.67452 2460.15991 0.00041
94 8.77675 2550.10831 2401.00000 0.00042
95 8.78510 2548.18048 2500.00000 0.00040
96 8.79346 2546.76720 2410.80981 0.00041
97 8.80181 2545.76241 2490.01025 0.00040
98 8.81017 2545.07935 2342.56006 0.00043
99 8.81852 2544.64979 2460.15991 0.00041
100 8.82688 2544.42200 2580.63989 0.00039
101 8.83524 2544.35802 2540.16016 0.00039
102 8.84359 2544.43082 2420.64014 0.00041
103 8.85195 2544.62167 2520.04004 0.00040
104 8.86030 2544.91777 2450.25000 0.00041
105 8.86866 2545.31041 2401.00000 0.00042
106 8.87701 2545.79330 2420.64014 0.00041
107 8.88537 2546.36118 2371.69019 0.00042
108 8.89373 2547.00815 2440.36011 0.00041
109 8.90208 2547.72540 2410.80981 0.00041
110 8.91044 2548.49921 2500.00000 0.00040
111 8.91879 2549.31301 2410.80981 0.00041
112 8.92715 2550.15506 2420.64014 0.00041
113 8.93550 2551.03904 2410.80981 0.00041
114 8.94386 2552.05582 2440.36011 0.00041
115 8.95222 2553.34974 2460.15991 0.00041
116 8.96057 2554.93202 2420.64014 0.00041
117 8.96893 2556.72721 2391.21021 0.00042
118 8.97728 2558.68341 2470.09009 0.00040
119 8.98564 2560.78863 2470.09009 0.00040
120 8.99399 2563.04877 2490.01025 0.00040
121 9.00235 2565.47388 2480.04004 0.00040
122 9.01070 2568.07522 2430.48999 0.00041
123 9.01906 2570.86506 2381.43994 0.00042
124 9.02742 2573.85673 2420.64014 0.00041
125 9.03577 2577.06477 2520.04004 0.00040
126 9.04413 2580.50501 2391.21021 0.00042
127 9.05248 2584.19471 2391.21021 0.00042
128 9.06084 2588.15268 2490.01025 0.00040
129 9.06919 2592.39943 2440.36011 0.00041
130 9.07755 2596.95731 2440.36011 0.00041
131 9.08591 2601.85069 2450.25000 0.00041
132 9.09426 2607.10614 2450.25000 0.00041
133 9.10262 2612.75263 2470.09009 0.00040
134 9.11097 2618.82175 2371.69019 0.00042
135 9.11933 2625.34792 2440.36011 0.00041
136 9.12768 2632.36873 2410.80981 0.00041
137 9.13604 2639.92517 2401.00000 0.00042
138 9.14439 2648.06203 2430.48999 0.00041
139 9.15275 2656.82826 2490.01025 0.00040
140 9.16111 2666.27745 2510.00977 0.00040
141 9.16946 2676.46829 2520.04004 0.00040
142 9.17782 2687.46527 2540.16016 0.00039
143 9.18617 2699.33953 2580.63989 0.00039
144 9.19453 2712.16990 2520.04004 0.00040
145 9.20288 2726.04395 2520.04004 0.00040
146 9.21124 2741.05939 2530.08984 0.00040
147 9.21960 2757.32597 2590.81006 0.00039
148 9.22795 2774.96765 2766.75977 0.00036
149 9.23631 2794.12546 2766.75977 0.00036
150 9.24466 2814.96100 2777.29004 0.00036
151 9.25302 2837.66079 2840.88989 0.00035
152 9.26137 2862.44176 2937.64014 0.00034
153 9.26973 2889.55807 2959.36011 0.00034
154 9.27808 2919.30972 3014.01025 0.00033
155 9.28644 2952.05339 3147.20972 0.00032
156 9.29480 2988.21656 3169.68994 0.00032
157 9.30315 3028.31612 3180.96021 0.00031
158 9.31151 3072.98386 3226.23999 0.00031
159 9.31986 3123.00209 3249.00000 0.00031
160 9.32822 3179.35401 3375.60986 0.00030
161 9.33657 3243.29448 3588.01025 0.00028
162 9.34493 3316.44721 3794.55981 0.00026
163 9.35329 3400.93337 3931.29004 0.00025
164 9.36164 3499.53423 4342.81006 0.00023
165 9.37000 3615.88787 4542.76025 0.00022
166 9.37835 3754.71796 5055.20996 0.00020
167 9.38671 3922.09558 5329.00000 0.00019
168 9.39506 4125.74294 5745.64063 0.00017
169 9.40342 4375.40202 5990.76025 0.00017
170 9.41178 4683.30884 6642.25000 0.00015
171 9.42013 5064.83838 6988.95996 0.00014
172 9.42849 5539.42070 8010.25000 0.00012
173 9.43684 6131.88545 8760.95996 0.00011
174 9.44520 6874.47352 9604.00000 0.00010
175 9.45355 7809.85420 10920.25000 0.00009
176 9.46191 8995.54195 12588.83887 0.00008
177 9.47026 10509.94163 14568.48926 0.00007
178 9.47862 12459.51288 15901.20996 0.00006
179 9.48698 14984.76484 18144.08984 0.00006
180 9.49533 18259.71475 20277.75781 0.00005
181 9.50369 22475.73050 23716.00000 0.00004
182 9.51204 27798.67232 27060.25000 0.00004
183 9.52040 34291.93651 32076.81250 0.00003
184 9.52875 41811.19621 36787.24219 0.00003
185 9.53711 49899.31662 43097.76172 0.00002
186 9.54547 57734.38843 50940.48828 0.00002
187 9.55382 64195.14454 59927.04297 0.00002
188 9.56218 68089.80308 67288.35938 0.00001
189 9.57053 68525.93352 71984.88281 0.00001
190 9.57889 65269.22704 71235.60938 0.00001
191 9.58724 58855.80618 64617.63672 0.00002
192 9.59560 50380.80317 54849.63672 0.00002
193 9.60395 41141.78105 43764.64063 0.00002
194 9.61231 32314.32483 33014.89063 0.00003
195 9.62067 24717.94561 23901.16211 0.00004
196 9.62902 18720.79734 17265.95898 0.00006
197 9.63738 14301.54381 12254.48926 0.00008
198 9.64573 11203.41043 9506.25000 0.00011
199 9.65409 9089.77178 7726.41016 0.00013
200 9.66244 7649.38131 6384.01025 0.00016
201 9.67080 6643.78882 5715.35986 0.00017
202 9.67916 5912.63262 5140.88965 0.00019
203 9.68751 5357.61332 4542.76025 0.00022
204 9.69587 4921.48632 4342.81006 0.00023
205 9.70422 4570.81003 4070.43994 0.00025
206 9.71258 4284.81238 3844.00000 0.00026
207 9.72093 4049.33249 3612.00977 0.00028
208 9.72929 3853.90770 3457.43994 0.00029
209 9.73764 3690.45115 3410.56006 0.00029
210 9.74600 3552.61189 3283.28979 0.00030
211 9.75436 3435.39580 3192.25000 0.00031
212 9.76271 3334.88745 3147.20972 0.00032
213 9.77107 3248.02174 3147.20972 0.00032
214 9.77942 3172.38617 3058.08984 0.00033
215 9.78778 3106.04295 3047.04004 0.00033
216 9.79613 3047.39872 2959.36011 0.00034
217 9.80449 2995.18686 2883.69019 0.00035
218 9.81285 2948.45454 2819.60986 0.00035
219 9.82120 2906.43071 2819.60986 0.00035
220 9.82956 2868.46428 2883.69019 0.00035
221 9.83791 2834.01067 2894.43994 0.00035
222 9.84627 2802.61676 2777.29004 0.00036
223 9.85462 2773.90401 2756.25000 0.00036
224 9.86298 2747.55426 2777.29004 0.00036
225 9.87133 2723.29828 2787.83984 0.00036
226 9.87969 2700.90669 2641.96021 0.00038
227 9.88805 2680.18262 2766.75977 0.00036
228 9.89640 2660.95597 2672.89014 0.00037
229 9.90476 2643.07873 2714.40991 0.00037
230 9.91311 2626.42132 2570.48999 0.00039
231 9.92147 2610.86964 2631.68994 0.00038
232 9.92982 2596.32275 2550.25000 0.00039
233 9.93818 2582.69089 2560.35986 0.00039
234 9.94654 2569.89400 2641.96021 0.00038
235 9.95489 2557.86041 2652.25000 0.00038
236 9.96325 2546.52580 2601.00000 0.00038
237 9.97160 2535.83229 2480.04004 0.00040
238 9.97996 2525.72775 2520.04004 0.00040
239 9.98831 2516.16510 2510.00977 0.00040
240 9.99667 2507.10181 2500.00000 0.00040
241 10.00503 2498.49944 2550.25000 0.00039
242 10.01338 2490.32316 2560.35986 0.00039
243 10.02174 2482.54147 2530.08984 0.00040
244 10.03009 2475.12592 2631.68994 0.00038
245 10.03845 2468.05092 2490.01025 0.00040
246 10.04680 2461.29375 2440.36011 0.00041
247 10.05516 2454.83491 2480.04004 0.00040
248 10.06351 2448.65873 2530.08984 0.00040
249 10.07187 2442.75312 2510.00977 0.00040
250 10.08023 2437.10497 2480.04004 0.00040
251 10.08858 2431.68851 2480.04004 0.00040
252 10.09694 2426.46207 2450.25000 0.00041
253 10.10529 2421.39927 2450.25000 0.00041
254 10.11365 2416.50293 2470.09009 0.00040
255 10.12200 2411.77466 2530.08984 0.00040
256 10.13036 2407.20776 2500.00000 0.00040
257 10.13872 2402.79323 2560.35986 0.00039
258 10.14707 2398.52236 2560.35986 0.00039
259 10.15543 2394.38697 2440.36011 0.00041
260 10.16378 2390.37954 2420.64014 0.00041
261 10.17214 2386.49316 2520.04004 0.00040
262 10.18049 2382.72142 2313.60986 0.00043
263 10.18885 2379.05829 2480.04004 0.00040
264 10.19720 2375.49815 2401.00000 0.00042
265 10.20556 2372.03573 2500.00000 0.00040
266 10.21392 2368.66608 2391.21021 0.00042
267 10.22227 2365.38454 2371.69019 0.00042
268 10.23063 2362.18676 2420.64014 0.00041
269 10.23898 2359.06861 2460.15991 0.00041
270 10.24734 2356.02623 2410.80981 0.00041
271 10.25569 2353.05602 2342.56006 0.00043
272 10.26405 2350.15454 2410.80981 0.00041
273 10.27241 2347.31855 2371.69019 0.00042
274 10.28076 2344.54500 2420.64014 0.00041
275 10.28912 2341.83101 2381.43994 0.00042
276 10.29747 2339.17391 2420.64014 0.00041
277 10.30583 2336.57117 2342.56006 0.00043
278 10.31418 2334.02044 2391.21021 0.00042
279 10.32254 2331.51949 2460.15991 0.00041
280 10.33089 2329.06622 2410.80981 0.00041
281 10.33925 2326.65864 2371.69019 0.00042
282 10.34761 2324.29482 2420.64014 0.00041
283 10.35596 2321.97285 2332.88989 0.00043
284 10.36432 2319.69082 2371.69019 0.00042
285 10.37267 2317.44691 2342.56006 0.00043
286 10.38103 2315.23941 2460.15991 0.00041
287 10.38938 2313.06661 2420.64014 0.00041
288 10.39774 2310.92671 2440.36011 0.00041
289 10.40610 2308.81784 2361.95996 0.00042
290 10.41445 2306.73796 2275.29004 0.00044
291 10.42281 2304.68483 2313.60986 0.00043
292 10.43116 2302.65587 2294.41016 0.00044
293 10.43952 2300.64798 2381.43994 0.00042
294 10.44787 2298.65720 2371.69019 0.00042
295 10.45623 2296.67815 2381.43994 0.00042
296 10.46458 2294.70282 2284.83984 0.00044
297 10.47294 2292.71848 2256.25000 0.00044
298 10.48130 2290.70555 2391.21021 0.00042
299 10.48965 2288.63984 2323.23999 0.00043
300 10.49801 2286.50119 2342.56006 0.00043
301 10.50636 2284.29667 2304.00000 0.00043
302 10.51472 2282.11946 2332.88989 0.00043
303 10.52307 2280.12434 2342.56006 0.00043
304 10.53143 2278.32110 2313.60986 0.00043
305 10.53979 2276.62423 2342.56006 0.00043
306 10.54814 2274.97064 2284.83984 0.00044
307 10.55650 2273.33809 2294.41016 0.00044
308 10.56485 2271.72224 2342.56006 0.00043
309 10.57321 2270.12226 2352.25000 0.00043
310 10.58156 2268.53767 2323.23999 0.00043
311 10.58992 2266.96805 2430.48999 0.00041
312 10.59828 2265.41298 2246.76025 0.00045
313 10.60663 2263.87209 2275.29004 0.00044
314 10.61499 2262.34502 2284.83984 0.00044
315 10.62334 2260.83138 2265.75977 0.00044
316 10.63170 2259.33076 2323.23999 0.00043
317 10.64005 2257.84281 2352.25000 0.00043
318 10.64841 2256.36734 2284.83984 0.00044
319 10.65676 2254.90416 2284.83984 0.00044
320 10.66512 2253.45310 2275.29004 0.00044
321 10.67348 2252.01401 2199.61011 0.00045
322 10.68183 2250.58678 2209.00000 0.00045
323 10.69019 2249.17139 2313.60986 0.00043
324 10.69854 2247.76788 2323.23999 0.00043
325 10.70690 2246.37647 2371.69019 0.00042
326 10.71525 2244.99757 2294.41016 0.00044
327 10.72361 2243.63193 2391.21021 0.00042
328 10.73197 2242.28093 2313.60986 0.00043
329 10.74032 2240.94727 2218.40991 0.00045
330 10.74868 2239.63631 2352.25000 0.00043
331 10.75703 2238.35821 2246.76025 0.00045
332 10.76539 2237.12797 2313.60986 0.00043
333 10.77374 2235.95518 2265.75977 0.00044
334 10.78210 2234.81670 2199.61011 0.00045
335 10.79045 2233.64310 2190.23999 0.00046
336 10.79881 2232.38958 2171.55981 0.00046
337 10.80717 2231.09104 2227.84009 0.00045
338 10.81552 2229.78056 2162.25000 0.00046
339 10.82388 2228.46538 2199.61011 0.00045
340 10.83223 2227.14209 2275.29004 0.00044
341 10.84059 2225.80336 2218.40991 0.00045
342 10.84894 2224.43692 2275.29004 0.00044
343 10.85730 2223.02351 2199.61011 0.00045
344 10.86566 2221.53918 2190.23999 0.00046
345 10.87401 2219.96398 2275.29004 0.00044
346 10.88237 2218.30553 2275.29004 0.00044
347 10.89072 2216.65903 2284.83984 0.00044
348 10.89908 2215.18251 2171.55981 0.00046
349 10.90743 2213.88698 2227.84009 0.00045
350 10.91579 2212.68715 2190.23999 0.00046
351 10.92414 2211.52055 2190.23999 0.00046
352 10.93250 2210.36628 2246.76025 0.00045
353 10.94086 2209.22210 2180.89014 0.00046
354 10.94921 2208.09066 2199.61011 0.00045
355 10.95757 2206.97763 2180.89014 0.00046
356 10.96592 2205.89359 2227.84009 0.00045
357 10.97428 2204.85392 2190.23999 0.00046
358 10.98263 2203.86871 2199.61011 0.00045
359 10.99099 2202.91537 2246.76025 0.00045
360 10.99935 2201.92509 2134.44019 0.00047
361 11.00770 2200.85367 2180.89014 0.00046
362 11.01606 2199.73690 2265.75977 0.00044
363 11.02441 2198.60947 2275.29004 0.00044
364 11.03277 2197.48136 2237.29004 0.00045
365 11.04112 2196.35398 2237.29004 0.00045
366 11.04948 2195.22826 2180.89014 0.00046
367 11.05784 2194.10448 2237.29004 0.00045
368 11.06619 2192.97600 2227.84009 0.00045
369 11.07455 2191.81129 2209.00000 0.00045
370 11.08290 2190.55821 2237.29004 0.00045
371 11.09126 2189.25811 2218.40991 0.00045
372 11.09961 2188.07138 2209.00000 0.00045
373 11.10797 2187.02524 2265.75977 0.00044
374 11.11632 2186.06116 2209.00000 0.00045
375 11.12468 2185.13332 2199.61011 0.00045
376 11.13304 2184.22588 2199.61011 0.00045
377 11.14139 2183.33813 2294.41016 0.00044
378 11.14975 2182.47335 2162.25000 0.00046
379 11.15810 2181.63631 2218.40991 0.00045
380 11.16646 2180.83339 2227.84009 0.00045
381 11.17481 2180.07298 2171.55981 0.00046
382 11.18317 2179.36602 2152.96021 0.00046
383 11.19153 2178.72657 2052.08984 0.00049
384 11.19988 2178.17237 2180.89014 0.00046
385 11.20824 2177.72549 2162.25000 0.00046
386 11.21659 2177.41302 2143.68994 0.00047
387 11.22495 2177.26811 2180.89014 0.00046
388 11.23330 2177.33135 2180.89014 0.00046
389 11.24166 2177.64920 2209.00000 0.00045
390 11.25001 2178.26183 2313.60986 0.00043
391 11.25837 2179.17297 2199.61011 0.00045
392 11.26673 2180.33302 2162.25000 0.00046
393 11.27508 2181.70575 2125.20996 0.00047
394 11.28344 2183.31858 2275.29004 0.00044
395 11.29179 2185.17194 2199.61011 0.00045
396 11.30015 2187.19780 2209.00000 0.00045
397 11.30850 2189.26694 2134.44019 0.00047
398 11.31686 2191.22856 2256.25000 0.00044
399 11.32522 2192.93585 2180.89014 0.00046
400 11.33357 2194.24578 2180.89014 0.00046
401 11.34193 2195.08464 2180.89014 0.00046
402 11.35028 2195.44604 2218.40991 0.00045
403 11.35864 2195.19979 2227.84009 0.00045
404 11.36699 2194.17010 2209.00000 0.00045
405 11.37535 2192.30470 2246.76025 0.00045
406 11.38370 2189.70936 2209.00000 0.00045
407 11.39206 2186.57698 2199.61011 0.00045
408 11.40042 2183.13313 2199.61011 0.00045
409 11.40877 2179.60490 2237.29004 0.00045
410 11.41713 2176.19891 2190.23999 0.00046
411 11.42548 2173.08885 2125.20996 0.00047
412 11.43384 2170.40977 2190.23999 0.00046
413 11.44219 2168.25441 2218.40991 0.00045
414 11.45055 2166.66853 2116.00000 0.00047
415 11.45891 2165.64630 2116.00000 0.00047
416 11.46726 2165.13009 2209.00000 0.00045
417 11.47562 2165.02131 2171.55981 0.00046
418 11.48397 2165.20420 2152.96021 0.00046
419 11.49233 2165.57286 2152.96021 0.00046
420 11.50068 2166.04082 2106.81006 0.00047
421 11.50904 2166.52075 2227.84009 0.00045
422 11.51739 2166.91086 2043.04004 0.00049
423 11.52575 2167.16286 2116.00000 0.00047
424 11.53411 2167.33247 2052.08984 0.00049
425 11.54246 2167.49028 2079.35986 0.00048
426 11.55082 2167.68688 2152.96021 0.00046
427 11.55917 2167.95552 2116.00000 0.00047
428 11.56753 2168.30362 2106.81006 0.00047
429 11.57588 2168.70837 2088.48999 0.00048
430 11.58424 2169.14699 2162.25000 0.00046
431 11.59260 2169.61087 2007.03992 0.00050
432 11.60095 2170.07589 2061.16016 0.00049
433 11.60931 2170.49610 2199.61011 0.00045
434 11.61766 2170.81138 2143.68994 0.00047
435 11.62602 2170.95360 2152.96021 0.00046
436 11.63437 2170.85295 2125.20996 0.00047
437 11.64273 2170.44629 2125.20996 0.00047
438 11.65109 2169.68886 2097.63989 0.00048
439 11.65944 2168.57267 2116.00000 0.00047
440 11.66780 2167.15360 2025.00000 0.00049
441 11.67615 2165.55621 2152.96021 0.00046
442 11.68451 2163.89464 2088.48999 0.00048
443 11.69286 2162.20967 2180.89014 0.00046
444 11.70122 2160.53819 2079.35986 0.00048
445 11.70957 2158.93006 2034.00989 0.00049
446 11.71793 2157.43127 2016.01013 0.00050
447 11.72629 2156.07778 2152.96021 0.00046
448 11.73464 2154.89660 2016.01013 0.00050
449 11.74300 2153.90743 2143.68994 0.00047
450 11.75135 2153.12315 2052.08984 0.00049
451 11.75971 2152.54902 2125.20996 0.00047
452 11.76806 2152.18059 2088.48999 0.00048
453 11.77642 2152.00167 2043.04004 0.00049
454 11.78478 2151.98416 2106.81006 0.00047
455 11.79313 2152.09216 2061.16016 0.00049
456 11.80149 2152.28979 2116.00000 0.00047
457 11.80984 2152.54657 2106.81006 0.00047
458 11.81820 2152.83314 1962.48999 0.00051
459 11.82655 2153.12112 2079.35986 0.00048
460 11.83491 2153.41551 2079.35986 0.00048
461 11.84326 2153.77051 2134.44019 0.00047
462 11.85162 2154.25828 2016.01013 0.00050
463 11.85998 2154.95259 2052.08984 0.00049
464 11.86833 2155.91374 2097.63989 0.00048
465 11.87669 2157.15529 2097.63989 0.00048
466 11.88504 2158.59479 2162.25000 0.00046
467 11.89340 2159.99969 2134.44019 0.00047
468 11.90175 2160.95100 2034.00989 0.00049
469 11.91011 2160.85909 2016.01013 0.00050
470 11.91847 2159.06823 2116.00000 0.00047
471 11.92682 2155.05665 2180.89014 0.00046
472 11.93518 2148.65934 2134.44019 0.00047
473 11.94353 2140.17012 2052.08984 0.00049
474 11.95189 2130.24960 2125.20996 0.00047
475 11.96024 2119.74092 2052.08984 0.00049
476 11.96860 2109.50948 2061.16016 0.00049
477 11.97695 2100.28817 1989.15991 0.00050
478 11.98531 2092.55034 2134.44019 0.00047
479 11.99367 2086.47826 2088.48999 0.00048
480 12.00202 2082.00196 2052.08984 0.00049
481 12.01038 2078.88910 2007.03992 0.00050
482 12.01873 2076.84637 2116.00000 0.00047
483 12.02709 2075.59567 2061.16016 0.00049
484 12.03544 2074.91387 1998.09009 0.00050
485 12.04380 2074.64217 2070.25000 0.00048
486 12.05216 2074.67760 2106.81006 0.00047
487 12.06051 2074.95775 2097.63989 0.00048
488 12.06887 2075.44640 2034.00989 0.00049
489 12.07722 2076.12306 2088.48999 0.00048
490 12.08558 2076.97657 2106.81006 0.00047
491 12.09393 2078.00173 2052.08984 0.00049
492 12.10229 2079.19702 2125.20996 0.00047
493 12.11064 2080.56198 2116.00000 0.00047
494 12.11900 2082.09532 2043.04004 0.00049
495 12.12736 2083.79834 2097.63989 0.00048
496 12.13571 2085.67964 2052.08984 0.00049
497 12.14407 2087.74929 2088.48999 0.00048
498 12.15242 2090.01680 2106.81006 0.00047
499 12.16078 2092.49190 2052.08984 0.00049
500 12.16913 2095.18440 2190.23999 0.00046
501 12.17749 2098.10314 2025.00000 0.00049
502 12.18585 2101.25383 2134.44019 0.00047
503 12.19420 2104.63711 2088.48999 0.00048
504 12.20256 2108.25130 2152.96021 0.00046
505 12.21091 2112.10150 2116.00000 0.00047
506 12.21927 2116.22380 2171.55981 0.00046
507 12.22762 2120.74751 2043.04004 0.00049
508 12.23598 2125.86663 2180.89014 0.00046
509 12.24434 2131.61945 2190.23999 0.00046
510 12.25269 2137.97161 2171.55981 0.00046
511 12.26105 2144.91918 2143.68994 0.00047
512 12.26940 2152.49951 2227.84009 0.00045
513 12.27776 2160.77538 2116.00000 0.00047
514 12.28611 2169.82571 2209.00000 0.00045
515 12.29447 2179.74402 2246.76025 0.00045
516 12.30282 2190.63895 2199.61011 0.00045
517 12.31118 2202.63613 2275.29004 0.00044
518 12.31954 2215.88535 2313.60986 0.00043
519 12.32789 2230.56834 2361.95996 0.00042
520 12.33625 2246.89835 2361.95996 0.00042
521 12.34460 2265.12974 2304.00000 0.00043
522 12.35296 2285.57322 2342.56006 0.00043
523 12.36131 2308.60277 2304.00000 0.00043
524 12.36967 2334.67077 2361.95996 0.00042
525 12.37803 2364.33308 2460.15991 0.00041
526 12.38638 2398.28476 2460.15991 0.00041
527 12.39474 2437.41211 2550.25000 0.00039
528 12.40309 2482.86853 2601.00000 0.00038
529 12.41145 2536.18239 2641.96021 0.00038
530 12.41980 2599.40654 2862.25000 0.00035
531 12.42816 2675.32049 2819.60986 0.00035
532 12.43651 2767.70126 3003.03979 0.00033
533 12.44487 2881.69052 3203.55981 0.00031
534 12.45323 3024.30880 3492.80981 0.00029
535 12.46158 3205.20328 3733.20972 0.00027
536 12.46994 3437.75572 4057.69019 0.00025
537 12.47829 3740.68531 4342.81006 0.00023
538 12.48665 4140.17827 5012.64063 0.00020
539 12.49500 4672.22356 5625.00000 0.00018
540 12.50336 5384.10042 6256.80957 0.00016
541 12.51172 6332.89187 7005.68945 0.00014
542 12.52007 7577.94810 8244.64063 0.00012
543 12.52843 9164.32736 9350.88965 0.00011
544 12.53678 11096.41538 10920.25000 0.00009
545 12.54514 13305.56291 12633.76074 0.00008
546 12.55349 15622.28556 14835.24121 0.00007
547 12.56185 17771.34013 16230.76074 0.00006
548 12.57020 19412.68948 18279.03906 0.00005
549 12.57856 20239.52762 18933.76172 0.00005
550 12.58692 20099.87381 19544.04102 0.00005
551 12.59527 19056.46486 18741.60742 0.00005
552 12.60363 17329.14557 17450.41211 0.00006
553 12.61198 15184.51598 15550.08887 0.00006
554 12.62034 12877.62398 13294.09082 0.00008
555 12.62869 10642.44025 11214.81055 0.00009
556 12.63705 8667.25813 9273.69043 0.00011
557 12.64541 7057.28325 7603.83936 0.00013
558 12.65376 5828.01534 6068.41016 0.00016
559 12.66212 4933.10872 5041.00000 0.00020
560 12.67047 4299.99360 4489.00000 0.00022
561 12.67883 3855.71763 3844.00000 0.00026
562 12.68718 3540.30926 3352.41016 0.00030
563 12.69554 3310.63252 3364.00000 0.00030
564 12.70390 3138.57605 3025.00000 0.00033
565 12.71225 3006.98487 3003.03979 0.00033
566 12.72061 2905.65447 2872.95972 0.00035
567 12.72896 2828.42320 2948.48999 0.00034
568 12.73732 2771.45596 2809.00000 0.00036
569 12.74567 2732.39628 2830.23999 0.00035
570 12.75403 2710.02693 2840.88989 0.00035
571 12.76238 2704.19665 2798.41016 0.00036
572 12.77074 2715.89835 2830.23999 0.00035
573 12.77910 2747.47460 2926.80981 0.00034
574 12.78745 2802.97866 3069.16016 0.00033
575 12.79581 2888.73457 3147.20972 0.00032
576 12.80416 3014.09989 3329.29004 0.00030
577 12.81252 3192.29347 3576.03979 0.00028
578 12.82087 3440.86592 3881.28979 0.00026
579 12.82923 3780.99039 4121.63965 0.00024
580 12.83759 4234.42176 4515.83936 0.00022
581 12.84594 4817.06440 5041.00000 0.00020
582 12.85430 5528.95368 5461.21045 0.00018
583 12.86265 6342.20717 6162.25000 0.00016
584 12.87101 7191.00885 6972.25000 0.00014
585 12.87936 7970.64975 7708.84033 0.00013
586 12.88772 8554.39274 8100.00000 0.00012
587 12.89607 8831.74494 8427.24023 0.00012
588 12.90443 8753.39587 8593.28906 0.00012
589 12.91279 8349.37596 8335.69043 0.00012
590 12.92114 7702.93973 7956.63965 0.00013
591 12.92950 6909.38203 7310.25000 0.00014
592 12.93785 6057.95574 6162.25000 0.00016
593 12.94621 5231.39265 5387.56006 0.00019
594 12.95456 4497.71723 4651.23975 0.00021
595 12.96292 3895.94605 4032.25000 0.00025
596 12.97128 3432.74319 3283.28979 0.00030
597 12.97963 3092.02349 3014.01025 0.00033
598 12.98799 2847.77095 2662.55981 0.00038
599 12.99634 2673.47716 2470.09009 0.00040
600 13.00470 2547.10812 2361.95996 0.00042
601 13.01305 2452.63070 2275.29004 0.00044
602 13.02141 2379.45299 2332.88989 0.00043
603 13.02976 2320.99370 2199.61011 0.00045
604 13.03812 2273.22781 2171.55981 0.00046
605 13.04648 2233.60323 2162.25000 0.00046
606 13.05483 2200.37890 2016.01013 0.00050
607 13.06319 2172.27428 2079.35986 0.00048
608 13.07154 2148.29913 2061.16016 0.00049
609 13.07990 2127.67029 2034.00989 0.00049
610 13.08825 2109.76499 1971.36011 0.00051
611 13.09661 2094.08862 2034.00989 0.00049
612 13.10497 2080.24909 2025.00000 0.00049
613 13.11332 2067.93539 2025.00000 0.00049
614 13.12168 2056.90007 2016.01013 0.00050
615 13.13003 2046.94503 1857.60986 0.00054
616 13.13839 2037.91048 1944.80981 0.00051
617 13.14674 2029.66638 1971.36011 0.00051
618 13.15510 2022.10600 1918.43994 0.00052
619 13.16345 2015.14100 2016.01013 0.00050
620 13.17181 2008.69770 1927.21008 0.00052
621 13.18017 2002.71425 2079.35986 0.00048
622 13.18852 1997.13835 1971.36011 0.00051
623 13.19688 1991.92549 1980.25000 0.00050
624 13.20523 1987.03760 1989.15991 0.00050
625 13.21359 1982.44188 1936.00000 0.00052
626 13.22194 1978.10992 1883.56018 0.00053
627 13.23030 1974.01697 2007.03992 0.00050
628 13.23866 1970.14135 1962.48999 0.00051
629 13.24701 1966.46398 1936.00000 0.00052
630 13.25537 1962.96795 2088.48999 0.00048
631 13.26372 1959.63827 1918.43994 0.00052
632 13.27208 1956.46155 1971.36011 0.00051
633 13.28043 1953.42576 1980.25000 0.00050
634 13.28879 1950.52011 1989.15991 0.00050
635 13.29715 1947.73487 1944.80981 0.00051
636 13.30550 1945.06133 1971.36011 0.00051
637 13.31386 1942.49167 1998.09009 0.00050
638 13.32221 1940.01875 1918.43994 0.00052
639 13.33057 1937.63601 1927.21008 0.00052
640 13.33892 1935.33747 1944.80981 0.00051
641 13.34728 1933.11775 1883.56018 0.00053
642 13.35563 1930.97194 1936.00000 0.00052
643 13.36399 1928.89560 1980.25000 0.00050
644 13.37235 1926.88462 1953.64001 0.00051
645 13.38070 1924.93531 1927.21008 0.00052
646 13.38906 1923.04427 1953.64001 0.00051
647 13.39741 1921.20845 1971.36011 0.00051
648 13.40577 1919.42505 1936.00000 0.00052
649 13.41412 1917.69159 1909.69006 0.00052
650 13.42248 1916.00587 1953.64001 0.00051
651 13.43084 1914.36596 1936.00000 0.00052
652 13.43919 1912.77026 1857.60986 0.00054
653 13.44755 1911.21762 1962.48999 0.00051
654 13.45590 1909.70751 1989.15991 0.00050
655 13.46426 1908.24062 1936.00000 0.00052
656 13.47261 1906.82025 1927.21008 0.00052
657 13.48097 1905.45422 1892.25000 0.00053
658 13.48932 1904.15132 1900.95984 0.00053
659 13.49768 1902.90203 1900.95984 0.00053
660 13.50604 1901.66344 1909.69006 0.00052
661 13.51439 1900.40280 1883.56018 0.00053
662 13.52275 1899.13726 1927.21008 0.00052
663 13.53110 1897.87547 1962.48999 0.00051
664 13.53946 1896.60653 1936.00000 0.00052
665 13.54781 1895.32132 1866.24011 0.00054
666 13.55617 1894.04267 1857.60986 0.00054
667 13.56453 1892.83871 1883.56018 0.00053
668 13.57288 1891.75289 1840.41016 0.00054
669 13.58124 1890.74743 1953.64001 0.00051
670 13.58959 1889.78616 1927.21008 0.00052
671 13.59795 1888.85985 1936.00000 0.00052
672 13.60630 1887.96873 1936.00000 0.00052
673 13.61466 1887.11413 1918.43994 0.00052
674 13.62301 1886.29756 1874.88989 0.00053
675 13.63137 1885.52087 1849.00000 0.00054
676 13.63973 1884.78623 1797.76013 0.00056
677 13.64808 1884.09629 1823.29004 0.00055
678 13.65644 1883.45426 1971.36011 0.00051
679 13.66479 1882.86403 1840.41016 0.00054
680 13.67315 1882.32995 1909.69006 0.00052
681 13.68150 1881.85653 1962.48999 0.00051
682 13.68986 1881.44909 1874.88989 0.00053
683 13.69822 1881.11535 1918.43994 0.00052
684 13.70657 1880.86457 1927.21008 0.00052
685 13.71493 1880.70739 1918.43994 0.00052
686 13.72328 1880.65639 1909.69006 0.00052
687 13.73164 1880.72660 1789.28992 0.00056
688 13.73999 1880.93599 1918.43994 0.00052
689 13.74835 1881.30615 1909.69006 0.00052
690 13.75670 1881.86312 1866.24011 0.00054
691 13.76506 1882.63873 1883.56018 0.00053
692 13.77342 1883.67248 1866.24011 0.00054
693 13.78177 1885.01432 1831.83997 0.00055
694 13.79013 1886.72855 1840.41016 0.00054
695 13.79848 1888.89964 1936.00000 0.00052
696 13.80684 1891.64225 1918.43994 0.00052
697 13.81519 1895.11619 1909.69006 0.00052
698 13.82355 1899.54412 1971.36011 0.00051
699 13.83191 1905.23813 1953.64001 0.00051
700 13.84026 1912.63852 1936.00000 0.00052
701 13.84862 1922.37002 1900.95984 0.00053
702 13.85697 1935.32224 2007.03992 0.00050
703 13.86533 1952.75852 1980.25000 0.00050
704 13.87368 1976.44270 2061.16016 0.00049
705 13.88204 2008.73810 2016.01013 0.00050
706 13.89040 2052.56460 2070.25000 0.00048
707 13.89875 2111.04274 2106.81006 0.00047
708 13.90711 2186.72357 2125.20996 0.00047
709 13.91546 2280.36387 2246.76025 0.00045
710 13.92382 2389.31907 2265.75977 0.00044
711 13.93217 2505.99673 2371.69019 0.00042
712 13.94053 2617.23867 2480.04004 0.00040
713 13.94888 2705.92658 2530.08984 0.00040
714 13.95724 2755.82095 2662.55981 0.00038
715 13.96560 2758.30797 2724.84009 0.00037
716 13.97395 2716.20298 2641.96021 0.00038
717 13.98231 2640.49684 2641.96021 0.00038
718 13.99066 2543.33349 2520.04004 0.00040
719 13.99902 2434.71931 2430.48999 0.00041
720 14.00737 2323.97115 2381.43994 0.00042
721 14.01573 2220.44193 2332.88989 0.00043
722 14.02409 2131.39251 2143.68994 0.00047
723 14.03244 2060.02426 2061.16016 0.00049
724 14.04080 2005.77729 1980.25000 0.00050
725 14.04915 1965.92599 1971.36011 0.00051
726 14.05751 1937.06769 2007.03992 0.00050
727 14.06586 1916.04531 1918.43994 0.00052
728 14.07422 1900.36692 1918.43994 0.00052
729 14.08257 1888.27756 1831.83997 0.00055
730 14.09093 1878.63718 1849.00000 0.00054
731 14.09929 1870.73622 1772.40991 0.00056
732 14.10764 1864.13173 1849.00000 0.00054
733 14.11600 1858.53169 1806.25000 0.00055
734 14.12435 1853.72795 1892.25000 0.00053
735 14.13271 1849.56196 1936.00000 0.00052
736 14.14106 1845.90760 1831.83997 0.00055
737 14.14942 1842.66127 1823.29004 0.00055
738 14.15778 1839.73456 1789.28992 0.00056
739 14.16613 1837.05045 1806.25000 0.00055
740 14.17449 1834.55002 1918.43994 0.00052
741 14.18284 1832.21651 1831.83997 0.00055
742 14.19120 1830.08664 1780.84009 0.00056
743 14.19955 1828.17918 1806.25000 0.00055
744 14.20791 1826.43649 1797.76013 0.00056
745 14.21626 1824.80590 1909.69006 0.00052
746 14.22462 1823.26310 1936.00000 0.00052
747 14.23298 1821.79526 1764.00000 0.00057
748 14.24133 1820.39244 1772.40991 0.00056
749 14.24969 1819.04598 1780.84009 0.00056
750 14.25804 1817.74790 1764.00000 0.00057
751 14.26640 1816.49018 1866.24011 0.00054
752 14.27475 1815.26371 1797.76013 0.00056
753 14.28311 1814.05832 1814.75989 0.00055
754 14.29147 1812.86696 1780.84009 0.00056
755 14.29982 1811.69691 1755.61011 0.00057
756 14.30818 1810.57291 1892.25000 0.00053
757 14.31653 1809.50679 1814.75989 0.00055
758 14.32489 1808.48272 1840.41016 0.00054
759 14.33324 1807.48591 1797.76013 0.00056
760 14.34160 1806.51023 1806.25000 0.00055
761 14.34996 1805.55274 1789.28992 0.00056
762 14.35831 1804.61205 1814.75989 0.00055
763 14.36667 1803.68654 1755.61011 0.00057
764 14.37502 1802.77378 1823.29004 0.00055
765 14.38338 1801.87076 1823.29004 0.00055
766 14.39173 1800.97393 1697.44006 0.00059
767 14.40009 1800.07868 1874.88989 0.00053
768 14.40844 1799.17803 1738.89001 0.00058
769 14.41680 1798.26049 1831.83997 0.00055
770 14.42516 1797.31001 1814.75989 0.00055
771 14.43351 1796.31603 1755.61011 0.00057
772 14.44187 1795.30028 1755.61011 0.00057
773 14.45022 1794.33053 1755.61011 0.00057
774 14.45858 1793.45027 1857.60986 0.00054
775 14.46693 1792.62065 1764.00000 0.00057
776 14.47529 1791.80299 1831.83997 0.00055
777 14.48365 1790.98232 1797.76013 0.00056
778 14.49200 1790.15122 1738.89001 0.00058
779 14.50036 1789.30612 1764.00000 0.00057
780 14.50871 1788.45738 1797.76013 0.00056
781 14.51707 1787.63237 1697.44006 0.00059
782 14.52542 1786.84463 1772.40991 0.00056
783 14.53378 1786.07974 1730.55981 0.00058
784 14.54213 1785.32618 1772.40991 0.00056
785 14.55049 1784.58300 1814.75989 0.00055
786 14.55885 1783.85523 1797.76013 0.00056
787 14.56720 1783.15332 1772.40991 0.00056
788 14.57556 1782.49007 1780.84009 0.00056
789 14.58391 1781.86301 1738.89001 0.00058
790 14.59227 1781.24124 1697.44006 0.00059
791 14.60062 1780.60600 1730.55981 0.00058
792 14.60898 1779.97475 1722.25000 0.00058
793 14.61734 1779.33005 1764.00000 0.00057
794 14.62569 1778.64778 1772.40991 0.00056
795 14.63405 1777.94819 1780.84009 0.00056
796 14.64240 1777.24855 1789.28992 0.00056
797 14.65076 1776.55262 1797.76013 0.00056
798 14.65911 1775.86078 1892.25000 0.00053
799 14.66747 1775.17314 1738.89001 0.00058
800 14.67582 1774.48988 1780.84009 0.00056
801 14.68418 1773.81124 1780.84009 0.00056
802 14.69254 1773.13758 1840.41016 0.00054
803 14.70089 1772.46945 1814.75989 0.00055
804 14.70925 1771.80745 1814.75989 0.00055
805 14.71760 1771.15226 1772.40991 0.00056
806 14.72596 1770.50471 1730.55981 0.00058
807 14.73431 1769.86573 1772.40991 0.00056
808 14.74267 1769.23587 1789.28992 0.00056
809 14.75103 1768.61474 1772.40991 0.00056
810 14.75938 1768.00130 1730.55981 0.00058
811 14.76774 1767.39860 1806.25000 0.00055
812 14.77609 1766.82566 1705.68994 0.00059
813 14.78445 1766.32199 1747.23999 0.00057
814 14.79280 1765.91852 1806.25000 0.00055
815 14.80116 1765.61965 1823.29004 0.00055
816 14.80951 1765.41426 1831.83997 0.00055
817 14.81787 1765.26676 1713.96008 0.00058
818 14.82623 1765.15355 1730.55981 0.00058
819 14.83458 1765.10136 1689.20984 0.00059
820 14.84294 1765.12899 1780.84009 0.00056
821 14.85129 1765.23421 1814.75989 0.00055
822 14.85965 1765.40317 1772.40991 0.00056
823 14.86800 1765.61170 1772.40991 0.00056
824 14.87636 1765.82324 1722.25000 0.00058
825 14.88472 1765.98634 1814.75989 0.00055
826 14.89307 1766.03284 1780.84009 0.00056
827 14.90143 1765.87790 1705.68994 0.00059
828 14.90978 1765.42370 1738.89001 0.00058
829 14.91814 1764.56872 1713.96008 0.00058
830 14.92649 1763.22317 1857.60986 0.00054
831 14.93485 1761.32851 1672.81018 0.00060
832 14.94321 1758.87627 1713.96008 0.00058
833 14.95156 1755.92016 1764.00000 0.00057
834 14.95992 1752.57666 1713.96008 0.00058
835 14.96827 1749.00940 1772.40991 0.00056
836 14.97663 1745.39483 1730.55981 0.00058
837 14.98498 1741.88388 1705.68994 0.00059
838 14.99334 1738.58960 1738.89001 0.00058
839 15.00169 1735.58865 1764.00000 0.00057
840 15.01005 1732.91951 1738.89001 0.00058
841 15.01841 1730.58560 1697.44006 0.00059
842 15.02676 1728.56315 1780.84009 0.00056
843 15.03512 1726.81232 1747.23999 0.00057
844 15.04347 1725.28820 1764.00000 0.00057
845 15.05183 1723.94838 1831.83997 0.00055
846 15.06018 1722.75699 1738.89001 0.00058
847 15.06854 1721.68701 1764.00000 0.00057
848 15.07690 1720.72077 1705.68994 0.00059
849 15.08525 1719.85069 1722.25000 0.00058
850 15.09361 1719.07565 1616.04004 0.00062
851 15.10196 1718.38242 1755.61011 0.00057
852 15.11032 1717.72689 1797.76013 0.00056
853 15.11867 1717.06489 1656.49011 0.00060
854 15.12703 1716.39234 1713.96008 0.00058
855 15.13538 1715.71911 1772.40991 0.00056
856 15.14374 1715.05681 1764.00000 0.00057
857 15.15210 1714.40911 1713.96008 0.00058
858 15.16045 1713.77466 1738.89001 0.00058
859 15.16881 1713.15124 1772.40991 0.00056
860 15.17716 1712.53650 1672.81018 0.00060
861 15.18552 1711.92781 1689.20984 0.00059
862 15.19387 1711.32175 1755.61011 0.00057
863 15.20223 1710.71315 1772.40991 0.00056
864 15.21059 1710.09373 1681.00000 0.00059
865 15.21894 1709.45248 1738.89001 0.00058
866 15.22730 1708.77730 1797.76013 0.00056
867 15.23565 1708.05230 1681.00000 0.00059
868 15.24401 1707.25721 1764.00000 0.00057
869 15.25236 1706.37411 1672.81018 0.00060
870 15.26072 1705.40894 1730.55981 0.00058
871 15.26907 1704.40886 1747.23999 0.00057
872 15.27743 1703.42336 1697.44006 0.00059
873 15.28579 1702.46444 1755.61011 0.00057
874 15.29414 1701.55507 1764.00000 0.00057
875 15.30250 1700.73181 1664.63989 0.00060
876 15.31085 1700.02906 1697.44006 0.00059
877 15.31921 1699.47564 1738.89001 0.00058
878 15.32756 1699.09670 1624.08997 0.00062
879 15.33592 1698.91689 1764.00000 0.00057
880 15.34428 1698.96526 1664.63989 0.00060
881 15.35263 1699.27710 1755.61011 0.00057
882 15.36099 1699.88473 1681.00000 0.00059
883 15.36934 1700.82312 1713.96008 0.00058
884 15.37770 1702.21239 1730.55981 0.00058
885 15.38605 1704.32923 1814.75989 0.00055
886 15.39441 1707.49662 1772.40991 0.00056
887 15.40276 1712.03217 1814.75989 0.00055
888 15.41112 1718.34017 1747.23999 0.00057
889 15.41948 1726.87885 1738.89001 0.00058
890 15.42783 1738.05481 1814.75989 0.00055
891 15.43619 1752.05319 1772.40991 0.00056
892 15.44454 1768.60658 1764.00000 0.00057
893 15.45290 1786.74336 1747.23999 0.00057
894 15.46125 1804.61721 1866.24011 0.00054
895 15.46961 1819.62512 1927.21008 0.00052
896 15.47797 1829.07098 1909.69006 0.00052
897 15.48632 1831.32332 1909.69006 0.00052
898 15.49468 1826.67760 1962.48999 0.00051
899 15.50303 1816.93136 1849.00000 0.00054
900 15.51139 1803.99111 1944.80981 0.00051
901 15.51974 1789.05060 1789.28992 0.00056
902 15.52810 1772.95659 1747.23999 0.00057
903 15.53646 1756.81765 1831.83997 0.00055
904 15.54481 1741.92505 1772.40991 0.00056
905 15.55317 1729.22232 1780.84009 0.00056
906 15.56152 1719.03704 1656.49011 0.00060
907 15.56988 1711.20633 1705.68994 0.00059
908 15.57823 1705.32081 1738.89001 0.00058
909 15.58659 1700.91136 1672.81018 0.00060
910 15.59494 1697.55631 1672.81018 0.00060
911 15.60330 1694.92895 1713.96008 0.00058
912 15.61166 1692.80354 1672.81018 0.00060
913 15.62001 1691.03345 1755.61011 0.00057
914 15.62837 1689.52138 1713.96008 0.00058
915 15.63672 1688.20431 1648.35986 0.00061
916 15.64508 1687.04152 1755.61011 0.00057
917 15.65343 1686.00403 1697.44006 0.00059
918 15.66179 1685.06769 1624.08997 0.00062
919 15.67015 1684.21273 1632.16016 0.00061
920 15.67850 1683.42253 1664.63989 0.00060
921 15.68686 1682.68175 1705.68994 0.00059
922 15.69521 1681.97600 1681.00000 0.00059
923 15.70357 1681.29620 1672.81018 0.00060
924 15.71192 1680.64913 1648.35986 0.00061
925 15.72028 1680.05688 1608.00989 0.00062
926 15.72863 1679.52189 1672.81018 0.00060
927 15.73699 1679.02210 1730.55981 0.00058
928 15.74535 1678.54877 1640.25000 0.00061
929 15.75370 1678.09964 1697.44006 0.00059
930 15.76206 1677.67218 1722.25000 0.00058
931 15.77041 1677.26461 1730.55981 0.00058
932 15.77877 1676.87808 1730.55981 0.00058
933 15.78712 1676.51500 1640.25000 0.00061
934 15.79548 1676.17982 1764.00000 0.00057
935 15.80384 1675.88185 1730.55981 0.00058
936 15.81219 1675.63305 1705.68994 0.00059
937 15.82055 1675.42773 1632.16016 0.00061
938 15.82890 1675.22462 1722.25000 0.00058
939 15.83726 1674.99354 1681.00000 0.00059
940 15.84561 1674.75740 1722.25000 0.00058
941 15.85397 1674.53303 1640.25000 0.00061
942 15.86232 1674.32273 1648.35986 0.00061
943 15.87068 1674.12601 1648.35986 0.00061
944 15.87904 1673.94411 1764.00000 0.00057
945 15.88739 1673.78176 1697.44006 0.00059
946 15.89575 1673.64352 1730.55981 0.00058
947 15.90410 1673.52894 1681.00000 0.00059
948 15.91246 1673.43898 1648.35986 0.00061
949 15.92081 1673.37865 1632.16016 0.00061
950 15.92917 1673.35244 1689.20984 0.00059
951 15.93753 1673.35266 1640.25000 0.00061
952 15.94588 1673.36321 1730.55981 0.00058
953 15.95424 1673.38944 1705.68994 0.00059
954 15.96259 1673.44116 1624.08997 0.00062
955 15.97095 1673.52287 1632.16016 0.00061
956 15.97930 1673.63679 1755.61011 0.00057
957 15.98766 1673.78490 1681.00000 0.00059
958 15.99602 1673.96932 1722.25000 0.00058
959 16.00437 1674.19231 1697.44006 0.00059
960 16.01273 1674.45634 1632.16016 0.00061
961 16.02108 1674.76405 1632.16016 0.00061
962 16.02944 1675.11830 1747.23999 0.00057
963 16.03779 1675.52219 1664.63989 0.00060
964 16.04615 1675.97905 1640.25000 0.00061
965 16.05450 1676.49249 1624.08997 0.00062
966 16.06286 1677.06642 1705.68994 0.00059
967 16.07122 1677.70505 1697.44006 0.00059
968 16.07957 1678.41300 1576.09009 0.00063
969 16.08793 1679.19530 1713.96008 0.00058
970 16.09628 1680.05748 1730.55981 0.00058
971 16.10464 1681.00563 1764.00000 0.00057
972 16.11299 1682.04615 1705.68994 0.00059
973 16.12135 1683.18604 1697.44006 0.00059
974 16.12971 1684.43392 1681.00000 0.00059
975 16.13806 1685.80059 1664.63989 0.00060
976 16.14642 1687.29999 1681.00000 0.00059
977 16.15477 1688.94781 1797.76013 0.00056
978 16.16313 1690.75311 1681.00000 0.00059
979 16.17148 1692.71747 1738.89001 0.00058
980 16.17984 1694.85162 1730.55981 0.00058
981 16.18819 1697.16141 1697.44006 0.00059
982 16.19655 1699.65437 1664.63989 0.00060
983 16.20491 1702.36044 1713.96008 0.00058
984 16.21326 1705.30994 1632.16016 0.00061
985 16.22162 1708.53049 1705.68994 0.00059
986 16.22997 1712.05293 1713.96008 0.00058
987 16.23833 1715.91463 1648.35986 0.00061
988 16.24668 1720.15927 1672.81018 0.00060
989 16.25504 1724.82890 1705.68994 0.00059
990 16.26340 1729.95681 1697.44006 0.00059
991 16.27175 1735.58944 1713.96008 0.00058
992 16.28011 1741.80850 1772.40991 0.00056
993 16.28846 1748.70570 1681.00000 0.00059
994 16.29682 1756.38061 1730.55981 0.00058
995 16.30517 1764.94896 1689.20984 0.00059
996 16.31353 1774.54799 1705.68994 0.00059
997 16.32188 1785.34126 1764.00000 0.00057
998 16.33024 1797.52482 1772.40991 0.00056
999 16.33860 1811.33494 1747.23999 0.00057
1000 16.34695 1827.05838 1806.25000 0.00055
1001 16.35531 1845.04666 1789.28992 0.00056
1002 16.36366 1865.73780 1764.00000 0.00057
1003 16.37202 1889.69101 1814.75989 0.00055
1004 16.38037 1917.64198 1772.40991 0.00056
1005 16.38873 1950.58940 1892.25000 0.00053
1006 16.39709 1989.92859 1927.21008 0.00052
1007 16.40544 2037.65649 1936.00000 0.00052
1008 16.41380 2096.68217 1980.25000 0.00050
1009 16.42215 2171.28589 2152.96021 0.00046
1010 16.43051 2267.76404 2180.89014 0.00046
1011 16.43886 2395.25003 2361.95996 0.00042
1012 16.44722 2566.57889 2490.01025 0.00040
1013 16.45557 2798.82437 2819.60986 0.00035
1014 16.46393 3112.81662 3025.00000 0.00033
1015 16.47229 3530.69285 3492.80981 0.00029
1016 16.48064 4070.58230 3881.28979 0.00026
1017 16.48900 4738.07966 4329.64063 0.00023
1018 16.49735 5515.22486 5041.00000 0.00020
1019 16.50571 6349.38977 5944.40967 0.00017
1020 16.51406 7147.80792 6789.76025 0.00015
1021 16.52242 7788.56857 8010.25000 0.00012
1022 16.53078 8157.98996 8519.29102 0.00012
1023 16.53913 8203.87369 9025.00000 0.00011
1024 16.54749 7962.45082 8408.88965 0.00012
1025 16.55584 7524.34639 7638.76025 0.00013
1026 16.56420 6969.59982 6938.89063 0.00014
1027 16.57255 6338.46212 6304.36035 0.00016
1028 16.58091 5654.81417 5715.35986 0.00017
1029 16.58927 4958.01296 5097.96045 0.00020
1030 16.59762 4302.63915 4186.08984 0.00024
1031 16.60598 3734.22045 3600.00000 0.00028
1032 16.61433 3273.06284 2862.25000 0.00035
1033 16.62269 2916.59292 2631.68994 0.00038
1034 16.63104 2649.43247 2332.88989 0.00043
1035 16.63940 2452.00204 2171.55981 0.00046
1036 16.64775 2305.70915 1989.15991 0.00050
1037 16.65611 2195.43369 1989.15991 0.00050
1038 16.66447 2110.14556 1874.88989 0.00053
1039 16.67282 2042.39911 1797.76013 0.00056
1040 16.68118 1987.37909 1874.88989 0.00053
1041 16.68953 1941.97369 1789.28992 0.00056
1042 16.69789 1904.08953 1772.40991 0.00056
1043 16.70624 1872.22783 1797.76013 0.00056
1044 16.71460 1845.25230 1747.23999 0.00057
1045 16.72296 1822.26957 1747.23999 0.00057
1046 16.73131 1802.56585 1755.61011 0.00057
1047 16.73967 1785.56922 1697.44006 0.00059
1048 16.74802 1770.82380 1713.96008 0.00058
1049 16.75638 1757.96776 1689.20984 0.00059
1050 16.76473 1746.71253 1722.25000 0.00058
1051 16.77309 1736.82622 1681.00000 0.00059
1052 16.78144 1728.13001 1705.68994 0.00059
1053 16.78980 1720.49585 1656.49011 0.00060
1054 16.79816 1713.82522 1697.44006 0.00059
1055 16.80651 1708.03336 1697.44006 0.00059
1056 16.81487 1703.06839 1648.35986 0.00061
1057 16.82322 1698.94838 1656.49011 0.00060
1058 16.83158 1695.74332 1616.04004 0.00062
1059 16.83993 1693.58693 1656.49011 0.00060
1060 16.84829 1692.70457 1656.49011 0.00060
1061 16.85665 1693.44558 1772.40991 0.00056
1062 16.86500 1696.30850 1722.25000 0.00058
1063 16.87336 1701.88240 1705.68994 0.00059
1064 16.88171 1710.76705 1755.61011 0.00057
1065 16.89007 1723.54784 1689.20984 0.00059
1066 16.89842 1740.49322 1664.63989 0.00060
1067 16.90678 1761.20378 1705.68994 0.00059
1068 16.91513 1784.25653 1697.44006 0.00059
1069 16.92349 1806.97306 1831.83997 0.00055
1070 16.93185 1825.62414 1705.68994 0.00059
1071 16.94020 1836.45207 1866.24011 0.00054
1072 16.94856 1837.38648 1823.29004 0.00055
1073 16.95691 1829.21641 1814.75989 0.00055
1074 16.96527 1814.80102 1738.89001 0.00058
1075 16.97362 1796.89026 1697.44006 0.00059
1076 16.98198 1776.81008 1747.23999 0.00057
1077 16.99034 1754.99595 1747.23999 0.00057
1078 16.99869 1732.26073 1722.25000 0.00058
1079 17.00705 1710.23880 1797.76013 0.00056
1080 17.01540 1690.56235 1738.89001 0.00058
1081 17.02376 1674.12926 1697.44006 0.00059
1082 17.03211 1661.05148 1656.49011 0.00060
1083 17.04047 1650.95458 1672.81018 0.00060
1084 17.04882 1643.27027 1640.25000 0.00061
1085 17.05718 1637.41572 1648.35986 0.00061
1086 17.06554 1632.87760 1640.25000 0.00061
1087 17.07389 1629.26071 1632.16016 0.00061
1088 17.08225 1626.31824 1648.35986 0.00061
1089 17.09060 1623.89580 1681.00000 0.00059
1090 17.09896 1621.89145 1560.25000 0.00064
1091 17.10731 1620.22396 1616.04004 0.00062
1092 17.11567 1618.82327 1648.35986 0.00061
1093 17.12403 1617.66245 1640.25000 0.00061
1094 17.13238 1616.72976 1632.16016 0.00061
1095 17.14074 1616.00736 1640.25000 0.00061
1096 17.14909 1615.46971 1672.81018 0.00060
1097 17.15745 1615.08211 1632.16016 0.00061
1098 17.16580 1614.79858 1640.25000 0.00061
1099 17.17416 1614.56287 1592.01013 0.00063
1100 17.18252 1614.31201 1640.25000 0.00061
1101 17.19087 1613.97892 1656.49011 0.00060
1102 17.19923 1613.50549 1648.35986 0.00061
1103 17.20758 1612.86449 1616.04004 0.00062
1104 17.21594 1612.02637 1648.35986 0.00061
1105 17.22429 1610.95892 1697.44006 0.00059
1106 17.23265 1609.71279 1616.04004 0.00062
1107 17.24100 1608.36187 1697.44006 0.00059
1108 17.24936 1606.96616 1584.03992 0.00063
1109 17.25772 1605.57275 1616.04004 0.00062
1110 17.26607 1604.21626 1584.03992 0.00063
1111 17.27443 1602.91789 1632.16016 0.00061
1112 17.28278 1601.68601 1672.81018 0.00060
1113 17.29114 1600.51819 1616.04004 0.00062
1114 17.29949 1599.40438 1640.25000 0.00061
1115 17.30785 1598.33184 1632.16016 0.00061
1116 17.31621 1597.29111 1576.09009 0.00063
1117 17.32456 1596.27486 1640.25000 0.00061
1118 17.33292 1595.26028 1705.68994 0.00059
1119 17.34127 1594.21441 1608.00989 0.00062
1120 17.34963 1593.14812 1576.09009 0.00063
1121 17.35798 1592.09005 1664.63989 0.00060
1122 17.36634 1591.06070 1681.00000 0.00059
1123 17.37469 1590.07441 1608.00989 0.00062
1124 17.38305 1589.14334 1624.08997 0.00062
1125 17.39141 1588.27953 1640.25000 0.00061
1126 17.39976 1587.49959 1697.44006 0.00059
1127 17.40812 1586.83214 1632.16016 0.00061
1128 17.41647 1586.30188 1560.25000 0.00064
1129 17.42483 1585.85761 1584.03992 0.00063
1130 17.43318 1585.38900 1600.00000 0.00063
1131 17.44154 1584.91392 1616.04004 0.00062
1132 17.44990 1584.47159 1576.09009 0.00063
1133 17.45825 1584.07921 1672.81018 0.00060
1134 17.46661 1583.73740 1632.16016 0.00061
1135 17.47496 1583.43428 1672.81018 0.00060
1136 17.48332 1583.15621 1592.01013 0.00063
1137 17.49167 1582.88776 1608.00989 0.00062
1138 17.50003 1582.61205 1648.35986 0.00061
1139 17.50838 1582.31254 1681.00000 0.00059
1140 17.51674 1581.97675 1552.36011 0.00064
1141 17.52510 1581.60102 1624.08997 0.00062
1142 17.53345 1581.18342 1616.04004 0.00062
1143 17.54181 1580.69270 1616.04004 0.00062
1144 17.55016 1580.08177 1497.69006 0.00067
1145 17.55852 1579.39072 1576.09009 0.00063
1146 17.56687 1578.69189 1592.01013 0.00063
1147 17.57523 1577.98056 1544.48999 0.00065
1148 17.58359 1577.25488 1600.00000 0.00063
1149 17.59194 1576.56390 1624.08997 0.00062
1150 17.60030 1575.94746 1552.36011 0.00064
1151 17.60865 1575.38774 1584.03992 0.00063
1152 17.61701 1574.86832 1552.36011 0.00064
1153 17.62536 1574.38691 1648.35986 0.00061
1154 17.63372 1573.94489 1568.15991 0.00064
1155 17.64208 1573.54464 1560.25000 0.00064
1156 17.65043 1573.18700 1681.00000 0.00059
1157 17.65879 1572.86155 1552.36011 0.00064
1158 17.66714 1572.54836 1536.64001 0.00065
1159 17.67550 1572.25012 1656.49011 0.00060
1160 17.68385 1571.98976 1664.63989 0.00060
1161 17.69221 1571.77160 1576.09009 0.00063
1162 17.70056 1571.58125 1616.04004 0.00062
1163 17.70892 1571.40942 1600.00000 0.00063
1164 17.71728 1571.25854 1544.48999 0.00065
1165 17.72563 1571.13132 1528.80994 0.00065
1166 17.73399 1571.02884 1632.16016 0.00061
1167 17.74234 1570.95228 1521.00000 0.00066
1168 17.75070 1570.90351 1624.08997 0.00062
1169 17.75905 1570.88537 1544.48999 0.00065
1170 17.76741 1570.90246 1592.01013 0.00063
1171 17.77577 1570.96301 1664.63989 0.00060
1172 17.78412 1571.08146 1560.25000 0.00064
1173 17.79248 1571.27142 1616.04004 0.00062
1174 17.80083 1571.51708 1632.16016 0.00061
1175 17.80919 1571.77334 1584.03992 0.00063
1176 17.81754 1572.03862 1497.69006 0.00067
1177 17.82590 1572.33746 1600.00000 0.00063
1178 17.83425 1572.68137 1624.08997 0.00062
1179 17.84261 1573.07268 1608.00989 0.00062
1180 17.85097 1573.51393 1640.25000 0.00061
1181 17.85932 1574.01078 1576.09009 0.00063
1182 17.86768 1574.57239 1608.00989 0.00062
1183 17.87603 1575.21088 1544.48999 0.00065
1184 17.88439 1575.94004 1568.15991 0.00064
1185 17.89274 1576.77479 1576.09009 0.00063
1186 17.90110 1577.73273 1600.00000 0.00063
1187 17.90946 1578.83137 1560.25000 0.00064
1188 17.91781 1580.07690 1544.48999 0.00065
1189 17.92617 1581.45615 1560.25000 0.00064
1190 17.93452 1582.95275 1616.04004 0.00062
1191 17.94288 1584.55837 1648.35986 0.00061
1192 17.95123 1586.26181 1600.00000 0.00063
1193 17.95959 1588.05480 1544.48999 0.00065
1194 17.96794 1589.93859 1560.25000 0.00064
1195 17.97630 1591.92207 1600.00000 0.00063
1196 17.98466 1594.01736 1576.09009 0.00063
1197 17.99301 1596.23825 1584.03992 0.00063
1198 18.00137 1598.60282 1552.36011 0.00064
1199 18.00972 1601.13706 1536.64001 0.00065
1200 18.01808 1603.87440 1552.36011 0.00064
1201 18.02643 1606.85061 1656.49011 0.00060
1202 18.03479 1610.10194 1616.04004 0.00062
1203 18.04315 1613.66727 1608.00989 0.00062
1204 18.05150 1617.60599 1568.15991 0.00064
1205 18.05986 1622.01531 1632.16016 0.00061
1206 18.06821 1626.99214 1600.00000 0.00063
1207 18.07657 1632.59504 1592.01013 0.00063
1208 18.08492 1638.90831 1584.03992 0.00063
1209 18.09328 1646.06000 1656.49011 0.00060
1210 18.10163 1654.21816 1568.15991 0.00064
1211 18.10999 1663.59930 1592.01013 0.00063
1212 18.11835 1674.48615 1592.01013 0.00063
1213 18.12670 1687.25151 1576.09009 0.00063
1214 18.13506 1702.38607 1705.68994 0.00059
1215 18.14341 1720.52611 1713.96008 0.00058
1216 18.15177 1742.47901 1697.44006 0.00059
1217 18.16012 1769.27325 1689.20984 0.00059
1218 18.16848 1802.26517 1814.75989 0.00055
1219 18.17684 1843.27026 1722.25000 0.00058
1220 18.18519 1894.77260 1806.25000 0.00055
1221 18.19355 1960.26556 1953.64001 0.00051
1222 18.20190 2044.71685 1971.36011 0.00051
1223 18.21026 2154.98821 2070.25000 0.00048
1224 18.21861 2299.66294 2256.25000 0.00044
1225 18.22697 2487.51085 2410.80981 0.00041
1226 18.23533 2724.29972 2652.25000 0.00038
1227 18.24368 3008.48373 2948.48999 0.00034
1228 18.25204 3326.62873 3226.23999 0.00031
1229 18.26039 3649.79509 3588.01025 0.00028
1230 18.26875 3933.90187 4019.56030 0.00025
1231 18.27710 4129.48711 4435.55957 0.00023
1232 18.28546 4202.75958 4462.24023 0.00022
1233 18.29381 4155.43192 4290.25000 0.00023
1234 18.30217 4021.85515 3969.00000 0.00025
1235 18.31053 3842.17346 3600.00000 0.00028
1236 18.31888 3637.99026 3433.95972 0.00029
1237 18.32724 3411.66774 3398.88989 0.00029
1238 18.33559 3163.35482 3124.81006 0.00032
1239 18.34395 2904.78794 2840.88989 0.00035
1240 18.35230 2656.84891 2540.16016 0.00039
1241 18.36066 2437.99305 2304.00000 0.00043
1242 18.36902 2257.27110 2025.00000 0.00049
1243 18.37737 2115.00062 1953.64001 0.00051
1244 18.38573 2006.42253 1909.69006 0.00052
1245 18.39408 1924.85446 1772.40991 0.00056
1246 18.40244 1863.64168 1849.00000 0.00054
1247 18.41079 1817.16689 1797.76013 0.00056
1248 18.41915 1781.17676 1764.00000 0.00057
1249 18.42750 1752.62928 1664.63989 0.00060
1250 18.43586 1729.42570 1681.00000 0.00059
1251 18.44422 1710.27736 1656.49011 0.00060
1252 18.45257 1694.33982 1616.04004 0.00062
1253 18.46093 1680.99411 1672.81018 0.00060
1254 18.46928 1669.76546 1568.15991 0.00064
1255 18.47764 1660.28138 1608.00989 0.00062
1256 18.48599 1652.24516 1632.16016 0.00061
1257 18.49435 1645.41798 1632.16016 0.00061
1258 18.50271 1639.60530 1600.00000 0.00063
1259 18.51106 1634.65034 1608.00989 0.00062
1260 18.51942 1630.42747 1608.00989 0.00062
1261 18.52777 1626.83571 1640.25000 0.00061
1262 18.53613 1623.79338 1576.09009 0.00063
1263 18.54448 1621.23266 1584.03992 0.00063
1264 18.55284 1619.09352 1616.04004 0.00062
1265 18.56119 1617.32355 1608.00989 0.00062
1266 18.56955 1615.89720 1568.15991 0.00064
1267 18.57791 1614.83180 1600.00000 0.00063
1268 18.58626 1614.14172 1592.01013 0.00063
1269 18.59462 1613.79301 1672.81018 0.00060
1270 18.60297 1613.76150 1656.49011 0.00060
1271 18.61133 1614.04579 1632.16016 0.00061
1272 18.61968 1614.65961 1584.03992 0.00063
1273 18.62804 1615.63476 1584.03992 0.00063
1274 18.63640 1617.00344 1584.03992 0.00063
1275 18.64475 1618.72528 1576.09009 0.00063
1276 18.65311 1620.70809 1560.25000 0.00064
1277 18.66146 1622.99927 1560.25000 0.00064
1278 18.66982 1625.66446 1576.09009 0.00063
1279 18.67817 1628.73641 1624.08997 0.00062
1280 18.68653 1632.23548 1632.16016 0.00061
1281 18.69489 1636.17898 1616.04004 0.00062
1282 18.70324 1640.58158 1632.16016 0.00061
1283 18.71160 1645.45457 1584.03992 0.00063
1284 18.71995 1650.80313 1656.49011 0.00060
1285 18.72831 1656.62246 1521.00000 0.00066
1286 18.73666 1662.89937 1689.20984 0.00059
1287 18.74502 1669.61478 1584.03992 0.00063
1288 18.75337 1676.74924 1624.08997 0.00062
1289 18.76173 1684.29446 1624.08997 0.00062
1290 18.77009 1692.27032 1689.20984 0.00059
1291 18.77844 1700.74505 1648.35986 0.00061
1292 18.78680 1709.85384 1664.63989 0.00060
1293 18.79515 1719.81238 1705.68994 0.00059
1294 18.80351 1730.92609 1681.00000 0.00059
1295 18.81186 1743.60151 1681.00000 0.00059
1296 18.82022 1758.37082 1730.55981 0.00058
1297 18.82858 1775.93991 1705.68994 0.00059
1298 18.83693 1797.26578 1831.83997 0.00055
1299 18.84529 1823.65896 1840.41016 0.00054
1300 18.85364 1856.89035 1849.00000 0.00054
1301 18.86200 1899.25409 1909.69006 0.00052
1302 18.87035 1953.48482 1909.69006 0.00052
1303 18.87871 2022.40605 1980.25000 0.00050
1304 18.88706 2108.38061 2125.20996 0.00047
1305 18.89542 2212.60926 2125.20996 0.00047
1306 18.90378 2333.84867 2294.41016 0.00044
1307 18.91213 2467.15410 2430.48999 0.00041
1308 18.92049 2603.31228 2590.81006 0.00039
1309 18.92884 2730.29060 2787.83984 0.00036
1310 18.93720 2838.14609 2905.21021 0.00034
1311 18.94555 2926.23842 3036.00977 0.00033
1312 18.95391 3007.37964 3226.23999 0.00031
1313 18.96227 3104.20295 3352.41016 0.00030
1314 18.97062 3240.76801 3364.00000 0.00030
1315 18.97898 3437.13740 3600.00000 0.00028
1316 18.98733 3709.65836 3819.23999 0.00026
1317 18.99569 4072.60946 4277.16016 0.00023
1318 19.00404 4535.11177 4596.84033 0.00022
1319 19.01240 5091.26146 4998.48975 0.00020
1320 19.02075 5707.67484 5595.04053 0.00018
1321 19.02911 6316.06638 6021.75977 0.00017
1322 19.03747 6820.05059 6642.25000 0.00015
1323 19.04582 7124.89852 7072.80957 0.00014
1324 19.05418 7184.16063 7327.35986 0.00014
1325 19.06253 7028.59169 7089.63965 0.00014
1326 19.07089 6742.19794 6674.88965 0.00015
1327 19.07924 6402.38560 6384.01025 0.00016
1328 19.08760 6041.49464 5821.69043 0.00017
1329 19.09596 5657.84752 5505.63965 0.00018
1330 19.10431 5253.56827 5372.89063 0.00019
1331 19.11267 4858.29756 4900.00000 0.00020
1332 19.12102 4518.75269 4448.88965 0.00022
1333 19.12938 4271.67937 4225.00000 0.00024
1334 19.13773 4127.55815 4121.63965 0.00024
1335 19.14609 4070.07095 3956.41016 0.00025
1336 19.15444 4062.64422 3931.29004 0.00025
1337 19.16280 4058.68841 4019.56030 0.00025
1338 19.17116 4017.41165 3844.00000 0.00026
1339 19.17951 3920.40692 3831.61011 0.00026
1340 19.18787 3776.45392 3868.84009 0.00026
1341 19.19622 3608.28377 3540.25000 0.00028
1342 19.20458 3433.06277 3398.88989 0.00029
1343 19.21293 3253.93966 3124.81006 0.00032
1344 19.22129 3066.68821 3058.08984 0.00033
1345 19.22965 2871.53342 2905.21021 0.00034
1346 19.23800 2678.04404 2683.23999 0.00037
1347 19.24636 2499.86925 2490.01025 0.00040
1348 19.25471 2347.20769 2237.29004 0.00045
1349 19.26307 2223.92886 2227.84009 0.00045
1350 19.27142 2128.99691 2070.25000 0.00048
1351 19.27978 2058.89796 1962.48999 0.00051
1352 19.28814 2009.50480 1998.09009 0.00050
1353 19.29649 1977.22896 1927.21008 0.00052
1354 19.30485 1959.67303 1840.41016 0.00054
1355 19.31320 1955.95931 2034.00989 0.00049
1356 19.32156 1966.85505 1944.80981 0.00051
1357 19.32991 1994.75929 2061.16016 0.00049
1358 19.33827 2043.51925 2190.23999 0.00046
1359 19.34662 2117.94396 2227.84009 0.00045
1360 19.35498 2222.83014 2342.56006 0.00043
1361 19.36334 2361.34819 2550.25000 0.00039
1362 19.37169 2532.74602 2570.48999 0.00039
1363 19.38005 2729.51628 2745.76025 0.00036
1364 19.38840 2934.65387 2937.64014 0.00034
1365 19.39676 3120.95353 3113.63989 0.00032
1366 19.40511 3256.04211 3283.28979 0.00030
1367 19.41347 3315.12859 3214.89014 0.00031
1368 19.42183 3295.00554 3352.41016 0.00030
1369 19.43018 3215.67283 3069.16016 0.00033
1370 19.43854 3105.22424 2948.48999 0.00034
1371 19.44689 2981.77499 2905.21021 0.00034
1372 19.45525 2848.03940 2862.25000 0.00035
1373 19.46360 2699.90114 2683.23999 0.00037
1374 19.47196 2538.39475 2440.36011 0.00041
1375 19.48031 2373.66938 2410.80981 0.00041
1376 19.48867 2219.29776 2180.89014 0.00046
1377 19.49703 2085.12266 2034.00989 0.00049
1378 19.50538 1974.97539 1971.36011 0.00051
1379 19.51374 1887.99207 1866.24011 0.00054
1380 19.52209 1820.84462 1823.29004 0.00055
1381 19.53045 1769.43034 1764.00000 0.00057
1382 19.53880 1729.84855 1747.23999 0.00057
1383 19.54716 1698.87267 1689.20984 0.00059
1384 19.55552 1674.07910 1681.00000 0.00059
1385 19.56387 1653.76693 1640.25000 0.00061
1386 19.57223 1636.80398 1608.00989 0.00062
1387 19.58058 1622.46558 1697.44006 0.00059
1388 19.58894 1610.25214 1656.49011 0.00060
1389 19.59729 1599.75534 1600.00000 0.00063
1390 19.60565 1590.66910 1640.25000 0.00061
1391 19.61400 1582.76219 1568.15991 0.00064
1392 19.62236 1575.85382 1648.35986 0.00061
1393 19.63072 1569.80262 1608.00989 0.00062
1394 19.63907 1564.49846 1536.64001 0.00065
1395 19.64743 1559.85600 1560.25000 0.00064
1396 19.65578 1555.80779 1568.15991 0.00064
1397 19.66414 1552.29665 1568.15991 0.00064
1398 19.67249 1549.26702 1497.69006 0.00067
1399 19.68085 1546.65690 1568.15991 0.00064
1400 19.68921 1544.39399 1608.00989 0.00062
1401 19.69756 1542.40040 1489.95984 0.00067
1402 19.70592 1540.60551 1568.15991 0.00064
1403 19.71427 1538.95771 1632.16016 0.00061
1404 19.72263 1537.42585 1482.25000 0.00067
1405 19.73098 1535.99067 1513.21008 0.00066
1406 19.73934 1534.63451 1505.43994 0.00066
1407 19.74769 1533.33671 1592.01013 0.00063
1408 19.75605 1532.07641 1505.43994 0.00066
1409 19.76441 1530.83881 1552.36011 0.00064
1410 19.77276 1529.61828 1536.64001 0.00065
1411 19.78112 1528.41676 1513.21008 0.00066
1412 19.78947 1527.24029 1497.69006 0.00067
1413 19.79783 1526.09627 1552.36011 0.00064
1414 19.80618 1524.99056 1584.03992 0.00063
1415 19.81454 1523.92502 1513.21008 0.00066
1416 19.82290 1522.90034 1513.21008 0.00066
1417 19.83125 1521.91789 1536.64001 0.00065
1418 19.83961 1520.97692 1505.43994 0.00066
1419 19.84796 1520.07378 1576.09009 0.00063
1420 19.85632 1519.20167 1521.00000 0.00066
1421 19.86467 1518.35325 1544.48999 0.00065
1422 19.87303 1517.53156 1528.80994 0.00065
1423 19.88139 1516.75382 1568.15991 0.00064
1424 19.88974 1516.02479 1568.15991 0.00064
1425 19.89810 1515.33137 1513.21008 0.00066
1426 19.90645 1514.66554 1552.36011 0.00064
1427 19.91481 1514.02592 1528.80994 0.00065
1428 19.92316 1513.41308 1576.09009 0.00063
1429 19.93152 1512.82810 1497.69006 0.00067
1430 19.93987 1512.27215 1436.41016 0.00070
1431 19.94823 1511.74628 1544.48999 0.00065
1432 19.95659 1511.25127 1474.56006 0.00068
1433 19.96494 1510.78755 1536.64001 0.00065
1434 19.97330 1510.35532 1497.69006 0.00067
1435 19.98165 1509.95446 1444.00000 0.00069
1436 19.99001 1509.58463 1616.04004 0.00062
1437 19.99836 1509.24530 1482.25000 0.00067
1438 20.00672 1508.93632 1513.21008 0.00066
1439 20.01508 1508.65894 1474.56006 0.00068
1440 20.02343 1508.41533 1482.25000 0.00067
1441 20.03179 1508.20708 1568.15991 0.00064
1442 20.04014 1508.04004 1505.43994 0.00066
1443 20.04850 1507.92325 1444.00000 0.00069
1444 20.05685 1507.84520 1536.64001 0.00065
1445 20.06521 1507.77181 1444.00000 0.00069
1446 20.07356 1507.70969 1466.88989 0.00068
1447 20.08192 1507.66672 1459.24011 0.00069
1448 20.09028 1507.64152 1544.48999 0.00065
1449 20.09863 1507.63979 1528.80994 0.00065
1450 20.10699 1507.68155 1459.24011 0.00069
1451 20.11534 1507.77612 1444.00000 0.00069
1452 20.12370 1507.91190 1505.43994 0.00066
1453 20.13205 1508.07969 1497.69006 0.00067
1454 20.14041 1508.27298 1584.03992 0.00063
1455 20.14877 1508.48066 1521.00000 0.00066
1456 20.15712 1508.69546 1552.36011 0.00064
1457 20.16548 1508.94661 1576.09009 0.00063
1458 20.17383 1509.28741 1513.21008 0.00066
1459 20.18219 1509.70699 1608.00989 0.00062
1460 20.19054 1510.18392 1513.21008 0.00066
1461 20.19890 1510.71494 1560.25000 0.00064
1462 20.20725 1511.30650 1513.21008 0.00066
1463 20.21561 1511.96484 1489.95984 0.00067
1464 20.22397 1512.68099 1536.64001 0.00065
1465 20.23232 1513.43850 1497.69006 0.00067
1466 20.24068 1514.24912 1528.80994 0.00065
1467 20.24903 1515.12343 1584.03992 0.00063
1468 20.25739 1516.06596 1560.25000 0.00064
1469 20.26574 1517.07973 1474.56006 0.00068
1470 20.27410 1518.16598 1592.01013 0.00063
1471 20.28246 1519.32393 1568.15991 0.00064
1472 20.29081 1520.56176 1505.43994 0.00066
1473 20.29917 1521.90289 1576.09009 0.00063
1474 20.30752 1523.35356 1497.69006 0.00067
1475 20.31588 1524.91180 1592.01013 0.00063
1476 20.32423 1526.58066 1592.01013 0.00063
1477 20.33259 1528.36716 1482.25000 0.00067
1478 20.34095 1530.28005 1505.43994 0.00066
1479 20.34930 1532.32890 1521.00000 0.00066
1480 20.35766 1534.52525 1521.00000 0.00066
1481 20.36601 1536.88484 1451.60986 0.00069
1482 20.37437 1539.43388 1497.69006 0.00067
1483 20.38272 1542.22237 1576.09009 0.00063
1484 20.39108 1545.30240 1552.36011 0.00064
1485 20.39943 1548.60058 1513.21008 0.00066
1486 20.40779 1551.95638 1544.48999 0.00065
1487 20.41615 1555.47856 1489.95984 0.00067
1488 20.42450 1559.26425 1497.69006 0.00067
1489 20.43286 1563.33789 1544.48999 0.00065
1490 20.44121 1567.71728 1544.48999 0.00065
1491 20.44957 1572.42832 1592.01013 0.00063
1492 20.45792 1577.50148 1544.48999 0.00065
1493 20.46628 1582.97103 1560.25000 0.00064
1494 20.47464 1588.87544 1536.64001 0.00065
1495 20.48299 1595.25805 1521.00000 0.00066
1496 20.49135 1602.16777 1544.48999 0.00065
1497 20.49970 1609.65999 1536.64001 0.00065
1498 20.50806 1617.79790 1560.25000 0.00064
1499 20.51641 1626.65383 1584.03992 0.00063
1500 20.52477 1636.30840 1552.36011 0.00064
1501 20.53312 1646.84710 1528.80994 0.00065
1502 20.54148 1658.36986 1608.00989 0.00062
1503 20.54984 1671.00535 1616.04004 0.00062
1504 20.55819 1684.89328 1592.01013 0.00063
1505 20.56655 1700.19964 1497.69006 0.00067
1506 20.57490 1717.11983 1560.25000 0.00064
1507 20.58326 1735.87872 1608.00989 0.00062
1508 20.59161 1756.74838 1592.01013 0.00063
1509 20.59997 1780.06020 1544.48999 0.00065
1510 20.60833 1806.21561 1544.48999 0.00065
1511 20.61668 1835.70149 1648.35986 0.00061
1512 20.62504 1869.11287 1705.68994 0.00059
1513 20.63339 1907.18664 1632.16016 0.00061
1514 20.64175 1950.85593 1672.81018 0.00060
1515 20.65010 2001.33789 1806.25000 0.00055
1516 20.65846 2060.27761 1814.75989 0.00055
1517 20.66681 2129.99239 1892.25000 0.00053
1518 20.67517 2213.87575 1909.69006 0.00052
1519 20.68353 2316.96930 2034.00989 0.00049
1520 20.69188 2446.71265 2171.55981 0.00046
1521 20.70024 2614.01890 2430.48999 0.00041
1522 20.70859 2834.41996 2611.20996 0.00038
1523 20.71695 3128.80428 2862.25000 0.00035
1524 20.72530 3523.06533 3294.76025 0.00030
1525 20.73366 4045.75473 3745.44019 0.00027
1526 20.74202 4722.86133 4435.55957 0.00023
1527 20.75037 5569.13821 5270.75977 0.00019
1528 20.75873 6575.83536 6336.15967 0.00016
1529 20.76708 7695.53158 7691.28955 0.00013
1530 20.77544 8827.93711 8968.08984 0.00011
1531 20.78379 9819.13438 10100.25000 0.00010
1532 20.79215 10496.01448 10920.25000 0.00009
1533 20.80050 10743.35513 11236.00000 0.00009
1534 20.80886 10577.07515 11236.00000 0.00009
1535 20.81722 10135.01120 10567.84082 0.00009
1536 20.82557 9578.91387 9940.08984 0.00010
1537 20.83393 8997.96869 9428.41016 0.00011
1538 20.84228 8388.14206 8574.75977 0.00012
1539 20.85064 7703.05905 7867.68945 0.00013
1540 20.85899 6924.89554 7140.25000 0.00014
1541 20.86735 6095.91847 6288.49072 0.00016
1542 20.87571 5291.24202 5314.41016 0.00019
1543 20.88406 4573.58385 4395.69043 0.00023
1544 20.89242 3972.92678 3856.40991 0.00026
1545 20.90077 3491.58463 3445.69019 0.00029
1546 20.90913 3116.38537 3025.00000 0.00033
1547 20.91748 2828.02448 2683.23999 0.00037
1548 20.92584 2606.69938 2500.00000 0.00040
1549 20.93420 2435.14418 2275.29004 0.00044
1550 20.94255 2299.81672 2070.25000 0.00048
1551 20.95091 2190.82729 1962.48999 0.00051
1552 20.95926 2101.27193 1866.24011 0.00054
1553 20.96762 2026.52791 1883.56018 0.00053
1554 20.97597 1963.44437 1840.41016 0.00054
1555 20.98433 1909.76800 1764.00000 0.00057
1556 20.99268 1863.80946 1722.25000 0.00058
1557 21.00104 1824.22555 1747.23999 0.00057
1558 21.00940 1789.93650 1648.35986 0.00061
1559 21.01775 1760.04269 1608.00989 0.00062
1560 21.02611 1733.78958 1648.35986 0.00061
1561 21.03446 1710.61073 1608.00989 0.00062
1562 21.04282 1690.04755 1608.00989 0.00062
1563 21.05117 1671.70695 1624.08997 0.00062
1564 21.05953 1655.27482 1497.69006 0.00067
1565 21.06789 1640.48364 1584.03992 0.00063
1566 21.07624 1627.10457 1600.00000 0.00063
1567 21.08460 1614.94970 1576.09009 0.00063
1568 21.09295 1603.86364 1576.09009 0.00063
1569 21.10131 1593.71821 1552.36011 0.00064
1570 21.10966 1584.41027 1513.21008 0.00066
1571 21.11802 1575.85183 1482.25000 0.00067
1572 21.12637 1567.96164 1482.25000 0.00067
1573 21.13473 1560.67315 1505.43994 0.00066
1574 21.14309 1553.93027 1505.43994 0.00066
1575 21.15144 1547.67025 1466.88989 0.00068
1576 21.15980 1541.82909 1552.36011 0.00064
1577 21.16815 1536.37187 1459.24011 0.00069
1578 21.17651 1531.26192 1497.69006 0.00067
1579 21.18486 1526.47100 1528.80994 0.00065
1580 21.19322 1521.97007 1560.25000 0.00064
1581 21.20158 1517.72551 1497.69006 0.00067
1582 21.20993 1513.70540 1482.25000 0.00067
1583 21.21829 1509.90388 1513.21008 0.00066
1584 21.22664 1506.34931 1536.64001 0.00065
1585 21.23500 1503.04385 1544.48999 0.00065
1586 21.24335 1499.94871 1482.25000 0.00067
1587 21.25171 1497.03128 1444.00000 0.00069
1588 21.26006 1494.27365 1436.41016 0.00070
1589 21.26842 1491.66414 1444.00000 0.00069
1590 21.27678 1489.19111 1505.43994 0.00066
1591 21.28513 1486.85225 1544.48999 0.00065
1592 21.29349 1484.65524 1521.00000 0.00066
1593 21.30184 1482.59267 1489.95984 0.00067
1594 21.31020 1480.65027 1521.00000 0.00066
1595 21.31855 1478.82063 1474.56006 0.00068
1596 21.32691 1477.10402 1466.88989 0.00068
1597 21.33527 1475.51307 1536.64001 0.00065
1598 21.34362 1474.07555 1466.88989 0.00068
1599 21.35198 1472.78411 1528.80994 0.00065
1600 21.36033 1471.52389 1536.64001 0.00065
1601 21.36869 1470.18886 1482.25000 0.00067
1602 21.37704 1468.79252 1497.69006 0.00067
1603 21.38540 1467.31019 1528.80994 0.00065
1604 21.39375 1465.73731 1482.25000 0.00067
1605 21.40211 1464.07105 1489.95984 0.00067
1606 21.41047 1462.31105 1451.60986 0.00069
1607 21.41882 1460.46604 1451.60986 0.00069
1608 21.42718 1458.54207 1482.25000 0.00067
1609 21.43553 1456.54842 1536.64001 0.00065
1610 21.44389 1454.53106 1466.88989 0.00068
1611 21.45224 1452.54043 1466.88989 0.00068
1612 21.46060 1450.62784 1451.60986 0.00069
1613 21.46896 1448.82914 1482.25000 0.00067
1614 21.47731 1447.14016 1528.80994 0.00065
1615 21.48567 1445.56228 1482.25000 0.00067
1616 21.49402 1444.10021 1421.29004 0.00070
1617 21.50238 1442.75696 1489.95984 0.00067
1618 21.51073 1441.53200 1528.80994 0.00065
1619 21.51909 1440.41961 1451.60986 0.00069
1620 21.52745 1439.41043 1482.25000 0.00067
1621 21.53580 1438.49425 1474.56006 0.00068
1622 21.54416 1437.66264 1528.80994 0.00065
1623 21.55251 1436.91103 1482.25000 0.00067
1624 21.56087 1436.24006 1505.43994 0.00066
1625 21.56922 1435.65561 1489.95984 0.00067
1626 21.57758 1435.16687 1505.43994 0.00066
1627 21.58593 1434.78323 1521.00000 0.00066
1628 21.59429 1434.51423 1497.69006 0.00067
1629 21.60265 1434.37806 1451.60986 0.00069
1630 21.61100 1434.40138 1444.00000 0.00069
1631 21.61936 1434.59464 1497.69006 0.00067
1632 21.62771 1434.94333 1474.56006 0.00068
1633 21.63607 1435.41759 1513.21008 0.00066
1634 21.64442 1436.03636 1528.80994 0.00065
1635 21.65278 1436.81389 1474.56006 0.00068
1636 21.66114 1437.74768 1444.00000 0.00069
1637 21.66949 1438.82411 1505.43994 0.00066
1638 21.67785 1440.01751 1459.24011 0.00069
1639 21.68620 1441.28690 1592.01013 0.00063
1640 21.69456 1442.57353 1544.48999 0.00065
1641 21.70291 1443.80189 1576.09009 0.00063
1642 21.71127 1444.88847 1459.24011 0.00069
1643 21.71962 1445.76242 1505.43994 0.00066
1644 21.72798 1446.37438 1513.21008 0.00066
1645 21.73634 1446.62918 1489.95984 0.00067
1646 21.74469 1446.35623 1466.88989 0.00068
1647 21.75305 1445.52803 1544.48999 0.00065
1648 21.76140 1444.26541 1466.88989 0.00068
1649 21.76976 1442.68003 1560.25000 0.00064
1650 21.77811 1440.86476 1451.60986 0.00069
1651 21.78647 1438.91140 1466.88989 0.00068
1652 21.79483 1436.93163 1505.43994 0.00066
1653 21.80318 1435.04524 1466.88989 0.00068
1654 21.81154 1433.30062 1459.24011 0.00069
1655 21.81989 1431.70333 1482.25000 0.00067
1656 21.82825 1430.25679 1466.88989 0.00068
1657 21.83660 1428.99764 1451.60986 0.00069
1658 21.84496 1427.95151 1552.36011 0.00064
1659 21.85331 1427.13207 1436.41016 0.00070
1660 21.86167 1426.54546 1482.25000 0.00067
1661 21.87003 1426.19512 1466.88989 0.00068
1662 21.87838 1426.09913 1369.00000 0.00073
1663 21.88674 1426.28932 1497.69006 0.00067
1664 21.89509 1426.80781 1513.21008 0.00066
1665 21.90345 1427.66130 1451.60986 0.00069
1666 21.91180 1428.82430 1466.88989 0.00068
1667 21.92016 1430.38681 1406.25000 0.00071
1668 21.92852 1432.50727 1444.00000 0.00069
1669 21.93687 1435.38381 1421.29004 0.00070
1670 21.94523 1439.28162 1444.00000 0.00069
1671 21.95358 1444.57788 1451.60986 0.00069
1672 21.96194 1451.83966 1513.21008 0.00066
1673 21.97029 1461.77258 1489.95984 0.00067
1674 21.97865 1474.95713 1576.09009 0.00063
1675 21.98701 1491.82880 1600.00000 0.00063
1676 21.99536 1512.40453 1528.80994 0.00065
1677 22.00372 1535.91844 1592.01013 0.00063
1678 22.01207 1560.75033 1568.15991 0.00064
1679 22.02043 1584.25815 1664.63989 0.00060
1680 22.02878 1602.89330 1632.16016 0.00061
1681 22.03714 1613.28957 1697.44006 0.00059
1682 22.04549 1614.09723 1722.25000 0.00058
1683 22.05385 1607.11210 1640.25000 0.00061
1684 22.06221 1595.91656 1640.25000 0.00061
1685 22.07056 1583.62899 1584.03992 0.00063
1686 22.07892 1571.44565 1632.16016 0.00061
1687 22.08727 1558.74454 1656.49011 0.00060
1688 22.09563 1544.33084 1584.03992 0.00063
1689 22.10398 1527.81144 1632.16016 0.00061
1690 22.11234 1510.08605 1624.08997 0.00062
1691 22.12070 1492.71962 1528.80994 0.00065
1692 22.12905 1477.02420 1608.00989 0.00062
1693 22.13741 1463.72748 1513.21008 0.00066
1694 22.14576 1453.07693 1436.41016 0.00070
1695 22.15412 1444.82520 1497.69006 0.00067
1696 22.16247 1438.52766 1451.60986 0.00069
1697 22.17083 1433.76696 1513.21008 0.00066
1698 22.17918 1430.18848 1497.69006 0.00067
1699 22.18754 1427.50225 1482.25000 0.00067
1700 22.19590 1425.49286 1528.80994 0.00065
1701 22.20425 1424.00811 1544.48999 0.00065
1702 22.21261 1422.94159 1459.24011 0.00069
1703 22.22096 1422.21699 1505.43994 0.00066
1704 22.22932 1421.77520 1406.25000 0.00071
1705 22.23767 1421.56128 1451.60986 0.00069
1706 22.24603 1421.51841 1505.43994 0.00066
1707 22.25439 1421.59494 1436.41016 0.00070
1708 22.26274 1421.73885 1489.95984 0.00067
1709 22.27110 1421.88981 1497.69006 0.00067
1710 22.27945 1421.97379 1391.28992 0.00072
1711 22.28781 1421.94708 1505.43994 0.00066
1712 22.29616 1421.84441 1536.64001 0.00065
1713 22.30452 1421.65089 1466.88989 0.00068
1714 22.31287 1421.32405 1436.41016 0.00070
1715 22.32123 1420.79895 1584.03992 0.00063
1716 22.32959 1420.12307 1436.41016 0.00070
1717 22.33794 1419.38092 1505.43994 0.00066
1718 22.34630 1418.64344 1482.25000 0.00067
1719 22.35465 1417.98795 1428.83997 0.00070
1720 22.36301 1417.48949 1474.56006 0.00068
1721 22.37136 1417.10996 1528.80994 0.00065
1722 22.37972 1416.70145 1474.56006 0.00068
1723 22.38808 1416.30599 1451.60986 0.00069
1724 22.39643 1415.99702 1459.24011 0.00069
1725 22.40479 1415.79676 1428.83997 0.00070
1726 22.41314 1415.70915 1521.00000 0.00066
1727 22.42150 1415.74283 1497.69006 0.00067
1728 22.42985 1415.90713 1497.69006 0.00067
1729 22.43821 1416.19357 1474.56006 0.00068
1730 22.44656 1416.59650 1489.95984 0.00067
1731 22.45492 1417.11330 1436.41016 0.00070
1732 22.46328 1417.74312 1576.09009 0.00063
1733 22.47163 1418.48914 1474.56006 0.00068
1734 22.47999 1419.36122 1421.29004 0.00070
1735 22.48834 1420.35629 1497.69006 0.00067
1736 22.49670 1421.41043 1406.25000 0.00071
1737 22.50505 1422.49275 1536.64001 0.00065
1738 22.51341 1423.75217 1505.43994 0.00066
1739 22.52177 1425.19508 1466.88989 0.00068
1740 22.53012 1426.80317 1528.80994 0.00065
1741 22.53848 1428.59693 1436.41016 0.00070
1742 22.54683 1430.60732 1459.24011 0.00069
1743 22.55519 1432.85770 1568.15991 0.00064
1744 22.56354 1435.36146 1466.88989 0.00068
1745 22.57190 1438.14651 1536.64001 0.00065
1746 22.58026 1441.18263 1544.48999 0.00065
1747 22.58861 1444.51960 1560.25000 0.00064
1748 22.59697 1448.23052 1489.95984 0.00067
1749 22.60532 1452.37062 1568.15991 0.00064
1750 22.61368 1456.99617 1528.80994 0.00065
1751 22.62203 1462.18080 1505.43994 0.00066
1752 22.63039 1468.02715 1600.00000 0.00063
1753 22.63874 1474.68317 1497.69006 0.00067
1754 22.64710 1482.32653 1576.09009 0.00063
1755 22.65546 1491.04834 1600.00000 0.00063
1756 22.66381 1500.89500 1592.01013 0.00063
1757 22.67217 1512.24264 1584.03992 0.00063
1758 22.68052 1525.59955 1552.36011 0.00064
1759 22.68888 1541.58206 1656.49011 0.00060
1760 22.69723 1561.08798 1600.00000 0.00063
1761 22.70559 1585.51318 1764.00000 0.00057
1762 22.71395 1616.89411 1823.29004 0.00055
1763 22.72230 1657.90959 1814.75989 0.00055
1764 22.73066 1712.03256 1936.00000 0.00052
1765 22.73901 1783.51705 1927.21008 0.00052
1766 22.74737 1876.90400 1998.09009 0.00050
1767 22.75572 1995.91699 2152.96021 0.00046
1768 22.76408 2142.15692 2180.89014 0.00046
1769 22.77243 2313.17126 2391.21021 0.00042
1770 22.78079 2500.05881 2480.04004 0.00040
1771 22.78915 2685.22069 2510.00977 0.00040
1772 22.79750 2842.71958 2745.76025 0.00036
1773 22.80586 2944.77795 2621.44019 0.00038
1774 22.81421 2974.82864 2756.25000 0.00036
1775 22.82257 2938.63249 2787.83984 0.00036
1776 22.83092 2861.37609 2937.64014 0.00034
1777 22.83928 2771.27477 2851.56006 0.00035
1778 22.84764 2684.16204 2735.29004 0.00037
1779 22.85599 2599.48303 2560.35986 0.00039
1780 22.86435 2506.80846 2410.80981 0.00041
1781 22.87270 2397.12766 2430.48999 0.00041
1782 22.88106 2271.37803 2371.69019 0.00042
1783 22.88941 2139.96294 2342.56006 0.00043
1784 22.89777 2015.36133 2190.23999 0.00046
1785 22.90612 1905.98208 2097.63989 0.00048
1786 22.91448 1814.99887 1962.48999 0.00051
1787 22.92284 1741.98098 1874.88989 0.00053
1788 22.93119 1684.70401 1814.75989 0.00055
1789 22.93955 1640.33311 1755.61011 0.00057
1790 22.94790 1606.07093 1764.00000 0.00057
1791 22.95626 1579.45582 1705.68994 0.00059
1792 22.96461 1558.50231 1584.03992 0.00063
1793 22.97297 1541.83966 1576.09009 0.00063
1794 22.98133 1528.50182 1624.08997 0.00062
1795 22.98968 1517.65163 1568.15991 0.00064
1796 22.99804 1508.59803 1584.03992 0.00063
1797 23.00639 1501.01634 1600.00000 0.00063
1798 23.01475 1494.66569 1536.64001 0.00065
1799 23.02310 1489.33547 1552.36011 0.00064
1800 23.03146 1484.85827 1497.69006 0.00067
1801 23.03981 1481.09499 1536.64001 0.00065
1802 23.04817 1477.91586 1552.36011 0.00064
1803 23.05653 1475.18817 1421.29004 0.00070
1804 23.06488 1472.79688 1505.43994 0.00066
1805 23.07324 1470.72407 1568.15991 0.00064
1806 23.08159 1469.02272 1528.80994 0.00065
1807 23.08995 1467.61433 1413.75989 0.00071
1808 23.09830 1466.42057 1482.25000 0.00067
1809 23.10666 1465.39911 1505.43994 0.00066
1810 23.11502 1464.51275 1552.36011 0.00064
1811 23.12337 1463.72416 1505.43994 0.00066
1812 23.13173 1462.99686 1428.83997 0.00070
1813 23.14008 1462.29059 1489.95984 0.00067
1814 23.14844 1461.56536 1497.69006 0.00067
1815 23.15679 1460.78928 1521.00000 0.00066
1816 23.16515 1459.94810 1568.15991 0.00064
1817 23.17351 1459.05306 1474.56006 0.00068
1818 23.18186 1458.13822 1459.24011 0.00069
1819 23.19022 1457.25246 1576.09009 0.00063
1820 23.19857 1456.46146 1497.69006 0.00067
1821 23.20693 1455.83027 1505.43994 0.00066
1822 23.21528 1455.40190 1436.41016 0.00070
1823 23.22364 1455.19340 1482.25000 0.00067
1824 23.23199 1455.23151 1489.95984 0.00067
1825 23.24035 1455.53360 1560.25000 0.00064
1826 23.24871 1456.05423 1536.64001 0.00065
1827 23.25706 1456.82570 1576.09009 0.00063
1828 23.26542 1457.89148 1459.24011 0.00069
1829 23.27377 1459.26508 1536.64001 0.00065
1830 23.28213 1460.94688 1505.43994 0.00066
1831 23.29048 1462.93410 1608.00989 0.00062
1832 23.29884 1465.21514 1584.03992 0.00063
1833 23.30720 1467.76943 1600.00000 0.00063
1834 23.31555 1470.58691 1528.80994 0.00065
1835 23.32391 1473.65178 1592.01013 0.00063
1836 23.33226 1476.93646 1584.03992 0.00063
1837 23.34062 1480.40105 1576.09009 0.00063
1838 23.34897 1483.99207 1552.36011 0.00064
1839 23.35733 1487.64231 1584.03992 0.00063
1840 23.36568 1491.27376 1584.03992 0.00063
1841 23.37404 1494.80484 1608.00989 0.00062
1842 23.38240 1498.16200 1536.64001 0.00065
1843 23.39075 1501.29417 1552.36011 0.00064
1844 23.39911 1504.18647 1616.04004 0.00062
1845 23.40746 1506.86998 1544.48999 0.00065
1846 23.41582 1509.42776 1584.03992 0.00063
1847 23.42417 1512.00248 1544.48999 0.00065
1848 23.43253 1514.78161 1568.15991 0.00064
1849 23.44089 1517.87387 1552.36011 0.00064
1850 23.44924 1521.19430 1576.09009 0.00063
1851 23.45760 1524.73081 1552.36011 0.00064
1852 23.46595 1528.71059 1600.00000 0.00063
1853 23.47431 1533.30341 1552.36011 0.00064
1854 23.48266 1538.61041 1730.55981 0.00058
1855 23.49102 1544.70735 1568.15991 0.00064
1856 23.49937 1551.65862 1536.64001 0.00065
1857 23.50773 1559.53097 1697.44006 0.00059
1858 23.51609 1568.46511 1608.00989 0.00062
1859 23.52444 1578.62314 1640.25000 0.00061
1860 23.53280 1590.18206 1616.04004 0.00062
1861 23.54115 1603.35580 1689.20984 0.00059
1862 23.54951 1618.41590 1608.00989 0.00062
1863 23.55786 1635.71686 1648.35986 0.00061
1864 23.56622 1655.73498 1730.55981 0.00058
1865 23.57458 1679.13452 1705.68994 0.00059
1866 23.58293 1706.88694 1772.40991 0.00056
1867 23.59129 1740.42847 1883.56018 0.00053
1868 23.59964 1781.81180 1980.25000 0.00050
1869 23.60800 1833.94461 2070.25000 0.00048
1870 23.61635 1900.83771 2052.08984 0.00049
1871 23.62471 1987.68882 2218.40991 0.00045
1872 23.63307 2100.66920 2391.21021 0.00042
1873 23.64142 2246.26364 2490.01025 0.00040
1874 23.64978 2430.02102 2611.20996 0.00038
1875 23.65813 2654.52514 2840.88989 0.00035
1876 23.66649 2916.53157 2916.00000 0.00034
1877 23.67484 3203.33848 3136.00000 0.00032
1878 23.68320 3489.36283 3283.28979 0.00030
1879 23.69155 3736.23670 3364.00000 0.00030
1880 23.69991 3901.87690 3469.21021 0.00029
1881 23.70827 3959.76629 3696.63989 0.00027
1882 23.71662 3916.45848 3648.16016 0.00027
1883 23.72498 3809.03663 3856.40991 0.00026
1884 23.73333 3681.81828 3819.23999 0.00026
1885 23.74169 3562.28039 3721.00000 0.00027
1886 23.75004 3452.89768 3782.25000 0.00026
1887 23.75840 3338.31200 3600.00000 0.00028
1888 23.76676 3200.95119 3283.28979 0.00030
1889 23.77511 3036.01964 3102.48999 0.00032
1890 23.78347 2855.28304 2948.48999 0.00034
1891 23.79182 2678.00219 2724.84009 0.00037
1892 23.80018 2519.82778 2756.25000 0.00036
1893 23.80853 2388.58725 2560.35986 0.00039
1894 23.81689 2285.87408 2430.48999 0.00041
1895 23.82524 2209.77478 2332.88989 0.00043
1896 23.83360 2156.69645 2227.84009 0.00045
1897 23.84196 2122.88156 2097.63989 0.00048
1898 23.85031 2105.14956 2061.16016 0.00049
1899 23.85867 2101.22650 2007.03992 0.00050
1900 23.86702 2109.85132 1936.00000 0.00052
1901 23.87538 2130.69037 1980.25000 0.00050
1902 23.88373 2164.08877 1909.69006 0.00052
1903 23.89209 2210.73876 2016.01013 0.00050
1904 23.90045 2271.32531 2079.35986 0.00048
1905 23.90880 2345.94757 2143.68994 0.00047
1906 23.91716 2433.38823 2265.75977 0.00044
1907 23.92551 2530.48356 2440.36011 0.00041
1908 23.93387 2632.05995 2490.01025 0.00040
1909 23.94222 2731.80912 2621.44019 0.00038
1910 23.95058 2825.13517 2766.75977 0.00036
1911 23.95893 2912.91110 2851.56006 0.00035
1912 23.96729 3003.27153 2926.80981 0.00034
1913 23.97565 3109.74452 3025.00000 0.00033
1914 23.98400 3247.64205 3180.96021 0.00031
1915 23.99236 3432.09606 3113.63989 0.00032
1916 24.00071 3678.87362 3340.83984 0.00030
1917 24.00907 4007.07041 3672.35986 0.00027
1918 24.01742 4441.59198 4019.56030 0.00025
1919 24.02578 5012.83571 4761.00000 0.00021
1920 24.03414 5751.65924 5372.89063 0.00019
1921 24.04249 6679.61403 6241.00000 0.00016
1922 24.05085 7795.63924 7344.48926 0.00014
1923 24.05920 9060.10432 8817.20996 0.00011
1924 24.06756 10378.28886 10712.25000 0.00009
1925 24.07591 11593.56485 12588.83887 0.00008
1926 24.08427 12511.66520 14232.49121 0.00007
1927 24.09262 12971.22508 15326.44043 0.00007
1928 24.10098 12931.94814 15104.41016 0.00007
1929 24.10934 12506.00991 13782.76074 0.00007
1930 24.11769 11891.00282 11946.49023 0.00008
1931 24.12605 11257.20959 10920.25000 0.00009
1932 24.13440 10674.38225 10100.25000 0.00010
1933 24.14276 10109.58264 9940.08984 0.00010
1934 24.15111 9479.64387 9781.20996 0.00010
1935 24.15947 8723.81034 9409.00000 0.00011
1936 24.16783 7851.51858 8082.01025 0.00012
1937 24.17618 6933.46905 6839.28955 0.00015
1938 24.18454 6054.17059 5416.95996 0.00018
1939 24.19289 5272.91557 4556.25000 0.00022
1940 24.20125 4614.45914 3806.89014 0.00026
1941 24.20960 4078.64445 3422.25000 0.00029
1942 24.21796 3651.99068 3058.08984 0.00033
1943 24.22632 3315.77268 2819.60986 0.00035
1944 24.23467 3050.84028 2601.00000 0.00038
1945 24.24303 2840.30274 2450.25000 0.00041
1946 24.25138 2670.69118 2275.29004 0.00044
1947 24.25974 2531.99856 2171.55981 0.00046
1948 24.26809 2417.11157 2070.25000 0.00048
1949 24.27645 2320.93383 1998.09009 0.00050
1950 24.28480 2239.71198 2079.35986 0.00048
1951 24.29316 2170.57111 1971.36011 0.00051
1952 24.30152 2111.11514 1900.95984 0.00053
1953 24.30987 2059.44475 1944.80981 0.00051
1954 24.31823 2014.12337 1797.76013 0.00056
1955 24.32658 1974.10780 1918.43994 0.00052
1956 24.33494 1938.70357 1823.29004 0.00055
1957 24.34329 1907.50421 1831.83997 0.00055
1958 24.35165 1880.24173 1797.76013 0.00056
1959 24.36001 1856.57417 1738.89001 0.00058
1960 24.36836 1836.07368 1764.00000 0.00057
1961 24.37672 1818.28964 1722.25000 0.00058
1962 24.38507 1802.82959 1772.40991 0.00056
1963 24.39343 1789.44399 1632.16016 0.00061
1964 24.40178 1778.01694 1705.68994 0.00059
1965 24.41014 1768.40184 1624.08997 0.00062
1966 24.41849 1760.43108 1681.00000 0.00059
1967 24.42685 1754.16606 1722.25000 0.00058
1968 24.43521 1749.63028 1705.68994 0.00059
1969 24.44356 1746.79523 1730.55981 0.00058
1970 24.45192 1745.63435 1747.23999 0.00057
1971 24.46027 1746.13939 1648.35986 0.00061
1972 24.46863 1748.32564 1705.68994 0.00059
1973 24.47698 1752.23976 1722.25000 0.00058
1974 24.48534 1757.96914 1713.96008 0.00058
1975 24.49370 1765.63454 1789.28992 0.00056
1976 24.50205 1775.38022 1764.00000 0.00057
1977 24.51041 1787.39559 1713.96008 0.00058
1978 24.51876 1801.92368 1866.24011 0.00054
1979 24.52712 1819.26949 1866.24011 0.00054
1980 24.53547 1839.81573 1806.25000 0.00055
1981 24.54383 1864.04754 1909.69006 0.00052
1982 24.55218 1892.59132 1980.25000 0.00050
1983 24.56054 1926.27788 2025.00000 0.00049
1984 24.56890 1966.23912 2088.48999 0.00048
1985 24.57725 2014.04446 2171.55981 0.00046
1986 24.58561 2071.93868 2304.00000 0.00043
1987 24.59396 2143.22939 2450.25000 0.00041
1988 24.60232 2232.64198 2601.00000 0.00038
1989 24.61067 2346.83698 2621.44019 0.00038
1990 24.61903 2495.03272 2872.95972 0.00035
1991 24.62739 2689.00699 3136.00000 0.00032
1992 24.63574 2942.67968 3329.29004 0.00030
1993 24.64410 3270.77511 3696.63989 0.00027
1994 24.65245 3686.16194 3969.00000 0.00025
1995 24.66081 4195.54883 4529.29053 0.00022
1996 24.66916 4793.26961 5069.43945 0.00020
1997 24.67752 5453.26252 5505.63965 0.00018
1998 24.68587 6120.92914 6162.25000 0.00016
1999 24.69423 6711.75658 6691.24072 0.00015
2000 24.70259 7128.38252 6839.28955 0.00015
2001 24.71094 7300.71421 7208.01025 0.00014
2002 24.71930 7227.72197 7106.49072 0.00014
2003 24.72765 6981.83997 6822.75977 0.00015
2004 24.73601 6665.64460 6839.28955 0.00015
2005 24.74436 6356.89857 6084.00000 0.00016
2006 24.75272 6079.96955 5821.69043 0.00017
2007 24.76108 5810.74143 5505.63965 0.00018
2008 24.76943 5504.52420 5256.25000 0.00019
2009 24.77779 5131.75091 4844.15967 0.00021
2010 24.78614 4699.75263 4583.28955 0.00022
2011 24.79450 4245.65970 4199.04053 0.00024
2012 24.80285 3811.70955 3769.96021 0.00027
2013 24.81121 3426.77187 3375.60986 0.00030
2014 24.81957 3102.91776 3036.00977 0.00033
2015 24.82792 2840.30236 2756.25000 0.00036
2016 24.83628 2632.86620 2590.81006 0.00039
2017 24.84463 2472.23478 2440.36011 0.00041
2018 24.85299 2349.99422 2342.56006 0.00043
2019 24.86134 2258.93370 2304.00000 0.00043
2020 24.86970 2193.56086 2237.29004 0.00045
2021 24.87805 2150.06544 2097.63989 0.00048
2022 24.88641 2125.96712 2237.29004 0.00045
2023 24.89477 2119.43994 2125.20996 0.00047
2024 24.90312 2128.55144 2190.23999 0.00046
2025 24.91148 2150.55558 2125.20996 0.00047
2026 24.91983 2180.84474 2097.63989 0.00048
2027 24.92819 2212.30819 2106.81006 0.00047
2028 24.93654 2235.87704 2016.01013 0.00050
2029 24.94490 2243.03416 2070.25000 0.00048
2030 24.95326 2229.68169 2043.04004 0.00049
2031 24.96161 2198.61384 2088.48999 0.00048
2032 24.96997 2157.92729 2171.55981 0.00046
2033 24.97832 2116.13292 2088.48999 0.00048
2034 24.98668 2078.00674 2152.96021 0.00046
2035 24.99503 2043.42025 2061.16016 0.00049
2036 25.00339 2008.86565 2016.01013 0.00050
2037 25.01174 1970.42989 1909.69006 0.00052
2038 25.02010 1926.63036 2106.81006 0.00047
2039 25.02846 1879.35645 1892.25000 0.00053
2040 25.03681 1832.37682 1883.56018 0.00053
2041 25.04517 1789.10028 1927.21008 0.00052
2042 25.05352 1751.44670 1789.28992 0.00056
2043 25.06188 1719.94783 1831.83997 0.00055
2044 25.07023 1694.25745 1831.83997 0.00055
2045 25.07859 1673.63497 1755.61011 0.00057
2046 25.08695 1657.25196 1849.00000 0.00054
2047 25.09530 1644.30199 1780.84009 0.00056
2048 25.10366 1634.07752 1632.16016 0.00061
2049 25.11201 1626.03736 1747.23999 0.00057
2050 25.12037 1619.80542 1656.49011 0.00060
2051 25.12872 1615.13313 1681.00000 0.00059
2052 25.13708 1611.86440 1730.55981 0.00058
2053 25.14543 1609.93357 1632.16016 0.00061
2054 25.15379 1609.36123 1672.81018 0.00060
2055 25.16215 1610.26002 1672.81018 0.00060
2056 25.17050 1612.85411 1705.68994 0.00059
2057 25.17886 1617.50470 1640.25000 0.00061
2058 25.18721 1624.73018 1705.68994 0.00059
2059 25.19557 1635.22177 1672.81018 0.00060
2060 25.20392 1649.84385 1689.20984 0.00059
2061 25.21228 1669.56422 1713.96008 0.00058
2062 25.22064 1695.29616 1730.55981 0.00058
2063 25.22899 1727.60252 1648.35986 0.00061
2064 25.23735 1766.36066 1831.83997 0.00055
2065 25.24570 1810.27367 1831.83997 0.00055
2066 25.25406 1856.31176 1892.25000 0.00053
2067 25.26241 1899.43530 1883.56018 0.00053
2068 25.27077 1933.26979 1831.83997 0.00055
2069 25.27913 1952.25888 1874.88989 0.00053
2070 25.28748 1954.54733 1883.56018 0.00053
2071 25.29584 1943.33659 1944.80981 0.00051
2072 25.30419 1925.13037 1936.00000 0.00052
2073 25.31255 1906.14175 1918.43994 0.00052
2074 25.32090 1889.57094 1874.88989 0.00053
2075 25.32926 1875.04593 1874.88989 0.00053
2076 25.33761 1859.85333 1831.83997 0.00055
2077 25.34597 1841.12364 1874.88989 0.00053
2078 25.35433 1817.89053 1755.61011 0.00057
2079 25.36268 1791.76165 1789.28992 0.00056
2080 25.37104 1765.71494 1849.00000 0.00054
2081 25.37939 1742.21748 1747.23999 0.00057
2082 25.38775 1722.67318 1814.75989 0.00055
2083 25.39610 1707.51814 1764.00000 0.00057
2084 25.40446 1696.56490 1797.76013 0.00056
2085 25.41282 1689.32338 1738.89001 0.00058
2086 25.42117 1685.21348 1755.61011 0.00057
2087 25.42953 1683.70479 1797.76013 0.00056
2088 25.43788 1684.36038 1697.44006 0.00059
2089 25.44624 1686.85787 1656.49011 0.00060
2090 25.45459 1690.98285 1697.44006 0.00059
2091 25.46295 1696.58816 1681.00000 0.00059
2092 25.47130 1703.58175 1831.83997 0.00055
2093 25.47966 1711.97411 1738.89001 0.00058
2094 25.48802 1721.81564 1755.61011 0.00057
2095 25.49637 1733.20147 1747.23999 0.00057
2096 25.50473 1746.26673 1764.00000 0.00057
2097 25.51308 1761.18915 1772.40991 0.00056
2098 25.52144 1778.18306 1764.00000 0.00057
2099 25.52979 1797.51934 1823.29004 0.00055
2100 25.53815 1819.58819 1874.88989 0.00053
2101 25.54651 1844.89794 1883.56018 0.00053
2102 25.55486 1874.22868 1909.69006 0.00052
2103 25.56322 1908.73671 2052.08984 0.00049
2104 25.57157 1949.98926 1980.25000 0.00050
2105 25.57993 2000.20120 2171.55981 0.00046
2106 25.58828 2062.45917 2246.76025 0.00045
2107 25.59664 2140.83750 2313.60986 0.00043
2108 25.60499 2240.38604 2381.43994 0.00042
2109 25.61335 2366.85456 2601.00000 0.00038
2110 25.62171 2526.02037 2683.23999 0.00037
2111 25.63006 2722.48390 2970.25000 0.00034
2112 25.63842 2957.78510 3147.20972 0.00032
2113 25.64677 3227.70261 3364.00000 0.00030
2114 25.65513 3518.84633 3552.15991 0.00028
2115 25.66348 3805.71413 3672.35986 0.00027
2116 25.67184 4051.63849 3733.20972 0.00027
2117 25.68020 4218.28603 3956.41016 0.00025
2118 25.68855 4283.47122 3956.41016 0.00025
2119 25.69691 4255.78405 4238.00977 0.00024
2120 25.70526 4171.16491 4147.36035 0.00024
2121 25.71362 4072.32486 4019.56030 0.00025
2122 25.72197 3988.11179 4134.49023 0.00024
2123 25.73033 3925.26974 4108.80957 0.00024
2124 25.73868 3872.13844 3943.83984 0.00025
2125 25.74704 3809.72459 3943.83984 0.00025
2126 25.75540 3725.49233 3696.63989 0.00027
2127 25.76375 3622.33921 3708.81030 0.00027
2128 25.77211 3516.46816 3612.00977 0.00028
2129 25.78046 3427.57102 3782.25000 0.00026
2130 25.78882 3371.02147 3782.25000 0.00026
2131 25.79717 3356.47151 3906.25000 0.00026
2132 25.80553 3390.35449 3969.00000 0.00025
2133 25.81389 3478.96275 4147.36035 0.00024
2134 25.82224 3630.82063 4277.16016 0.00023
2135 25.83060 3858.59263 4692.25000 0.00021
2136 25.83895 4180.20310 5212.83936 0.00019
2137 25.84731 4618.80732 5882.88965 0.00017
2138 25.85566 5201.20783 6528.64063 0.00015
2139 25.86402 5954.10793 7327.35986 0.00014
2140 25.87238 6897.56160 8010.25000 0.00012
2141 25.88073 8034.89798 8930.25000 0.00011
2142 25.88909 9338.59833 9662.89063 0.00010
2143 25.89744 10733.18927 10281.95996 0.00010
2144 25.90580 12082.06176 11109.16016 0.00009
2145 25.91415 13195.96470 11534.76074 0.00009
2146 25.92251 13884.56667 12232.35938 0.00008
2147 25.93086 14045.35947 12232.35938 0.00008
2148 25.93922 13730.78034 12678.75977 0.00008
2149 25.94758 13124.74033 12814.23926 0.00008
2150 25.95593 12438.66718 12791.60938 0.00008
2151 25.96429 11811.07694 12723.84082 0.00008
2152 25.97264 11268.86551 11990.25000 0.00008
2153 25.98100 10747.24728 10962.08984 0.00009
2154 25.98935 10146.17153 10221.20996 0.00010
2155 25.99771 9399.03309 9273.69043 0.00011
2156 26.00607 8516.10403 8335.69043 0.00012
2157 26.01442 7572.11235 7726.41016 0.00013
2158 26.02278 6656.15709 7089.63965 0.00014
2159 26.03113 5831.53112 6416.00977 0.00016
2160 26.03949 5126.62648 6052.84033 0.00017
2161 26.04784 4544.37159 5083.69043 0.00020
2162 26.05620 4073.87122 4369.20996 0.00023
2163 26.06455 3698.39581 3994.23999 0.00025
2164 26.07291 3400.00417 3410.56006 0.00029
2165 26.08127 3162.10354 3003.03979 0.00033
2166 26.08962 2970.72663 2714.40991 0.00037
2167 26.09798 2814.90129 2590.81006 0.00039
2168 26.10633 2686.41328 2342.56006 0.00043
2169 26.11469 2579.28772 2256.25000 0.00044
2170 26.12304 2489.26877 2143.68994 0.00047
2171 26.13140 2413.28482 2061.16016 0.00049
2172 26.13976 2349.05113 2043.04004 0.00049
2173 26.14811 2294.81677 1980.25000 0.00050
2174 26.15647 2249.20326 1980.25000 0.00050
2175 26.16482 2211.10982 1953.64001 0.00051
2176 26.17318 2179.66613 1866.24011 0.00054
2177 26.18153 2154.17269 1883.56018 0.00053
2178 26.18989 2134.02739 1874.88989 0.00053
2179 26.19824 2118.75891 1849.00000 0.00054
2180 26.20660 2107.99991 1831.83997 0.00055
2181 26.21496 2101.55522 1874.88989 0.00053
2182 26.22331 2099.44002 1953.64001 0.00051
2183 26.23167 2101.68845 1909.69006 0.00052
2184 26.24002 2108.26886 1953.64001 0.00051
2185 26.24838 2119.26405 1909.69006 0.00052
2186 26.25673 2134.94301 1927.21008 0.00052
2187 26.26509 2155.69365 2007.03992 0.00050
2188 26.27345 2182.04473 2043.04004 0.00049
2189 26.28180 2214.70524 2061.16016 0.00049
2190 26.29016 2254.64327 2227.84009 0.00045
2191 26.29851 2303.24322 2209.00000 0.00045
2192 26.30687 2362.45713 2275.29004 0.00044
2193 26.31522 2435.06752 2352.25000 0.00043
2194 26.32358 2525.04970 2570.48999 0.00039
2195 26.33193 2638.00514 2520.04004 0.00040
2196 26.34029 2781.60388 2840.88989 0.00035
2197 26.34865 2965.90650 2981.15991 0.00034
2198 26.35700 3203.36515 3340.83984 0.00030
2199 26.36536 3508.24819 3624.04004 0.00028
2200 26.37371 3895.20992 3943.83984 0.00025
2201 26.38207 4376.70693 4475.61035 0.00022
2202 26.39042 4958.87895 4956.16016 0.00020
2203 26.39878 5635.49029 5490.80957 0.00018
2204 26.40714 6380.11690 6272.63965 0.00016
2205 26.41549 7138.92211 6988.95996 0.00014
2206 26.42385 7831.25000 7691.28955 0.00013
2207 26.43220 8369.06060 8208.35938 0.00012
2208 26.44056 8696.74552 8798.44043 0.00011
2209 26.44891 8827.32380 8686.23926 0.00012
2210 26.45727 8838.92036 9025.00000 0.00011
2211 26.46563 8827.22694 9139.35938 0.00011
2212 26.47398 8850.58532 9006.01074 0.00011
2213 26.48234 8902.08390 8836.00000 0.00011
2214 26.49069 8915.96754 9063.03906 0.00011
2215 26.49905 8803.04988 9025.00000 0.00011
2216 26.50740 8502.88139 8500.83984 0.00012
2217 26.51576 8023.42471 8226.48926 0.00012
2218 26.52411 7436.52138 7691.28955 0.00013
2219 26.53247 6833.83475 7089.63965 0.00014
2220 26.54083 6282.61509 6464.16016 0.00015
2221 26.54918 5808.64083 6099.60986 0.00016
2222 26.55754 5403.43085 5358.23975 0.00019
2223 26.56589 5042.53932 5069.43945 0.00020
2224 26.57425 4705.24542 4788.63965 0.00021
2225 26.58260 4386.91264 4408.95996 0.00023
2226 26.59096 4097.77850 4147.36035 0.00024
2227 26.59932 3851.92481 3757.68994 0.00027
2228 26.60767 3657.43202 3782.25000 0.00026
2229 26.61603 3512.76681 3398.88989 0.00029
2230 26.62438 3407.21923 3283.28979 0.00030
2231 26.63274 3323.46986 3226.23999 0.00031
2232 26.64109 3242.17767 3091.35986 0.00032
2233 26.64945 3148.79174 3025.00000 0.00033
2234 26.65780 3039.58712 2905.21021 0.00034
2235 26.66616 2921.79594 2916.00000 0.00034
2236 26.67452 2807.26717 2693.61011 0.00037
2237 26.68287 2705.01060 2662.55981 0.00038
2238 26.69123 2617.30612 2490.01025 0.00040
2239 26.69958 2539.87696 2440.36011 0.00041
2240 26.70794 2464.80534 2401.00000 0.00042
2241 26.71629 2384.99983 2294.41016 0.00044
2242 26.72465 2298.11670 2199.61011 0.00045
2243 26.73301 2207.24141 2171.55981 0.00046
2244 26.74136 2118.09836 2016.01013 0.00050
2245 26.74972 2035.69632 1900.95984 0.00053
2246 26.75807 1962.80180 1849.00000 0.00054
2247 26.76643 1900.14150 1874.88989 0.00053
2248 26.77478 1847.17681 1866.24011 0.00054
2249 26.78314 1802.75663 1764.00000 0.00057
2250 26.79149 1765.52871 1713.96008 0.00058
2251 26.79985 1734.16852 1689.20984 0.00059
2252 26.80821 1707.50250 1772.40991 0.00056
2253 26.81656 1684.56479 1624.08997 0.00062
2254 26.82492 1664.60145 1681.00000 0.00059
2255 26.83327 1647.02416 1616.04004 0.00062
2256 26.84163 1631.36610 1624.08997 0.00062
2257 26.84998 1617.30201 1600.00000 0.00063
2258 26.85834 1604.58765 1576.09009 0.00063
2259 26.86670 1593.02568 1568.15991 0.00064
2260 26.87505 1582.49629 1489.95984 0.00067
2261 26.88341 1572.96258 1560.25000 0.00064
2262 26.89176 1564.32162 1624.08997 0.00062
2263 26.90012 1556.46882 1536.64001 0.00065
2264 26.90847 1549.29413 1536.64001 0.00065
2265 26.91683 1542.67617 1592.01013 0.00063
2266 26.92519 1536.56646 1466.88989 0.00068
2267 26.93354 1530.91589 1608.00989 0.00062
2268 26.94190 1525.70370 1568.15991 0.00064
2269 26.95025 1520.92868 1536.64001 0.00065
2270 26.95861 1516.57963 1528.80994 0.00065
2271 26.96696 1512.61297 1536.64001 0.00065
2272 26.97532 1508.99720 1513.21008 0.00066
2273 26.98367 1505.71379 1568.15991 0.00064
2274 26.99203 1502.74112 1536.64001 0.00065
2275 27.00039 1500.04757 1560.25000 0.00064
2276 27.00874 1497.63608 1482.25000 0.00067
2277 27.01710 1495.54022 1560.25000 0.00064
2278 27.02545 1493.73854 1552.36011 0.00064
2279 27.03381 1492.21353 1536.64001 0.00065
2280 27.04216 1490.95924 1536.64001 0.00065
2281 27.05052 1489.97292 1576.09009 0.00063
2282 27.05888 1489.25668 1513.21008 0.00066
2283 27.06723 1488.82456 1544.48999 0.00065
2284 27.07559 1488.71194 1600.00000 0.00063
2285 27.08394 1488.98546 1592.01013 0.00063
2286 27.09230 1489.75139 1600.00000 0.00063
2287 27.10065 1491.16085 1544.48999 0.00065
2288 27.10901 1493.41198 1497.69006 0.00067
2289 27.11736 1496.75340 1568.15991 0.00064
2290 27.12572 1501.49401 1521.00000 0.00066
2291 27.13408 1508.00683 1528.80994 0.00065
2292 27.14243 1516.70247 1544.48999 0.00065
2293 27.15079 1527.97391 1552.36011 0.00064
2294 27.15914 1542.12043 1616.04004 0.00062
2295 27.16750 1559.28334 1584.03992 0.00063
2296 27.17585 1579.23516 1624.08997 0.00062
2297 27.18421 1601.13114 1584.03992 0.00063
2298 27.19257 1623.30882 1600.00000 0.00063
2299 27.20092 1643.33412 1632.16016 0.00061
2300 27.20928 1658.61673 1730.55981 0.00058
2301 27.21763 1667.62901 1747.23999 0.00057
2302 27.22599 1671.00727 1738.89001 0.00058
2303 27.23434 1671.52125 1806.25000 0.00055
2304 27.24270 1672.86484 1705.68994 0.00059
2305 27.25105 1678.26843 1730.55981 0.00058
2306 27.25941 1689.75970 1722.25000 0.00058
2307 27.26777 1708.16135 1713.96008 0.00058
2308 27.27612 1733.27566 1755.61011 0.00057
2309 27.28448 1764.84290 1806.25000 0.00055
2310 27.29283 1803.03520 1909.69006 0.00052
2311 27.30119 1848.17660 1840.41016 0.00054
2312 27.30954 1899.59312 1927.21008 0.00052
2313 27.31790 1954.12966 1980.25000 0.00050
2314 27.32626 2005.37744 2007.03992 0.00050
2315 27.33461 2044.60393 2143.68994 0.00047
2316 27.34297 2063.76777 2162.25000 0.00046
2317 27.35132 2059.56161 2265.75977 0.00044
2318 27.35968 2035.61665 2199.61011 0.00045
2319 27.36803 2000.71282 2070.25000 0.00048
2320 27.37639 1964.17856 1962.48999 0.00051
2321 27.38474 1931.82538 1953.64001 0.00051
2322 27.39310 1904.60246 1806.25000 0.00055
2323 27.40146 1879.43789 1831.83997 0.00055
2324 27.40981 1851.51339 1927.21008 0.00052
2325 27.41817 1817.15636 1866.24011 0.00054
2326 27.42652 1775.95752 1866.24011 0.00054
2327 27.43488 1730.72810 1831.83997 0.00055
2328 27.44323 1685.55960 1713.96008 0.00058
2329 27.45159 1643.81415 1664.63989 0.00060
2330 27.45995 1607.32566 1600.00000 0.00063
2331 27.46830 1576.61767 1536.64001 0.00065
2332 27.47666 1551.41983 1552.36011 0.00064
2333 27.48501 1531.08170 1528.80994 0.00065
2334 27.49337 1514.82106 1544.48999 0.00065
2335 27.50172 1501.86629 1521.00000 0.00066
2336 27.51008 1491.53148 1544.48999 0.00065
2337 27.51844 1483.24797 1528.80994 0.00065
2338 27.52679 1476.57542 1482.25000 0.00067
2339 27.53515 1471.18763 1474.56006 0.00068
2340 27.54350 1466.84881 1489.95984 0.00067
2341 27.55186 1463.39026 1459.24011 0.00069
2342 27.56021 1460.69093 1466.88989 0.00068
2343 27.56857 1458.66307 1451.60986 0.00069
2344 27.57692 1457.24256 1406.25000 0.00071
2345 27.58528 1456.38297 1474.56006 0.00068
2346 27.59364 1456.05196 1505.43994 0.00066
2347 27.60199 1456.22922 1466.88989 0.00068
2348 27.61035 1456.90422 1505.43994 0.00066
2349 27.61870 1458.07091 1544.48999 0.00065
2350 27.62706 1459.72931 1421.29004 0.00070
2351 27.63541 1461.92086 1474.56006 0.00068
2352 27.64377 1464.73817 1552.36011 0.00064
2353 27.65213 1468.25664 1451.60986 0.00069
2354 27.66048 1472.54498 1474.56006 0.00068
2355 27.66884 1477.73244 1584.03992 0.00063
2356 27.67719 1483.99176 1513.21008 0.00066
2357 27.68555 1491.57657 1600.00000 0.00063
2358 27.69390 1500.88082 1459.24011 0.00069
2359 27.70226 1512.43667 1576.09009 0.00063
2360 27.71061 1526.94704 1568.15991 0.00064
2361 27.71897 1545.30640 1681.00000 0.00059
2362 27.72733 1568.58335 1648.35986 0.00061
2363 27.73568 1597.94682 1713.96008 0.00058
2364 27.74404 1634.50505 1608.00989 0.00062
2365 27.75239 1679.05072 1705.68994 0.00059
2366 27.76075 1731.67420 1849.00000 0.00054
2367 27.76910 1791.17714 1806.25000 0.00055
2368 27.77746 1854.35693 1780.84009 0.00056
2369 27.78582 1915.46467 1831.83997 0.00055
2370 27.79417 1966.63891 1797.76013 0.00056
2371 27.80253 2000.06287 1874.88989 0.00053
2372 27.81088 2011.27522 1909.69006 0.00052
2373 27.81924 2001.88535 1892.25000 0.00053
2374 27.82759 1979.27787 1874.88989 0.00053
2375 27.83595 1952.63267 1998.09009 0.00050
2376 27.84430 1928.75623 1892.25000 0.00053
2377 27.85266 1910.13405 1866.24011 0.00054
2378 27.86102 1895.18475 1900.95984 0.00053
2379 27.86937 1879.82693 1866.24011 0.00054
2380 27.87773 1859.83329 1866.24011 0.00054
2381 27.88608 1833.41358 1764.00000 0.00057
2382 27.89444 1802.24693 1849.00000 0.00054
2383 27.90279 1770.10641 1764.00000 0.00057
2384 27.91115 1740.56724 1722.25000 0.00058
2385 27.91951 1716.07810 1713.96008 0.00058
2386 27.92786 1697.76544 1713.96008 0.00058
2387 27.93622 1685.85344 1713.96008 0.00058
2388 27.94457 1680.13738 1640.25000 0.00061
2389 27.95293 1680.28305 1713.96008 0.00058
2390 27.96128 1686.01603 1689.20984 0.00059
2391 27.96964 1697.25833 1705.68994 0.00059
2392 27.97799 1714.23943 1772.40991 0.00056
2393 27.98635 1737.59555 1755.61011 0.00057
2394 27.99471 1768.45974 1892.25000 0.00053
2395 28.00306 1808.54139 1866.24011 0.00054
2396 28.01142 1860.18140 1892.25000 0.00053
2397 28.01977 1926.32952 1953.64001 0.00051
2398 28.02813 2010.38987 2070.25000 0.00048
2399 28.03648 2115.95643 2227.84009 0.00045
2400 28.04484 2246.30579 2313.60986 0.00043
2401 28.05320 2403.57101 2560.35986 0.00039
2402 28.06155 2587.49689 2724.84009 0.00037
2403 28.06991 2793.78064 3003.03979 0.00033
2404 28.07826 3012.49132 3169.68994 0.00032
2405 28.08662 3227.98633 3306.25000 0.00030
2406 28.09497 3422.44672 3624.04004 0.00028
2407 28.10333 3583.57961 3782.25000 0.00026
2408 28.11169 3712.34762 3856.40991 0.00026
2409 28.12004 3823.60580 3868.84009 0.00026
2410 28.12840 3937.04099 4006.88989 0.00025
2411 28.13675 4063.95509 3906.25000 0.00026
2412 28.14511 4197.75024 3956.41016 0.00025
2413 28.15346 4312.13372 4121.63965 0.00024
2414 28.16182 4370.66690 4173.15967 0.00024
2415 28.17017 4344.32646 4369.20996 0.00023
2416 28.17853 4228.47051 4186.08984 0.00024
2417 28.18689 4046.32992 4057.69019 0.00025
2418 28.19524 3836.00827 3981.60986 0.00025
2419 28.20360 3631.60448 3918.75977 0.00026
2420 28.21195 3451.38611 3696.63989 0.00027
2421 28.22031 3296.04704 3457.43994 0.00029
2422 28.22866 3153.80716 3158.44019 0.00032
2423 28.23702 3009.29439 3058.08984 0.00033
2424 28.24538 2852.96198 2883.69019 0.00035
2425 28.25373 2685.93991 2704.00000 0.00037
2426 28.26209 2517.39822 2580.63989 0.00039
2427 28.27044 2357.94842 2410.80981 0.00041
2428 28.27880 2214.90891 2342.56006 0.00043
2429 28.28715 2091.35135 2190.23999 0.00046
2430 28.29551 1987.27861 2061.16016 0.00049
2431 28.30386 1901.02110 1980.25000 0.00050
2432 28.31222 1830.13031 1849.00000 0.00054
2433 28.32058 1772.02474 1738.89001 0.00058
2434 28.32893 1724.28411 1689.20984 0.00059
2435 28.33729 1684.78609 1697.44006 0.00059
2436 28.34564 1651.77151 1616.04004 0.00062
2437 28.35400 1623.84758 1576.09009 0.00063
2438 28.36235 1599.95167 1560.25000 0.00064
2439 28.37071 1579.29419 1576.09009 0.00063
2440 28.37907 1561.29590 1600.00000 0.00063
2441 28.38742 1545.53257 1489.95984 0.00067
2442 28.39578 1531.68342 1528.80994 0.00065
2443 28.40413 1519.48941 1436.41016 0.00070
2444 28.41249 1508.73603 1497.69006 0.00067
2445 28.42084 1499.22902 1497.69006 0.00067
2446 28.42920 1490.79566 1466.88989 0.00068
2447 28.43755 1483.35059 1398.76013 0.00071
2448 28.44591 1476.88470 1459.24011 0.00069
2449 28.45427 1471.26765 1444.00000 0.00069
2450 28.46262 1466.36831 1466.88989 0.00068
2451 28.47098 1462.09529 1451.60986 0.00069
2452 28.47933 1458.42630 1474.56006 0.00068
2453 28.48769 1455.39158 1376.40991 0.00073
2454 28.49604 1452.92193 1466.88989 0.00068
2455 28.50440 1450.98475 1497.69006 0.00067
2456 28.51276 1449.60053 1369.00000 0.00073
2457 28.52111 1448.73232 1421.29004 0.00070
2458 28.52947 1448.33685 1391.28992 0.00072
2459 28.53782 1448.37005 1521.00000 0.00066
2460 28.54618 1448.82231 1369.00000 0.00073
2461 28.55453 1449.84120 1444.00000 0.00069
2462 28.56289 1451.59889 1398.76013 0.00071
2463 28.57125 1453.96512 1398.76013 0.00071
2464 28.57960 1456.93352 1459.24011 0.00069
2465 28.58796 1460.56481 1391.28992 0.00072
2466 28.59631 1464.92306 1459.24011 0.00069
2467 28.60467 1470.08829 1398.76013 0.00071
2468 28.61302 1476.16229 1482.25000 0.00067
2469 28.62138 1483.27075 1474.56006 0.00068
2470 28.62973 1491.54097 1513.21008 0.00066
2471 28.63809 1501.15606 1513.21008 0.00066
2472 28.64645 1512.36178 1421.29004 0.00070
2473 28.65480 1525.48985 1474.56006 0.00068
2474 28.66316 1541.00054 1474.56006 0.00068
2475 28.67151 1559.50314 1536.64001 0.00065
2476 28.67987 1581.83729 1568.15991 0.00064
2477 28.68822 1609.21392 1544.48999 0.00065
2478 28.69658 1643.27136 1616.04004 0.00062
2479 28.70494 1686.16934 1560.25000 0.00064
2480 28.71329 1740.71002 1648.35986 0.00061
2481 28.72165 1810.27460 1730.55981 0.00058
2482 28.73000 1898.42801 1755.61011 0.00057
2483 28.73836 2008.65025 1944.80981 0.00051
2484 28.74671 2143.68314 1927.21008 0.00052
2485 28.75507 2304.37991 2152.96021 0.00046
2486 28.76342 2488.06861 2323.23999 0.00043
2487 28.77178 2686.42363 2570.48999 0.00039
2488 28.78014 2883.48817 2652.25000 0.00038
2489 28.78849 3055.68929 2926.80981 0.00034
2490 28.79685 3176.56527 2970.25000 0.00034
2491 28.80520 3227.08387 3203.55981 0.00031
2492 28.81356 3206.07692 3237.61011 0.00031
2493 28.82191 3131.99862 3283.28979 0.00030
2494 28.83027 3033.48449 3203.55981 0.00031
2495 28.83863 2936.10219 3158.44019 0.00032
2496 28.84698 2853.79686 2992.09009 0.00033
2497 28.85534 2787.05751 2830.23999 0.00035
2498 28.86369 2725.78484 2683.23999 0.00037
2499 28.87205 2655.37748 2683.23999 0.00037
2500 28.88040 2564.58097 2580.63989 0.00039
2501 28.88876 2451.43982 2540.16016 0.00039
2502 28.89711 2323.64225 2500.00000 0.00040
2503 28.90547 2193.04715 2265.75977 0.00044
2504 28.91383 2069.87327 2152.96021 0.00046
2505 28.92218 1960.17740 2106.81006 0.00047
2506 28.93054 1866.23065 1831.83997 0.00055
2507 28.93889 1787.87063 1689.20984 0.00059
2508 28.94725 1723.64217 1664.63989 0.00060
2509 28.95560 1671.52752 1592.01013 0.00063
2510 28.96396 1629.39344 1600.00000 0.00063
2511 28.97232 1595.24461 1584.03992 0.00063
2512 28.98067 1567.36165 1528.80994 0.00065
2513 28.98903 1544.36239 1482.25000 0.00067
2514 28.99738 1525.19897 1544.48999 0.00065
2515 29.00574 1509.09617 1459.24011 0.00069
2516 29.01409 1495.48305 1489.95984 0.00067
2517 29.02245 1483.96585 1413.75989 0.00071
2518 29.03080 1474.24656 1444.00000 0.00069
2519 29.03916 1466.08906 1428.83997 0.00070
2520 29.04752 1459.30510 1398.76013 0.00071
2521 29.05587 1453.74333 1398.76013 0.00071
2522 29.06423 1449.28178 1474.56006 0.00068
2523 29.07258 1445.82106 1459.24011 0.00069
2524 29.08094 1443.26793 1413.75989 0.00071
2525 29.08929 1441.52272 1466.88989 0.00068
2526 29.09765 1440.51550 1451.60986 0.00069
2527 29.10601 1440.26172 1346.89001 0.00074
2528 29.11436 1440.85288 1406.25000 0.00071
2529 29.12272 1442.26025 1398.76013 0.00071
2530 29.13107 1444.45918 1444.00000 0.00069
2531 29.13943 1447.46870 1406.25000 0.00071
2532 29.14778 1451.32847 1436.41016 0.00070
2533 29.15614 1456.08718 1383.84009 0.00072
2534 29.16450 1461.80942 1444.00000 0.00069
2535 29.17285 1468.61329 1391.28992 0.00072
2536 29.18121 1476.67619 1428.83997 0.00070
2537 29.18956 1486.16099 1398.76013 0.00071
2538 29.19792 1497.26772 1459.24011 0.00069
2539 29.20627 1510.28286 1459.24011 0.00069
2540 29.21463 1525.61104 1497.69006 0.00067
2541 29.22298 1543.81373 1497.69006 0.00067
2542 29.23134 1565.65513 1536.64001 0.00065
2543 29.23970 1592.19764 1584.03992 0.00063
2544 29.24805 1624.89656 1616.04004 0.00062
2545 29.25641 1665.69002 1747.23999 0.00057
2546 29.26476 1717.05968 1705.68994 0.00059
2547 29.27312 1782.02204 1831.83997 0.00055
2548 29.28147 1864.02152 1857.60986 0.00054
2549 29.28983 1966.64965 1998.09009 0.00050
2550 29.29819 2093.12516 2190.23999 0.00046
2551 29.30654 2245.47138 2391.21021 0.00042
2552 29.31490 2423.25023 2652.25000 0.00038
2553 29.32325 2621.74008 2840.88989 0.00035
2554 29.33161 2829.92320 3069.16016 0.00033
2555 29.33996 3029.40777 3124.81006 0.00032
2556 29.34832 3196.48733 3329.29004 0.00030
2557 29.35667 3309.16180 3398.88989 0.00029
2558 29.36503 3356.89100 3364.00000 0.00030
2559 29.37339 3346.08001 3237.61011 0.00031
2560 29.38174 3296.09931 3375.60986 0.00030
2561 29.39010 3228.59161 3226.23999 0.00031
2562 29.39845 3158.39261 3180.96021 0.00031
2563 29.40681 3090.73406 3036.00977 0.00033
2564 29.41516 3022.98506 3058.08984 0.00033
2565 29.42352 2947.83752 2883.69019 0.00035
2566 29.43188 2857.35519 2830.23999 0.00035
2567 29.44023 2747.67843 2787.83984 0.00036
2568 29.44859 2621.83107 2500.00000 0.00040
2569 29.45694 2487.98573 2401.00000 0.00042
2570 29.46530 2354.78567 2361.95996 0.00042
2571 29.47365 2228.03978 2097.63989 0.00048
2572 29.48201 2110.66893 2052.08984 0.00049
2573 29.49036 2004.23972 1998.09009 0.00050
2574 29.49872 1909.90001 1831.83997 0.00055
2575 29.50708 1828.27558 1806.25000 0.00055
2576 29.51543 1759.15285 1747.23999 0.00057
2577 29.52379 1701.53456 1722.25000 0.00058
2578 29.53214 1653.95233 1608.00989 0.00062
2579 29.54050 1614.80289 1608.00989 0.00062
2580 29.54885 1582.58866 1689.20984 0.00059
2581 29.55721 1556.01419 1560.25000 0.00064
2582 29.56557 1534.03610 1489.95984 0.00067
2583 29.57392 1515.84746 1482.25000 0.00067
2584 29.58228 1500.78561 1474.56006 0.00068
2585 29.59063 1488.37113 1513.21008 0.00066
2586 29.59899 1478.24892 1474.56006 0.00068
2587 29.60734 1470.14527 1474.56006 0.00068
2588 29.61570 1463.87994 1521.00000 0.00066
2589 29.62405 1459.35512 1536.64001 0.00065
2590 29.63241 1456.55236 1436.41016 0.00070
2591 29.64077 1455.53920 1489.95984 0.00067
2592 29.64912 1456.48266 1466.88989 0.00068
2593 29.65748 1459.67021 1459.24011 0.00069
2594 29.66583 1465.53467 1505.43994 0.00066
2595 29.67419 1474.67503 1608.00989 0.00062
2596 29.68254 1487.83311 1528.80994 0.00065
2597 29.69090 1505.81285 1584.03992 0.00063
2598 29.69926 1529.46054 1656.49011 0.00060
2599 29.70761 1559.58533 1697.44006 0.00059
2600 29.71597 1596.66452 1713.96008 0.00058
2601 29.72432 1640.50054 1849.00000 0.00054
2602 29.73268 1689.74661 1797.76013 0.00056
2603 29.74103 1741.34243 1936.00000 0.00052
2604 29.74939 1790.16237 1944.80981 0.00051
2605 29.75775 1829.48350 2007.03992 0.00050
2606 29.76610 1852.84304 2070.25000 0.00048
2607 29.77446 1856.90457 1989.15991 0.00050
2608 29.78281 1843.46943 1971.36011 0.00051
2609 29.79117 1818.74504 1883.56018 0.00053
2610 29.79952 1790.31510 2025.00000 0.00049
2611 29.80788 1764.04292 1927.21008 0.00052
2612 29.81623 1742.51743 1971.36011 0.00051
2613 29.82459 1725.05910 1823.29004 0.00055
2614 29.83295 1708.73707 1900.95984 0.00053
2615 29.84130 1689.82718 1849.00000 0.00054
2616 29.84966 1665.41024 1772.40991 0.00056
2617 29.85801 1635.11217 1738.89001 0.00058
2618 29.86637 1600.99601 1730.55981 0.00058
2619 29.87472 1566.16180 1648.35986 0.00061
2620 29.88308 1533.29278 1648.35986 0.00061
2621 29.89144 1504.00513 1544.48999 0.00065
2622 29.89979 1478.91851 1560.25000 0.00064
2623 29.90815 1458.01653 1608.00989 0.00062
2624 29.91650 1440.95072 1505.43994 0.00066
2625 29.92486 1427.23159 1513.21008 0.00066
2626 29.93321 1416.33948 1466.88989 0.00068
2627 29.94157 1407.79249 1428.83997 0.00070
2628 29.94992 1401.18966 1406.25000 0.00071
2629 29.95828 1396.20177 1428.83997 0.00070
2630 29.96664 1392.56673 1428.83997 0.00070
2631 29.97499 1390.14043 1376.40991 0.00073
2632 29.98335 1388.86598 1474.56006 0.00068
2633 29.99170 1388.75544 1444.00000 0.00069
2634 30.00006 1389.89326 1444.00000 0.00069
2635 30.00841 1392.44023 1413.75989 0.00071
2636 30.01677 1396.63484 1466.88989 0.00068
2637 30.02513 1402.78947 1398.76013 0.00071
2638 30.03348 1411.27620 1421.29004 0.00070
2639 30.04184 1422.49630 1482.25000 0.00067
2640 30.05019 1436.82572 1521.00000 0.00066
2641 30.05855 1454.52677 1421.29004 0.00070
2642 30.06690 1475.61395 1482.25000 0.00067
2643 30.07526 1499.66893 1505.43994 0.00066
2644 30.08361 1525.62304 1474.56006 0.00068
2645 30.09197 1551.59061 1656.49011 0.00060
2646 30.10033 1574.97878 1713.96008 0.00058
2647 30.10868 1593.13249 1664.63989 0.00060
2648 30.11704 1604.45008 1681.00000 0.00059
2649 30.12539 1609.37819 1624.08997 0.00062
2650 30.13375 1610.44153 1672.81018 0.00060
2651 30.14210 1611.12397 1632.16016 0.00061
2652 30.15046 1614.36713 1656.49011 0.00060
2653 30.15882 1621.52479 1713.96008 0.00058
2654 30.16717 1631.97455 1576.09009 0.00063
2655 30.17553 1643.22465 1672.81018 0.00060
2656 30.18388 1651.50061 1640.25000 0.00061
2657 30.19224 1652.95499 1681.00000 0.00059
2658 30.20059 1645.29135 1640.25000 0.00061
2659 30.20895 1628.85814 1592.01013 0.00063
2660 30.21731 1606.45208 1584.03992 0.00063
2661 30.22566 1581.90596 1624.08997 0.00062
2662 30.23402 1558.52352 1552.36011 0.00064
2663 30.24237 1538.21485 1497.69006 0.00067
2664 30.25073 1521.40146 1536.64001 0.00065
2665 30.25908 1507.33807 1482.25000 0.00067
2666 30.26744 1494.56948 1413.75989 0.00071
2667 30.27579 1481.58785 1421.29004 0.00070
2668 30.28415 1467.53352 1428.83997 0.00070
2669 30.29251 1452.49691 1421.29004 0.00070
2670 30.30086 1437.25163 1421.29004 0.00070
2671 30.30922 1422.71820 1451.60986 0.00069
2672 30.31757 1409.57396 1497.69006 0.00067
2673 30.32593 1398.15355 1406.25000 0.00071
2674 30.33428 1388.52338 1398.76013 0.00071
2675 30.34264 1380.57510 1428.83997 0.00070
2676 30.35100 1374.10407 1391.28992 0.00072
2677 30.35935 1368.90576 1436.41016 0.00070
2678 30.36771 1364.76775 1369.00000 0.00073
2679 30.37606 1361.47517 1332.25000 0.00075
2680 30.38442 1358.83467 1346.89001 0.00074
2681 30.39277 1356.75342 1391.28992 0.00072
2682 30.40113 1355.23578 1317.68994 0.00076
2683 30.40948 1354.18202 1391.28992 0.00072
2684 30.41784 1353.50736 1324.96008 0.00075
2685 30.42620 1353.11498 1391.28992 0.00072
2686 30.43455 1352.96210 1332.25000 0.00075
2687 30.44291 1353.04046 1332.25000 0.00075
2688 30.45126 1353.32796 1332.25000 0.00075
2689 30.45962 1353.81538 1413.75989 0.00071
2690 30.46797 1354.52854 1354.23999 0.00074
2691 30.47633 1355.47167 1324.96008 0.00075
2692 30.48469 1356.62519 1406.25000 0.00071
2693 30.49304 1357.99095 1346.89001 0.00074
2694 30.50140 1359.58669 1339.55994 0.00075
2695 30.50975 1361.43126 1354.23999 0.00074
2696 30.51811 1363.54635 1421.29004 0.00070
2697 30.52646 1365.95680 1413.75989 0.00071
2698 30.53482 1368.68638 1444.00000 0.00069
2699 30.54317 1371.76052 1406.25000 0.00071
2700 30.55153 1375.22289 1451.60986 0.00069
2701 30.55989 1379.14811 1376.40991 0.00073
2702 30.56824 1383.61652 1413.75989 0.00071
2703 30.57660 1388.70592 1489.95984 0.00067
2704 30.58495 1394.52590 1444.00000 0.00069
2705 30.59331 1401.20527 1474.56006 0.00068
2706 30.60166 1408.91019 1421.29004 0.00070
2707 30.61002 1417.86159 1505.43994 0.00066
2708 30.61838 1428.36435 1528.80994 0.00065
2709 30.62673 1440.84715 1576.09009 0.00063
2710 30.63509 1455.89055 1451.60986 0.00069
2711 30.64344 1474.26657 1536.64001 0.00065
2712 30.65180 1496.99558 1616.04004 0.00062
2713 30.66015 1525.36405 1648.35986 0.00061
2714 30.66851 1560.91734 1755.61011 0.00057
2715 30.67686 1605.39477 1648.35986 0.00061
2716 30.68522 1660.59001 1840.41016 0.00054
2717 30.69358 1728.10892 1918.43994 0.00052
2718 30.70193 1808.96662 1814.75989 0.00055
2719 30.71029 1902.96951 2025.00000 0.00049
2720 30.71864 2007.81627 2034.00989 0.00049
2721 30.72700 2117.99373 2097.63989 0.00048
2722 30.73535 2223.94619 2227.84009 0.00045
2723 30.74371 2312.62095 2227.84009 0.00045
2724 30.75207 2370.63797 2209.00000 0.00045
2725 30.76042 2389.79289 2304.00000 0.00043
2726 30.76878 2371.68594 2401.00000 0.00042
2727 30.77713 2327.45476 2294.41016 0.00044
2728 30.78549 2272.39428 2304.00000 0.00043
2729 30.79384 2219.58015 2218.40991 0.00045
2730 30.80220 2176.16350 2134.44019 0.00047
2731 30.81056 2142.72325 2143.68994 0.00047
2732 30.81891 2114.48347 2152.96021 0.00046
2733 30.82727 2083.71013 2116.00000 0.00047
2734 30.83562 2043.19491 2052.08984 0.00049
2735 30.84398 1989.76582 2134.44019 0.00047
2736 30.85233 1925.63352 1944.80981 0.00051
2737 30.86069 1856.56740 1840.41016 0.00054
2738 30.86904 1788.69182 1866.24011 0.00054
2739 30.87740 1726.35187 1705.68994 0.00059
2740 30.88576 1671.72143 1780.84009 0.00056
2741 30.89411 1625.38252 1722.25000 0.00058
2742 30.90247 1586.98193 1656.49011 0.00060
2743 30.91082 1555.67694 1608.00989 0.00062
2744 30.91918 1530.45221 1560.25000 0.00064
2745 30.92753 1510.28507 1528.80994 0.00065
2746 30.93589 1494.23654 1576.09009 0.00063
2747 30.94425 1481.51899 1451.60986 0.00069
2748 30.95260 1471.51892 1592.01013 0.00063
2749 30.96096 1463.75386 1560.25000 0.00064
2750 30.96931 1457.88209 1466.88989 0.00068
2751 30.97767 1453.62339 1459.24011 0.00069
2752 30.98602 1450.78312 1444.00000 0.00069
2753 30.99438 1449.23687 1444.00000 0.00069
2754 31.00273 1448.90832 1444.00000 0.00069
2755 31.01109 1449.75863 1505.43994 0.00066
2756 31.01945 1451.77456 1444.00000 0.00069
2757 31.02780 1454.96725 1489.95984 0.00067
2758 31.03616 1459.39255 1521.00000 0.00066
2759 31.04451 1465.18049 1497.69006 0.00067
2760 31.05287 1472.52115 1505.43994 0.00066
2761 31.06122 1481.68786 1474.56006 0.00068
2762 31.06958 1493.07043 1544.48999 0.00065
2763 31.07794 1507.20700 1560.25000 0.00064
2764 31.08629 1524.80241 1592.01013 0.00063
2765 31.09465 1546.74090 1632.16016 0.00061
2766 31.10300 1574.11876 1632.16016 0.00061
2767 31.11136 1608.19981 1689.20984 0.00059
2768 31.11971 1650.31867 1713.96008 0.00058
2769 31.12807 1701.72633 1738.89001 0.00058
2770 31.13642 1763.34353 1831.83997 0.00055
2771 31.14478 1835.37605 1900.95984 0.00053
2772 31.15314 1916.71630 1892.25000 0.00053
2773 31.16149 2004.18960 1953.64001 0.00051
2774 31.16985 2091.90267 2106.81006 0.00047
2775 31.17820 2171.37793 2088.48999 0.00048
2776 31.18656 2233.34562 2256.25000 0.00044
2777 31.19491 2271.20982 2265.75977 0.00044
2778 31.20327 2284.38496 2352.25000 0.00043
2779 31.21163 2278.82742 2470.09009 0.00040
2780 31.21998 2264.11421 2401.00000 0.00042
2781 31.22834 2249.29843 2352.25000 0.00043
2782 31.23669 2239.99158 2342.56006 0.00043
2783 31.24505 2237.21905 2313.60986 0.00043
2784 31.25340 2237.57743 2332.88989 0.00043
2785 31.26176 2234.76670 2313.60986 0.00043
2786 31.27011 2222.43181 2256.25000 0.00044
2787 31.27847 2197.41419 2218.40991 0.00045
2788 31.28683 2161.42373 2199.61011 0.00045
2789 31.29518 2119.90437 2143.68994 0.00047
2790 31.30354 2079.27747 2061.16016 0.00049
2791 31.31189 2044.71611 2034.00989 0.00049
2792 31.32025 2019.34923 1971.36011 0.00051
2793 31.32860 2004.49732 1936.00000 0.00052
2794 31.33696 2000.39524 1918.43994 0.00052
2795 31.34532 2007.03899 1857.60986 0.00054
2796 31.35367 2025.09856 1840.41016 0.00054
2797 31.36203 2056.55133 1892.25000 0.00053
2798 31.37038 2104.76610 1849.00000 0.00054
2799 31.37874 2174.16129 1918.43994 0.00052
2800 31.38709 2269.78289 1998.09009 0.00050
2801 31.39545 2396.93807 2025.00000 0.00049
2802 31.40381 2560.73237 2199.61011 0.00045
2803 31.41216 2765.34600 2342.56006 0.00043
2804 31.42052 3012.78582 2621.44019 0.00038
2805 31.42887 3300.91142 3136.00000 0.00032
2806 31.43723 3620.63727 3636.08984 0.00028
2807 31.44558 3952.74644 4134.49023 0.00024
2808 31.45394 4265.99921 4664.89063 0.00021
2809 31.46229 4520.03420 5184.00000 0.00019
2810 31.47065 4676.08772 5595.04053 0.00018
2811 31.47901 4713.21486 5490.80957 0.00018
2812 31.48736 4640.03516 5550.25000 0.00018
2813 31.49572 4491.80429 4984.35986 0.00020
2814 31.50407 4314.09504 4596.84033 0.00022
2815 31.51243 4145.03224 4225.00000 0.00024
2816 31.52078 4005.32938 3745.44019 0.00027
2817 31.52914 3896.66942 3856.40991 0.00026
2818 31.53750 3805.07653 3806.89014 0.00026
2819 31.54585 3707.59004 3721.00000 0.00027
2820 31.55421 3582.07543 3868.84009 0.00026
2821 31.56256 3417.43695 3696.63989 0.00027
2822 31.57092 3218.23888 3504.64014 0.00029
2823 31.57927 3000.54304 3147.20972 0.00032
2824 31.58763 2782.92565 2704.00000 0.00037
2825 31.59598 2579.55557 2304.00000 0.00043
2826 31.60434 2398.21104 2143.68994 0.00047
2827 31.61270 2241.51320 1892.25000 0.00053
2828 31.62105 2108.89045 1840.41016 0.00054
2829 31.62941 1998.10836 1738.89001 0.00058
2830 31.63776 1906.22877 1738.89001 0.00058
2831 31.64612 1830.17172 1576.09009 0.00063
2832 31.65447 1767.05904 1584.03992 0.00063
2833 31.66283 1714.38998 1474.56006 0.00068
2834 31.67119 1670.03751 1451.60986 0.00069
2835 31.67954 1632.27257 1466.88989 0.00068
2836 31.68790 1599.76510 1444.00000 0.00069
2837 31.69625 1571.51845 1497.69006 0.00067
2838 31.70461 1546.78089 1406.25000 0.00071
2839 31.71296 1524.97216 1451.60986 0.00069
2840 31.72132 1505.61049 1391.28992 0.00072
2841 31.72967 1488.31542 1339.55994 0.00075
2842 31.73803 1472.82311 1354.23999 0.00074
2843 31.74639 1458.91229 1376.40991 0.00073
2844 31.75474 1446.39023 1339.55994 0.00075
2845 31.76310 1435.09079 1361.61011 0.00073
2846 31.77145 1424.86810 1383.84009 0.00072
2847 31.77981 1415.59621 1332.25000 0.00075
2848 31.78816 1407.17050 1281.63989 0.00078
2849 31.79652 1399.48219 1324.96008 0.00075
2850 31.80488 1392.42238 1310.44006 0.00076
2851 31.81323 1385.92887 1332.25000 0.00075
2852 31.82159 1379.94192 1281.63989 0.00078
2853 31.82994 1374.41000 1354.23999 0.00074
2854 31.83830 1369.30985 1346.89001 0.00074
2855 31.84665 1364.62020 1324.96008 0.00075
2856 31.85501 1360.29241 1339.55994 0.00075
2857 31.86337 1356.28619 1303.20984 0.00077
2858 31.87172 1352.57224 1369.00000 0.00073
2859 31.88008 1349.13168 1310.44006 0.00076
2860 31.88843 1345.94961 1274.49011 0.00078
2861 31.89679 1342.99506 1303.20984 0.00077
2862 31.90514 1340.24563 1246.08997 0.00080
2863 31.91350 1337.68886 1303.20984 0.00077
2864 31.92185 1335.31346 1253.16016 0.00080
2865 31.93021 1333.11107 1296.00000 0.00077
2866 31.93857 1331.06483 1332.25000 0.00075
2867 31.94692 1329.14666 1296.00000 0.00077
2868 31.95528 1327.34840 1296.00000 0.00077
2869 31.96363 1325.65803 1260.25000 0.00079
2870 31.97199 1324.06144 1317.68994 0.00076
2871 31.98034 1322.55038 1354.23999 0.00074
2872 31.98870 1321.11499 1310.44006 0.00076
2873 31.99706 1319.73553 1303.20984 0.00077
2874 32.00541 1318.39434 1303.20984 0.00077
2875 32.01377 1317.07690 1324.96008 0.00075
2876 32.02212 1315.77105 1324.96008 0.00075
2877 32.03048 1314.46750 1310.44006 0.00076
2878 32.03883 1313.16053 1310.44006 0.00076
2879 32.04719 1311.84786 1369.00000 0.00073
2880 32.05554 1310.52986 1303.20984 0.00077
2881 32.06390 1309.20922 1296.00000 0.00077
2882 32.07226 1307.89210 1274.49011 0.00078
2883 32.08061 1306.58435 1288.81006 0.00078
2884 32.08897 1305.28500 1260.25000 0.00079
2885 32.09732 1304.01223 1281.63989 0.00078
2886 32.10568 1302.80043 1274.49011 0.00078
2887 32.11403 1301.63541 1310.44006 0.00076
2888 32.12239 1300.51140 1288.81006 0.00078
2889 32.13075 1299.44286 1288.81006 0.00078
2890 32.13910 1298.42505 1303.20984 0.00077
2891 32.14746 1297.43040 1232.00989 0.00081
2892 32.15581 1296.47266 1267.35986 0.00079
2893 32.16417 1295.56048 1204.09009 0.00083
2894 32.17252 1294.69381 1274.49011 0.00078
2895 32.18088 1293.87080 1246.08997 0.00080
2896 32.18923 1293.08941 1281.63989 0.00078
2897 32.19759 1292.34799 1310.44006 0.00076
2898 32.20595 1291.64575 1232.00989 0.00081
2899 32.21430 1290.98306 1274.49011 0.00078
2900 32.22266 1290.35893 1281.63989 0.00078
2901 32.23101 1289.76542 1274.49011 0.00078
2902 32.23937 1289.18905 1239.04004 0.00081
2903 32.24772 1288.61679 1253.16016 0.00080
2904 32.25608 1288.06187 1239.04004 0.00081
2905 32.26444 1287.58024 1225.00000 0.00082
2906 32.27279 1287.16793 1310.44006 0.00076
2907 32.28115 1286.77228 1274.49011 0.00078
2908 32.28950 1286.39809 1232.00989 0.00081
2909 32.29786 1286.05013 1246.08997 0.00080
2910 32.30621 1285.71374 1267.35986 0.00079
2911 32.31457 1285.37242 1232.00989 0.00081
2912 32.32292 1285.03410 1274.49011 0.00078
2913 32.33128 1284.72501 1190.25000 0.00084
2914 32.33964 1284.45229 1253.16016 0.00080
2915 32.34799 1284.20604 1354.23999 0.00074
2916 32.35635 1283.98073 1281.63989 0.00078
2917 32.36470 1283.77277 1225.00000 0.00082
2918 32.37306 1283.58054 1310.44006 0.00076
2919 32.38141 1283.40316 1246.08997 0.00080
2920 32.38977 1283.23966 1253.16016 0.00080
2921 32.39813 1283.08890 1260.25000 0.00079
2922 32.40648 1282.94946 1324.96008 0.00075
2923 32.41484 1282.81949 1246.08997 0.00080
2924 32.42319 1282.69723 1239.04004 0.00081
2925 32.43155 1282.58296 1253.16016 0.00080
2926 32.43990 1282.47807 1317.68994 0.00076
2927 32.44826 1282.37877 1246.08997 0.00080
2928 32.45662 1282.28117 1303.20984 0.00077
2929 32.46497 1282.18226 1267.35986 0.00079
2930 32.47333 1282.07989 1274.49011 0.00078
2931 32.48168 1281.97340 1346.89001 0.00074
2932 32.49004 1281.86368 1253.16016 0.00080
2933 32.49839 1281.75308 1267.35986 0.00079
2934 32.50675 1281.64605 1317.68994 0.00076
2935 32.51510 1281.54978 1281.63989 0.00078
2936 32.52346 1281.47401 1253.16016 0.00080
2937 32.53182 1281.41637 1239.04004 0.00081
2938 32.54017 1281.35339 1274.49011 0.00078
2939 32.54853 1281.28772 1296.00000 0.00077
2940 32.55688 1281.22349 1303.20984 0.00077
2941 32.56524 1281.15379 1253.16016 0.00080
2942 32.57359 1281.06281 1324.96008 0.00075
2943 32.58195 1280.95463 1253.16016 0.00080
2944 32.59031 1280.87705 1239.04004 0.00081
2945 32.59866 1280.83876 1239.04004 0.00081
2946 32.60702 1280.82106 1339.55994 0.00075
2947 32.61537 1280.82441 1310.44006 0.00076
2948 32.62373 1280.86532 1288.81006 0.00078
2949 32.63208 1280.93977 1288.81006 0.00078
2950 32.64044 1281.00088 1218.01013 0.00082
2951 32.64879 1281.05493 1296.00000 0.00077
2952 32.65715 1281.11219 1288.81006 0.00078
2953 32.66551 1281.14769 1296.00000 0.00077
2954 32.67386 1281.17740 1281.63989 0.00078
2955 32.68222 1281.21336 1274.49011 0.00078
2956 32.69057 1281.24979 1281.63989 0.00078
2957 32.69893 1281.28478 1225.00000 0.00082
2958 32.70728 1281.32487 1303.20984 0.00077
2959 32.71564 1281.37335 1260.25000 0.00079
2960 32.72400 1281.42450 1253.16016 0.00080
2961 32.73235 1281.47462 1281.63989 0.00078
2962 32.74071 1281.53121 1246.08997 0.00080
2963 32.74906 1281.60711 1225.00000 0.00082
2964 32.75742 1281.69686 1391.28992 0.00072
2965 32.76577 1281.79533 1296.00000 0.00077
2966 32.77413 1281.90162 1239.04004 0.00081
2967 32.78248 1282.01523 1296.00000 0.00077
2968 32.79084 1282.13694 1218.01013 0.00082
2969 32.79920 1282.26418 1288.81006 0.00078
2970 32.80755 1282.39914 1274.49011 0.00078
2971 32.81591 1282.55259 1239.04004 0.00081
2972 32.82426 1282.74326 1288.81006 0.00078
2973 32.83262 1282.96800 1232.00989 0.00081
2974 32.84097 1283.18464 1274.49011 0.00078
2975 32.84933 1283.39706 1232.00989 0.00081
2976 32.85769 1283.62247 1339.55994 0.00075
2977 32.86604 1283.86765 1288.81006 0.00078
2978 32.87440 1284.13495 1225.00000 0.00082
2979 32.88275 1284.42668 1332.25000 0.00075
2980 32.89111 1284.74501 1260.25000 0.00079
2981 32.89946 1285.09273 1303.20984 0.00077
2982 32.90782 1285.47397 1281.63989 0.00078
2983 32.91617 1285.88856 1218.01013 0.00082
2984 32.92453 1286.32945 1246.08997 0.00080
2985 32.93289 1286.80109 1232.00989 0.00081
2986 32.94124 1287.30787 1310.44006 0.00076
2987 32.94960 1287.85250 1303.20984 0.00077
2988 32.95795 1288.43720 1288.81006 0.00078
2989 32.96631 1289.06393 1232.00989 0.00081
2990 32.97466 1289.73389 1281.63989 0.00078
2991 32.98302 1290.44744 1225.00000 0.00082
2992 32.99138 1291.20837 1267.35986 0.00079
2993 32.99973 1292.02492 1354.23999 0.00074
2994 33.00809 1292.89306 1354.23999 0.00074
2995 33.01644 1293.80231 1288.81006 0.00078
2996 33.02480 1294.73725 1267.35986 0.00079
2997 33.03315 1295.70878 1354.23999 0.00074
2998 33.04151 1296.78764 1296.00000 0.00077
2999 33.04987 1297.98427 1246.08997 0.00080
3000 33.05822 1299.27229 1246.08997 0.00080
3001 33.06658 1300.64945 1267.35986 0.00079
3002 33.07493 1302.12454 1246.08997 0.00080
3003 33.08329 1303.71312 1296.00000 0.00077
3004 33.09164 1305.43271 1260.25000 0.00079
3005 33.10000 1307.30646 1267.35986 0.00079
3006 33.10835 1309.36665 1225.00000 0.00082
3007 33.11671 1311.65666 1369.00000 0.00073
3008 33.12507 1314.23474 1303.20984 0.00077
3009 33.13342 1317.17984 1324.96008 0.00075
3010 33.14178 1320.60033 1310.44006 0.00076
3011 33.15013 1324.63948 1267.35986 0.00079
3012 33.15849 1329.44909 1267.35986 0.00079
3013 33.16684 1335.16399 1260.25000 0.00079
3014 33.17520 1341.98137 1398.76013 0.00071
3015 33.18356 1350.13074 1346.89001 0.00074
3016 33.19191 1359.81287 1383.84009 0.00072
3017 33.20027 1371.17024 1391.28992 0.00072
3018 33.20862 1384.23798 1428.83997 0.00070
3019 33.21698 1398.86638 1413.75989 0.00071
3020 33.22533 1414.60968 1428.83997 0.00070
3021 33.23369 1430.60275 1428.83997 0.00070
3022 33.24204 1445.54973 1451.60986 0.00069
3023 33.25040 1457.91203 1451.60986 0.00069
3024 33.25876 1466.36705 1521.00000 0.00066
3025 33.26711 1470.38485 1459.24011 0.00069
3026 33.27547 1470.55036 1521.00000 0.00066
3027 33.28382 1468.36650 1497.69006 0.00067
3028 33.29218 1465.67137 1466.88989 0.00068
3029 33.30053 1464.02778 1444.00000 0.00069
3030 33.30889 1464.39451 1489.95984 0.00067
3031 33.31725 1467.06627 1513.21008 0.00066
3032 33.32560 1471.76750 1521.00000 0.00066
3033 33.33396 1477.86205 1497.69006 0.00067
3034 33.34231 1484.64707 1413.75989 0.00071
3035 33.35067 1491.62058 1552.36011 0.00064
3036 33.35902 1498.71908 1505.43994 0.00066
3037 33.36738 1506.27752 1536.64001 0.00065
3038 33.37573 1514.64753 1536.64001 0.00065
3039 33.38409 1523.84173 1544.48999 0.00065
3040 33.39245 1533.37997 1513.21008 0.00066
3041 33.40080 1542.38877 1513.21008 0.00066
3042 33.40916 1549.94007 1560.25000 0.00064
3043 33.41751 1555.54613 1489.95984 0.00067
3044 33.42587 1559.57427 1648.35986 0.00061
3045 33.43422 1563.29990 1528.80994 0.00065
3046 33.44258 1568.53994 1568.15991 0.00064
3047 33.45094 1577.15152 1560.25000 0.00064
3048 33.45929 1590.70906 1608.00989 0.00062
3049 33.46765 1610.42546 1616.04004 0.00062
3050 33.47600 1637.22210 1672.81018 0.00060
3051 33.48436 1671.86569 1640.25000 0.00061
3052 33.49271 1715.10561 1730.55981 0.00058
3053 33.50107 1767.76412 1730.55981 0.00058
3054 33.50943 1830.77912 1874.88989 0.00053
3055 33.51778 1904.91539 1874.88989 0.00053
3056 33.52614 1990.02556 2034.00989 0.00049
3057 33.53449 2084.02871 2034.00989 0.00049
3058 33.54285 2181.86885 2125.20996 0.00047
3059 33.55120 2274.96743 2237.29004 0.00045
3060 33.55956 2351.91303 2381.43994 0.00042
3061 33.56791 2400.94551 2381.43994 0.00042
3062 33.57627 2415.06051 2480.04004 0.00040
3063 33.58463 2395.23079 2450.25000 0.00041
3064 33.59298 2350.40378 2410.80981 0.00041
3065 33.60134 2293.56875 2450.25000 0.00041
3066 33.60969 2236.76289 2361.95996 0.00042
3067 33.61805 2187.83708 2323.23999 0.00043
3068 33.62640 2149.50476 2323.23999 0.00043
3069 33.63476 2119.77962 2190.23999 0.00046
3070 33.64312 2093.15164 2162.25000 0.00046
3071 33.65147 2062.55640 2106.81006 0.00047
3072 33.65983 2022.10263 1980.25000 0.00050
3073 33.66818 1969.58441 1989.15991 0.00050
3074 33.67654 1907.15128 1944.80981 0.00051
3075 33.68489 1839.70470 1814.75989 0.00055
3076 33.69325 1772.51100 1909.69006 0.00052
3077 33.70160 1709.52543 1764.00000 0.00057
3078 33.70996 1652.96826 1764.00000 0.00057
3079 33.71832 1603.64890 1632.16016 0.00061
3080 33.72667 1561.47505 1584.03992 0.00063
3081 33.73503 1525.89610 1521.00000 0.00066
3082 33.74338 1496.13283 1436.41016 0.00070
3083 33.75174 1471.32977 1436.41016 0.00070
3084 33.76009 1450.64967 1466.88989 0.00068
3085 33.76845 1433.32632 1421.29004 0.00070
3086 33.77681 1418.70615 1369.00000 0.00073
3087 33.78516 1406.27360 1391.28992 0.00072
3088 33.79352 1395.63149 1296.00000 0.00077
3089 33.80187 1386.49454 1332.25000 0.00075
3090 33.81023 1378.59367 1239.04004 0.00081
3091 33.81858 1371.70472 1332.25000 0.00075
3092 33.82694 1365.65914 1303.20984 0.00077
3093 33.83529 1360.34818 1281.63989 0.00078
3094 33.84365 1355.68961 1339.55994 0.00075
3095 33.85201 1351.61088 1310.44006 0.00076
3096 33.86036 1348.06265 1317.68994 0.00076
3097 33.86872 1345.00374 1346.89001 0.00074
3098 33.87707 1342.39647 1310.44006 0.00076
3099 33.88543 1340.20728 1288.81006 0.00078
3100 33.89378 1338.40001 1339.55994 0.00075
3101 33.90214 1336.93206 1288.81006 0.00078
3102 33.91050 1335.77544 1267.35986 0.00079
3103 33.91885 1334.90983 1310.44006 0.00076
3104 33.92721 1334.32320 1310.44006 0.00076
3105 33.93556 1334.01140 1260.25000 0.00079
3106 33.94392 1333.96461 1310.44006 0.00076
3107 33.95227 1334.17801 1310.44006 0.00076
3108 33.96063 1334.64891 1391.28992 0.00072
3109 33.96898 1335.39472 1317.68994 0.00076
3110 33.97734 1336.46334 1324.96008 0.00075
3111 33.98570 1337.84709 1361.61011 0.00073
3112 33.99405 1339.54298 1267.35986 0.00079
3113 34.00241 1341.57181 1436.41016 0.00070
3114 34.01076 1343.96882 1310.44006 0.00076
3115 34.01912 1346.77734 1391.28992 0.00072
3116 34.02747 1350.01948 1421.29004 0.00070
3117 34.03583 1353.69877 1296.00000 0.00077
3118 34.04419 1357.89877 1391.28992 0.00072
3119 34.05254 1362.71274 1391.28992 0.00072
3120 34.06090 1368.23473 1428.83997 0.00070
3121 34.06925 1374.58018 1376.40991 0.00073
3122 34.07761 1381.91658 1361.61011 0.00073
3123 34.08596 1390.44405 1444.00000 0.00069
3124 34.09432 1400.42299 1436.41016 0.00070
3125 34.10268 1412.19222 1489.95984 0.00067
3126 34.11103 1426.30295 1536.64001 0.00065
3127 34.11939 1443.44875 1489.95984 0.00067
3128 34.12774 1464.41566 1584.03992 0.00063
3129 34.13610 1490.17100 1536.64001 0.00065
3130 34.14445 1521.84808 1568.15991 0.00064
3131 34.15281 1560.66825 1656.49011 0.00060
3132 34.16116 1607.83630 1672.81018 0.00060
3133 34.16952 1664.39320 1713.96008 0.00058
3134 34.17788 1730.96412 1814.75989 0.00055
3135 34.18623 1807.35932 1883.56018 0.00053
3136 34.19459 1892.00398 1900.95984 0.00053
3137 34.20294 1981.27266 1909.69006 0.00052
3138 34.21130 2068.89485 1989.15991 0.00050
3139 34.21965 2146.08562 1936.00000 0.00052
3140 34.22801 2203.10583 2061.16016 0.00049
3141 34.23637 2232.34531 2106.81006 0.00047
3142 34.24472 2231.66030 2106.81006 0.00047
3143 34.25308 2205.71799 2171.55981 0.00046
3144 34.26143 2164.03643 2143.68994 0.00047
3145 34.26979 2117.21740 2190.23999 0.00046
3146 34.27814 2073.69741 2106.81006 0.00047
3147 34.28650 2038.07847 2134.44019 0.00047
3148 34.29485 2010.91165 2079.35986 0.00048
3149 34.30321 1989.28888 1980.25000 0.00050
3150 34.31157 1968.00673 2016.01013 0.00050
3151 34.31992 1941.39590 2079.35986 0.00048
3152 34.32828 1905.53305 1909.69006 0.00052
3153 34.33663 1859.82216 1814.75989 0.00055
3154 34.34499 1806.90964 1780.84009 0.00056
3155 34.35334 1751.10628 1713.96008 0.00058
3156 34.36170 1696.55678 1664.63989 0.00060
3157 34.37006 1646.18164 1713.96008 0.00058
3158 34.37841 1601.52004 1672.81018 0.00060
3159 34.38677 1563.04466 1648.35986 0.00061
3160 34.39512 1530.55609 1560.25000 0.00064
3161 34.40348 1503.47363 1552.36011 0.00064
3162 34.41183 1481.00812 1489.95984 0.00067
3163 34.42019 1462.29129 1436.41016 0.00070
3164 34.42854 1446.49084 1466.88989 0.00068
3165 34.43690 1432.91058 1451.60986 0.00069
3166 34.44526 1421.05358 1444.00000 0.00069
3167 34.45361 1410.63320 1451.60986 0.00069
3168 34.46197 1401.50327 1383.84009 0.00072
3169 34.47032 1393.57486 1421.29004 0.00070
3170 34.47868 1386.75840 1421.29004 0.00070
3171 34.48703 1380.93648 1398.76013 0.00071
3172 34.49539 1375.96026 1332.25000 0.00075
3173 34.50375 1371.65437 1310.44006 0.00076
3174 34.51210 1367.83539 1346.89001 0.00074
3175 34.52046 1364.34637 1260.25000 0.00079
3176 34.52881 1361.09016 1332.25000 0.00075
3177 34.53717 1358.03658 1281.63989 0.00078
3178 34.54552 1355.21211 1239.04004 0.00081
3179 34.55388 1352.65327 1246.08997 0.00080
3180 34.56223 1350.41452 1274.49011 0.00078
3181 34.57059 1348.55770 1332.25000 0.00075
3182 34.57895 1347.05066 1288.81006 0.00078
3183 34.58730 1345.86143 1339.55994 0.00075
3184 34.59566 1344.97324 1361.61011 0.00073
3185 34.60401 1344.36460 1303.20984 0.00077
3186 34.61237 1344.01984 1281.63989 0.00078
3187 34.62072 1343.92707 1246.08997 0.00080
3188 34.62908 1344.07595 1260.25000 0.00079
3189 34.63744 1344.45995 1332.25000 0.00075
3190 34.64579 1345.07057 1288.81006 0.00078
3191 34.65415 1345.88471 1296.00000 0.00077
3192 34.66250 1346.89647 1346.89001 0.00074
3193 34.67086 1348.11645 1361.61011 0.00073
3194 34.67921 1349.55371 1421.29004 0.00070
3195 34.68757 1351.21964 1354.23999 0.00074
3196 34.69593 1353.13351 1332.25000 0.00075
3197 34.70428 1355.31046 1260.25000 0.00079
3198 34.71264 1357.73920 1346.89001 0.00074
3199 34.72099 1360.41983 1303.20984 0.00077
3200 34.72935 1363.38775 1246.08997 0.00080
3201 34.73770 1366.67466 1260.25000 0.00079
3202 34.74606 1370.31008 1324.96008 0.00075
3203 34.75441 1374.32833 1324.96008 0.00075
3204 34.76277 1378.77109 1274.49011 0.00078
3205 34.77113 1383.68462 1317.68994 0.00076
3206 34.77948 1389.11401 1288.81006 0.00078
3207 34.78784 1395.11630 1354.23999 0.00074
3208 34.79619 1401.77221 1296.00000 0.00077
3209 34.80455 1409.17572 1354.23999 0.00074
3210 34.81290 1417.43924 1369.00000 0.00073
3211 34.82126 1426.70311 1310.44006 0.00076
3212 34.82962 1437.14131 1339.55994 0.00075
3213 34.83797 1448.97279 1383.84009 0.00072
3214 34.84633 1462.49169 1391.28992 0.00072
3215 34.85468 1478.07589 1413.75989 0.00071
3216 34.86304 1496.19814 1421.29004 0.00070
3217 34.87139 1517.48581 1428.83997 0.00070
3218 34.87975 1542.76168 1482.25000 0.00067
3219 34.88810 1573.06114 1560.25000 0.00064
3220 34.89646 1609.65287 1536.64001 0.00065
3221 34.90482 1654.03600 1681.00000 0.00059
3222 34.91317 1707.88756 1576.09009 0.00063
3223 34.92153 1772.94936 1764.00000 0.00057
3224 34.92988 1850.84709 1789.28992 0.00056
3225 34.93824 1942.81858 1927.21008 0.00052
3226 34.94659 2049.30480 2125.20996 0.00047
3227 34.95495 2169.40341 2275.29004 0.00044
3228 34.96331 2300.20816 2450.25000 0.00041
3229 34.97166 2436.18057 2510.00977 0.00040
3230 34.98002 2568.86660 2777.29004 0.00036
3231 34.98837 2687.15999 2809.00000 0.00036
3232 34.99673 2778.65169 2905.21021 0.00034
3233 35.00508 2832.56554 2766.75977 0.00036
3234 35.01344 2843.73419 2787.83984 0.00036
3235 35.02179 2815.50558 2766.75977 0.00036
3236 35.03015 2759.13448 2809.00000 0.00036
3237 35.03851 2689.53652 2693.61011 0.00037
3238 35.04686 2620.12845 2652.25000 0.00038
3239 35.05522 2559.49444 2693.61011 0.00037
3240 35.06357 2510.52238 2590.81006 0.00039
3241 35.07193 2471.11901 2611.20996 0.00038
3242 35.08028 2435.58642 2460.15991 0.00041
3243 35.08864 2396.45262 2332.88989 0.00043
3244 35.09700 2346.89124 2294.41016 0.00044
3245 35.10535 2283.27219 2209.00000 0.00045
3246 35.11371 2206.60627 2134.44019 0.00047
3247 35.12206 2121.78852 2088.48999 0.00048
3248 35.13042 2035.17445 1944.80981 0.00051
3249 35.13877 1952.25001 1962.48999 0.00051
3250 35.14713 1876.56105 1814.75989 0.00055
3251 35.15549 1809.78347 1681.00000 0.00059
3252 35.16384 1752.27101 1681.00000 0.00059
3253 35.17220 1703.60427 1568.15991 0.00064
3254 35.18055 1662.96655 1560.25000 0.00064
3255 35.18891 1629.37259 1592.01013 0.00063
3256 35.19726 1601.80832 1444.00000 0.00069
3257 35.20562 1579.31493 1482.25000 0.00067
3258 35.21397 1561.03733 1421.29004 0.00070
3259 35.22233 1546.25558 1421.29004 0.00070
3260 35.23069 1534.39314 1436.41016 0.00070
3261 35.23904 1524.98576 1369.00000 0.00073
3262 35.24740 1517.67972 1361.61011 0.00073
3263 35.25575 1512.22275 1428.83997 0.00070
3264 35.26411 1508.39142 1369.00000 0.00073
3265 35.27246 1506.04254 1421.29004 0.00070
3266 35.28082 1505.07377 1444.00000 0.00069
3267 35.28918 1505.40770 1361.61011 0.00073
3268 35.29753 1506.99615 1332.25000 0.00075
3269 35.30589 1509.82186 1406.25000 0.00071
3270 35.31424 1513.91033 1421.29004 0.00070
3271 35.32260 1519.26178 1383.84009 0.00072
3272 35.33095 1525.92357 1296.00000 0.00077
3273 35.33931 1534.00219 1383.84009 0.00072
3274 35.34766 1543.62633 1361.61011 0.00073
3275 35.35602 1554.95665 1444.00000 0.00069
3276 35.36438 1568.20411 1391.28992 0.00072
3277 35.37273 1583.64903 1444.00000 0.00069
3278 35.38109 1601.66233 1444.00000 0.00069
3279 35.38944 1622.72601 1406.25000 0.00071
3280 35.39780 1647.48161 1444.00000 0.00069
3281 35.40615 1676.80525 1513.21008 0.00066
3282 35.41451 1711.84635 1552.36011 0.00064
3283 35.42287 1754.08734 1608.00989 0.00062
3284 35.43122 1805.40016 1600.00000 0.00063
3285 35.43958 1868.06619 1624.08997 0.00062
3286 35.44793 1944.72573 1681.00000 0.00059
3287 35.45629 2038.31465 1831.83997 0.00055
3288 35.46464 2151.98971 2007.03992 0.00050
3289 35.47300 2288.77571 2143.68994 0.00047
3290 35.48135 2451.12838 2490.01025 0.00040
3291 35.48971 2640.28507 2693.61011 0.00037
3292 35.49807 2855.23954 2948.48999 0.00034
3293 35.50642 3091.24077 3329.29004 0.00030
3294 35.51478 3338.00762 3588.01025 0.00028
3295 35.52313 3578.36313 3893.76025 0.00026
3296 35.53149 3788.80500 4006.88989 0.00025
3297 35.53984 3943.73975 4186.08984 0.00024
3298 35.54820 4023.43908 4121.63965 0.00024
3299 35.55656 4022.32954 4134.49023 0.00024
3300 35.56491 3952.19127 4057.69019 0.00025
3301 35.57327 3837.61142 4032.25000 0.00025
3302 35.58162 3706.66375 3757.68994 0.00027
3303 35.58998 3582.44243 3648.16016 0.00027
3304 35.59833 3478.68567 3612.00977 0.00028
3305 35.60669 3398.97560 3540.25000 0.00028
3306 35.61504 3337.78948 3433.95972 0.00029
3307 35.62340 3282.78650 3398.88989 0.00029
3308 35.63176 3218.64929 3283.28979 0.00030
3309 35.64011 3132.41339 3169.68994 0.00032
3310 35.64847 3018.42582 3014.01025 0.00033
3311 35.65682 2880.07153 2862.25000 0.00035
3312 35.66518 2727.21455 2683.23999 0.00037
3313 35.67353 2571.45591 2410.80981 0.00041
3314 35.68189 2422.32829 2284.83984 0.00044
3315 35.69025 2285.84066 2162.25000 0.00046
3316 35.69860 2164.80971 1971.36011 0.00051
3317 35.70696 2059.83255 1927.21008 0.00052
3318 35.71531 1970.19148 1823.29004 0.00055
3319 35.72367 1894.48486 1747.23999 0.00057
3320 35.73202 1831.02587 1664.63989 0.00060
3321 35.74038 1778.07981 1672.81018 0.00060
3322 35.74874 1733.98197 1616.04004 0.00062
3323 35.75709 1697.25035 1576.09009 0.00063
3324 35.76545 1666.62775 1568.15991 0.00064
3325 35.77380 1641.08669 1528.80994 0.00065
3326 35.78216 1619.82148 1552.36011 0.00064
3327 35.79051 1602.21454 1474.56006 0.00068
3328 35.79887 1587.79842 1521.00000 0.00066
3329 35.80722 1576.22071 1497.69006 0.00067
3330 35.81558 1567.21314 1505.43994 0.00066
3331 35.82394 1560.56008 1428.83997 0.00070
3332 35.83229 1556.06106 1466.88989 0.00068
3333 35.84065 1553.50918 1513.21008 0.00066
3334 35.84900 1552.67438 1521.00000 0.00066
3335 35.85736 1553.31610 1459.24011 0.00069
3336 35.86571 1555.24062 1624.08997 0.00062
3337 35.87407 1558.39652 1505.43994 0.00066
3338 35.88243 1562.98118 1544.48999 0.00065
3339 35.89078 1569.48554 1584.03992 0.00063
3340 35.89914 1578.64493 1568.15991 0.00064
3341 35.90749 1591.33067 1560.25000 0.00064
3342 35.91585 1608.39504 1624.08997 0.00062
3343 35.92420 1630.55699 1592.01013 0.00063
3344 35.93256 1658.34685 1681.00000 0.00059
3345 35.94091 1691.94852 1640.25000 0.00061
3346 35.94927 1731.06651 1697.44006 0.00059
3347 35.95763 1774.70496 1697.44006 0.00059
3348 35.96598 1820.90220 1764.00000 0.00057
3349 35.97434 1866.52033 1806.25000 0.00055
3350 35.98269 1907.31517 1780.84009 0.00056
3351 35.99105 1938.63863 1797.76013 0.00056
3352 35.99940 1956.74723 1789.28992 0.00056
3353 36.00776 1960.16345 1866.24011 0.00054
3354 36.01612 1950.32584 1814.75989 0.00055
3355 36.02447 1931.02506 1866.24011 0.00054
3356 36.03283 1907.01164 1831.83997 0.00055
3357 36.04118 1882.58588 1806.25000 0.00055
3358 36.04954 1860.79502 1840.41016 0.00054
3359 36.05789 1843.13812 1831.83997 0.00055
3360 36.06625 1829.48758 1780.84009 0.00056
3361 36.07460 1818.21528 1797.76013 0.00056
3362 36.08296 1806.84470 1772.40991 0.00056
3363 36.09132 1792.94090 1730.55981 0.00058
3364 36.09967 1775.08858 1713.96008 0.00058
3365 36.10803 1753.39214 1681.00000 0.00059
3366 36.11638 1729.25356 1624.08997 0.00062
3367 36.12474 1704.69914 1738.89001 0.00058
3368 36.13309 1681.73465 1672.81018 0.00060
3369 36.14145 1661.99403 1632.16016 0.00061
3370 36.14981 1646.64946 1705.68994 0.00059
3371 36.15816 1636.45906 1648.35986 0.00061
3372 36.16652 1631.86672 1608.00989 0.00062
3373 36.17487 1633.08881 1568.15991 0.00064
3374 36.18323 1640.15570 1592.01013 0.00063
3375 36.19158 1652.93350 1722.25000 0.00058
3376 36.19994 1670.99052 1713.96008 0.00058
3377 36.20829 1693.51292 1730.55981 0.00058
3378 36.21665 1719.02764 1772.40991 0.00056
3379 36.22501 1745.25285 1874.88989 0.00053
3380 36.23336 1769.20152 1962.48999 0.00051
3381 36.24172 1787.70093 1900.95984 0.00053
3382 36.25007 1798.36581 1927.21008 0.00052
3383 36.25843 1800.59573 1944.80981 0.00051
3384 36.26678 1795.95888 1980.25000 0.00050
3385 36.27514 1787.66040 1989.15991 0.00050
3386 36.28350 1779.43258 1909.69006 0.00052
3387 36.29185 1774.48966 1944.80981 0.00051
3388 36.30021 1774.97144 1883.56018 0.00053
3389 36.30856 1781.79373 1814.75989 0.00055
3390 36.31692 1794.67729 1806.25000 0.00055
3391 36.32527 1812.28854 1883.56018 0.00053
3392 36.33363 1832.50977 1909.69006 0.00052
3393 36.34199 1852.84424 2034.00989 0.00049
3394 36.35034 1870.81439 1892.25000 0.00053
3395 36.35870 1884.30942 1857.60986 0.00054
3396 36.36705 1891.53365 1857.60986 0.00054
3397 36.37541 1891.05952 1857.60986 0.00054
3398 36.38376 1882.28723 1840.41016 0.00054
3399 36.39212 1866.04558 1806.25000 0.00055
3400 36.40047 1844.59026 1747.23999 0.00057
3401 36.40883 1820.90858 1755.61011 0.00057
3402 36.41719 1797.74278 1730.55981 0.00058
3403 36.42554 1776.96705 1689.20984 0.00059
3404 36.43390 1759.42588 1656.49011 0.00060
3405 36.44225 1745.04877 1632.16016 0.00061
3406 36.45061 1733.05203 1616.04004 0.00062
3407 36.45896 1722.13675 1664.63989 0.00060
3408 36.46732 1710.79532 1560.25000 0.00064
3409 36.47568 1697.79960 1648.35986 0.00061
3410 36.48403 1682.69127 1624.08997 0.00062
3411 36.49239 1665.91876 1584.03992 0.00063
3412 36.50074 1648.53161 1576.09009 0.00063
3413 36.50910 1631.68781 1568.15991 0.00064
3414 36.51745 1616.26044 1544.48999 0.00065
3415 36.52581 1602.79178 1536.64001 0.00065
3416 36.53416 1591.55024 1584.03992 0.00063
3417 36.54252 1582.71696 1584.03992 0.00063
3418 36.55088 1576.47132 1624.08997 0.00062
3419 36.55923 1572.99624 1536.64001 0.00065
3420 36.56759 1572.42870 1482.25000 0.00067
3421 36.57594 1574.85844 1528.80994 0.00065
3422 36.58430 1580.47581 1513.21008 0.00066
3423 36.59265 1589.54219 1608.00989 0.00062
3424 36.60101 1602.44637 1544.48999 0.00065
3425 36.60937 1619.73097 1648.35986 0.00061
3426 36.61772 1642.10617 1608.00989 0.00062
3427 36.62608 1670.42912 1730.55981 0.00058
3428 36.63443 1705.66741 1681.00000 0.00059
3429 36.64279 1748.86159 1672.81018 0.00060
3430 36.65114 1801.03356 1764.00000 0.00057
3431 36.65950 1863.03950 1927.21008 0.00052
3432 36.66785 1935.35874 1909.69006 0.00052
3433 36.67621 2017.79738 2079.35986 0.00048
3434 36.68457 2109.00214 2088.48999 0.00048
3435 36.69292 2205.77269 2256.25000 0.00044
3436 36.70128 2302.64927 2227.84009 0.00045
3437 36.70963 2391.90097 2332.88989 0.00043
3438 36.71799 2464.59530 2500.00000 0.00040
3439 36.72634 2513.01828 2510.00977 0.00040
3440 36.73470 2533.70590 2652.25000 0.00038
3441 36.74306 2529.24237 2652.25000 0.00038
3442 36.75141 2507.48911 2550.25000 0.00039
3443 36.75977 2478.81804 2540.16016 0.00039
3444 36.76812 2453.03380 2410.80981 0.00041
3445 36.77648 2437.20234 2450.25000 0.00041
3446 36.78483 2434.91087 2440.36011 0.00041
3447 36.79319 2446.37340 2490.01025 0.00040
3448 36.80155 2468.89309 2371.69019 0.00042
3449 36.80990 2497.60053 2460.15991 0.00041
3450 36.81826 2526.69880 2570.48999 0.00039
3451 36.82661 2551.03455 2560.35986 0.00039
3452 36.83497 2567.31102 2560.35986 0.00039
3453 36.84332 2574.29139 2550.25000 0.00039
3454 36.85168 2572.15094 2520.04004 0.00040
3455 36.86003 2561.87893 2440.36011 0.00041
3456 36.86839 2545.37444 2580.63989 0.00039
3457 36.87675 2525.65963 2440.36011 0.00041
3458 36.88510 2506.45842 2450.25000 0.00041
3459 36.89346 2491.12403 2470.09009 0.00040
3460 36.90181 2481.64406 2332.88989 0.00043
3461 36.91017 2478.36165 2430.48999 0.00041
3462 36.91852 2480.57811 2420.64014 0.00041
3463 36.92688 2487.56677 2332.88989 0.00043
3464 36.93524 2499.34860 2440.36011 0.00041
3465 36.94359 2516.90244 2460.15991 0.00041
3466 36.95195 2542.01282 2410.80981 0.00041
3467 36.96030 2577.13716 2460.15991 0.00041
3468 36.96866 2625.28809 2611.20996 0.00038
3469 36.97701 2689.61059 2756.25000 0.00036
3470 36.98537 2772.59694 2745.76025 0.00036
3471 36.99372 2875.18434 3014.01025 0.00033
3472 37.00208 2996.13846 3025.00000 0.00033
3473 37.01044 3132.01908 3317.75977 0.00030
3474 37.01879 3277.44580 3387.23999 0.00030
3475 37.02715 3425.00029 3540.25000 0.00028
3476 37.03550 3564.53709 3708.81030 0.00027
3477 37.04386 3682.74795 3844.00000 0.00026
3478 37.05221 3764.59275 3969.00000 0.00025
3479 37.06057 3797.43017 3994.23999 0.00025
3480 37.06893 3776.32773 4032.25000 0.00025
3481 37.07728 3707.10045 3831.61011 0.00026
3482 37.08564 3604.61544 3660.25000 0.00027
3483 37.09399 3487.33254 3481.00000 0.00029
3484 37.10235 3371.58438 3410.56006 0.00029
3485 37.11070 3268.22848 3180.96021 0.00031
3486 37.11906 3181.83190 3249.00000 0.00031
3487 37.12741 3111.20118 3136.00000 0.00032
3488 37.13577 3050.34049 3136.00000 0.00032
3489 37.14413 2989.95230 3113.63989 0.00032
3490 37.15248 2920.04642 2872.95972 0.00035
3491 37.16084 2833.37621 2916.00000 0.00034
3492 37.16919 2728.12175 2819.60986 0.00035
3493 37.17755 2608.21164 2490.01025 0.00040
3494 37.18590 2481.07572 2500.00000 0.00040
3495 37.19426 2354.56560 2381.43994 0.00042
3496 37.20262 2234.78372 2061.16016 0.00049
3497 37.21097 2125.39805 2007.03992 0.00050
3498 37.21933 2027.99877 2025.00000 0.00049
3499 37.22768 1942.76925 1892.25000 0.00053
3500 37.23604 1869.06920 1730.55981 0.00058
3501 37.24439 1805.82711 1738.89001 0.00058
3502 37.25275 1751.78140 1592.01013 0.00063
3503 37.26110 1705.64371 1624.08997 0.00062
3504 37.26946 1666.19538 1576.09009 0.00063
3505 37.27782 1632.31933 1560.25000 0.00064
3506 37.28617 1603.02035 1505.43994 0.00066
3507 37.29453 1577.50421 1474.56006 0.00068
3508 37.30288 1555.16846 1528.80994 0.00065
3509 37.31124 1535.48885 1513.21008 0.00066
3510 37.31959 1518.01559 1436.41016 0.00070
3511 37.32795 1502.41203 1459.24011 0.00069
3512 37.33631 1488.42962 1428.83997 0.00070
3513 37.34466 1475.87175 1383.84009 0.00072
3514 37.35302 1464.52449 1436.41016 0.00070
3515 37.36137 1454.23038 1406.25000 0.00071
3516 37.36973 1444.88925 1376.40991 0.00073
3517 37.37808 1436.40229 1376.40991 0.00073
3518 37.38644 1428.66660 1406.25000 0.00071
3519 37.39480 1421.61396 1413.75989 0.00071
3520 37.40315 1415.19550 1406.25000 0.00071
3521 37.41151 1409.35418 1421.29004 0.00070
3522 37.41986 1404.02321 1369.00000 0.00073
3523 37.42822 1399.16331 1361.61011 0.00073
3524 37.43657 1394.74695 1346.89001 0.00074
3525 37.44493 1390.74539 1332.25000 0.00075
3526 37.45328 1387.13190 1406.25000 0.00071
3527 37.46164 1383.88417 1332.25000 0.00075
3528 37.47000 1380.98612 1361.61011 0.00073
3529 37.47835 1378.43187 1369.00000 0.00073
3530 37.48671 1376.22920 1361.61011 0.00073
3531 37.49506 1374.37900 1383.84009 0.00072
3532 37.50342 1372.84525 1376.40991 0.00073
3533 37.51177 1371.62563 1361.61011 0.00073
3534 37.52013 1370.75947 1281.63989 0.00078
3535 37.52849 1370.28435 1369.00000 0.00073
3536 37.53684 1370.24483 1296.00000 0.00077
3537 37.54520 1370.70286 1383.84009 0.00072
3538 37.55355 1371.73349 1339.55994 0.00075
3539 37.56191 1373.43537 1354.23999 0.00074
3540 37.57026 1375.95115 1332.25000 0.00075
3541 37.57862 1379.46371 1391.28992 0.00072
3542 37.58697 1384.16777 1339.55994 0.00075
3543 37.59533 1390.26407 1296.00000 0.00077
3544 37.60369 1397.95898 1428.83997 0.00070
3545 37.61204 1407.44353 1354.23999 0.00074
3546 37.62040 1418.87592 1421.29004 0.00070
3547 37.62875 1432.37270 1436.41016 0.00070
3548 37.63711 1447.90733 1421.29004 0.00070
3549 37.64546 1465.21910 1482.25000 0.00067
3550 37.65382 1483.70249 1497.69006 0.00067
3551 37.66218 1502.29506 1513.21008 0.00066
3552 37.67053 1519.45030 1474.56006 0.00068
3553 37.67889 1533.33337 1568.15991 0.00064
3554 37.68724 1542.25004 1521.00000 0.00066
3555 37.69560 1545.22728 1497.69006 0.00067
3556 37.70395 1542.42809 1513.21008 0.00066
3557 37.71231 1535.10457 1459.24011 0.00069
3558 37.72066 1525.11735 1576.09009 0.00063
3559 37.72902 1514.31297 1489.95984 0.00067
3560 37.73738 1504.14917 1421.29004 0.00070
3561 37.74573 1495.47183 1528.80994 0.00065
3562 37.75409 1488.50403 1497.69006 0.00067
3563 37.76244 1482.91256 1505.43994 0.00066
3564 37.77080 1477.89104 1413.75989 0.00071
3565 37.77915 1472.33719 1406.25000 0.00071
3566 37.78751 1465.31463 1497.69006 0.00067
3567 37.79587 1456.33437 1421.29004 0.00070
3568 37.80422 1445.46780 1466.88989 0.00068
3569 37.81258 1433.20982 1428.83997 0.00070
3570 37.82093 1420.37070 1332.25000 0.00075
3571 37.82929 1407.67359 1398.76013 0.00071
3572 37.83764 1395.63354 1376.40991 0.00073
3573 37.84600 1384.59418 1459.24011 0.00069
3574 37.85435 1374.70964 1339.55994 0.00075
3575 37.86271 1365.98898 1398.76013 0.00071
3576 37.87107 1358.37788 1354.23999 0.00074
3577 37.87942 1351.78459 1332.25000 0.00075
3578 37.88778 1346.10123 1267.35986 0.00079
3579 37.89613 1341.21193 1383.84009 0.00072
3580 37.90449 1337.00700 1354.23999 0.00074
3581 37.91284 1333.38538 1339.55994 0.00075
3582 37.92120 1330.23904 1288.81006 0.00078
3583 37.92956 1327.47329 1310.44006 0.00076
3584 37.93791 1325.04590 1324.96008 0.00075
3585 37.94627 1322.92217 1332.25000 0.00075
3586 37.95462 1321.07126 1369.00000 0.00073
3587 37.96298 1319.46943 1383.84009 0.00072
3588 37.97133 1318.09291 1267.35986 0.00079
3589 37.97969 1316.91855 1310.44006 0.00076
3590 37.98805 1315.93511 1288.81006 0.00078
3591 37.99640 1315.13812 1281.63989 0.00078
3592 38.00476 1314.52836 1383.84009 0.00072
3593 38.01311 1314.11421 1369.00000 0.00073
3594 38.02147 1313.90355 1369.00000 0.00073
3595 38.02982 1313.89653 1317.68994 0.00076
3596 38.03818 1314.11722 1281.63989 0.00078
3597 38.04653 1314.59569 1296.00000 0.00077
3598 38.05489 1315.35455 1260.25000 0.00079
3599 38.06325 1316.41405 1281.63989 0.00078
3600 38.07160 1317.78953 1346.89001 0.00074
3601 38.07996 1319.48770 1296.00000 0.00077
3602 38.08831 1321.50151 1376.40991 0.00073
3603 38.09667 1323.79716 1288.81006 0.00078
3604 38.10502 1326.30092 1376.40991 0.00073
3605 38.11338 1328.89574 1260.25000 0.00079
3606 38.12174 1331.42068 1317.68994 0.00076
3607 38.13009 1333.68892 1398.76013 0.00071
3608 38.13845 1335.52671 1354.23999 0.00074
3609 38.14680 1336.85432 1288.81006 0.00078
3610 38.15516 1337.77409 1398.76013 0.00071
3611 38.16351 1338.46902 1303.20984 0.00077
3612 38.17187 1339.17197 1281.63989 0.00078
3613 38.18022 1340.14667 1383.84009 0.00072
3614 38.18858 1341.62263 1317.68994 0.00076
3615 38.19694 1343.77588 1332.25000 0.00075
3616 38.20529 1346.72367 1296.00000 0.00077
3617 38.21365 1350.52648 1406.25000 0.00071
3618 38.22200 1355.19631 1383.84009 0.00072
3619 38.23036 1360.71077 1346.89001 0.00074
3620 38.23871 1367.02831 1281.63989 0.00078
3621 38.24707 1374.09896 1413.75989 0.00071
3622 38.25543 1381.85093 1391.28992 0.00072
3623 38.26378 1390.13749 1428.83997 0.00070
3624 38.27214 1398.64841 1339.55994 0.00075
3625 38.28049 1406.84547 1383.84009 0.00072
3626 38.28885 1413.98530 1406.25000 0.00071
3627 38.29720 1419.27837 1383.84009 0.00072
3628 38.30556 1422.12933 1513.21008 0.00066
3629 38.31391 1422.38197 1444.00000 0.00069
3630 38.32227 1420.41316 1436.41016 0.00070
3631 38.33063 1417.00650 1354.23999 0.00074
3632 38.33898 1413.07175 1339.55994 0.00075
3633 38.34734 1409.36370 1406.25000 0.00071
3634 38.35569 1406.33450 1406.25000 0.00071
3635 38.36405 1404.12866 1436.41016 0.00070
3636 38.37240 1402.58041 1406.25000 0.00071
3637 38.38076 1401.28529 1421.29004 0.00070
3638 38.38912 1399.71599 1391.28992 0.00072
3639 38.39747 1397.36831 1391.28992 0.00072
3640 38.40583 1393.91406 1369.00000 0.00073
3641 38.41418 1389.31613 1436.41016 0.00070
3642 38.42254 1383.84025 1406.25000 0.00071
3643 38.43089 1377.95216 1428.83997 0.00070
3644 38.43925 1372.11040 1391.28992 0.00072
3645 38.44761 1366.65719 1383.84009 0.00072
3646 38.45596 1361.79094 1376.40991 0.00073
3647 38.46432 1357.57018 1413.75989 0.00071
3648 38.47267 1353.97797 1383.84009 0.00072
3649 38.48103 1350.95832 1303.20984 0.00077
3650 38.48938 1348.44348 1406.25000 0.00071
3651 38.49774 1346.41194 1413.75989 0.00071
3652 38.50609 1344.92269 1288.81006 0.00078
3653 38.51445 1344.01839 1339.55994 0.00075
3654 38.52281 1343.72254 1391.28992 0.00072
3655 38.53116 1344.04743 1246.08997 0.00080
3656 38.53952 1344.96949 1391.28992 0.00072
3657 38.54787 1346.49607 1346.89001 0.00074
3658 38.55623 1348.61037 1339.55994 0.00075
3659 38.56458 1351.25592 1391.28992 0.00072
3660 38.57294 1354.31856 1361.61011 0.00073
3661 38.58130 1357.58501 1436.41016 0.00070
3662 38.58965 1360.76136 1361.61011 0.00073
3663 38.59801 1363.52583 1428.83997 0.00070
3664 38.60636 1365.57249 1421.29004 0.00070
3665 38.61472 1366.68904 1281.63989 0.00078
3666 38.62307 1366.84236 1383.84009 0.00072
3667 38.63143 1366.20345 1406.25000 0.00071
3668 38.63978 1365.09053 1391.28992 0.00072
3669 38.64814 1363.84999 1413.75989 0.00071
3670 38.65650 1362.76628 1428.83997 0.00070
3671 38.66485 1362.02539 1310.44006 0.00076
3672 38.67321 1361.69683 1317.68994 0.00076
3673 38.68156 1361.72589 1406.25000 0.00071
3674 38.68992 1361.98856 1428.83997 0.00070
3675 38.69827 1362.32436 1361.61011 0.00073
3676 38.70663 1362.56235 1398.76013 0.00071
3677 38.71499 1362.57471 1421.29004 0.00070
3678 38.72334 1362.31657 1369.00000 0.00073
3679 38.73170 1361.84946 1383.84009 0.00072
3680 38.74005 1361.31259 1369.00000 0.00073
3681 38.74841 1360.86243 1421.29004 0.00070
3682 38.75676 1360.61527 1383.84009 0.00072
3683 38.76512 1360.64292 1376.40991 0.00073
3684 38.77347 1360.99201 1376.40991 0.00073
3685 38.78183 1361.68462 1421.29004 0.00070
3686 38.79019 1362.72908 1376.40991 0.00073
3687 38.79854 1364.12436 1339.55994 0.00075
3688 38.80690 1365.85998 1391.28992 0.00072
3689 38.81525 1367.93067 1398.76013 0.00071
3690 38.82361 1370.32212 1413.75989 0.00071
3691 38.83196 1373.00739 1361.61011 0.00073
3692 38.84032 1375.94893 1339.55994 0.00075
3693 38.84868 1379.09971 1383.84009 0.00072
3694 38.85703 1382.39937 1354.23999 0.00074
3695 38.86539 1385.78726 1317.68994 0.00076
3696 38.87374 1389.21127 1361.61011 0.00073
3697 38.88210 1392.67032 1428.83997 0.00070
3698 38.89045 1396.24850 1376.40991 0.00073
3699 38.89881 1400.04870 1421.29004 0.00070
3700 38.90716 1404.14859 1444.00000 0.00069
3701 38.91552 1408.61289 1346.89001 0.00074
3702 38.92388 1413.49851 1406.25000 0.00071
3703 38.93223 1418.84810 1376.40991 0.00073
3704 38.94059 1424.68911 1421.29004 0.00070
3705 38.94894 1431.03790 1398.76013 0.00071
3706 38.95730 1437.90942 1391.28992 0.00072
3707 38.96565 1445.33099 1444.00000 0.00069
3708 38.97401 1453.33488 1391.28992 0.00072
3709 38.98237 1461.94357 1436.41016 0.00070
3710 38.99072 1471.24559 1354.23999 0.00074
3711 38.99908 1481.38349 1428.83997 0.00070
3712 39.00743 1492.53382 1474.56006 0.00068
3713 39.01579 1504.94722 1459.24011 0.00069
3714 39.02414 1518.86495 1497.69006 0.00067
3715 39.03250 1534.55275 1474.56006 0.00068
3716 39.04086 1552.40526 1505.43994 0.00066
3717 39.04921 1572.91641 1536.64001 0.00065
3718 39.05757 1596.68418 1536.64001 0.00065
3719 39.06592 1624.46169 1600.00000 0.00063
3720 39.07428 1657.17517 1576.09009 0.00063
3721 39.08263 1695.93099 1536.64001 0.00065
3722 39.09099 1742.00603 1648.35986 0.00061
3723 39.09934 1796.82206 1648.35986 0.00061
3724 39.10770 1861.86857 1780.84009 0.00056
3725 39.11606 1938.58928 1831.83997 0.00055
3726 39.12441 2028.30059 1962.48999 0.00051
3727 39.13277 2131.94775 1989.15991 0.00050
3728 39.14112 2249.74145 2116.00000 0.00047
3729 39.14948 2380.67202 2227.84009 0.00045
3730 39.15783 2521.85214 2450.25000 0.00041
3731 39.16619 2667.69729 2611.20996 0.00038
3732 39.17455 2809.39083 2672.89014 0.00037
3733 39.18290 2935.30586 2926.80981 0.00034
3734 39.19126 3032.77415 3158.44019 0.00032
3735 39.19961 3091.44651 3237.61011 0.00031
3736 39.20797 3106.95672 3364.00000 0.00030
3737 39.21632 3082.93897 3329.29004 0.00030
3738 39.22468 3029.92833 3214.89014 0.00031
3739 39.23303 2961.79953 2970.25000 0.00034
3740 39.24139 2891.77365 2872.95972 0.00035
3741 39.24975 2829.72214 2672.89014 0.00037
3742 39.25810 2781.13993 2704.00000 0.00037
3743 39.26646 2747.17531 2460.15991 0.00041
3744 39.27481 2725.11194 2631.68994 0.00038
3745 39.28317 2709.16575 2641.96021 0.00038
3746 39.29152 2691.87974 2580.63989 0.00039
3747 39.29988 2666.20478 2601.00000 0.00038
3748 39.30824 2627.76191 2809.00000 0.00036
3749 39.31659 2576.21921 2662.55981 0.00038
3750 39.32495 2514.94003 2590.81006 0.00039
3751 39.33330 2449.09980 2500.00000 0.00040
3752 39.34166 2383.52510 2342.56006 0.00043
3753 39.35001 2321.31030 2294.41016 0.00044
3754 39.35837 2263.52925 2162.25000 0.00046
3755 39.36672 2209.78308 2016.01013 0.00050
3756 39.37508 2159.13656 2007.03992 0.00050
3757 39.38344 2110.99428 2025.00000 0.00049
3758 39.39179 2065.54519 1918.43994 0.00052
3759 39.40015 2023.68111 1883.56018 0.00053
3760 39.40850 1986.64692 1797.76013 0.00056
3761 39.41686 1955.58033 1772.40991 0.00056
3762 39.42521 1931.21580 1823.29004 0.00055
3763 39.43357 1913.78300 1789.28992 0.00056
3764 39.44193 1903.05332 1874.88989 0.00053
3765 39.45028 1898.39459 1831.83997 0.00055
3766 39.45864 1898.86435 1772.40991 0.00056
3767 39.46699 1903.37700 1874.88989 0.00053
3768 39.47535 1910.95426 1971.36011 0.00051
3769 39.48370 1920.97824 1857.60986 0.00054
3770 39.49206 1933.25250 1780.84009 0.00056
3771 39.50041 1947.79571 1953.64001 0.00051
3772 39.50877 1964.46870 1971.36011 0.00051
3773 39.51713 1982.64482 1797.76013 0.00056
3774 39.52548 2000.99067 1849.00000 0.00054
3775 39.53384 2017.54998 1883.56018 0.00053
3776 39.54219 2030.07625 2025.00000 0.00049
3777 39.55055 2036.62288 1989.15991 0.00050
3778 39.55890 2036.24145 1900.95984 0.00053
3779 39.56726 2029.44300 1927.21008 0.00052
3780 39.57562 2018.13875 2070.25000 0.00048
3781 39.58397 2005.04094 1944.80981 0.00051
3782 39.59233 1992.85032 1980.25000 0.00050
3783 39.60068 1983.63655 1953.64001 0.00051
3784 39.60904 1978.57127 1918.43994 0.00052
3785 39.61739 1977.94356 1936.00000 0.00052
3786 39.62575 1981.30914 1962.48999 0.00051
3787 39.63411 1987.67564 1918.43994 0.00052
3788 39.64246 1995.76645 2007.03992 0.00050
3789 39.65082 2004.36033 2007.03992 0.00050
3790 39.65917 2012.69668 2034.00989 0.00049
3791 39.66753 2020.81245 2070.25000 0.00048
3792 39.67588 2029.62246 2088.48999 0.00048
3793 39.68424 2040.68862 2034.00989 0.00049
3794 39.69259 2055.83911 2043.04004 0.00049
3795 39.70095 2076.87366 2097.63989 0.00048
3796 39.70931 2105.48947 2043.04004 0.00049
3797 39.71766 2143.35605 2199.61011 0.00045
3798 39.72602 2192.22103 2190.23999 0.00046
3799 39.73437 2253.96540 2218.40991 0.00045
3800 39.74273 2330.63128 2352.25000 0.00043
3801 39.75108 2424.35675 2450.25000 0.00041
3802 39.75944 2537.23101 2652.25000 0.00038
3803 39.76780 2671.22242 2693.61011 0.00037
3804 39.77615 2827.84509 2787.83984 0.00036
3805 39.78451 3007.62022 2981.15991 0.00034
3806 39.79286 3209.58409 3169.68994 0.00032
3807 39.80122 3430.65336 3271.84009 0.00031
3808 39.80957 3665.11811 3457.43994 0.00029
3809 39.81793 3904.48401 3660.25000 0.00027
3810 39.82628 4137.84938 3969.00000 0.00025
3811 39.83464 4352.82934 4070.43994 0.00025
3812 39.84300 4536.89963 4160.25000 0.00024
3813 39.85135 4679.11739 4475.61035 0.00022
3814 39.85971 4772.26682 4624.00000 0.00022
3815 39.86806 4815.10812 4788.63965 0.00021
3816 39.87642 4813.81273 4830.25000 0.00021
3817 39.88477 4781.43772 4900.00000 0.00020
3818 39.89313 4735.10681 4788.63965 0.00021
3819 39.90149 4691.90006 4998.48975 0.00020
3820 39.90984 4665.15266 4900.00000 0.00020
3821 39.91820 4662.41608 4914.00977 0.00020
3822 39.92655 4685.20070 4830.25000 0.00021
3823 39.93491 4729.86030 4816.36035 0.00021
3824 39.94326 4788.95509 4583.28955 0.00022
3825 39.95162 4852.87981 4900.00000 0.00020
3826 39.95997 4911.95690 4802.49023 0.00021
3827 39.96833 4959.10710 4844.15967 0.00021
3828 39.97669 4992.45558 4858.08936 0.00021
3829 39.98504 5016.55124 4942.09033 0.00020
3830 39.99340 5041.08561 4928.03955 0.00020
3831 40.00175 5077.25302 5041.00000 0.00020
3832 40.01011 5133.31955 4900.00000 0.00020
3833 40.01846 5211.13935 4914.00977 0.00020
3834 40.02682 5304.58883 5097.96045 0.00020
3835 40.03518 5400.19512 5140.88965 0.00019
3836 40.04353 5479.97326 4956.16016 0.00020
3837 40.05189 5525.96109 5012.64063 0.00020
3838 40.06024 5524.98236 5270.75977 0.00019
3839 40.06860 5471.74718 5270.75977 0.00019
3840 40.07695 5369.26659 5270.75977 0.00019
3841 40.08531 5227.17050 5140.88965 0.00019
3842 40.09367 5059.21623 5285.28955 0.00019
3843 40.10202 4880.64820 5198.40967 0.00019
3844 40.11038 4705.42790 4970.25000 0.00020
3845 40.11873 4543.64755 4900.00000 0.00020
3846 40.12709 4399.72028 4569.75977 0.00022
3847 40.13544 4272.01082 4342.81006 0.00023
3848 40.14380 4154.00592 4083.21021 0.00024
3849 40.15215 4036.83707 3918.75977 0.00026
3850 40.16051 3912.43056 3757.68994 0.00027
3851 40.16887 3775.89952 3794.55981 0.00026
3852 40.17722 3626.31240 3733.20972 0.00027
3853 40.18558 3465.91256 3684.48999 0.00027
3854 40.19393 3298.79588 3528.36011 0.00028
3855 40.20229 3129.90387 3422.25000 0.00029
3856 40.21064 2964.31560 3271.84009 0.00031
3857 40.21900 2806.64875 3102.48999 0.00032
3858 40.22736 2660.45830 2840.88989 0.00035
3859 40.23571 2527.93600 2787.83984 0.00036
3860 40.24407 2409.97570 2601.00000 0.00038
3861 40.25242 2306.46748 2391.21021 0.00042
3862 40.26078 2216.63479 2313.60986 0.00043
3863 40.26913 2139.31722 2125.20996 0.00047
3864 40.27749 2073.16722 2097.63989 0.00048
3865 40.28584 2016.76605 1998.09009 0.00050
3866 40.29420 1968.67884 2034.00989 0.00049
3867 40.30256 1927.47285 1953.64001 0.00051
3868 40.31091 1891.73663 1900.95984 0.00053
3869 40.31927 1860.13333 1814.75989 0.00055
3870 40.32762 1831.45082 1797.76013 0.00056
3871 40.33598 1804.72193 1806.25000 0.00055
3872 40.34433 1779.35074 1730.55981 0.00058
3873 40.35269 1755.13419 1689.20984 0.00059
3874 40.36105 1732.17080 1738.89001 0.00058
3875 40.36940 1710.70408 1713.96008 0.00058
3876 40.37776 1690.97513 1705.68994 0.00059
3877 40.38611 1673.13197 1640.25000 0.00061
3878 40.39447 1657.19272 1640.25000 0.00061
3879 40.40282 1643.03664 1672.81018 0.00060
3880 40.41118 1630.42326 1624.08997 0.00062
3881 40.41953 1619.03281 1648.35986 0.00061
3882 40.42789 1608.49613 1576.09009 0.00063
3883 40.43625 1598.46640 1608.00989 0.00062
3884 40.44460 1588.70399 1592.01013 0.00063
3885 40.45296 1579.13422 1600.00000 0.00063
3886 40.46131 1569.83535 1600.00000 0.00063
3887 40.46967 1560.96073 1536.64001 0.00065
3888 40.47802 1552.68388 1544.48999 0.00065
3889 40.48638 1545.13830 1576.09009 0.00063
3890 40.49474 1538.39339 1560.25000 0.00064
3891 40.50309 1532.45806 1474.56006 0.00068
3892 40.51145 1527.30740 1568.15991 0.00064
3893 40.51980 1522.89373 1576.09009 0.00063
3894 40.52816 1519.16614 1584.03992 0.00063
3895 40.53651 1516.12162 1648.35986 0.00061
3896 40.54487 1513.78600 1513.21008 0.00066
3897 40.55322 1512.14164 1608.00989 0.00062
3898 40.56158 1511.21736 1592.01013 0.00063
3899 40.56994 1511.04779 1544.48999 0.00065
3900 40.57829 1511.66440 1528.80994 0.00065
3901 40.58665 1513.13225 1632.16016 0.00061
3902 40.59500 1515.53706 1576.09009 0.00063
3903 40.60336 1518.97814 1560.25000 0.00064
3904 40.61171 1523.54933 1632.16016 0.00061
3905 40.62007 1529.36891 1521.00000 0.00066
3906 40.62843 1536.66986 1648.35986 0.00061
3907 40.63678 1545.74355 1624.08997 0.00062
3908 40.64514 1556.94059 1689.20984 0.00059
3909 40.65349 1570.68444 1632.16016 0.00061
3910 40.66185 1587.46454 1672.81018 0.00060
3911 40.67020 1607.83451 1656.49011 0.00060
3912 40.67856 1632.41150 1713.96008 0.00058
3913 40.68692 1661.82457 1738.89001 0.00058
3914 40.69527 1696.67100 1713.96008 0.00058
3915 40.70363 1737.39818 1747.23999 0.00057
3916 40.71198 1784.22003 1840.41016 0.00054
3917 40.72034 1836.99195 1831.83997 0.00055
3918 40.72869 1894.99473 1797.76013 0.00056
3919 40.73705 1956.61784 1927.21008 0.00052
3920 40.74540 2019.05469 1883.56018 0.00053
3921 40.75376 2078.23213 1944.80981 0.00051
3922 40.76212 2129.09172 2034.00989 0.00049
3923 40.77047 2166.49051 2070.25000 0.00048
3924 40.77883 2186.62843 2061.16016 0.00049
3925 40.78718 2188.40449 2106.81006 0.00047
3926 40.79554 2173.93224 2152.96021 0.00046
3927 40.80389 2147.86544 2190.23999 0.00046
3928 40.81225 2115.92566 2134.44019 0.00047
3929 40.82061 2083.41992 2052.08984 0.00049
3930 40.82896 2054.27966 2106.81006 0.00047
3931 40.83732 2030.69249 2079.35986 0.00048
3932 40.84567 2013.18376 1989.15991 0.00050
3933 40.85403 2000.75809 1962.48999 0.00051
3934 40.86238 1991.18132 2007.03992 0.00050
3935 40.87074 1981.44554 2052.08984 0.00049
3936 40.87909 1968.51827 1998.09009 0.00050
3937 40.88745 1950.24745 1953.64001 0.00051
3938 40.89581 1926.05345 1998.09009 0.00050
3939 40.90416 1897.02888 1909.69006 0.00052
3940 40.91252 1865.40787 1892.25000 0.00053
3941 40.92087 1833.74386 1989.15991 0.00050
3942 40.92923 1804.28624 1900.95984 0.00053
3943 40.93758 1778.69536 1797.76013 0.00056
3944 40.94594 1758.02955 1900.95984 0.00053
3945 40.95430 1742.87475 1831.83997 0.00055
3946 40.96265 1733.51803 1866.24011 0.00054
3947 40.97101 1730.04998 1789.28992 0.00056
3948 40.97936 1732.41003 1866.24011 0.00054
3949 40.98772 1740.42604 1823.29004 0.00055
3950 40.99607 1753.76054 1755.61011 0.00057
3951 41.00443 1771.86558 1918.43994 0.00052
3952 41.01278 1793.89249 1857.60986 0.00054
3953 41.02114 1818.53320 1892.25000 0.00053
3954 41.02950 1843.89288 1866.24011 0.00054
3955 41.03785 1867.53653 1962.48999 0.00051
3956 41.04621 1886.83443 2016.01013 0.00050
3957 41.05456 1899.53823 1883.56018 0.00053
3958 41.06292 1904.47073 2070.25000 0.00048
3959 41.07127 1901.97666 1909.69006 0.00052
3960 41.07963 1893.82411 2070.25000 0.00048
3961 41.08799 1882.61305 2034.00989 0.00049
3962 41.09634 1871.05051 1918.43994 0.00052
3963 41.10470 1861.38459 1883.56018 0.00053
3964 41.11305 1855.10205 1927.21008 0.00052
3965 41.12141 1852.90198 2061.16016 0.00049
3966 41.12976 1854.78351 2016.01013 0.00050
3967 41.13812 1860.15229 2007.03992 0.00050
3968 41.14647 1867.96291 2088.48999 0.00048
3969 41.15483 1877.00852 2088.48999 0.00048
3970 41.16319 1886.38225 2079.35986 0.00048
3971 41.17154 1895.89932 2199.61011 0.00045
3972 41.17990 1906.32062 2097.63989 0.00048
3973 41.18825 1919.23921 2190.23999 0.00046
3974 41.19661 1936.76840 2218.40991 0.00045
3975 41.20496 1961.19956 2294.41016 0.00044
3976 41.21332 1994.77770 2256.25000 0.00044
3977 41.22168 2039.57885 2313.60986 0.00043
3978 41.23003 2097.48938 2313.60986 0.00043
3979 41.23839 2170.20538 2590.81006 0.00039
3980 41.24674 2259.21752 2601.00000 0.00038
3981 41.25510 2365.64220 2662.55981 0.00038
3982 41.26345 2489.97853 2662.55981 0.00038
3983 41.27181 2631.68551 2745.76025 0.00036
3984 41.28017 2788.57238 2851.56006 0.00035
3985 41.28852 2956.15563 2862.25000 0.00035
3986 41.29688 3126.83558 2926.80981 0.00034
3987 41.30523 3289.52416 3014.01025 0.00033
3988 41.31359 3430.36560 3036.00977 0.00033
3989 41.32194 3535.06369 3147.20972 0.00032
3990 41.33030 3592.60544 3113.63989 0.00032
3991 41.33865 3598.98619 3203.55981 0.00031
3992 41.34701 3558.89113 3113.63989 0.00032
3993 41.35537 3484.25197 3203.55981 0.00031
3994 41.36372 3390.50672 3260.40991 0.00031
3995 41.37208 3292.49293 3271.84009 0.00031
3996 41.38043 3201.65228 3249.00000 0.00031
3997 41.38879 3124.88407 3340.83984 0.00030
3998 41.39714 3064.46682 3169.68994 0.00032
3999 41.40550 3018.44283 3080.25000 0.00032
4000 41.41386 2981.28057 3069.16016 0.00033
4001 41.42221 2944.97437 3014.01025 0.00033
4002 41.43057 2900.84039 2926.80981 0.00034
4003 41.43892 2841.88575 2787.83984 0.00036
4004 41.44728 2764.90989 2704.00000 0.00037
4005 41.45563 2671.25298 2590.81006 0.00039
4006 41.46399 2565.84426 2540.16016 0.00039
4007 41.47234 2455.17262 2490.01025 0.00040
4008 41.48070 2345.30996 2440.36011 0.00041
4009 41.48906 2240.79826 2391.21021 0.00042
4010 41.49741 2144.46101 2313.60986 0.00043
4011 41.50577 2057.68765 2256.25000 0.00044
4012 41.51412 1980.86546 2237.29004 0.00045
4013 41.52248 1913.72552 2106.81006 0.00047
4014 41.53083 1855.62888 1989.15991 0.00050
4015 41.53919 1805.73755 2016.01013 0.00050
4016 41.54755 1763.12041 1962.48999 0.00051
4017 41.55590 1726.82151 1927.21008 0.00052
4018 41.56426 1695.90692 1927.21008 0.00052
4019 41.57261 1669.50160 1772.40991 0.00056
4020 41.58097 1646.82424 1738.89001 0.00058
4021 41.58932 1627.21674 1764.00000 0.00057
4022 41.59768 1610.16102 1648.35986 0.00061
4023 41.60603 1595.30095 1656.49011 0.00060
4024 41.61439 1582.42752 1656.49011 0.00060
4025 41.62275 1571.42763 1648.35986 0.00061
4026 41.63110 1562.23032 1632.16016 0.00061
4027 41.63946 1554.75023 1640.25000 0.00061
4028 41.64781 1548.86317 1640.25000 0.00061
4029 41.65617 1544.38362 1600.00000 0.00063
4030 41.66452 1541.06599 1600.00000 0.00063
4031 41.67288 1538.61263 1664.63989 0.00060
4032 41.68124 1536.71584 1672.81018 0.00060
4033 41.68959 1535.12548 1640.25000 0.00061
4034 41.69795 1533.73692 1600.00000 0.00063
4035 41.70630 1532.67360 1560.25000 0.00064
4036 41.71466 1532.26779 1592.01013 0.00063
4037 41.72301 1532.98492 1568.15991 0.00064
4038 41.73137 1535.33847 1608.00989 0.00062
4039 41.73973 1539.84716 1528.80994 0.00065
4040 41.74808 1546.95190 1592.01013 0.00063
4041 41.75644 1556.96329 1608.00989 0.00062
4042 41.76479 1570.11197 1722.25000 0.00058
4043 41.77315 1586.53275 1640.25000 0.00061
4044 41.78150 1606.20109 1616.04004 0.00062
4045 41.78986 1628.91340 1672.81018 0.00060
4046 41.79821 1654.24820 1697.44006 0.00059
4047 41.80657 1681.47224 1772.40991 0.00056
4048 41.81493 1709.48891 1738.89001 0.00058
4049 41.82328 1736.77835 1648.35986 0.00061
4050 41.83164 1761.37278 1814.75989 0.00055
4051 41.83999 1781.05891 1713.96008 0.00058
4052 41.84835 1793.73690 1900.95984 0.00053
4053 41.85670 1798.01360 1883.56018 0.00053
4054 41.86506 1793.71875 1849.00000 0.00054
4055 41.87342 1782.02785 1831.83997 0.00055
4056 41.88177 1765.19697 1857.60986 0.00054
4057 41.89013 1745.92264 1874.88989 0.00053
4058 41.89848 1726.63917 1814.75989 0.00055
4059 41.90684 1709.12221 1705.68994 0.00059
4060 41.91519 1694.34190 1738.89001 0.00058
4061 41.92355 1682.48551 1755.61011 0.00057
4062 41.93190 1673.06312 1681.00000 0.00059
4063 41.94026 1665.05157 1632.16016 0.00061
4064 41.94862 1657.08522 1713.96008 0.00058
4065 41.95697 1647.76092 1713.96008 0.00058
4066 41.96533 1636.01710 1624.08997 0.00062
4067 41.97368 1621.42439 1681.00000 0.00059
4068 41.98204 1604.28371 1632.16016 0.00061
4069 41.99039 1585.46867 1689.20984 0.00059
4070 41.99875 1566.11679 1624.08997 0.00062
4071 42.00711 1547.27972 1536.64001 0.00065
4072 42.01546 1529.71238 1497.69006 0.00067
4073 42.02382 1513.84508 1552.36011 0.00064
4074 42.03217 1499.85389 1560.25000 0.00064
4075 42.04053 1487.73009 1568.15991 0.00064
4076 42.04888 1477.24254 1482.25000 0.00067
4077 42.05724 1468.05765 1474.56006 0.00068
4078 42.06559 1459.81497 1474.56006 0.00068
4079 42.07395 1452.25339 1413.75989 0.00071
4080 42.08231 1445.20005 1482.25000 0.00067
4081 42.09066 1438.58275 1383.84009 0.00072
4082 42.09902 1432.44444 1444.00000 0.00069
4083 42.10737 1426.88962 1436.41016 0.00070
4084 42.11573 1422.02942 1428.83997 0.00070
4085 42.12408 1417.95157 1466.88989 0.00068
4086 42.13244 1414.69315 1513.21008 0.00066
4087 42.14080 1412.21142 1482.25000 0.00067
4088 42.14915 1410.43688 1489.95984 0.00067
4089 42.15751 1409.28813 1406.25000 0.00071
4090 42.16586 1408.66875 1406.25000 0.00071
4091 42.17422 1408.47674 1474.56006 0.00068
4092 42.18257 1408.64356 1436.41016 0.00070
4093 42.19093 1409.15304 1361.61011 0.00073
4094 42.19928 1410.05066 1436.41016 0.00070
4095 42.20764 1411.42738 1459.24011 0.00069
4096 42.21600 1413.38497 1451.60986 0.00069
4097 42.22435 1415.99654 1428.83997 0.00070
4098 42.23271 1419.27188 1489.95984 0.00067
4099 42.24106 1423.12960 1376.40991 0.00073
4100 42.24942 1427.37375 1421.29004 0.00070
4101 42.25777 1431.70410 1444.00000 0.00069
4102 42.26613 1435.74346 1428.83997 0.00070
4103 42.27449 1439.09093 1413.75989 0.00071
4104 42.28284 1441.37822 1451.60986 0.00069
4105 42.29120 1442.42203 1459.24011 0.00069
4106 42.29955 1442.29110 1482.25000 0.00067
4107 42.30791 1441.28692 1391.28992 0.00072
4108 42.31626 1439.85075 1482.25000 0.00067
4109 42.32462 1438.44444 1505.43994 0.00066
4110 42.33298 1437.44105 1459.24011 0.00069
4111 42.34133 1437.07283 1444.00000 0.00069
4112 42.34969 1437.48624 1552.36011 0.00064
4113 42.35804 1438.68566 1459.24011 0.00069
4114 42.36640 1440.54765 1421.29004 0.00070
4115 42.37475 1442.90179 1497.69006 0.00067
4116 42.38311 1445.53312 1489.95984 0.00067
4117 42.39146 1448.24716 1436.41016 0.00070
4118 42.39982 1450.90980 1552.36011 0.00064
4119 42.40818 1453.52008 1466.88989 0.00068
4120 42.41653 1456.23354 1459.24011 0.00069
4121 42.42489 1459.33206 1536.64001 0.00065
4122 42.43324 1463.11508 1436.41016 0.00070
4123 42.44160 1467.84088 1497.69006 0.00067
4124 42.44995 1473.74716 1521.00000 0.00066
4125 42.45831 1481.06845 1436.41016 0.00070
4126 42.46667 1490.09531 1536.64001 0.00065
4127 42.47502 1501.12031 1536.64001 0.00065
4128 42.48338 1514.43897 1608.00989 0.00062
4129 42.49173 1530.45239 1616.04004 0.00062
4130 42.50009 1549.65272 1616.04004 0.00062
4131 42.50844 1572.62609 1648.35986 0.00061
4132 42.51680 1600.05945 1697.44006 0.00059
4133 42.52515 1632.73663 1672.81018 0.00060
4134 42.53351 1671.52262 1806.25000 0.00055
4135 42.54187 1717.33453 1806.25000 0.00055
4136 42.55022 1771.09463 1797.76013 0.00056
4137 42.55858 1833.65446 1971.36011 0.00051
4138 42.56693 1905.69314 2079.35986 0.00048
4139 42.57529 1987.59119 2043.04004 0.00049
4140 42.58364 2079.19396 2116.00000 0.00047
4141 42.59200 2179.49562 2125.20996 0.00047
4142 42.60036 2286.25114 2209.00000 0.00045
4143 42.60871 2395.55520 2237.29004 0.00045
4144 42.61707 2501.57606 2391.21021 0.00042
4145 42.62542 2596.80386 2323.23999 0.00043
4146 42.63378 2673.08558 2420.64014 0.00041
4147 42.64213 2723.49745 2520.04004 0.00040
4148 42.65049 2744.46836 2631.68994 0.00038
4149 42.65884 2737.09345 2704.00000 0.00037
4150 42.66720 2706.82059 2641.96021 0.00038
4151 42.67556 2661.77141 2520.04004 0.00040
4152 42.68391 2610.56034 2704.00000 0.00037
4153 42.69227 2560.55742 2611.20996 0.00038
4154 42.70062 2517.00488 2631.68994 0.00038
4155 42.70898 2482.79364 2672.89014 0.00037
4156 42.71733 2458.53709 2580.63989 0.00039
4157 42.72569 2442.78029 2470.09009 0.00040
4158 42.73405 2432.32955 2480.04004 0.00040
4159 42.74240 2422.89661 2430.48999 0.00041
4160 42.75076 2410.16529 2420.64014 0.00041
4161 42.75911 2391.03243 2352.25000 0.00043
4162 42.76747 2364.56249 2401.00000 0.00042
4163 42.77582 2332.20234 2332.88989 0.00043
4164 42.78418 2297.01580 2294.41016 0.00044
4165 42.79253 2262.50016 2227.84009 0.00045
4166 42.80089 2231.56588 2256.25000 0.00044
4167 42.80925 2205.85050 2265.75977 0.00044
4168 42.81760 2185.55173 2246.76025 0.00045
4169 42.82596 2169.47921 2218.40991 0.00045
4170 42.83431 2155.27822 2265.75977 0.00044
4171 42.84267 2139.89983 2171.55981 0.00046
4172 42.85102 2120.36173 2180.89014 0.00046
4173 42.85938 2094.64164 2125.20996 0.00047
4174 42.86774 2062.33861 2070.25000 0.00048
4175 42.87609 2024.74196 1962.48999 0.00051
4176 42.88445 1984.33316 2043.04004 0.00049
4177 42.89280 1943.96535 1998.09009 0.00050
4178 42.90116 1906.13621 1980.25000 0.00050
4179 42.90951 1872.58451 1892.25000 0.00053
4180 42.91787 1844.14096 1892.25000 0.00053
4181 42.92623 1820.79362 1814.75989 0.00055
4182 42.93458 1801.77926 1806.25000 0.00055
4183 42.94294 1785.69464 1705.68994 0.00059
4184 42.95129 1770.69367 1780.84009 0.00056
4185 42.95965 1754.85164 1780.84009 0.00056
4186 42.96800 1736.62534 1772.40991 0.00056
4187 42.97636 1715.26645 1713.96008 0.00058
4188 42.98471 1690.97901 1738.89001 0.00058
4189 42.99307 1664.75288 1681.00000 0.00059
4190 43.00143 1637.96354 1592.01013 0.00063
4191 43.00978 1611.84702 1624.08997 0.00062
4192 43.01814 1587.29677 1600.00000 0.00063
4193 43.02649 1564.83637 1576.09009 0.00063
4194 43.03485 1544.66608 1560.25000 0.00064
4195 43.04320 1526.68072 1624.08997 0.00062
4196 43.05156 1510.57449 1560.25000 0.00064
4197 43.05992 1495.96838 1600.00000 0.00063
4198 43.06827 1482.50359 1536.64001 0.00065
4199 43.07663 1469.92131 1444.00000 0.00069
4200 43.08498 1458.10826 1521.00000 0.00066
4201 43.09334 1447.07754 1521.00000 0.00066
4202 43.10169 1436.90373 1444.00000 0.00069
4203 43.11005 1427.67261 1413.75989 0.00071
4204 43.11840 1419.43794 1459.24011 0.00069
4205 43.12676 1412.21620 1421.29004 0.00070
4206 43.13512 1405.94093 1497.69006 0.00067
4207 43.14347 1400.49630 1421.29004 0.00070
4208 43.15183 1395.75657 1513.21008 0.00066
4209 43.16018 1391.54527 1428.83997 0.00070
4210 43.16854 1387.65670 1474.56006 0.00068
4211 43.17689 1383.91731 1451.60986 0.00069
4212 43.18525 1380.20447 1413.75989 0.00071
4213 43.19361 1376.47420 1428.83997 0.00070
4214 43.20196 1372.78999 1421.29004 0.00070
4215 43.21032 1369.21287 1361.61011 0.00073
4216 43.21867 1365.82899 1451.60986 0.00069
4217 43.22703 1362.72955 1474.56006 0.00068
4218 43.23538 1359.97927 1369.00000 0.00073
4219 43.24374 1357.62333 1391.28992 0.00072
4220 43.25209 1355.68541 1361.61011 0.00073
4221 43.26045 1354.16200 1383.84009 0.00072
4222 43.26881 1353.06514 1310.44006 0.00076
4223 43.27716 1352.41734 1406.25000 0.00071
4224 43.28552 1352.23958 1428.83997 0.00070
4225 43.29387 1352.55466 1376.40991 0.00073
4226 43.30223 1353.39524 1361.61011 0.00073
4227 43.31058 1354.82293 1383.84009 0.00072
4228 43.31894 1356.90344 1406.25000 0.00071
4229 43.32730 1359.70945 1406.25000 0.00071
4230 43.33565 1363.32257 1346.89001 0.00074
4231 43.34401 1367.83827 1361.61011 0.00073
4232 43.35236 1373.34807 1369.00000 0.00073
4233 43.36072 1379.93092 1391.28992 0.00072
4234 43.36907 1387.65956 1398.76013 0.00071
4235 43.37743 1396.61471 1346.89001 0.00074
4236 43.38579 1406.78216 1451.60986 0.00069
4237 43.39414 1418.06285 1444.00000 0.00069
4238 43.40250 1430.27564 1444.00000 0.00069
4239 43.41085 1442.98720 1451.60986 0.00069
4240 43.41921 1455.54309 1459.24011 0.00069
4241 43.42756 1467.09226 1398.76013 0.00071
4242 43.43592 1476.68198 1513.21008 0.00066
4243 43.44427 1483.39354 1436.41016 0.00070
4244 43.45263 1486.60602 1489.95984 0.00067
4245 43.46099 1486.23749 1482.25000 0.00067
4246 43.46934 1482.77390 1451.60986 0.00069
4247 43.47770 1477.12185 1451.60986 0.00069
4248 43.48605 1470.35179 1436.41016 0.00070
4249 43.49441 1463.44969 1459.24011 0.00069
4250 43.50276 1457.16264 1466.88989 0.00068
4251 43.51112 1451.94583 1474.56006 0.00068
4252 43.51948 1447.97006 1497.69006 0.00067
4253 43.52783 1445.13933 1513.21008 0.00066
4254 43.53619 1443.11112 1489.95984 0.00067
4255 43.54454 1441.34748 1428.83997 0.00070
4256 43.55290 1439.25603 1466.88989 0.00068
4257 43.56125 1436.32532 1354.23999 0.00074
4258 43.56961 1432.23920 1466.88989 0.00068
4259 43.57796 1426.97571 1505.43994 0.00066
4260 43.58632 1420.78569 1459.24011 0.00069
4261 43.59468 1414.08627 1451.60986 0.00069
4262 43.60303 1407.33041 1317.68994 0.00076
4263 43.61139 1400.90571 1398.76013 0.00071
4264 43.61974 1395.09783 1391.28992 0.00072
4265 43.62810 1390.07012 1398.76013 0.00071
4266 43.63645 1385.91189 1369.00000 0.00073
4267 43.64481 1382.67960 1354.23999 0.00074
4268 43.65317 1380.39514 1398.76013 0.00071
4269 43.66152 1379.05390 1383.84009 0.00072
4270 43.66988 1378.66616 1421.29004 0.00070
4271 43.67823 1379.25722 1459.24011 0.00069
4272 43.68659 1380.85932 1436.41016 0.00070
4273 43.69494 1383.52549 1346.89001 0.00074
4274 43.70330 1387.34037 1451.60986 0.00069
4275 43.71165 1392.40727 1474.56006 0.00068
4276 43.72001 1398.84788 1324.96008 0.00075
4277 43.72837 1406.80752 1376.40991 0.00073
4278 43.73672 1416.44208 1474.56006 0.00068
4279 43.74508 1427.87802 1459.24011 0.00069
4280 43.75343 1441.22727 1451.60986 0.00069
4281 43.76179 1456.56176 1497.69006 0.00067
4282 43.77014 1473.86410 1513.21008 0.00066
4283 43.77850 1493.03231 1505.43994 0.00066
4284 43.78686 1513.70447 1592.01013 0.00063
4285 43.79521 1535.21886 1528.80994 0.00065
4286 43.80357 1556.59740 1544.48999 0.00065
4287 43.81192 1576.53020 1648.35986 0.00061
4288 43.82028 1593.49397 1584.03992 0.00063
4289 43.82863 1606.03807 1648.35986 0.00061
4290 43.83699 1613.16473 1764.00000 0.00057
4291 43.84534 1614.65099 1616.04004 0.00062
4292 43.85370 1611.17258 1640.25000 0.00061
4293 43.86206 1604.09444 1600.00000 0.00063
4294 43.87041 1595.07695 1584.03992 0.00063
4295 43.87877 1585.69723 1600.00000 0.00063
4296 43.88712 1577.19279 1608.00989 0.00062
4297 43.89548 1570.36326 1544.48999 0.00065
4298 43.90383 1565.54337 1616.04004 0.00062
4299 43.91219 1562.64166 1544.48999 0.00065
4300 43.92055 1561.20128 1608.00989 0.00062
4301 43.92890 1560.47839 1552.36011 0.00064
4302 43.93726 1559.56280 1528.80994 0.00065
4303 43.94561 1557.58273 1600.00000 0.00063
4304 43.95397 1553.93723 1560.25000 0.00064
4305 43.96232 1548.45530 1584.03992 0.00063
4306 43.97068 1541.42829 1536.64001 0.00065
4307 43.97904 1533.48226 1497.69006 0.00067
4308 43.98739 1525.39540 1600.00000 0.00063
4309 43.99575 1517.84126 1552.36011 0.00064
4310 44.00410 1511.28634 1584.03992 0.00063
4311 44.01246 1506.04440 1466.88989 0.00068
4312 44.02081 1502.31159 1444.00000 0.00069
4313 44.02917 1500.20203 1568.15991 0.00064
4314 44.03752 1499.72920 1544.48999 0.00065
4315 44.04588 1500.89070 1552.36011 0.00064
4316 44.05424 1503.68475 1489.95984 0.00067
4317 44.06259 1508.10736 1560.25000 0.00064
4318 44.07095 1514.17996 1497.69006 0.00067
4319 44.07930 1521.95486 1552.36011 0.00064
4320 44.08766 1531.50606 1536.64001 0.00065
4321 44.09601 1542.95729 1552.36011 0.00064
4322 44.10437 1556.50254 1528.80994 0.00065
4323 44.11273 1572.40401 1513.21008 0.00066
4324 44.12108 1591.00230 1632.16016 0.00061
4325 44.12944 1612.74239 1616.04004 0.00062
4326 44.13779 1638.19675 1576.09009 0.00063
4327 44.14615 1668.05244 1713.96008 0.00058
4328 44.15450 1703.12340 1730.55981 0.00058
4329 44.16286 1744.35814 1648.35986 0.00061
4330 44.17121 1792.81940 1705.68994 0.00059
4331 44.17957 1849.66047 1755.61011 0.00057
4332 44.18793 1916.10033 1764.00000 0.00057
4333 44.19628 1993.33901 1831.83997 0.00055
4334 44.20464 2082.46813 1944.80981 0.00051
4335 44.21299 2184.35837 2106.81006 0.00047
4336 44.22135 2299.47857 2227.84009 0.00045
4337 44.22970 2427.63697 2284.83984 0.00044
4338 44.23806 2567.60737 2420.64014 0.00041
4339 44.24642 2716.60843 2550.25000 0.00039
4340 44.25477 2869.77629 2798.41016 0.00036
4341 44.26313 3019.76938 3047.04004 0.00033
4342 44.27148 3156.88834 3317.75977 0.00030
4343 44.27984 3270.10386 3708.81030 0.00027
4344 44.28819 3349.18224 3981.60986 0.00025
4345 44.29655 3387.92671 3994.23999 0.00025
4346 44.30490 3385.92371 3969.00000 0.00025
4347 44.31326 3348.96899 3881.28979 0.00026
4348 44.32162 3287.32169 3612.00977 0.00028
4349 44.32997 3212.80814 3387.23999 0.00030
4350 44.33833 3136.17793 3147.20972 0.00032
4351 44.34668 3065.46687 2862.25000 0.00035
4352 44.35504 3005.43595 2787.83984 0.00036
4353 44.36339 2957.69559 2787.83984 0.00036
4354 44.37175 2921.04270 2735.29004 0.00037
4355 44.38011 2891.89870 2840.88989 0.00035
4356 44.38846 2864.80833 2777.29004 0.00036
4357 44.39682 2833.39023 2937.64014 0.00034
4358 44.40517 2791.76002 3058.08984 0.00033
4359 44.41353 2736.08034 2970.25000 0.00034
4360 44.42188 2665.62489 2872.95972 0.00035
4361 44.43024 2582.77552 2809.00000 0.00036
4362 44.43859 2491.96984 2621.44019 0.00038
4363 44.44695 2398.22246 2510.00977 0.00040
4364 44.45531 2305.91328 2342.56006 0.00043
4365 44.46366 2218.19771 2209.00000 0.00045
4366 44.47202 2136.96253 2052.08984 0.00049
4367 44.48037 2063.08089 1980.25000 0.00050
4368 44.48873 1996.75860 1962.48999 0.00051
4369 44.49708 1937.83562 1823.29004 0.00055
4370 44.50544 1885.95957 1772.40991 0.00056
4371 44.51380 1840.70306 1797.76013 0.00056
4372 44.52215 1801.61810 1689.20984 0.00059
4373 44.53051 1768.24616 1705.68994 0.00059
4374 44.53886 1740.13479 1656.49011 0.00060
4375 44.54722 1716.86226 1772.40991 0.00056
4376 44.55557 1698.05893 1648.35986 0.00061
4377 44.56393 1683.42064 1616.04004 0.00062
4378 44.57229 1672.71256 1664.63989 0.00060
4379 44.58064 1665.77643 1632.16016 0.00061
4380 44.58900 1662.52256 1672.81018 0.00060
4381 44.59735 1662.91553 1648.35986 0.00061
4382 44.60571 1666.96434 1616.04004 0.00062
4383 44.61406 1674.68836 1681.00000 0.00059
4384 44.62242 1686.07680 1632.16016 0.00061
4385 44.63077 1701.08948 1705.68994 0.00059
4386 44.63913 1719.58921 1656.49011 0.00060
4387 44.64749 1741.26195 1713.96008 0.00058
4388 44.65584 1765.52798 1697.44006 0.00059
4389 44.66420 1791.44445 1730.55981 0.00058
4390 44.67255 1817.63644 1789.28992 0.00056
4391 44.68091 1842.32061 1918.43994 0.00052
4392 44.68926 1863.49659 1883.56018 0.00053
4393 44.69762 1879.33647 1866.24011 0.00054
4394 44.70598 1888.68484 1989.15991 0.00050
4395 44.71433 1891.45292 1927.21008 0.00052
4396 44.72269 1888.69851 1962.48999 0.00051
4397 44.73104 1882.34288 1936.00000 0.00052
4398 44.73940 1874.67448 1980.25000 0.00050
4399 44.74775 1867.87220 1840.41016 0.00054
4400 44.75611 1863.70788 1857.60986 0.00054
4401 44.76446 1863.45076 1874.88989 0.00053
4402 44.77282 1867.85624 1927.21008 0.00052
4403 44.78118 1877.18202 1918.43994 0.00052
4404 44.78953 1891.33612 1944.80981 0.00051
4405 44.79789 1909.88111 1936.00000 0.00052
4406 44.80624 1932.18065 1989.15991 0.00050
4407 44.81460 1957.66295 1962.48999 0.00051
4408 44.82295 1986.08923 2007.03992 0.00050
4409 44.83131 2017.75396 2097.63989 0.00048
4410 44.83967 2053.49832 2116.00000 0.00047
4411 44.84802 2094.43216 2180.89014 0.00046
4412 44.85638 2141.61909 2304.00000 0.00043
4413 44.86473 2195.67219 2304.00000 0.00043
4414 44.87309 2256.44485 2342.56006 0.00043
4415 44.88144 2322.83965 2371.69019 0.00042
4416 44.88980 2392.67497 2440.36011 0.00041
4417 44.89815 2462.76188 2500.00000 0.00040
4418 44.90651 2529.08719 2520.04004 0.00040
4419 44.91487 2587.18142 2540.16016 0.00039
4420 44.92322 2632.71746 2490.01025 0.00040
4421 44.93158 2662.18661 2652.25000 0.00038
4422 44.93993 2673.61834 2621.44019 0.00038
4423 44.94829 2667.13950 2550.25000 0.00039
4424 44.95664 2645.16783 2631.68994 0.00038
4425 44.96500 2612.00764 2601.00000 0.00038
4426 44.97336 2572.90395 2540.16016 0.00039
4427 44.98171 2532.94177 2510.00977 0.00040
4428 44.99007 2496.17560 2570.48999 0.00039
4429 44.99842 2465.13596 2550.25000 0.00039
4430 45.00678 2440.75111 2570.48999 0.00039
4431 45.01513 2422.53206 2530.08984 0.00040
4432 45.02349 2408.91851 2662.55981 0.00038
4433 45.03185 2397.68120 2450.25000 0.00041
4434 45.04020 2386.40882 2530.08984 0.00040
4435 45.04856 2372.94459 2391.21021 0.00042
4436 45.05691 2355.83202 2410.80981 0.00041
4437 45.06527 2334.72787 2361.95996 0.00042
4438 45.07362 2310.61696 2275.29004 0.00044
4439 45.08198 2285.62138 2275.29004 0.00044
4440 45.09033 2262.56020 2190.23999 0.00046
4441 45.09869 2244.45115 2209.00000 0.00045
4442 45.10705 2234.03092 2106.81006 0.00047
4443 45.11540 2233.57161 2237.29004 0.00045
4444 45.12376 2244.84749 2237.29004 0.00045
4445 45.13211 2269.22431 2275.29004 0.00044
4446 45.14047 2307.73434 2352.25000 0.00043
4447 45.14882 2361.07891 2391.21021 0.00042
4448 45.15718 2429.58372 2410.80981 0.00041
4449 45.16554 2513.07845 2560.35986 0.00039
4450 45.17389 2610.67960 2809.00000 0.00036
4451 45.18225 2720.46827 2937.64014 0.00034
4452 45.19060 2839.08755 3036.00977 0.00033
4453 45.19896 2961.36077 3306.25000 0.00030
4454 45.20731 3080.12182 3398.88989 0.00029
4455 45.21567 3186.55739 3516.48999 0.00028
4456 45.22402 3271.31546 3540.25000 0.00028
4457 45.23238 3326.34830 3552.15991 0.00028
4458 45.24074 3346.96778 3364.00000 0.00030
4459 45.24909 3333.26591 3398.88989 0.00029
4460 45.25745 3290.18333 3271.84009 0.00031
4461 45.26580 3226.16116 3237.61011 0.00031
4462 45.27416 3151.01781 3080.25000 0.00032
4463 45.28251 3073.93039 3003.03979 0.00033
4464 45.29087 3002.07276 2926.80981 0.00034
4465 45.29923 2940.02332 2937.64014 0.00034
4466 45.30758 2889.74994 2851.56006 0.00035
4467 45.31594 2850.75060 2948.48999 0.00034
4468 45.32429 2820.33870 2883.69019 0.00035
4469 45.33265 2794.11178 2840.88989 0.00035
4470 45.34100 2766.70995 2798.41016 0.00036
4471 45.34936 2732.92411 2819.60986 0.00035
4472 45.35771 2688.96003 2704.00000 0.00037
4473 45.36607 2633.40052 2601.00000 0.00038
4474 45.37443 2567.41752 2520.04004 0.00040
4475 45.38278 2494.20800 2401.00000 0.00042
4476 45.39114 2417.96917 2371.69019 0.00042
4477 45.39949 2342.79037 2237.29004 0.00045
4478 45.40785 2271.94189 2199.61011 0.00045
4479 45.41620 2207.66015 2134.44019 0.00047
4480 45.42456 2151.20289 2143.68994 0.00047
4481 45.43292 2102.99962 2043.04004 0.00049
4482 45.44127 2062.80375 2061.16016 0.00049
4483 45.44963 2029.81206 2034.00989 0.00049
4484 45.45798 2002.75675 2097.63989 0.00048
4485 45.46634 1979.98922 2007.03992 0.00050
4486 45.47469 1959.65428 1998.09009 0.00050
4487 45.48305 1939.95589 1840.41016 0.00054
4488 45.49140 1919.48524 1909.69006 0.00052
4489 45.49976 1897.51117 1866.24011 0.00054
4490 45.50812 1874.07437 1823.29004 0.00055
4491 45.51647 1849.85455 1797.76013 0.00056
4492 45.52483 1825.88845 1780.84009 0.00056
4493 45.53318 1803.25982 1730.55981 0.00058
4494 45.54154 1782.84664 1713.96008 0.00058
4495 45.54989 1765.21531 1755.61011 0.00057
4496 45.55825 1750.61930 1831.83997 0.00055
4497 45.56661 1739.01209 1772.40991 0.00056
4498 45.57496 1730.05889 1806.25000 0.00055
4499 45.58332 1723.18073 1780.84009 0.00056
4500 45.59167 1717.65795 1681.00000 0.00059
4501 45.60003 1712.73954 1780.84009 0.00056
4502 45.60838 1707.81330 1772.40991 0.00056
4503 45.61674 1702.61898 1664.63989 0.00060
4504 45.62510 1697.30253 1713.96008 0.00058
4505 45.63345 1692.37450 1738.89001 0.00058
4506 45.64181 1688.58060 1764.00000 0.00057
4507 45.65016 1686.70807 1697.44006 0.00059
4508 45.65852 1687.52057 1656.49011 0.00060
4509 45.66687 1691.70450 1664.63989 0.00060
4510 45.67523 1699.74785 1747.23999 0.00057
4511 45.68358 1712.03652 1632.16016 0.00061
4512 45.69194 1728.84826 1780.84009 0.00056
4513 45.70030 1750.34590 1664.63989 0.00060
4514 45.70865 1776.54957 1764.00000 0.00057
4515 45.71701 1807.28912 1806.25000 0.00055
4516 45.72536 1842.11332 1806.25000 0.00055
4517 45.73372 1880.18256 1883.56018 0.00053
4518 45.74207 1920.16438 1814.75989 0.00055
4519 45.75043 1960.19706 1849.00000 0.00054
4520 45.75879 1998.00073 1857.60986 0.00054
4521 45.76714 2031.19370 1874.88989 0.00053
4522 45.77550 2057.83498 1892.25000 0.00053
4523 45.78385 2077.01565 1953.64001 0.00051
4524 45.79221 2089.21056 1909.69006 0.00052
4525 45.80056 2096.29107 1909.69006 0.00052
4526 45.80892 2101.01284 1998.09009 0.00050
4527 45.81727 2106.37810 1953.64001 0.00051
4528 45.82563 2115.06295 2190.23999 0.00046
4529 45.83399 2129.02204 2143.68994 0.00047
4530 45.84234 2149.28453 2162.25000 0.00046
4531 45.85070 2175.85371 2294.41016 0.00044
4532 45.85905 2207.63779 2237.29004 0.00045
4533 45.86741 2242.39941 2332.88989 0.00043
4534 45.87576 2276.79607 2361.95996 0.00042
4535 45.88412 2306.68638 2371.69019 0.00042
4536 45.89248 2327.79267 2450.25000 0.00041
4537 45.90083 2336.51873 2332.88989 0.00043
4538 45.90919 2330.99371 2371.69019 0.00042
4539 45.91754 2311.61008 2342.56006 0.00043
4540 45.92590 2280.89950 2323.23999 0.00043
4541 45.93425 2242.77154 2199.61011 0.00045
4542 45.94261 2201.49629 2190.23999 0.00046
4543 45.95096 2160.90829 2180.89014 0.00046
4544 45.95932 2123.93917 2134.44019 0.00047
4545 45.96768 2092.49676 2134.44019 0.00047
4546 45.97603 2067.52342 2237.29004 0.00045
4547 45.98439 2049.10636 2025.00000 0.00049
4548 45.99274 2036.60656 2152.96021 0.00046
4549 46.00110 2028.80107 2088.48999 0.00048
4550 46.00945 2024.09197 2079.35986 0.00048
4551 46.01781 2020.84622 2052.08984 0.00049
4552 46.02617 2017.80667 2061.16016 0.00049
4553 46.03452 2014.38415 2199.61011 0.00045
4554 46.04288 2010.79787 2007.03992 0.00050
4555 46.05123 2007.91212 2070.25000 0.00048
4556 46.05959 2006.85586 2061.16016 0.00049
4557 46.06794 2008.61537 2097.63989 0.00048
4558 46.07630 2013.76186 2070.25000 0.00048
4559 46.08465 2022.37987 2007.03992 0.00050
4560 46.09301 2034.15787 1962.48999 0.00051
4561 46.10137 2048.62416 2034.00989 0.00049
4562 46.10972 2065.44655 2079.35986 0.00048
4563 46.11808 2084.66903 2088.48999 0.00048
4564 46.12643 2106.81093 2061.16016 0.00049
4565 46.13479 2132.71299 2025.00000 0.00049
4566 46.14314 2163.19846 2152.96021 0.00046
4567 46.15150 2198.70819 2143.68994 0.00047
4568 46.15986 2238.95494 2275.29004 0.00044
4569 46.16821 2282.64838 2371.69019 0.00042
4570 46.17657 2327.38030 2304.00000 0.00043
4571 46.18492 2369.75529 2470.09009 0.00040
4572 46.19328 2405.84565 2410.80981 0.00041
4573 46.20163 2431.94957 2430.48999 0.00041
4574 46.20999 2445.52317 2420.64014 0.00041
4575 46.21835 2445.92070 2342.56006 0.00043
4576 46.22670 2434.63343 2440.36011 0.00041
4577 46.23506 2414.90517 2490.01025 0.00040
4578 46.24341 2390.84902 2401.00000 0.00042
4579 46.25177 2366.59965 2410.80981 0.00041
4580 46.26012 2345.63179 2371.69019 0.00042
4581 46.26848 2330.35248 2342.56006 0.00043
4582 46.27683 2321.90618 2371.69019 0.00042
4583 46.28519 2320.10271 2313.60986 0.00043
4584 46.29355 2323.42274 2323.23999 0.00043
4585 46.30190 2329.10481 2391.21021 0.00042
4586 46.31026 2333.43193 2332.88989 0.00043
4587 46.31861 2332.32508 2420.64014 0.00041
4588 46.32697 2322.19988 2352.25000 0.00043
4589 46.33532 2300.87635 2265.75977 0.00044
4590 46.34368 2268.15829 2265.75977 0.00044
4591 46.35204 2225.82067 2275.29004 0.00044
4592 46.36039 2176.97943 2237.29004 0.00045
4593 46.36875 2125.21129 2052.08984 0.00049
4594 46.37710 2073.79891 2034.00989 0.00049
4595 46.38546 2025.28184 2052.08984 0.00049
4596 46.39381 1981.33804 2034.00989 0.00049
4597 46.40217 1942.84507 1900.95984 0.00053
4598 46.41052 1910.00165 1883.56018 0.00053
4599 46.41888 1882.43324 1900.95984 0.00053
4600 46.42724 1859.30849 1874.88989 0.00053
4601 46.43559 1839.53335 1831.83997 0.00055
4602 46.44395 1821.90859 1874.88989 0.00053
4603 46.45230 1805.38058 1883.56018 0.00053
4604 46.46066 1789.29347 1849.00000 0.00054
4605 46.46901 1773.50201 1755.61011 0.00057
4606 46.47737 1758.34500 1747.23999 0.00057
4607 46.48573 1744.46840 1738.89001 0.00058
4608 46.49408 1732.61383 1738.89001 0.00058
4609 46.50244 1723.44602 1797.76013 0.00056
4610 46.51079 1717.35192 1772.40991 0.00056
4611 46.51915 1714.39043 1697.44006 0.00059
4612 46.52750 1714.33642 1656.49011 0.00060
4613 46.53586 1716.64441 1705.68994 0.00059
4614 46.54421 1720.44148 1681.00000 0.00059
4615 46.55257 1724.59272 1764.00000 0.00057
4616 46.56093 1727.82007 1747.23999 0.00057
4617 46.56928 1728.92132 1747.23999 0.00057
4618 46.57764 1727.04753 1722.25000 0.00058
4619 46.58599 1721.93219 1722.25000 0.00058
4620 46.59435 1713.96200 1689.20984 0.00059
4621 46.60270 1704.06565 1681.00000 0.00059
4622 46.61106 1693.45696 1747.23999 0.00057
4623 46.61942 1683.35562 1681.00000 0.00059
4624 46.62777 1674.78131 1713.96008 0.00058
4625 46.63613 1668.45129 1797.76013 0.00056
4626 46.64448 1664.74529 1689.20984 0.00059
4627 46.65284 1663.70742 1747.23999 0.00057
4628 46.66119 1665.08924 1689.20984 0.00059
4629 46.66955 1668.40243 1780.84009 0.00056
4630 46.67791 1672.98951 1624.08997 0.00062
4631 46.68626 1678.16605 1681.00000 0.00059
4632 46.69462 1683.40490 1656.49011 0.00060
4633 46.70297 1688.47808 1632.16016 0.00061
4634 46.71133 1693.52718 1681.00000 0.00059
4635 46.71968 1699.01432 1681.00000 0.00059
4636 46.72804 1705.52427 1730.55981 0.00058
4637 46.73639 1713.54817 1592.01013 0.00063
4638 46.74475 1723.28429 1755.61011 0.00057
4639 46.75311 1734.49424 1713.96008 0.00058
4640 46.76146 1746.43431 1738.89001 0.00058
4641 46.76982 1757.87964 1722.25000 0.00058
4642 46.77817 1767.26733 1730.55981 0.00058
4643 46.78653 1772.97078 1738.89001 0.00058
4644 46.79488 1773.68756 1772.40991 0.00056
4645 46.80324 1768.80243 1672.81018 0.00060
4646 46.81160 1758.55857 1689.20984 0.00059
4647 46.81995 1743.98095 1672.81018 0.00060
4648 46.82831 1726.58339 1689.20984 0.00059
4649 46.83666 1707.99340 1730.55981 0.00058
4650 46.84502 1689.64926 1648.35986 0.00061
4651 46.85337 1672.65213 1689.20984 0.00059
4652 46.86173 1657.71299 1656.49011 0.00060
4653 46.87008 1645.09508 1568.15991 0.00064
4654 46.87844 1634.68876 1616.04004 0.00062
4655 46.88680 1626.04167 1528.80994 0.00065
4656 46.89515 1618.42356 1552.36011 0.00064
4657 46.90351 1610.93685 1489.95984 0.00067
4658 46.91186 1602.67963 1568.15991 0.00064
4659 46.92022 1592.95756 1648.35986 0.00061
4660 46.92857 1581.46054 1474.56006 0.00068
4661 46.93693 1568.32474 1521.00000 0.00066
4662 46.94529 1554.05259 1624.08997 0.00062
4663 46.95364 1539.31797 1560.25000 0.00064
4664 46.96200 1524.80008 1521.00000 0.00066
4665 46.97035 1511.06958 1528.80994 0.00065
4666 46.97871 1498.56295 1474.56006 0.00068
4667 46.98706 1487.57952 1544.48999 0.00065
4668 46.99542 1478.30697 1505.43994 0.00066
4669 47.00377 1470.84845 1497.69006 0.00067
4670 47.01213 1465.24096 1421.29004 0.00070
4671 47.02049 1461.46809 1497.69006 0.00067
4672 47.02884 1459.46115 1521.00000 0.00066
4673 47.03720 1459.09571 1528.80994 0.00065
4674 47.04555 1460.18191 1444.00000 0.00069
4675 47.05391 1462.45843 1466.88989 0.00068
4676 47.06226 1465.56879 1459.24011 0.00069
4677 47.07062 1469.05177 1528.80994 0.00065
4678 47.07898 1472.38193 1459.24011 0.00069
4679 47.08733 1475.04175 1505.43994 0.00066
4680 47.09569 1476.58961 1521.00000 0.00066
4681 47.10404 1476.76260 1576.09009 0.00063
4682 47.11240 1475.56749 1568.15991 0.00064
4683 47.12075 1473.26731 1552.36011 0.00064
4684 47.12911 1470.31012 1497.69006 0.00067
4685 47.13746 1467.22627 1474.56006 0.00068
4686 47.14582 1464.52224 1466.88989 0.00068
4687 47.15418 1462.61993 1513.21008 0.00066
4688 47.16253 1461.83375 1505.43994 0.00066
4689 47.17089 1462.34550 1421.29004 0.00070
4690 47.17924 1464.22429 1536.64001 0.00065
4691 47.18760 1467.45538 1451.60986 0.00069
4692 47.19595 1471.95307 1398.76013 0.00071
4693 47.20431 1477.52631 1552.36011 0.00064
4694 47.21267 1483.95867 1497.69006 0.00067
4695 47.22102 1491.06065 1584.03992 0.00063
4696 47.22938 1498.72641 1482.25000 0.00067
4697 47.23773 1506.93985 1528.80994 0.00065
4698 47.24609 1515.75308 1513.21008 0.00066
4699 47.25444 1525.21187 1552.36011 0.00064
4700 47.26280 1535.26258 1505.43994 0.00066
4701 47.27116 1545.67003 1624.08997 0.00062
4702 47.27951 1555.97623 1608.00989 0.00062
4703 47.28787 1565.52155 1608.00989 0.00062
4704 47.29622 1573.52976 1584.03992 0.00063
4705 47.30458 1579.27968 1689.20984 0.00059
4706 47.31293 1582.30444 1672.81018 0.00060
4707 47.32129 1582.54451 1576.09009 0.00063
4708 47.32964 1580.38719 1592.01013 0.00063
4709 47.33800 1576.56005 1648.35986 0.00061
4710 47.34636 1571.95428 1648.35986 0.00061
4711 47.35471 1567.45798 1632.16016 0.00061
4712 47.36307 1563.85430 1600.00000 0.00063
4713 47.37142 1561.68832 1632.16016 0.00061
4714 47.37978 1561.26244 1632.16016 0.00061
4715 47.38813 1562.69393 1640.25000 0.00061
4716 47.39649 1565.92878 1560.25000 0.00064
4717 47.40485 1570.76443 1474.56006 0.00068
4718 47.41320 1576.89236 1664.63989 0.00060
4719 47.42156 1583.96974 1681.00000 0.00059
4720 47.42991 1591.72175 1640.25000 0.00061
4721 47.43827 1600.06092 1664.63989 0.00060
4722 47.44662 1609.17028 1600.00000 0.00063
4723 47.45498 1619.51539 1681.00000 0.00059
4724 47.46333 1631.78010 1640.25000 0.00061
4725 47.47169 1646.76580 1705.68994 0.00059
4726 47.48005 1665.29676 1681.00000 0.00059
4727 47.48840 1688.15211 1697.44006 0.00059
4728 47.49676 1716.04943 1672.81018 0.00060
4729 47.50511 1749.59930 1789.28992 0.00056
4730 47.51347 1789.27266 1747.23999 0.00057
4731 47.52182 1835.36873 1857.60986 0.00054
4732 47.53018 1887.98213 1849.00000 0.00054
4733 47.53854 1946.89519 1874.88989 0.00053
4734 47.54689 2011.45459 1909.69006 0.00052
4735 47.55525 2080.42457 2043.04004 0.00049
4736 47.56360 2151.84943 2016.01013 0.00050
4737 47.57196 2223.02525 2190.23999 0.00046
4738 47.58031 2290.60077 2237.29004 0.00045
4739 47.58867 2350.73742 2304.00000 0.00043
4740 47.59702 2399.68693 2440.36011 0.00041
4741 47.60538 2434.41874 2621.44019 0.00038
4742 47.61374 2453.18115 2460.15991 0.00041
4743 47.62209 2455.84419 2570.48999 0.00039
4744 47.63045 2443.91501 2745.76025 0.00036
4745 47.63880 2420.23765 2560.35986 0.00039
4746 47.64716 2388.47997 2631.68994 0.00038
4747 47.65551 2352.53801 2490.01025 0.00040
4748 47.66387 2315.97908 2381.43994 0.00042
4749 47.67223 2281.62152 2323.23999 0.00043
4750 47.68058 2251.26305 2171.55981 0.00046
4751 47.68894 2225.57842 2162.25000 0.00046
4752 47.69729 2204.17665 2171.55981 0.00046
4753 47.70565 2185.77216 2106.81006 0.00047
4754 47.71400 2168.46327 2190.23999 0.00046
4755 47.72236 2150.10945 2143.68994 0.00047
4756 47.73072 2128.75491 2116.00000 0.00047
4757 47.73907 2103.01186 2043.04004 0.00049
4758 47.74743 2072.27133 2043.04004 0.00049
4759 47.75578 2036.73760 2088.48999 0.00048
4760 47.76414 1997.33269 1998.09009 0.00050
4761 47.77249 1955.47009 2088.48999 0.00048
4762 47.78085 1912.74417 2061.16016 0.00049
4763 47.78920 1870.68605 1980.25000 0.00050
4764 47.79756 1830.58557 1900.95984 0.00053
4765 47.80592 1793.40283 1780.84009 0.00056
4766 47.81427 1759.76412 1780.84009 0.00056
4767 47.82263 1730.00358 1764.00000 0.00057
4768 47.83098 1704.23313 1648.35986 0.00061
4769 47.83934 1682.40537 1656.49011 0.00060
4770 47.84769 1664.36473 1560.25000 0.00064
4771 47.85605 1649.88673 1656.49011 0.00060
4772 47.86441 1638.71003 1681.00000 0.00059
4773 47.87276 1630.56584 1608.00989 0.00062
4774 47.88112 1625.20903 1616.04004 0.00062
4775 47.88947 1622.44625 1608.00989 0.00062
4776 47.89783 1622.15846 1624.08997 0.00062
4777 47.90618 1624.32076 1672.81018 0.00060
4778 47.91454 1628.98875 1640.25000 0.00061
4779 47.92289 1636.27567 1681.00000 0.00059
4780 47.93125 1646.32313 1672.81018 0.00060
4781 47.93961 1659.26592 1713.96008 0.00058
4782 47.94796 1675.18350 1681.00000 0.00059
4783 47.95632 1694.11578 1747.23999 0.00057
4784 47.96467 1716.01696 1823.29004 0.00055
4785 47.97303 1740.73449 1857.60986 0.00054
4786 47.98138 1768.01710 1780.84009 0.00056
4787 47.98974 1797.56775 1866.24011 0.00054
4788 47.99810 1829.13518 1998.09009 0.00050
4789 48.00645 1862.60965 2025.00000 0.00049
4790 48.01481 1898.13368 2152.96021 0.00046
4791 48.02316 1936.10449 2097.63989 0.00048
4792 48.03152 1976.97077 2152.96021 0.00046
4793 48.03987 2021.03053 2079.35986 0.00048
4794 48.04823 2068.23834 2134.44019 0.00047
4795 48.05658 2118.00558 2162.25000 0.00046
4796 48.06494 2169.09621 2227.84009 0.00045
4797 48.07330 2219.68396 2171.55981 0.00046
4798 48.08165 2267.60642 2275.29004 0.00044
4799 48.09001 2310.79774 2304.00000 0.00043
4800 48.09836 2347.85205 2323.23999 0.00043
4801 48.10672 2378.46486 2371.69019 0.00042
4802 48.11507 2403.57695 2391.21021 0.00042
4803 48.12343 2425.11654 2470.09009 0.00040
4804 48.13179 2445.49031 2440.36011 0.00041
4805 48.14014 2467.01296 2460.15991 0.00041
4806 48.14850 2491.41793 2510.00977 0.00040
4807 48.15685 2519.54278 2560.35986 0.00039
4808 48.16521 2551.20275 2480.04004 0.00040
4809 48.17356 2585.25193 2621.44019 0.00038
4810 48.18192 2619.80973 2520.04004 0.00040
4811 48.19027 2652.58623 2631.68994 0.00038
4812 48.19863 2681.25786 2540.16016 0.00039
4813 48.20699 2703.81111 2704.00000 0.00037
4814 48.21534 2718.78186 2570.48999 0.00039
4815 48.22370 2725.39878 2693.61011 0.00037
4816 48.23205 2723.72571 2766.75977 0.00036
4817 48.24041 2714.68510 2724.84009 0.00037
4818 48.24876 2699.96733 2766.75977 0.00036
4819 48.25712 2681.84242 2872.95972 0.00035
4820 48.26548 2662.87944 2809.00000 0.00036
4821 48.27383 2645.64549 2724.84009 0.00037
4822 48.28219 2632.40385 2735.29004 0.00037
4823 48.29054 2624.80695 2756.25000 0.00036
4824 48.29890 2623.69480 2756.25000 0.00036
4825 48.30725 2629.08585 2601.00000 0.00038
4826 48.31561 2640.27159 2621.44019 0.00038
4827 48.32397 2655.96518 2777.29004 0.00036
4828 48.33232 2674.43661 2652.25000 0.00038
4829 48.34068 2693.61873 2611.20996 0.00038
4830 48.34903 2711.24573 2777.29004 0.00036
4831 48.35739 2725.08831 2830.23999 0.00035
4832 48.36574 2733.28146 2704.00000 0.00037
4833 48.37410 2734.64080 2683.23999 0.00037
4834 48.38245 2728.78965 2601.00000 0.00038
4835 48.39081 2716.00156 2590.81006 0.00039
4836 48.39917 2696.85219 2652.25000 0.00038
4837 48.40752 2671.87746 2631.68994 0.00038
4838 48.41588 2641.43783 2672.89014 0.00037
4839 48.42423 2605.85573 2580.63989 0.00039
4840 48.43259 2565.69247 2470.09009 0.00040
4841 48.44094 2521.93189 2570.48999 0.00039
4842 48.44930 2475.95261 2371.69019 0.00042
4843 48.45766 2429.25230 2391.21021 0.00042
4844 48.46601 2383.10121 2410.80981 0.00041
4845 48.47437 2338.29609 2361.95996 0.00042
4846 48.48272 2295.13267 2371.69019 0.00042
4847 48.49108 2253.54346 2371.69019 0.00042
4848 48.49943 2213.33863 2342.56006 0.00043
4849 48.50779 2174.36440 2284.83984 0.00044
4850 48.51614 2136.49776 2162.25000 0.00046
4851 48.52450 2099.54307 2284.83984 0.00044
4852 48.53286 2063.12451 2209.00000 0.00045
4853 48.54121 2026.64057 2097.63989 0.00048
4854 48.54957 1989.45222 1989.15991 0.00050
4855 48.55792 1951.12418 1989.15991 0.00050
4856 48.56628 1911.61152 2052.08984 0.00049
4857 48.57463 1871.30523 1980.25000 0.00050
4858 48.58299 1830.92698 1857.60986 0.00054
4859 48.59135 1791.32439 1866.24011 0.00054
4860 48.59970 1753.30540 1789.28992 0.00056
4861 48.60806 1717.50071 1705.68994 0.00059
4862 48.61641 1684.31819 1831.83997 0.00055
4863 48.62477 1653.95548 1713.96008 0.00058
4864 48.63312 1626.46442 1689.20984 0.00059
4865 48.64148 1601.79040 1689.20984 0.00059
4866 48.64983 1579.80473 1705.68994 0.00059
4867 48.65819 1560.33321 1560.25000 0.00064
4868 48.66655 1543.18473 1656.49011 0.00060
4869 48.67490 1528.17662 1632.16016 0.00061
4870 48.68326 1515.14185 1552.36011 0.00064
4871 48.69161 1503.86099 1482.25000 0.00067
4872 48.69997 1494.13843 1576.09009 0.00063
4873 48.70832 1485.81760 1497.69006 0.00067
4874 48.71668 1478.74594 1505.43994 0.00066
4875 48.72504 1472.78873 1482.25000 0.00067
4876 48.73339 1467.84815 1576.09009 0.00063
4877 48.74175 1463.86513 1560.25000 0.00064
4878 48.75010 1460.76381 1497.69006 0.00067
4879 48.75846 1458.49542 1436.41016 0.00070
4880 48.76681 1457.03630 1489.95984 0.00067
4881 48.77517 1456.38135 1474.56006 0.00068
4882 48.78352 1456.54107 1505.43994 0.00066
4883 48.79188 1457.53967 1413.75989 0.00071
4884 48.80024 1459.41455 1482.25000 0.00067
4885 48.80859 1462.21784 1528.80994 0.00065
4886 48.81695 1466.01863 1466.88989 0.00068
4887 48.82530 1470.90474 1474.56006 0.00068
4888 48.83366 1476.98593 1505.43994 0.00066
4889 48.84201 1484.39654 1552.36011 0.00064
4890 48.85037 1493.29970 1436.41016 0.00070
4891 48.85873 1503.88577 1552.36011 0.00064
4892 48.86708 1516.36625 1497.69006 0.00067
4893 48.87544 1530.99613 1568.15991 0.00064
4894 48.88379 1548.04961 1576.09009 0.00063
4895 48.89215 1567.83760 1560.25000 0.00064
4896 48.90050 1590.71427 1648.35986 0.00061
4897 48.90886 1616.97929 1616.04004 0.00062
4898 48.91722 1646.93493 1640.25000 0.00061
4899 48.92557 1680.84211 1648.35986 0.00061
4900 48.93393 1718.87889 1747.23999 0.00057
4901 48.94228 1761.09779 1823.29004 0.00055
4902 48.95064 1807.36409 1866.24011 0.00054
4903 48.95899 1857.28564 2016.01013 0.00050
4904 48.96735 1910.15212 2025.00000 0.00049
4905 48.97570 1964.90368 2097.63989 0.00048
4906 48.98406 2020.16158 2116.00000 0.00047
4907 48.99242 2074.32786 2199.61011 0.00045
4908 49.00077 2125.74540 2371.69019 0.00042
4909 49.00913 2172.87397 2313.60986 0.00043
4910 49.01748 2214.43864 2265.75977 0.00044
4911 49.02584 2249.54374 2361.95996 0.00042
4912 49.03419 2277.77476 2410.80981 0.00041
4913 49.04255 2299.29652 2401.00000 0.00042
4914 49.05091 2314.92815 2284.83984 0.00044
4915 49.05926 2326.07857 2371.69019 0.00042
4916 49.06762 2334.48940 2430.48999 0.00041
4917 49.07597 2341.90378 2410.80981 0.00041
4918 49.08433 2349.75918 2361.95996 0.00042
4919 49.09268 2359.01885 2410.80981 0.00041
4920 49.10104 2370.10601 2450.25000 0.00041
4921 49.10939 2382.89339 2430.48999 0.00041
4922 49.11775 2396.72772 2500.00000 0.00040
4923 49.12611 2410.52794 2560.35986 0.00039
4924 49.13446 2422.93830 2420.64014 0.00041
4925 49.14282 2432.51136 2540.16016 0.00039
4926 49.15117 2437.91911 2490.01025 0.00040
4927 49.15953 2438.21342 2490.01025 0.00040
4928 49.16788 2433.08210 2410.80981 0.00041
4929 49.17624 2422.99377 2391.21021 0.00042
4930 49.18460 2409.20943 2342.56006 0.00043
4931 49.19295 2393.61813 2460.15991 0.00041
4932 49.20131 2378.40505 2440.36011 0.00041
4933 49.20966 2365.64945 2323.23999 0.00043
4934 49.21802 2357.04231 2323.23999 0.00043
4935 49.22637 2353.70789 2332.88989 0.00043
4936 49.23473 2356.11148 2371.69019 0.00042
4937 49.24308 2363.99916 2352.25000 0.00043
4938 49.25144 2376.33663 2218.40991 0.00045
4939 49.25980 2391.27514 2294.41016 0.00044
4940 49.26815 2406.20989 2332.88989 0.00043
4941 49.27651 2418.00085 2294.41016 0.00044
4942 49.28486 2423.39975 2294.41016 0.00044
4943 49.29322 2419.63891 2332.88989 0.00043
4944 49.30157 2405.02762 2440.36011 0.00041
4945 49.30993 2379.34892 2352.25000 0.00043
4946 49.31829 2343.89672 2190.23999 0.00046
4947 49.32664 2301.13968 2294.41016 0.00044
4948 49.33500 2254.15350 2265.75977 0.00044
4949 49.34335 2205.98472 2246.76025 0.00045
4950 49.35171 2159.23444 2061.16016 0.00049
4951 49.36006 2115.85297 2043.04004 0.00049
4952 49.36842 2077.07619 2079.35986 0.00048
4953 49.37678 2043.42549 1944.80981 0.00051
4954 49.38513 2014.76011 1998.09009 0.00050
4955 49.39349 1990.35592 2007.03992 0.00050
4956 49.40184 1969.01181 1909.69006 0.00052
4957 49.41020 1949.16874 1866.24011 0.00054
4958 49.41855 1929.17818 1874.88989 0.00053
4959 49.42691 1907.62634 1840.41016 0.00054
4960 49.43526 1883.62450 1797.76013 0.00056
4961 49.44362 1856.97060 1840.41016 0.00054
4962 49.45198 1828.11422 1814.75989 0.00055
4963 49.46033 1797.95277 1789.28992 0.00056
4964 49.46869 1767.57492 1705.68994 0.00059
4965 49.47704 1738.04079 1713.96008 0.00058
4966 49.48540 1710.23710 1664.63989 0.00060
4967 49.49375 1684.83537 1697.44006 0.00059
4968 49.50211 1662.30258 1713.96008 0.00058
4969 49.51047 1642.93097 1648.35986 0.00061
4970 49.51882 1626.87087 1592.01013 0.00063
4971 49.52718 1614.16091 1592.01013 0.00063
4972 49.53553 1604.74115 1705.68994 0.00059
4973 49.54389 1598.47349 1640.25000 0.00061
4974 49.55224 1595.13789 1592.01013 0.00063
4975 49.56060 1594.40847 1608.00989 0.00062
4976 49.56895 1595.85605 1560.25000 0.00064
4977 49.57731 1598.92960 1640.25000 0.00061
4978 49.58567 1602.95880 1552.36011 0.00064
4979 49.59402 1607.19363 1672.81018 0.00060
4980 49.60238 1610.89324 1697.44006 0.00059
4981 49.61073 1613.44847 1764.00000 0.00057
4982 49.61909 1614.51054 1648.35986 0.00061
4983 49.62744 1614.07537 1640.25000 0.00061
4984 49.63580 1612.50350 1608.00989 0.00062
4985 49.64416 1610.43375 1616.04004 0.00062
4986 49.65251 1608.66549 1624.08997 0.00062
4987 49.66087 1608.02837 1681.00000 0.00059
4988 49.66922 1609.20217 1592.01013 0.00063
4989 49.67758 1612.71010 1616.04004 0.00062
4990 49.68593 1618.91217 1624.08997 0.00062
4991 49.69429 1627.96678 1697.44006 0.00059
4992 49.70264 1639.84006 1640.25000 0.00061
4993 49.71100 1654.34888 1664.63989 0.00060
4994 49.71936 1671.16585 1681.00000 0.00059
4995 49.72771 1689.85058 1823.29004 0.00055
4996 49.73607 1709.84817 1764.00000 0.00057
4997 49.74442 1730.50349 1738.89001 0.00058
4998 49.75278 1751.06547 1814.75989 0.00055
4999 49.76113 1770.69857 1840.41016 0.00054
5000 49.76949 1788.46457 1866.24011 0.00054
5001 49.77785 1803.34631 1789.28992 0.00056
5002 49.78620 1814.36960 1814.75989 0.00055
5003 49.79456 1820.81209 1857.60986 0.00054
5004 49.80291 1822.36637 1883.56018 0.00053
5005 49.81127 1819.31419 1849.00000 0.00054
5006 49.81962 1812.52479 1892.25000 0.00053
5007 49.82798 1803.26237 1823.29004 0.00055
5008 49.83633 1792.89550 1849.00000 0.00054
5009 49.84469 1782.64382 1806.25000 0.00055
5010 49.85305 1773.40361 1831.83997 0.00055
5011 49.86140 1765.66347 1755.61011 0.00057
5012 49.86976 1759.53115 1789.28992 0.00056
5013 49.87811 1754.82097 1772.40991 0.00056
5014 49.88647 1751.12847 1705.68994 0.00059
5015 49.89482 1747.89653 1672.81018 0.00060
5016 49.90318 1744.45916 1738.89001 0.00058
5017 49.91154 1740.07676 1747.23999 0.00057
5018 49.91989 1733.99953 1738.89001 0.00058
5019 49.92825 1725.57568 1747.23999 0.00057
5020 49.93660 1714.38824 1664.63989 0.00060
5021 49.94496 1700.36689 1672.81018 0.00060
5022 49.95331 1683.81948 1722.25000 0.00058
5023 49.96167 1665.36259 1664.63989 0.00060
5024 49.97003 1645.78398 1608.00989 0.00062
5025 49.97838 1625.88142 1656.49011 0.00060
5026 49.98674 1606.33374 1656.49011 0.00060
5027 49.99509 1587.63300 1544.48999 0.00065
5028 50.00345 1570.07716 1552.36011 0.00064
5029 50.01180 1553.82494 1576.09009 0.00063
5030 50.02016 1538.94385 1552.36011 0.00064
5031 50.02851 1525.45229 1552.36011 0.00064
5032 50.03687 1513.36392 1536.64001 0.00065
5033 50.04523 1502.68506 1568.15991 0.00064
5034 50.05358 1493.38212 1421.29004 0.00070
5035 50.06194 1485.38512 1474.56006 0.00068
5036 50.07029 1478.59101 1521.00000 0.00066
5037 50.07865 1472.88380 1560.25000 0.00064
5038 50.08700 1468.17725 1505.43994 0.00066
5039 50.09536 1464.44293 1444.00000 0.00069
5040 50.10372 1461.70642 1482.25000 0.00067
5041 50.11207 1460.01891 1421.29004 0.00070
5042 50.12043 1459.43557 1436.41016 0.00070
5043 50.12878 1459.98194 1413.75989 0.00071
5044 50.13714 1461.55605 1436.41016 0.00070
5045 50.14549 1463.97113 1444.00000 0.00069
5046 50.15385 1466.97427 1497.69006 0.00067
5047 50.16220 1470.29947 1482.25000 0.00067
5048 50.17056 1473.72438 1513.21008 0.00066
5049 50.17892 1477.13637 1474.56006 0.00068
5050 50.18727 1480.57054 1413.75989 0.00071
5051 50.19563 1484.20898 1428.83997 0.00070
5052 50.20398 1488.33043 1459.24011 0.00069
5053 50.21234 1493.22701 1413.75989 0.00071
5054 50.22069 1499.11915 1466.88989 0.00068
5055 50.22905 1506.08441 1436.41016 0.00070
5056 50.23741 1514.00803 1536.64001 0.00065
5057 50.24576 1522.55747 1656.49011 0.00060
5058 50.25412 1531.19355 1689.20984 0.00059
5059 50.26247 1539.22177 1616.04004 0.00062
5060 50.27083 1545.87000 1689.20984 0.00059
5061 50.27918 1550.43491 1713.96008 0.00058
5062 50.28754 1552.43894 1772.40991 0.00056
5063 50.29589 1551.73788 1697.44006 0.00059
5064 50.30425 1548.55795 1664.63989 0.00060
5065 50.31261 1543.44085 1697.44006 0.00059
5066 50.32096 1537.13594 1560.25000 0.00064
5067 50.32932 1530.47085 1560.25000 0.00064
5068 50.33767 1524.22356 1497.69006 0.00067
5069 50.34603 1519.00614 1459.24011 0.00069
5070 50.35438 1515.23615 1505.43994 0.00066
5071 50.36274 1513.11285 1482.25000 0.00067
5072 50.37110 1512.60906 1528.80994 0.00065
5073 50.37945 1513.47511 1497.69006 0.00067
5074 50.38781 1515.25635 1489.95984 0.00067
5075 50.39616 1517.33566 1544.48999 0.00065
5076 50.40452 1519.01410 1592.01013 0.00063
5077 50.41287 1519.63252 1544.48999 0.00065
5078 50.42123 1518.71016 1576.09009 0.00063
5079 50.42958 1516.05704 1552.36011 0.00064
5080 50.43794 1511.80605 1528.80994 0.00065
5081 50.44630 1506.36313 1451.60986 0.00069
5082 50.45465 1500.29056 1536.64001 0.00065
5083 50.46301 1494.17598 1459.24011 0.00069
5084 50.47136 1488.52594 1513.21008 0.00066
5085 50.47972 1483.66779 1436.41016 0.00070
5086 50.48807 1479.72995 1536.64001 0.00065
5087 50.49643 1476.65665 1459.24011 0.00069
5088 50.50479 1474.23761 1489.95984 0.00067
5089 50.51314 1472.16674 1428.83997 0.00070
5090 50.52150 1470.11422 1505.43994 0.00066
5091 50.52985 1467.81463 1560.25000 0.00064
5092 50.53821 1465.11038 1451.60986 0.00069
5093 50.54656 1461.95335 1482.25000 0.00067
5094 50.55492 1458.41592 1459.24011 0.00069
5095 50.56328 1454.70877 1497.69006 0.00067
5096 50.57163 1451.11278 1482.25000 0.00067
5097 50.57999 1447.93422 1398.76013 0.00071
5098 50.58834 1445.46177 1444.00000 0.00069
5099 50.59670 1443.92557 1474.56006 0.00068
5100 50.60505 1443.46692 1466.88989 0.00068
5101 50.61341 1444.13045 1497.69006 0.00067
5102 50.62176 1445.87995 1552.36011 0.00064
5103 50.63012 1448.63037 1474.56006 0.00068
5104 50.63848 1452.25802 1482.25000 0.00067
5105 50.64683 1456.63729 1489.95984 0.00067
5106 50.65519 1461.67644 1466.88989 0.00068
5107 50.66354 1467.32334 1513.21008 0.00066
5108 50.67190 1473.54184 1536.64001 0.00065
5109 50.68025 1480.27431 1505.43994 0.00066
5110 50.68861 1487.38916 1474.56006 0.00068
5111 50.69697 1494.63011 1505.43994 0.00066
5112 50.70532 1501.56346 1521.00000 0.00066
5113 50.71368 1507.58493 1513.21008 0.00066
5114 50.72203 1511.99699 1576.09009 0.00063
5115 50.73039 1514.15563 1568.15991 0.00064
5116 50.73874 1513.61506 1459.24011 0.00069
5117 50.74710 1510.24578 1544.48999 0.00065
5118 50.75545 1504.27545 1521.00000 0.00066
5119 50.76381 1496.24439 1528.80994 0.00065
5120 50.77217 1486.88979 1536.64001 0.00065
5121 50.78052 1476.98939 1466.88989 0.00068
5122 50.78888 1467.23565 1521.00000 0.00066
5123 50.79723 1458.20567 1552.36011 0.00064
5124 50.80559 1450.37356 1560.25000 0.00064
5125 50.81394 1443.98006 1436.41016 0.00070
5126 50.82230 1439.06670 1451.60986 0.00069
5127 50.83066 1435.52275 1413.75989 0.00071
5128 50.83901 1433.10765 1421.29004 0.00070
5129 50.84737 1431.46885 1428.83997 0.00070
5130 50.85572 1430.20334 1436.41016 0.00070
5131 50.86408 1428.93319 1466.88989 0.00068
5132 50.87243 1427.38552 1436.41016 0.00070
5133 50.88079 1425.46495 1428.83997 0.00070
5134 50.88914 1423.26217 1339.55994 0.00075
5135 50.89750 1421.03000 1369.00000 0.00073
5136 50.90586 1419.09555 1413.75989 0.00071
5137 50.91421 1417.81482 1383.84009 0.00072
5138 50.92257 1417.50566 1474.56006 0.00068
5139 50.93092 1418.40819 1383.84009 0.00072
5140 50.93928 1420.68268 1398.76013 0.00071
5141 50.94763 1424.42186 1398.76013 0.00071
5142 50.95599 1429.64090 1428.83997 0.00070
5143 50.96435 1436.26176 1489.95984 0.00067
5144 50.97270 1444.09816 1391.28992 0.00072
5145 50.98106 1452.82695 1339.55994 0.00075
5146 50.98941 1461.97085 1505.43994 0.00066
5147 50.99777 1470.89844 1413.75989 0.00071
5148 51.00612 1478.87696 1513.21008 0.00066
5149 51.01448 1485.18033 1497.69006 0.00067
5150 51.02284 1489.21507 1528.80994 0.00065
5151 51.03119 1490.65460 1544.48999 0.00065
5152 51.03955 1489.51913 1513.21008 0.00066
5153 51.04790 1486.17037 1413.75989 0.00071
5154 51.05626 1481.21938 1474.56006 0.00068
5155 51.06461 1475.38839 1406.25000 0.00071
5156 51.07297 1469.37727 1398.76013 0.00071
5157 51.08132 1463.76812 1428.83997 0.00070
5158 51.08968 1458.97057 1489.95984 0.00067
5159 51.09804 1455.19515 1383.84009 0.00072
5160 51.10639 1452.46002 1436.41016 0.00070
5161 51.11475 1450.59052 1489.95984 0.00067
5162 51.12310 1449.22395 1391.28992 0.00072
5163 51.13146 1447.85248 1332.25000 0.00075
5164 51.13981 1445.89369 1413.75989 0.00071
5165 51.14817 1442.77253 1398.76013 0.00071
5166 51.15653 1438.02604 1369.00000 0.00073
5167 51.16488 1431.43659 1317.68994 0.00076
5168 51.17324 1423.05916 1413.75989 0.00071
5169 51.18159 1413.18773 1361.61011 0.00073
5170 51.18995 1402.29714 1303.20984 0.00077
5171 51.19830 1390.90023 1444.00000 0.00069
5172 51.20666 1379.47899 1398.76013 0.00071
5173 51.21501 1368.43460 1361.61011 0.00073
5174 51.22337 1358.04386 1339.55994 0.00075
5175 51.23173 1348.47215 1317.68994 0.00076
5176 51.24008 1339.77580 1332.25000 0.00075
5177 51.24844 1331.92856 1332.25000 0.00075
5178 51.25679 1324.84061 1288.81006 0.00078
5179 51.26515 1318.37764 1310.44006 0.00076
5180 51.27350 1312.38517 1317.68994 0.00076
5181 51.28186 1306.72708 1232.00989 0.00081
5182 51.29022 1301.31619 1232.00989 0.00081
5183 51.29857 1296.10086 1310.44006 0.00076
5184 51.30693 1291.08645 1218.01013 0.00082
5185 51.31528 1286.31873 1253.16016 0.00080
5186 51.32364 1281.86021 1288.81006 0.00078
5187 51.33199 1277.76921 1267.35986 0.00079
5188 51.34035 1274.11152 1288.81006 0.00078
5189 51.34870 1270.93111 1267.35986 0.00079
5190 51.35706 1268.25574 1288.81006 0.00078
5191 51.36542 1266.10558 1281.63989 0.00078
5192 51.37377 1264.49570 1232.00989 0.00081
5193 51.38213 1263.43572 1296.00000 0.00077
5194 51.39048 1262.93930 1253.16016 0.00080
5195 51.39884 1263.02001 1288.81006 0.00078
5196 51.40719 1263.69175 1246.08997 0.00080
5197 51.41555 1264.96998 1246.08997 0.00080
5198 51.42391 1266.87060 1274.49011 0.00078
5199 51.43226 1269.40813 1246.08997 0.00080
5200 51.44062 1272.59095 1310.44006 0.00076
5201 51.44897 1276.41581 1303.20984 0.00077
5202 51.45733 1280.87137 1288.81006 0.00078
5203 51.46568 1285.93586 1281.63989 0.00078
5204 51.47404 1291.55640 1310.44006 0.00076
5205 51.48239 1297.62949 1324.96008 0.00075
5206 51.49075 1304.02088 1288.81006 0.00078
5207 51.49911 1310.55596 1274.49011 0.00078
5208 51.50746 1316.99301 1391.28992 0.00072
5209 51.51582 1323.08906 1310.44006 0.00076
5210 51.52417 1328.69412 1354.23999 0.00074
5211 51.53253 1333.73307 1274.49011 0.00078
5212 51.54088 1338.22544 1354.23999 0.00074
5213 51.54924 1342.30836 1383.84009 0.00072
5214 51.55760 1346.23026 1376.40991 0.00073
5215 51.56595 1350.26960 1383.84009 0.00072
5216 51.57431 1354.66661 1369.00000 0.00073
5217 51.58266 1359.59836 1310.44006 0.00076
5218 51.59102 1365.15194 1391.28992 0.00072
5219 51.59937 1371.30293 1376.40991 0.00073
5220 51.60773 1377.92157 1398.76013 0.00071
5221 51.61609 1384.81589 1369.00000 0.00073
5222 51.62444 1391.77601 1376.40991 0.00073
5223 51.63280 1398.61859 1398.76013 0.00071
5224 51.64115 1405.23309 1383.84009 0.00072
5225 51.64951 1411.60168 1428.83997 0.00070
5226 51.65786 1417.78616 1489.95984 0.00067
5227 51.66622 1423.91502 1513.21008 0.00066
5228 51.67457 1430.15358 1536.64001 0.00065
5229 51.68293 1436.60758 1474.56006 0.00068
5230 51.69129 1443.30585 1474.56006 0.00068
5231 51.69964 1450.15467 1536.64001 0.00065
5232 51.70800 1456.89246 1505.43994 0.00066
5233 51.71635 1463.11060 1544.48999 0.00065
5234 51.72471 1468.25402 1497.69006 0.00067
5235 51.73306 1471.73700 1444.00000 0.00069
5236 51.74142 1473.06885 1466.88989 0.00068
5237 51.74978 1471.96298 1474.56006 0.00068
5238 51.75813 1468.40449 1421.29004 0.00070
5239 51.76649 1462.65896 1513.21008 0.00066
5240 51.77484 1455.21304 1436.41016 0.00070
5241 51.78320 1446.67656 1383.84009 0.00072
5242 51.79155 1437.67954 1428.83997 0.00070
5243 51.79991 1428.79423 1436.41016 0.00070
5244 51.80826 1420.47905 1436.41016 0.00070
5245 51.81662 1413.02517 1413.75989 0.00071
5246 51.82498 1406.53425 1413.75989 0.00071
5247 51.83333 1400.94609 1428.83997 0.00070
5248 51.84169 1396.06176 1391.28992 0.00072
5249 51.85004 1391.57733 1398.76013 0.00071
5250 51.85840 1387.12030 1459.24011 0.00069
5251 51.86675 1382.31294 1346.89001 0.00074
5252 51.87511 1376.84696 1444.00000 0.00069
5253 51.88347 1370.54536 1436.41016 0.00070
5254 51.89182 1363.37278 1317.68994 0.00076
5255 51.90018 1355.44686 1376.40991 0.00073
5256 51.90853 1347.01907 1281.63989 0.00078
5257 51.91689 1338.38600 1376.40991 0.00073
5258 51.92524 1329.83261 1376.40991 0.00073
5259 51.93360 1321.57747 1296.00000 0.00077
5260 51.94195 1313.78751 1296.00000 0.00077
5261 51.95031 1306.56843 1274.49011 0.00078
5262 51.95867 1299.96979 1281.63989 0.00078
5263 51.96702 1294.00264 1253.16016 0.00080
5264 51.97538 1288.64929 1332.25000 0.00075
5265 51.98373 1283.87320 1303.20984 0.00077
5266 51.99209 1279.63246 1246.08997 0.00080
5267 52.00044 1275.90835 1296.00000 0.00077
5268 52.00880 1272.69444 1232.00989 0.00081
5269 52.01716 1269.99096 1281.63989 0.00078
5270 52.02551 1267.81233 1310.44006 0.00076
5271 52.03387 1266.18432 1317.68994 0.00076
5272 52.04222 1265.14394 1260.25000 0.00079
5273 52.05058 1264.72221 1267.35986 0.00079
5274 52.05893 1264.95459 1246.08997 0.00080
5275 52.06729 1265.89395 1246.08997 0.00080
5276 52.07564 1267.58585 1260.25000 0.00079
5277 52.08400 1270.07798 1267.35986 0.00079
5278 52.09236 1273.43015 1274.49011 0.00078
5279 52.10071 1277.71635 1211.03992 0.00083
5280 52.10907 1283.01181 1332.25000 0.00075
5281 52.11742 1289.39258 1281.63989 0.00078
5282 52.12578 1296.93008 1267.35986 0.00079
5283 52.13413 1305.69143 1162.80994 0.00086
5284 52.14249 1315.72268 1339.55994 0.00075
5285 52.15085 1327.03568 1274.49011 0.00078
5286 52.15920 1339.60852 1361.61011 0.00073
5287 52.16756 1353.35871 1267.35986 0.00079
5288 52.17591 1368.11646 1339.55994 0.00075
5289 52.18427 1383.59906 1339.55994 0.00075
5290 52.19262 1399.38296 1346.89001 0.00074
5291 52.20098 1414.90438 1391.28992 0.00072
5292 52.20934 1429.46397 1444.00000 0.00069
5293 52.21769 1442.24122 1421.29004 0.00070
5294 52.22605 1452.42984 1482.25000 0.00067
5295 52.23440 1459.38030 1444.00000 0.00069
5296 52.24276 1462.74105 1474.56006 0.00068
5297 52.25111 1462.54998 1444.00000 0.00069
5298 52.25947 1459.23223 1505.43994 0.00066
5299 52.26782 1453.50819 1451.60986 0.00069
5300 52.27618 1446.25856 1428.83997 0.00070
5301 52.28454 1438.36198 1421.29004 0.00070
5302 52.29289 1430.58129 1466.88989 0.00068
5303 52.30125 1423.51182 1444.00000 0.00069
5304 52.30960 1417.56155 1398.76013 0.00071
5305 52.31796 1412.92349 1361.61011 0.00073
5306 52.32631 1409.60518 1459.24011 0.00069
5307 52.33467 1407.45568 1376.40991 0.00073
5308 52.34303 1406.16115 1391.28992 0.00072
5309 52.35138 1405.27919 1339.55994 0.00075
5310 52.35974 1404.29496 1354.23999 0.00074
5311 52.36809 1402.69413 1369.00000 0.00073
5312 52.37645 1400.07153 1428.83997 0.00070
5313 52.38480 1396.19847 1391.28992 0.00072
5314 52.39316 1391.05271 1428.83997 0.00070
5315 52.40151 1384.81797 1428.83997 0.00070
5316 52.40987 1377.82826 1406.25000 0.00071
5317 52.41823 1370.47076 1398.76013 0.00071
5318 52.42658 1363.10537 1354.23999 0.00074
5319 52.43494 1356.00904 1324.96008 0.00075
5320 52.44329 1349.36677 1406.25000 0.00071
5321 52.45165 1343.28185 1296.00000 0.00077
5322 52.46000 1337.79571 1383.84009 0.00072
5323 52.46836 1332.90683 1339.55994 0.00075
5324 52.47672 1328.58182 1383.84009 0.00072
5325 52.48507 1324.77229 1332.25000 0.00075
5326 52.49343 1321.42678 1332.25000 0.00075
5327 52.50178 1318.48649 1296.00000 0.00077
5328 52.51014 1315.88242 1324.96008 0.00075
5329 52.51849 1313.57062 1346.89001 0.00074
5330 52.52685 1311.54581 1317.68994 0.00076
5331 52.53520 1309.84416 1346.89001 0.00074
5332 52.54356 1308.54540 1303.20984 0.00077
5333 52.55192 1307.76292 1361.61011 0.00073
5334 52.56027 1307.60808 1260.25000 0.00079
5335 52.56863 1308.18626 1274.49011 0.00078
5336 52.57698 1309.57988 1288.81006 0.00078
5337 52.58534 1311.86467 1346.89001 0.00074
5338 52.59369 1315.11330 1332.25000 0.00075
5339 52.60205 1319.39885 1369.00000 0.00073
5340 52.61041 1324.79703 1324.96008 0.00075
5341 52.61876 1331.39109 1274.49011 0.00078
5342 52.62712 1339.27294 1361.61011 0.00073
5343 52.63547 1348.52926 1369.00000 0.00073
5344 52.64383 1359.23153 1383.84009 0.00072
5345 52.65218 1371.44716 1361.61011 0.00073
5346 52.66054 1385.23118 1406.25000 0.00071
5347 52.66890 1400.61250 1413.75989 0.00071
5348 52.67725 1417.57863 1406.25000 0.00071
5349 52.68561 1436.06163 1421.29004 0.00070
5350 52.69396 1455.91512 1497.69006 0.00067
5351 52.70232 1476.83917 1428.83997 0.00070
5352 52.71067 1498.37881 1513.21008 0.00066
5353 52.71903 1519.90800 1497.69006 0.00067
5354 52.72738 1540.65184 1459.24011 0.00069
5355 52.73574 1559.74025 1513.21008 0.00066
5356 52.74410 1576.30436 1406.25000 0.00071
5357 52.75245 1589.56581 1505.43994 0.00066
5358 52.76081 1598.96687 1482.25000 0.00067
5359 52.76916 1604.27028 1505.43994 0.00066
5360 52.77752 1605.61121 1624.08997 0.00062
5361 52.78587 1603.49290 1451.60986 0.00069
5362 52.79423 1598.71711 1505.43994 0.00066
5363 52.80259 1592.25848 1576.09009 0.00063
5364 52.81094 1585.12618 1592.01013 0.00063
5365 52.81930 1578.22163 1528.80994 0.00065
5366 52.82765 1572.23808 1544.48999 0.00065
5367 52.83601 1567.61338 1451.60986 0.00069
5368 52.84436 1564.51817 1536.64001 0.00065
5369 52.85272 1562.85920 1528.80994 0.00065
5370 52.86107 1562.33483 1513.21008 0.00066
5371 52.86943 1562.47993 1513.21008 0.00066
5372 52.87779 1562.74361 1489.95984 0.00067
5373 52.88614 1562.57254 1528.80994 0.00065
5374 52.89450 1561.47777 1552.36011 0.00064
5375 52.90285 1559.10654 1600.00000 0.00063
5376 52.91121 1555.29955 1489.95984 0.00067
5377 52.91956 1550.12169 1552.36011 0.00064
5378 52.92792 1543.84086 1482.25000 0.00067
5379 52.93628 1536.85094 1600.00000 0.00063
5380 52.94463 1529.60478 1568.15991 0.00064
5381 52.95299 1522.52786 1576.09009 0.00063
5382 52.96134 1515.94115 1459.24011 0.00069
5383 52.96970 1509.99805 1436.41016 0.00070
5384 52.97805 1504.65413 1497.69006 0.00067
5385 52.98641 1499.67377 1560.25000 0.00064
5386 52.99476 1494.67593 1528.80994 0.00065
5387 53.00312 1489.21647 1421.29004 0.00070
5388 53.01148 1482.88836 1444.00000 0.00069
5389 53.01983 1475.43692 1444.00000 0.00069
5390 53.02819 1466.81271 1466.88989 0.00068
5391 53.03654 1457.15737 1436.41016 0.00070
5392 53.04490 1446.80197 1444.00000 0.00069
5393 53.05325 1436.15881 1451.60986 0.00069
5394 53.06161 1425.68533 1497.69006 0.00067
5395 53.06997 1415.79241 1505.43994 0.00066
5396 53.07832 1406.80899 1391.28992 0.00072
5397 53.08668 1398.97456 1459.24011 0.00069
5398 53.09503 1392.44266 1413.75989 0.00071
5399 53.10339 1387.26947 1466.88989 0.00068
5400 53.11174 1383.42176 1413.75989 0.00071
5401 53.12010 1380.77908 1339.55994 0.00075
5402 53.12845 1379.15012 1421.29004 0.00070
5403 53.13681 1378.28877 1489.95984 0.00067
5404 53.14517 1377.92356 1391.28992 0.00072
5405 53.15352 1377.79797 1369.00000 0.00073
5406 53.16188 1377.70814 1482.25000 0.00067
5407 53.17023 1377.52470 1466.88989 0.00068
5408 53.17859 1377.19608 1383.84009 0.00072
5409 53.18694 1376.73058 1406.25000 0.00071
5410 53.19530 1376.14550 1451.60986 0.00069
5411 53.20366 1375.45925 1421.29004 0.00070
5412 53.21201 1374.68455 1354.23999 0.00074
5413 53.22037 1373.84533 1428.83997 0.00070
5414 53.22872 1372.95587 1406.25000 0.00071
5415 53.23708 1372.04957 1376.40991 0.00073
5416 53.24543 1371.18004 1436.41016 0.00070
5417 53.25379 1370.37554 1451.60986 0.00069
5418 53.26215 1369.65128 1376.40991 0.00073
5419 53.27050 1369.01743 1489.95984 0.00067
5420 53.27886 1368.49876 1361.61011 0.00073
5421 53.28721 1368.14241 1383.84009 0.00072
5422 53.29557 1367.98217 1421.29004 0.00070
5423 53.30392 1368.03161 1369.00000 0.00073
5424 53.31228 1368.24712 1281.63989 0.00078
5425 53.32063 1368.50565 1310.44006 0.00076
5426 53.32899 1368.60100 1339.55994 0.00075
5427 53.33735 1368.25420 1354.23999 0.00074
5428 53.34570 1367.16113 1332.25000 0.00075
5429 53.35406 1365.06589 1421.29004 0.00070
5430 53.36241 1361.82018 1354.23999 0.00074
5431 53.37077 1357.41045 1346.89001 0.00074
5432 53.37912 1351.95515 1428.83997 0.00070
5433 53.38748 1345.67363 1281.63989 0.00078
5434 53.39584 1338.82322 1346.89001 0.00074
5435 53.40419 1331.65434 1398.76013 0.00071
5436 53.41255 1324.38496 1324.96008 0.00075
5437 53.42090 1317.19289 1391.28992 0.00072
5438 53.42926 1310.22008 1324.96008 0.00075
5439 53.43761 1303.57222 1376.40991 0.00073
5440 53.44597 1297.31629 1354.23999 0.00074
5441 53.45432 1291.47504 1317.68994 0.00076
5442 53.46268 1286.01873 1317.68994 0.00076
5443 53.47104 1280.86546 1267.35986 0.00079
5444 53.47939 1275.89371 1303.20984 0.00077
5445 53.48775 1270.96531 1317.68994 0.00076
5446 53.49610 1265.95310 1354.23999 0.00074
5447 53.50446 1260.77151 1296.00000 0.00077
5448 53.51281 1255.40165 1317.68994 0.00076
5449 53.52117 1249.88870 1296.00000 0.00077
5450 53.52953 1244.31735 1281.63989 0.00078
5451 53.53788 1238.78646 1267.35986 0.00079
5452 53.54624 1233.39572 1260.25000 0.00079
5453 53.55459 1228.23199 1162.80994 0.00086
5454 53.56295 1223.36762 1204.09009 0.00083
5455 53.57130 1218.84400 1232.00989 0.00081
5456 53.57966 1214.67072 1346.89001 0.00074
5457 53.58801 1210.85142 1260.25000 0.00079
5458 53.59637 1207.38253 1281.63989 0.00078
5459 53.60473 1204.25247 1260.25000 0.00079
5460 53.61308 1201.44356 1204.09009 0.00083
5461 53.62144 1198.93245 1246.08997 0.00080
5462 53.62979 1196.69957 1225.00000 0.00082
5463 53.63815 1194.72806 1156.00000 0.00087
5464 53.64650 1192.99436 1183.36011 0.00085
5465 53.65486 1191.47691 1190.25000 0.00084
5466 53.66322 1190.15779 1218.01013 0.00082
5467 53.67157 1189.01943 1169.64001 0.00085
5468 53.67993 1188.04441 1162.80994 0.00086
5469 53.68828 1187.21710 1162.80994 0.00086
5470 53.69664 1186.52296 1183.36011 0.00085
5471 53.70499 1185.95037 1239.04004 0.00081
5472 53.71335 1185.48886 1204.09009 0.00083
5473 53.72170 1185.13233 1232.00989 0.00081
5474 53.73006 1184.88648 1183.36011 0.00085
5475 53.73842 1184.75452 1122.25000 0.00089
5476 53.74677 1184.73444 1218.01013 0.00082
5477 53.75513 1184.82691 1218.01013 0.00082
5478 53.76348 1185.03476 1183.36011 0.00085
5479 53.77184 1185.35761 1162.80994 0.00086
5480 53.78019 1185.79288 1169.64001 0.00085
5481 53.78855 1186.33198 1128.95984 0.00089
5482 53.79691 1186.95545 1190.25000 0.00084
5483 53.80526 1187.64562 1190.25000 0.00084
5484 53.81362 1188.37722 1156.00000 0.00087
5485 53.82197 1189.11652 1204.09009 0.00083
5486 53.83033 1189.82480 1232.00989 0.00081
5487 53.83868 1190.46242 1204.09009 0.00083
5488 53.84704 1190.99465 1232.00989 0.00081
5489 53.85540 1191.39884 1197.15991 0.00084
5490 53.86375 1191.66889 1169.64001 0.00085
5491 53.87211 1191.81372 1183.36011 0.00085
5492 53.88046 1191.86434 1204.09009 0.00083
5493 53.88882 1191.86145 1232.00989 0.00081
5494 53.89717 1191.84502 1317.68994 0.00076
5495 53.90553 1191.85507 1197.15991 0.00084
5496 53.91388 1191.92446 1149.21008 0.00087
5497 53.92224 1192.07782 1190.25000 0.00084
5498 53.93060 1192.33551 1225.00000 0.00082
5499 53.93895 1192.70923 1211.03992 0.00083
5500 53.94731 1193.19861 1149.21008 0.00087
5501 53.95566 1193.79418 1204.09009 0.00083
5502 53.96402 1194.47988 1095.60986 0.00091
5503 53.97237 1195.24250 1232.00989 0.00081
5504 53.98073 1196.07843 1183.36011 0.00085
5505 53.98909 1196.96524 1176.48999 0.00085
5506 53.99744 1197.88753 1218.01013 0.00082
5507 54.00580 1198.83937 1156.00000 0.00087
5508 54.01415 1199.82602 1169.64001 0.00085
5509 54.02251 1200.86333 1176.48999 0.00085
5510 54.03086 1201.97609 1239.04004 0.00081
5511 54.03922 1203.19305 1135.69006 0.00088
5512 54.04757 1204.53999 1128.95984 0.00089
5513 54.05593 1206.04090 1162.80994 0.00086
5514 54.06429 1207.71901 1239.04004 0.00081
5515 54.07264 1209.60071 1135.69006 0.00088
5516 54.08100 1211.70938 1183.36011 0.00085
5517 54.08935 1214.06764 1232.00989 0.00081
5518 54.09771 1216.70700 1225.00000 0.00082
5519 54.10606 1219.64331 1197.15991 0.00084
5520 54.11442 1222.89756 1169.64001 0.00085
5521 54.12278 1226.49896 1197.15991 0.00084
5522 54.13113 1230.47554 1183.36011 0.00085
5523 54.13949 1234.85610 1253.16016 0.00080
5524 54.14784 1239.67086 1260.25000 0.00079
5525 54.15620 1244.94686 1239.04004 0.00081
5526 54.16455 1250.71146 1274.49011 0.00078
5527 54.17291 1257.00140 1267.35986 0.00079
5528 54.18126 1263.84058 1296.00000 0.00077
5529 54.18962 1271.24850 1274.49011 0.00078
5530 54.19798 1279.24189 1246.08997 0.00080
5531 54.20633 1287.83629 1303.20984 0.00077
5532 54.21469 1297.05191 1246.08997 0.00080
5533 54.22304 1306.91903 1225.00000 0.00082
5534 54.23140 1317.49623 1225.00000 0.00082
5535 54.23975 1328.88262 1274.49011 0.00078
5536 54.24811 1341.23040 1354.23999 0.00074
5537 54.25647 1354.75184 1288.81006 0.00078
5538 54.26482 1369.69576 1281.63989 0.00078
5539 54.27318 1386.31414 1436.41016 0.00070
5540 54.28153 1404.85394 1310.44006 0.00076
5541 54.28989 1425.53257 1391.28992 0.00072
5542 54.29824 1448.52065 1459.24011 0.00069
5543 54.30660 1473.92161 1413.75989 0.00071
5544 54.31496 1501.74361 1421.29004 0.00070
5545 54.32331 1531.87275 1528.80994 0.00065
5546 54.33167 1564.03873 1528.80994 0.00065
5547 54.34002 1597.76775 1681.00000 0.00059
5548 54.34838 1632.33409 1584.03992 0.00063
5549 54.35673 1666.74046 1705.68994 0.00059
5550 54.36509 1699.72803 1705.68994 0.00059
5551 54.37344 1729.84241 1849.00000 0.00054
5552 54.38180 1755.59736 1755.61011 0.00057
5553 54.39016 1775.70533 1764.00000 0.00057
5554 54.39851 1789.32155 1806.25000 0.00055
5555 54.40687 1796.23272 1900.95984 0.00053
5556 54.41522 1796.93163 1772.40991 0.00056
5557 54.42358 1792.54270 1764.00000 0.00057
5558 54.43193 1784.61407 1780.84009 0.00056
5559 54.44029 1774.85118 1789.28992 0.00056
5560 54.44865 1764.88414 1738.89001 0.00058
5561 54.45700 1756.09805 1772.40991 0.00056
5562 54.46536 1749.54193 1681.00000 0.00059
5563 54.47371 1745.89929 1689.20984 0.00059
5564 54.48207 1745.49058 1738.89001 0.00058
5565 54.49042 1748.28885 1681.00000 0.00059
5566 54.49878 1753.93059 1689.20984 0.00059
5567 54.50713 1761.74569 1755.61011 0.00057
5568 54.51549 1770.80147 1672.81018 0.00060
5569 54.52385 1779.98719 1797.76013 0.00056
5570 54.53220 1788.12336 1747.23999 0.00057
5571 54.54056 1794.10159 1789.28992 0.00056
5572 54.54891 1797.02596 1806.25000 0.00055
5573 54.55727 1796.30319 1764.00000 0.00057
5574 54.56562 1791.65527 1722.25000 0.00058
5575 54.57398 1783.09894 1730.55981 0.00058
5576 54.58234 1770.90437 1780.84009 0.00056
5577 54.59069 1755.56071 1780.84009 0.00056
5578 54.59905 1737.73720 1705.68994 0.00059
5579 54.60740 1718.25496 1764.00000 0.00057
5580 54.61576 1698.02206 1672.81018 0.00060
5581 54.62411 1677.95775 1672.81018 0.00060
5582 54.63247 1658.90335 1640.25000 0.00061
5583 54.64082 1641.55767 1552.36011 0.00064
5584 54.64918 1626.44260 1560.25000 0.00064
5585 54.65754 1613.89370 1497.69006 0.00067
5586 54.66589 1604.07869 1544.48999 0.00065
5587 54.67425 1597.01754 1552.36011 0.00064
5588 54.68260 1592.59869 1497.69006 0.00067
5589 54.69096 1590.61259 1451.60986 0.00069
5590 54.69931 1590.74490 1568.15991 0.00064
5591 54.70767 1592.58766 1536.64001 0.00065
5592 54.71603 1595.67812 1552.36011 0.00064
5593 54.72438 1599.52529 1536.64001 0.00065
5594 54.73274 1603.63961 1552.36011 0.00064
5595 54.74109 1607.59018 1552.36011 0.00064
5596 54.74945 1611.02882 1560.25000 0.00064
5597 54.75780 1613.70138 1584.03992 0.00063
5598 54.76616 1615.44922 1592.01013 0.00063
5599 54.77451 1616.21602 1592.01013 0.00063
5600 54.78287 1616.05872 1544.48999 0.00065
5601 54.79123 1615.16610 1521.00000 0.00066
5602 54.79958 1613.85409 1513.21008 0.00066
5603 54.80794 1612.52866 1536.64001 0.00065
5604 54.81629 1611.62058 1436.41016 0.00070
5605 54.82465 1611.50219 1576.09009 0.00063
5606 54.83300 1612.38830 1521.00000 0.00066
5607 54.84136 1614.29430 1568.15991 0.00064
5608 54.84972 1617.00476 1600.00000 0.00063
5609 54.85807 1620.08006 1513.21008 0.00066
5610 54.86643 1622.90116 1576.09009 0.00063
5611 54.87478 1624.74992 1474.56006 0.00068
5612 54.88314 1624.91858 1576.09009 0.00063
5613 54.89149 1622.82126 1560.25000 0.00064
5614 54.89985 1618.09473 1624.08997 0.00062
5615 54.90821 1610.63800 1459.24011 0.00069
5616 54.91656 1600.59313 1608.00989 0.00062
5617 54.92492 1588.33259 1616.04004 0.00062
5618 54.93327 1574.36086 1616.04004 0.00062
5619 54.94163 1559.26349 1513.21008 0.00066
5620 54.94998 1543.64837 1544.48999 0.00065
5621 54.95834 1528.08991 1451.60986 0.00069
5622 54.96669 1513.08006 1497.69006 0.00067
5623 54.97505 1498.98483 1536.64001 0.00065
5624 54.98341 1486.01699 1528.80994 0.00065
5625 54.99176 1474.22646 1428.83997 0.00070
5626 55.00012 1463.50438 1474.56006 0.00068
5627 55.00847 1453.60236 1528.80994 0.00065
5628 55.01683 1444.17870 1444.00000 0.00069
5629 55.02518 1434.85359 1428.83997 0.00070
5630 55.03354 1425.28279 1436.41016 0.00070
5631 55.04190 1415.22081 1513.21008 0.00066
5632 55.05025 1404.56294 1428.83997 0.00070
5633 55.05861 1393.35588 1383.84009 0.00072
5634 55.06696 1381.77032 1361.61011 0.00073
5635 55.07532 1370.04644 1369.00000 0.00073
5636 55.08367 1358.43888 1376.40991 0.00073
5637 55.09203 1347.18244 1310.44006 0.00076
5638 55.10038 1336.47818 1361.61011 0.00073
5639 55.10874 1326.47649 1354.23999 0.00074
5640 55.11710 1317.27185 1274.49011 0.00078
5641 55.12545 1308.92301 1303.20984 0.00077
5642 55.13381 1301.45272 1267.35986 0.00079
5643 55.14216 1294.85677 1281.63989 0.00078
5644 55.15052 1289.10718 1267.35986 0.00079
5645 55.15887 1284.15518 1296.00000 0.00077
5646 55.16723 1279.93783 1267.35986 0.00079
5647 55.17559 1276.38296 1339.55994 0.00075
5648 55.18394 1273.41644 1274.49011 0.00078
5649 55.19230 1270.97238 1288.81006 0.00078
5650 55.20065 1269.00270 1288.81006 0.00078
5651 55.20901 1267.48127 1225.00000 0.00082
5652 55.21736 1266.40767 1332.25000 0.00075
5653 55.22572 1265.80476 1296.00000 0.00077
5654 55.23407 1265.71363 1239.04004 0.00081
5655 55.24243 1266.18776 1324.96008 0.00075
5656 55.25079 1267.27965 1281.63989 0.00078
5657 55.25914 1269.05047 1274.49011 0.00078
5658 55.26750 1271.57267 1281.63989 0.00078
5659 55.27585 1274.88613 1211.03992 0.00083
5660 55.28421 1279.03048 1339.55994 0.00075
5661 55.29256 1284.03515 1288.81006 0.00078
5662 55.30092 1289.91895 1339.55994 0.00075
5663 55.30928 1296.69172 1324.96008 0.00075
5664 55.31763 1304.35685 1267.35986 0.00079
5665 55.32599 1312.91640 1324.96008 0.00075
5666 55.33434 1322.37974 1317.68994 0.00076
5667 55.34270 1332.77255 1324.96008 0.00075
5668 55.35105 1344.13833 1332.25000 0.00075
5669 55.35941 1356.53738 1296.00000 0.00077
5670 55.36776 1370.03840 1391.28992 0.00072
5671 55.37612 1384.68943 1346.89001 0.00074
5672 55.38448 1400.47070 1369.00000 0.00073
5673 55.39283 1417.28132 1421.29004 0.00070
5674 55.40119 1434.90630 1421.29004 0.00070
5675 55.40954 1452.99442 1444.00000 0.00069
5676 55.41790 1471.03526 1444.00000 0.00069
5677 55.42625 1488.37210 1413.75989 0.00071
5678 55.43461 1504.23375 1474.56006 0.00068
5679 55.44297 1517.79677 1482.25000 0.00067
5680 55.45132 1528.28110 1536.64001 0.00065
5681 55.45968 1535.07596 1552.36011 0.00064
5682 55.46803 1537.84668 1513.21008 0.00066
5683 55.47639 1536.60046 1544.48999 0.00065
5684 55.48474 1531.70818 1576.09009 0.00063
5685 55.49310 1523.84252 1466.88989 0.00068
5686 55.50146 1513.85766 1521.00000 0.00066
5687 55.50981 1502.65781 1528.80994 0.00065
5688 55.51817 1491.09168 1444.00000 0.00069
5689 55.52652 1479.86832 1406.25000 0.00071
5690 55.53488 1469.51894 1497.69006 0.00067
5691 55.54323 1460.37342 1436.41016 0.00070
5692 55.55159 1452.56339 1459.24011 0.00069
5693 55.55994 1446.05416 1459.24011 0.00069
5694 55.56830 1440.65922 1459.24011 0.00069
5695 55.57666 1436.05234 1436.41016 0.00070
5696 55.58501 1431.79482 1376.40991 0.00073
5697 55.59337 1427.40153 1466.88989 0.00068
5698 55.60172 1422.39175 1398.76013 0.00071
5699 55.61008 1416.36381 1369.00000 0.00073
5700 55.61843 1409.05700 1444.00000 0.00069
5701 55.62679 1400.38941 1361.61011 0.00073
5702 55.63515 1390.47135 1391.28992 0.00072
5703 55.64350 1379.57683 1346.89001 0.00074
5704 55.65186 1368.03660 1354.23999 0.00074
5705 55.66021 1356.21055 1376.40991 0.00073
5706 55.66857 1344.43032 1369.00000 0.00073
5707 55.67692 1332.97003 1324.96008 0.00075
5708 55.68528 1322.03918 1346.89001 0.00074
5709 55.69363 1311.77768 1332.25000 0.00075
5710 55.70199 1302.26558 1310.44006 0.00076
5711 55.71035 1293.54211 1310.44006 0.00076
5712 55.71870 1285.61905 1324.96008 0.00075
5713 55.72706 1278.49111 1281.63989 0.00078
5714 55.73541 1272.14455 1239.04004 0.00081
5715 55.74377 1266.56396 1190.25000 0.00084
5716 55.75212 1261.73626 1197.15991 0.00084
5717 55.76048 1257.64682 1232.00989 0.00081
5718 55.76884 1254.27437 1288.81006 0.00078
5719 55.77719 1251.59622 1218.01013 0.00082
5720 55.78555 1249.58740 1274.49011 0.00078
5721 55.79390 1248.21688 1176.48999 0.00085
5722 55.80226 1247.45093 1162.80994 0.00086
5723 55.81061 1247.26144 1246.08997 0.00080
5724 55.81897 1247.61837 1211.03992 0.00083
5725 55.82732 1248.49000 1246.08997 0.00080
5726 55.83568 1249.84052 1267.35986 0.00079
5727 55.84404 1251.62814 1267.35986 0.00079
5728 55.85239 1253.80174 1232.00989 0.00081
5729 55.86075 1256.29666 1246.08997 0.00080
5730 55.86910 1259.05254 1281.63989 0.00078
5731 55.87746 1262.01892 1246.08997 0.00080
5732 55.88581 1265.15420 1246.08997 0.00080
5733 55.89417 1268.44318 1218.01013 0.00082
5734 55.90253 1271.90389 1232.00989 0.00081
5735 55.91088 1275.58741 1288.81006 0.00078
5736 55.91924 1279.56707 1190.25000 0.00084
5737 55.92759 1283.92199 1232.00989 0.00081
5738 55.93595 1288.72342 1232.00989 0.00081
5739 55.94430 1294.01470 1288.81006 0.00078
5740 55.95266 1299.79711 1267.35986 0.00079
5741 55.96102 1306.02121 1303.20984 0.00077
5742 55.96937 1312.58035 1310.44006 0.00076
5743 55.97773 1319.30743 1303.20984 0.00077
5744 55.98608 1325.98580 1232.00989 0.00081
5745 55.99444 1332.36729 1274.49011 0.00078
5746 56.00279 1338.18964 1281.63989 0.00078
5747 56.01115 1343.20942 1239.04004 0.00081
5748 56.01950 1347.23313 1281.63989 0.00078
5749 56.02786 1350.14329 1303.20984 0.00077
5750 56.03622 1351.90987 1296.00000 0.00077
5751 56.04457 1352.60013 1346.89001 0.00074
5752 56.05293 1352.36774 1296.00000 0.00077
5753 56.06128 1351.42648 1332.25000 0.00075
5754 56.06964 1350.02011 1324.96008 0.00075
5755 56.07799 1348.39153 1267.35986 0.00079
5756 56.08635 1346.75873 1288.81006 0.00078
5757 56.09471 1345.30256 1296.00000 0.00077
5758 56.10306 1344.16320 1324.96008 0.00075
5759 56.11142 1343.43530 1267.35986 0.00079
5760 56.11977 1343.17467 1281.63989 0.00078
5761 56.12813 1343.39791 1332.25000 0.00075
5762 56.13648 1344.08788 1339.55994 0.00075
5763 56.14484 1345.20137 1383.84009 0.00072
5764 56.15319 1346.68184 1354.23999 0.00074
5765 56.16155 1348.47624 1317.68994 0.00076
5766 56.16991 1350.55208 1383.84009 0.00072
5767 56.17826 1352.91305 1274.49011 0.00078
5768 56.18662 1355.60644 1317.68994 0.00076
5769 56.19497 1358.73745 1376.40991 0.00073
5770 56.20333 1362.45831 1303.20984 0.00077
5771 56.21168 1366.95027 1346.89001 0.00074
5772 56.22004 1372.42093 1369.00000 0.00073
5773 56.22840 1379.09678 1369.00000 0.00073
5774 56.23675 1387.20911 1332.25000 0.00075
5775 56.24511 1396.98068 1383.84009 0.00072
5776 56.25346 1408.63544 1332.25000 0.00075
5777 56.26182 1422.40517 1466.88989 0.00068
5778 56.27017 1438.52199 1376.40991 0.00073
5779 56.27853 1457.21233 1376.40991 0.00073
5780 56.28688 1478.68840 1391.28992 0.00072
5781 56.29524 1503.13570 1444.00000 0.00069
5782 56.30360 1530.69772 1474.56006 0.00068
5783 56.31195 1561.45664 1474.56006 0.00068
5784 56.32031 1595.41583 1505.43994 0.00066
5785 56.32866 1632.48893 1544.48999 0.00065
5786 56.33702 1672.47024 1428.83997 0.00070
5787 56.34537 1715.01825 1544.48999 0.00065
5788 56.35373 1759.64768 1664.63989 0.00060
5789 56.36209 1805.73439 1624.08997 0.00062
5790 56.37044 1852.50961 1672.81018 0.00060
5791 56.37880 1899.06737 1747.23999 0.00057
5792 56.38715 1944.33131 1722.25000 0.00058
5793 56.39551 1987.06816 1823.29004 0.00055
5794 56.40386 2025.91897 1814.75989 0.00055
5795 56.41222 2059.47196 1857.60986 0.00054
5796 56.42057 2086.40110 1971.36011 0.00051
5797 56.42893 2105.66123 1998.09009 0.00050
5798 56.43729 2116.67984 1953.64001 0.00051
5799 56.44564 2119.48918 1953.64001 0.00051
5800 56.45400 2114.76782 1989.15991 0.00050
5801 56.46235 2103.74792 1998.09009 0.00050
5802 56.47071 2088.01349 1874.88989 0.00053
5803 56.47906 2069.24896 1927.21008 0.00052
5804 56.48742 2049.00855 1936.00000 0.00052
5805 56.49578 2028.55214 1892.25000 0.00053
5806 56.50413 2008.76782 1909.69006 0.00052
5807 56.51249 1990.17258 1909.69006 0.00052
5808 56.52084 1972.97237 1900.95984 0.00053
5809 56.52920 1957.12761 1892.25000 0.00053
5810 56.53755 1942.39884 1849.00000 0.00054
5811 56.54591 1928.37107 1857.60986 0.00054
5812 56.55427 1914.49179 1806.25000 0.00055
5813 56.56262 1900.09358 1780.84009 0.00056
5814 56.57098 1884.45175 1806.25000 0.00055
5815 56.57933 1866.88627 1705.68994 0.00059
5816 56.58769 1846.87583 1755.61011 0.00057
5817 56.59604 1824.15994 1664.63989 0.00060
5818 56.60440 1798.79409 1713.96008 0.00058
5819 56.61275 1771.13844 1738.89001 0.00058
5820 56.62111 1741.77592 1681.00000 0.00059
5821 56.62947 1711.39433 1592.01013 0.00063
5822 56.63782 1680.66020 1672.81018 0.00060
5823 56.64618 1650.13331 1568.15991 0.00064
5824 56.65453 1620.22216 1568.15991 0.00064
5825 56.66289 1591.18987 1521.00000 0.00066
5826 56.67124 1563.19808 1513.21008 0.00066
5827 56.67960 1536.33825 1544.48999 0.00065
5828 56.68796 1510.66221 1552.36011 0.00064
5829 56.69631 1486.22868 1444.00000 0.00069
5830 56.70467 1463.10728 1428.83997 0.00070
5831 56.71302 1441.36960 1398.76013 0.00071
5832 56.72138 1421.07766 1383.84009 0.00072
5833 56.72973 1402.26739 1376.40991 0.00073
5834 56.73809 1384.94011 1339.55994 0.00075
5835 56.74644 1369.06320 1361.61011 0.00073
5836 56.75480 1354.57313 1361.61011 0.00073
5837 56.76316 1341.38365 1332.25000 0.00075
5838 56.77151 1329.40435 1253.16016 0.00080
5839 56.77987 1318.54264 1281.63989 0.00078
5840 56.78822 1308.69930 1288.81006 0.00078
5841 56.79658 1299.76815 1369.00000 0.00073
5842 56.80493 1291.64573 1260.25000 0.00079
5843 56.81329 1284.23516 1197.15991 0.00084
5844 56.82165 1277.44524 1232.00989 0.00081
5845 56.83000 1271.18471 1267.35986 0.00079
5846 56.83836 1265.37770 1156.00000 0.00087
5847 56.84671 1259.96653 1317.68994 0.00076
5848 56.85507 1254.90975 1303.20984 0.00077
5849 56.86342 1250.18077 1288.81006 0.00078
5850 56.87178 1245.76279 1176.48999 0.00085
5851 56.88013 1241.64179 1260.25000 0.00079
5852 56.88849 1237.79614 1190.25000 0.00084
5853 56.89685 1234.19231 1281.63989 0.00078
5854 56.90520 1230.79040 1197.15991 0.00084
5855 56.91356 1227.54683 1260.25000 0.00079
5856 56.92191 1224.41505 1225.00000 0.00082
5857 56.93027 1221.34803 1197.15991 0.00084
5858 56.93862 1218.30337 1197.15991 0.00084
5859 56.94698 1215.24925 1218.01013 0.00082
5860 56.95534 1212.16810 1197.15991 0.00084
5861 56.96369 1209.05713 1253.16016 0.00080
5862 56.97205 1205.93062 1169.64001 0.00085
5863 56.98040 1202.81626 1197.15991 0.00084
5864 56.98876 1199.74724 1183.36011 0.00085
5865 56.99711 1196.76463 1115.56006 0.00090
5866 57.00547 1193.91206 1149.21008 0.00087
5867 57.01382 1191.21756 1169.64001 0.00085
5868 57.02218 1188.69743 1190.25000 0.00084
5869 57.03054 1186.35736 1176.48999 0.00085
5870 57.03889 1184.18982 1156.00000 0.00087
5871 57.04725 1182.18290 1183.36011 0.00085
5872 57.05560 1180.31935 1183.36011 0.00085
5873 57.06396 1178.57134 1183.36011 0.00085
5874 57.07231 1176.91001 1149.21008 0.00087
5875 57.08067 1175.31234 1232.00989 0.00081
5876 57.08903 1173.75321 1122.25000 0.00089
5877 57.09738 1172.20986 1135.69006 0.00088
5878 57.10574 1170.66141 1190.25000 0.00084
5879 57.11409 1169.10180 1211.03992 0.00083
5880 57.12245 1167.53671 1169.64001 0.00085
5881 57.13080 1165.98203 1128.95984 0.00089
5882 57.13916 1164.45616 1176.48999 0.00085
5883 57.14752 1162.98324 1095.60986 0.00091
5884 57.15587 1161.59012 1135.69006 0.00088
5885 57.16423 1160.30070 1197.15991 0.00084
5886 57.17258 1159.13301 1149.21008 0.00087
5887 57.18094 1158.10245 1204.09009 0.00083
5888 57.18929 1157.22208 1156.00000 0.00087
5889 57.19765 1156.50456 1135.69006 0.00088
5890 57.20600 1155.95723 1197.15991 0.00084
5891 57.21436 1155.59647 1149.21008 0.00087
5892 57.22272 1155.42950 1115.56006 0.00090
5893 57.23107 1155.45735 1149.21008 0.00087
5894 57.23943 1155.68223 1197.15991 0.00084
5895 57.24778 1156.10353 1095.60986 0.00091
5896 57.25614 1156.72122 1135.69006 0.00088
5897 57.26449 1157.54791 1149.21008 0.00087
5898 57.27285 1158.57509 1149.21008 0.00087
5899 57.28121 1159.79469 1142.43994 0.00088
5900 57.28956 1161.19391 1115.56006 0.00090
5901 57.29792 1162.75128 1176.48999 0.00085
5902 57.30627 1164.43798 1128.95984 0.00089
5903 57.31463 1166.21897 1183.36011 0.00085
5904 57.32298 1168.05247 1135.69006 0.00088
5905 57.33134 1169.89406 1128.95984 0.00089
5906 57.33969 1171.70304 1232.00989 0.00081
5907 57.34805 1173.43325 1176.48999 0.00085
5908 57.35641 1175.04126 1128.95984 0.00089
5909 57.36476 1176.48908 1135.69006 0.00088
5910 57.37312 1177.75101 1169.64001 0.00085
5911 57.38147 1178.79205 1162.80994 0.00086
5912 57.38983 1179.58086 1115.56006 0.00090
5913 57.39818 1180.09822 1162.80994 0.00086
5914 57.40654 1180.34722 1095.60986 0.00091
5915 57.41490 1180.35268 1135.69006 0.00088
5916 57.42325 1180.17156 1197.15991 0.00084
5917 57.43161 1179.87334 1135.69006 0.00088
5918 57.43996 1179.53838 1169.64001 0.00085
5919 57.44832 1179.25104 1204.09009 0.00083
5920 57.45667 1179.08189 1183.36011 0.00085
5921 57.46503 1179.09247 1128.95984 0.00089
5922 57.47338 1179.33130 1156.00000 0.00087
5923 57.48174 1179.83088 1190.25000 0.00084
5924 57.49010 1180.60920 1197.15991 0.00084
5925 57.49845 1181.68156 1135.69006 0.00088
5926 57.50681 1183.05447 1156.00000 0.00087
5927 57.51516 1184.73094 1156.00000 0.00087
5928 57.52352 1186.71531 1156.00000 0.00087
5929 57.53187 1189.00831 1176.48999 0.00085
5930 57.54023 1191.60536 1162.80994 0.00086
5931 57.54859 1194.49701 1156.00000 0.00087
5932 57.55694 1197.68084 1183.36011 0.00085
5933 57.56530 1201.16343 1142.43994 0.00088
5934 57.57365 1204.94526 1190.25000 0.00084
5935 57.58201 1209.02527 1225.00000 0.00082
5936 57.59036 1213.39409 1169.64001 0.00085
5937 57.59872 1218.02131 1102.23999 0.00091
5938 57.60708 1222.84302 1082.41016 0.00092
5939 57.61543 1227.75240 1204.09009 0.00083
5940 57.62379 1232.59867 1204.09009 0.00083
5941 57.63214 1237.18972 1211.03992 0.00083
5942 57.64050 1241.29838 1176.48999 0.00085
5943 57.64885 1244.68740 1246.08997 0.00080
5944 57.65721 1247.14775 1204.09009 0.00083
5945 57.66556 1248.53231 1190.25000 0.00084
5946 57.67392 1248.78577 1211.03992 0.00083
5947 57.68228 1247.95731 1232.00989 0.00081
5948 57.69063 1246.19222 1239.04004 0.00081
5949 57.69899 1243.70662 1176.48999 0.00085
5950 57.70734 1240.75357 1204.09009 0.00083
5951 57.71570 1237.58362 1232.00989 0.00081
5952 57.72405 1234.42094 1183.36011 0.00085
5953 57.73241 1231.44903 1176.48999 0.00085
5954 57.74077 1228.81041 1149.21008 0.00087
5955 57.74912 1226.59173 1190.25000 0.00084
5956 57.75748 1224.83050 1183.36011 0.00085
5957 57.76583 1223.52099 1225.00000 0.00082
5958 57.77419 1222.61932 1149.21008 0.00087
5959 57.78254 1222.04522 1162.80994 0.00086
5960 57.79090 1221.68881 1190.25000 0.00084
5961 57.79925 1221.42082 1204.09009 0.00083
5962 57.80761 1221.10831 1204.09009 0.00083
5963 57.81597 1220.63448 1204.09009 0.00083
5964 57.82432 1219.92652 1218.01013 0.00082
5965 57.83268 1218.96904 1162.80994 0.00086
5966 57.84103 1217.79704 1169.64001 0.00085
5967 57.84939 1216.49972 1211.03992 0.00083
5968 57.85774 1215.20444 1142.43994 0.00088
5969 57.86610 1214.05459 1176.48999 0.00085
5970 57.87446 1213.19482 1197.15991 0.00084
5971 57.88281 1212.75723 1232.00989 0.00081
5972 57.89117 1212.85668 1211.03992 0.00083
5973 57.89952 1213.59263 1197.15991 0.00084
5974 57.90788 1215.04913 1108.88989 0.00090
5975 57.91623 1217.29434 1232.00989 0.00081
5976 57.92459 1220.38603 1197.15991 0.00084
5977 57.93294 1224.36973 1197.15991 0.00084
5978 57.94130 1229.27871 1225.00000 0.00082
5979 57.94966 1235.13243 1176.48999 0.00085
5980 57.95801 1241.93558 1197.15991 0.00084
5981 57.96637 1249.67032 1190.25000 0.00084
5982 57.97472 1258.28727 1296.00000 0.00077
5983 57.98308 1267.70410 1317.68994 0.00076
5984 57.99143 1277.79002 1218.01013 0.00082
5985 57.99979 1288.35589 1267.35986 0.00079
5986 58.00815 1299.14607 1281.63989 0.00078
5987 58.01650 1309.81929 1267.35986 0.00079
5988 58.02486 1319.96664 1246.08997 0.00080
5989 58.03321 1329.13055 1317.68994 0.00076
5990 58.04157 1336.84647 1296.00000 0.00077
5991 58.04992 1342.69943 1296.00000 0.00077
5992 58.05828 1346.38925 1332.25000 0.00075
5993 58.06663 1347.79188 1296.00000 0.00077
5994 58.07499 1346.98238 1369.00000 0.00073
5995 58.08335 1344.22303 1339.55994 0.00075
5996 58.09170 1339.91594 1303.20984 0.00077
5997 58.10006 1334.53689 1361.61011 0.00073
5998 58.10841 1328.57965 1383.84009 0.00072
5999 58.11677 1322.49463 1332.25000 0.00075
6000 58.12512 1316.65448 1281.63989 0.00078
6001 58.13348 1311.34335 1332.25000 0.00075
6002 58.14184 1306.74527 1332.25000 0.00075
6003 58.15019 1302.95101 1274.49011 0.00078
6004 58.15855 1299.96826 1303.20984 0.00077
6005 58.16690 1297.73028 1332.25000 0.00075
6006 58.17526 1296.08764 1274.49011 0.00078
6007 58.18361 1294.82911 1310.44006 0.00076
6008 58.19197 1293.70142 1288.81006 0.00078
6009 58.20033 1292.43820 1246.08997 0.00080
6010 58.20868 1290.79417 1332.25000 0.00075
6011 58.21704 1288.58053 1296.00000 0.00077
6012 58.22539 1285.69898 1288.81006 0.00078
6013 58.23375 1282.16108 1183.36011 0.00085
6014 58.24210 1278.07462 1267.35986 0.00079
6015 58.25046 1273.61514 1383.84009 0.00072
6016 58.25881 1268.98974 1296.00000 0.00077
6017 58.26717 1264.40533 1149.21008 0.00087
6018 58.27553 1260.03814 1197.15991 0.00084
6019 58.28388 1256.01948 1267.35986 0.00079
6020 58.29224 1252.43611 1225.00000 0.00082
6021 58.30059 1249.32814 1176.48999 0.00085
6022 58.30895 1246.69269 1246.08997 0.00080
6023 58.31730 1244.48771 1225.00000 0.00082
6024 58.32566 1242.64714 1190.25000 0.00084
6025 58.33402 1241.09826 1274.49011 0.00078
6026 58.34237 1239.75205 1260.25000 0.00079
6027 58.35073 1238.52680 1267.35986 0.00079
6028 58.35908 1237.36511 1260.25000 0.00079
6029 58.36744 1236.22871 1281.63989 0.00078
6030 58.37579 1235.10103 1204.09009 0.00083
6031 58.38415 1234.00135 1225.00000 0.00082
6032 58.39250 1232.97721 1135.69006 0.00088
6033 58.40086 1232.09804 1102.23999 0.00091
6034 58.40922 1231.44574 1239.04004 0.00081
6035 58.41757 1231.10860 1232.00989 0.00081
6036 58.42593 1231.17082 1197.15991 0.00084
6037 58.43428 1231.70452 1176.48999 0.00085
6038 58.44264 1232.77750 1232.00989 0.00081
6039 58.45099 1234.44602 1190.25000 0.00084
6040 58.45935 1236.75033 1190.25000 0.00084
6041 58.46771 1239.71746 1253.16016 0.00080
6042 58.47606 1243.36165 1246.08997 0.00080
6043 58.48442 1247.68677 1246.08997 0.00080
6044 58.49277 1252.68763 1232.00989 0.00081
6045 58.50113 1258.35015 1281.63989 0.00078
6046 58.50948 1264.65826 1218.01013 0.00082
6047 58.51784 1271.59619 1218.01013 0.00082
6048 58.52619 1279.15325 1281.63989 0.00078
6049 58.53455 1287.33187 1176.48999 0.00085
6050 58.54291 1296.14601 1281.63989 0.00078
6051 58.55126 1305.62390 1317.68994 0.00076
6052 58.55962 1315.80375 1339.55994 0.00075
6053 58.56797 1326.72244 1332.25000 0.00075
6054 58.57633 1338.40196 1303.20984 0.00077
6055 58.58468 1350.83824 1339.55994 0.00075
6056 58.59304 1363.98865 1317.68994 0.00076
6057 58.60140 1377.71839 1376.40991 0.00073
6058 58.60975 1391.81188 1369.00000 0.00073
6059 58.61811 1405.97401 1391.28992 0.00072
6060 58.62646 1419.84720 1421.29004 0.00070
6061 58.63482 1433.04470 1346.89001 0.00074
6062 58.64317 1445.20092 1428.83997 0.00070
6063 58.65153 1456.02636 1413.75989 0.00071
6064 58.65988 1465.35775 1406.25000 0.00071
6065 58.66824 1473.17314 1346.89001 0.00074
6066 58.67660 1479.57419 1436.41016 0.00070
6067 58.68495 1484.74440 1406.25000 0.00071
6068 58.69331 1488.89027 1406.25000 0.00071
6069 58.70166 1492.18962 1436.41016 0.00070
6070 58.71002 1494.75552 1459.24011 0.00069
6071 58.71837 1496.61633 1521.00000 0.00066
6072 58.72673 1497.70859 1489.95984 0.00067
6073 58.73509 1497.90602 1576.09009 0.00063
6074 58.74344 1497.06797 1528.80994 0.00065
6075 58.75180 1495.06814 1466.88989 0.00068
6076 58.76015 1491.82974 1584.03992 0.00063
6077 58.76851 1487.34394 1466.88989 0.00068
6078 58.77686 1481.66702 1505.43994 0.00066
6079 58.78522 1474.90232 1528.80994 0.00065
6080 58.79358 1467.18151 1428.83997 0.00070
6081 58.80193 1458.65751 1466.88989 0.00068
6082 58.81029 1449.48458 1521.00000 0.00066
6083 58.81864 1439.83356 1436.41016 0.00070
6084 58.82700 1429.88894 1421.29004 0.00070
6085 58.83535 1419.84482 1444.00000 0.00069
6086 58.84371 1409.89010 1383.84009 0.00072
6087 58.85206 1400.18707 1406.25000 0.00071
6088 58.86042 1390.84367 1332.25000 0.00075
6089 58.86878 1381.90316 1260.25000 0.00079
6090 58.87713 1373.34395 1339.55994 0.00075
6091 58.88549 1365.07971 1361.61011 0.00073
6092 58.89384 1356.98051 1391.28992 0.00072
6093 58.90220 1348.90297 1391.28992 0.00072
6094 58.91055 1340.71770 1324.96008 0.00075
6095 58.91891 1332.33730 1296.00000 0.00077
6096 58.92727 1323.73573 1260.25000 0.00079
6097 58.93562 1314.95499 1332.25000 0.00075
6098 58.94398 1306.09170 1303.20984 0.00077
6099 58.95233 1297.27957 1281.63989 0.00078
6100 58.96069 1288.66681 1225.00000 0.00082
6101 58.96904 1280.39275 1260.25000 0.00079
6102 58.97740 1272.57081 1211.03992 0.00083
6103 58.98575 1265.28065 1281.63989 0.00078
6104 58.99411 1258.56321 1267.35986 0.00079
6105 59.00247 1252.42897 1296.00000 0.00077
6106 59.01082 1246.86472 1218.01013 0.00082
6107 59.01918 1241.83002 1197.15991 0.00084
6108 59.02753 1237.27295 1225.00000 0.00082
6109 59.03589 1233.13329 1232.00989 0.00081
6110 59.04424 1229.34443 1218.01013 0.00082
6111 59.05260 1225.85031 1267.35986 0.00079
6112 59.06096 1222.60152 1218.01013 0.00082
6113 59.06931 1219.55875 1246.08997 0.00080
6114 59.07767 1216.69950 1197.15991 0.00084
6115 59.08602 1214.01803 1115.56006 0.00090
6116 59.09438 1211.52395 1169.64001 0.00085
6117 59.10273 1209.23873 1204.09009 0.00083
6118 59.11109 1207.19383 1183.36011 0.00085
6119 59.11944 1205.42968 1204.09009 0.00083
6120 59.12780 1203.98727 1204.09009 0.00083
6121 59.13616 1202.89005 1169.64001 0.00085
6122 59.14451 1202.15286 1218.01013 0.00082
6123 59.15287 1201.78613 1176.48999 0.00085
6124 59.16122 1201.80822 1156.00000 0.00087
6125 59.16958 1202.21185 1169.64001 0.00085
6126 59.17793 1202.97651 1169.64001 0.00085
6127 59.18629 1204.08174 1149.21008 0.00087
6128 59.19465 1205.50710 1162.80994 0.00086
6129 59.20300 1207.23913 1225.00000 0.00082
6130 59.21136 1209.27528 1197.15991 0.00084
6131 59.21971 1211.62443 1225.00000 0.00082
6132 59.22807 1214.30854 1169.64001 0.00085
6133 59.23642 1217.37303 1190.25000 0.00084
6134 59.24478 1220.87912 1197.15991 0.00084
6135 59.25314 1224.89844 1197.15991 0.00084
6136 59.26149 1229.50273 1162.80994 0.00086
6137 59.26985 1234.75482 1246.08997 0.00080
6138 59.27820 1240.71224 1197.15991 0.00084
6139 59.28656 1247.41228 1211.03992 0.00083
6140 59.29491 1254.86690 1225.00000 0.00082
6141 59.30327 1263.06331 1232.00989 0.00081
6142 59.31162 1271.96670 1225.00000 0.00082
6143 59.31998 1281.51668 1246.08997 0.00080
6144 59.32834 1291.63037 1246.08997 0.00080
6145 59.33669 1302.20736 1246.08997 0.00080
6146 59.34505 1313.13070 1260.25000 0.00079
6147 59.35340 1324.25905 1274.49011 0.00078
6148 59.36176 1335.42593 1310.44006 0.00076
6149 59.37011 1346.43163 1354.23999 0.00074
6150 59.37847 1357.02846 1303.20984 0.00077
6151 59.38683 1366.92740 1288.81006 0.00078
6152 59.39518 1375.80934 1267.35986 0.00079
6153 59.40354 1383.35227 1376.40991 0.00073
6154 59.41189 1389.26395 1376.40991 0.00073
6155 59.42025 1393.34435 1369.00000 0.00073
6156 59.42860 1395.52511 1339.55994 0.00075
6157 59.43696 1395.88050 1296.00000 0.00077
6158 59.44531 1394.63459 1339.55994 0.00075
6159 59.45367 1392.12729 1369.00000 0.00073
6160 59.46203 1388.75566 1324.96008 0.00075
6161 59.47038 1384.93672 1346.89001 0.00074
6162 59.47874 1381.05742 1346.89001 0.00074
6163 59.48709 1377.43629 1346.89001 0.00074
6164 59.49545 1374.31110 1354.23999 0.00074
6165 59.50380 1371.83826 1376.40991 0.00073
6166 59.51216 1370.09442 1332.25000 0.00075
6167 59.52052 1369.08042 1369.00000 0.00073
6168 59.52887 1368.72512 1288.81006 0.00078
6169 59.53723 1368.89120 1361.61011 0.00073
6170 59.54558 1369.38209 1324.96008 0.00075
6171 59.55394 1369.95295 1296.00000 0.00077
6172 59.56229 1370.31565 1296.00000 0.00077
6173 59.57065 1370.16814 1383.84009 0.00072
6174 59.57900 1369.23086 1332.25000 0.00075
6175 59.58736 1367.28545 1482.25000 0.00067
6176 59.59572 1364.19594 1354.23999 0.00074
6177 59.60407 1359.93509 1398.76013 0.00071
6178 59.61243 1354.57076 1391.28992 0.00072
6179 59.62078 1348.25234 1369.00000 0.00073
6180 59.62914 1341.18281 1421.29004 0.00070
6181 59.63749 1333.58858 1324.96008 0.00075
6182 59.64585 1325.69277 1421.29004 0.00070
6183 59.65421 1317.69837 1383.84009 0.00072
6184 59.66256 1309.77765 1361.61011 0.00073
6185 59.67092 1302.07416 1288.81006 0.00078
6186 59.67927 1294.70796 1376.40991 0.00073
6187 59.68763 1287.77868 1296.00000 0.00077
6188 59.69598 1281.36985 1361.61011 0.00073
6189 59.70434 1275.55512 1296.00000 0.00077
6190 59.71269 1270.38187 1310.44006 0.00076
6191 59.72105 1265.87380 1260.25000 0.00079
6192 59.72941 1262.03246 1260.25000 0.00079
6193 59.73776 1258.83802 1267.35986 0.00079
6194 59.74612 1256.24818 1317.68994 0.00076
6195 59.75447 1254.20816 1332.25000 0.00075
6196 59.76283 1252.66509 1303.20984 0.00077
6197 59.77118 1251.56175 1260.25000 0.00079
6198 59.77954 1250.83824 1332.25000 0.00075
6199 59.78790 1250.43141 1267.35986 0.00079
6200 59.79625 1250.27993 1406.25000 0.00071
6201 59.80461 1250.31553 1339.55994 0.00075
6202 59.81296 1250.45529 1253.16016 0.00080
6203 59.82132 1250.59714 1332.25000 0.00075
6204 59.82967 1250.62679 1267.35986 0.00079
6205 59.83803 1250.42490 1296.00000 0.00077
6206 59.84639 1249.88392 1317.68994 0.00076
6207 59.85474 1248.92530 1274.49011 0.00078
6208 59.86310 1247.51388 1274.49011 0.00078
6209 59.87145 1245.66751 1303.20984 0.00077
6210 59.87981 1243.45787 1260.25000 0.00079
6211 59.88816 1240.99897 1267.35986 0.00079
6212 59.89652 1238.42876 1324.96008 0.00075
6213 59.90487 1235.88883 1253.16016 0.00080
6214 59.91323 1233.50349 1183.36011 0.00085
6215 59.92159 1231.36540 1197.15991 0.00084
6216 59.92994 1229.52635 1253.16016 0.00080
6217 59.93830 1227.99437 1239.04004 0.00081
6218 59.94665 1226.73462 1281.63989 0.00078
6219 59.95501 1225.67164 1239.04004 0.00081
6220 59.96336 1224.69679 1225.00000 0.00082
6221 59.97172 1223.68117 1246.08997 0.00080
6222 59.98008 1222.49704 1267.35986 0.00079
6223 59.98843 1221.04371 1267.35986 0.00079
6224 59.99679 1219.23329 1211.03992 0.00083
6225 60.00514 1217.00370 1246.08997 0.00080
6226 60.01350 1214.33551 1162.80994 0.00086
6227 60.02185 1211.24739 1281.63989 0.00078
6228 60.03021 1207.78809 1225.00000 0.00082
6229 60.03856 1204.04469 1225.00000 0.00082
6230 60.04692 1200.12215 1183.36011 0.00085
6231 60.05528 1196.13231 1190.25000 0.00084
6232 60.06363 1192.18181 1274.49011 0.00078
6233 60.07199 1188.36704 1183.36011 0.00085
6234 60.08034 1184.76520 1218.01013 0.00082
6235 60.08870 1181.42856 1115.56006 0.00090
6236 60.09705 1178.38211 1218.01013 0.00082
6237 60.10541 1175.62552 1218.01013 0.00082
6238 60.11377 1173.13750 1156.00000 0.00087
6239 60.12212 1170.88237 1197.15991 0.00084
6240 60.13048 1168.81606 1190.25000 0.00084
6241 60.13883 1166.89106 1225.00000 0.00082
6242 60.14719 1165.07279 1149.21008 0.00087
6243 60.15554 1163.34676 1225.00000 0.00082
6244 60.16390 1161.70592 1204.09009 0.00083
6245 60.17225 1160.16831 1156.00000 0.00087
6246 60.18061 1158.76621 1232.00989 0.00081
6247 60.18897 1157.53403 1162.80994 0.00086
6248 60.19732 1156.50978 1108.88989 0.00090
6249 60.20568 1155.73102 1218.01013 0.00082
6250 60.21403 1155.23275 1128.95984 0.00089
6251 60.22239 1155.03447 1142.43994 0.00088
6252 60.23074 1155.13847 1128.95984 0.00089
6253 60.23910 1155.53684 1162.80994 0.00086
6254 60.24746 1156.21087 1149.21008 0.00087
6255 60.25581 1157.12824 1135.69006 0.00088
6256 60.26417 1158.23812 1176.48999 0.00085
6257 60.27252 1159.47324 1142.43994 0.00088
6258 60.28088 1160.75143 1142.43994 0.00088
6259 60.28923 1161.97904 1142.43994 0.00088
6260 60.29759 1163.05362 1089.00000 0.00092
6261 60.30594 1163.87561 1176.48999 0.00085
6262 60.31430 1164.36384 1115.56006 0.00090
6263 60.32266 1164.46534 1082.41016 0.00092
6264 60.33101 1164.16666 1142.43994 0.00088
6265 60.33937 1163.49444 1149.21008 0.00087
6266 60.34772 1162.50840 1162.80994 0.00086
6267 60.35608 1161.30677 1156.00000 0.00087
6268 60.36443 1159.98713 1122.25000 0.00089
6269 60.37279 1158.64844 1162.80994 0.00086
6270 60.38115 1157.38459 1162.80994 0.00086
6271 60.38950 1156.27376 1183.36011 0.00085
6272 60.39786 1155.37521 1149.21008 0.00087
6273 60.40621 1154.72939 1108.88989 0.00090
6274 60.41457 1154.35735 1169.64001 0.00085
6275 60.42292 1154.26544 1149.21008 0.00087
6276 60.43128 1154.44743 1156.00000 0.00087
6277 60.43964 1154.87203 1169.64001 0.00085
6278 60.44799 1155.49334 1142.43994 0.00088
6279 60.45635 1156.25441 1095.60986 0.00091
6280 60.46470 1157.09003 1156.00000 0.00087
6281 60.47306 1157.93048 1089.00000 0.00092
6282 60.48141 1158.70844 1108.88989 0.00090
6283 60.48977 1159.36328 1211.03992 0.00083
6284 60.49812 1159.84860 1149.21008 0.00087
6285 60.50648 1160.13481 1162.80994 0.00086
6286 60.51484 1160.20684 1115.56006 0.00090
6287 60.52319 1160.06234 1135.69006 0.00088
6288 60.53155 1159.70928 1197.15991 0.00084
6289 60.53990 1159.16364 1128.95984 0.00089
6290 60.54826 1158.46653 1162.80994 0.00086
6291 60.55661 1157.66740 1162.80994 0.00086
6292 60.56497 1156.82546 1156.00000 0.00087
6293 60.57333 1156.00958 1156.00000 0.00087
6294 60.58168 1155.29026 1135.69006 0.00088
6295 60.59004 1154.73547 1169.64001 0.00085
6296 60.59839 1154.40846 1183.36011 0.00085
6297 60.60675 1154.36200 1183.36011 0.00085
6298 60.61510 1154.63801 1142.43994 0.00088
6299 60.62346 1155.26737 1122.25000 0.00089
6300 60.63181 1156.27144 1218.01013 0.00082
6301 60.64017 1157.66110 1135.69006 0.00088
6302 60.64853 1159.43758 1211.03992 0.00083
6303 60.65688 1161.59305 1135.69006 0.00088
6304 60.66524 1164.11098 1162.80994 0.00086
6305 60.67359 1166.96629 1183.36011 0.00085
6306 60.68195 1170.12492 1190.25000 0.00084
6307 60.69030 1173.54838 1135.69006 0.00088
6308 60.69866 1177.20019 1162.80994 0.00086
6309 60.70702 1181.03645 1183.36011 0.00085
6310 60.71537 1185.00657 1149.21008 0.00087
6311 60.72373 1189.05819 1169.64001 0.00085
6312 60.73208 1193.13741 1183.36011 0.00085
6313 60.74044 1197.18934 1197.15991 0.00084
6314 60.74879 1201.16357 1253.16016 0.00080
6315 60.75715 1205.01345 1204.09009 0.00083
6316 60.76550 1208.70058 1162.80994 0.00086
6317 60.77386 1212.20894 1089.00000 0.00092
6318 60.78222 1215.55735 1190.25000 0.00084
6319 60.79057 1218.79280 1162.80994 0.00086
6320 60.79893 1221.98235 1162.80994 0.00086
6321 60.80728 1225.19341 1169.64001 0.00085
6322 60.81564 1228.49506 1253.16016 0.00080
6323 60.82399 1231.95354 1267.35986 0.00079
6324 60.83235 1235.59706 1246.08997 0.00080
6325 60.84071 1239.42152 1232.00989 0.00081
6326 60.84906 1243.39324 1239.04004 0.00081
6327 60.85742 1247.46140 1296.00000 0.00077
6328 60.86577 1251.56668 1211.03992 0.00083
6329 60.87413 1255.64703 1197.15991 0.00084
6330 60.88248 1259.63925 1204.09009 0.00083
6331 60.89084 1263.48149 1218.01013 0.00082
6332 60.89920 1267.10345 1162.80994 0.00086
6333 60.90755 1270.41454 1183.36011 0.00085
6334 60.91591 1273.30182 1183.36011 0.00085
6335 60.92426 1275.62827 1246.08997 0.00080
6336 60.93262 1277.24397 1176.48999 0.00085
6337 60.94097 1278.00848 1190.25000 0.00084
6338 60.94933 1277.81469 1156.00000 0.00087
6339 60.95768 1276.60700 1225.00000 0.00082
6340 60.96604 1274.39943 1211.03992 0.00083
6341 60.97440 1271.27695 1232.00989 0.00081
6342 60.98275 1267.37493 1232.00989 0.00081
6343 60.99111 1262.86254 1204.09009 0.00083
6344 60.99946 1257.91979 1169.64001 0.00085
6345 61.00782 1252.71649 1197.15991 0.00084
6346 61.01617 1247.39863 1253.16016 0.00080
6347 61.02453 1242.08336 1211.03992 0.00083
6348 61.03289 1236.86177 1267.35986 0.00079
6349 61.04124 1231.80216 1232.00989 0.00081
6350 61.04960 1226.95222 1190.25000 0.00084
6351 61.05795 1222.33607 1211.03992 0.00083
6352 61.06631 1217.96392 1197.15991 0.00084
6353 61.07466 1213.83076 1232.00989 0.00081
6354 61.08302 1209.89977 1176.48999 0.00085
6355 61.09137 1206.11279 1190.25000 0.00084
6356 61.09973 1202.39385 1162.80994 0.00086
6357 61.10809 1198.65865 1190.25000 0.00084
6358 61.11644 1194.83246 1190.25000 0.00084
6359 61.12480 1190.85788 1169.64001 0.00085
6360 61.13315 1186.70060 1162.80994 0.00086
6361 61.14151 1182.36061 1149.21008 0.00087
6362 61.14986 1177.87019 1218.01013 0.00082
6363 61.15822 1173.28401 1156.00000 0.00087
6364 61.16658 1168.66642 1190.25000 0.00084
6365 61.17493 1164.08958 1156.00000 0.00087
6366 61.18329 1159.62024 1149.21008 0.00087
6367 61.19164 1155.31210 1142.43994 0.00088
6368 61.20000 1151.20992 1128.95984 0.00089
6369 61.20835 1147.35218 1156.00000 0.00087
6370 61.21671 1143.75855 1218.01013 0.00082
6371 61.22506 1140.43830 1102.23999 0.00091
6372 61.23342 1137.39398 1149.21008 0.00087
6373 61.24178 1134.62106 1142.43994 0.00088
6374 61.25013 1132.10936 1162.80994 0.00086
6375 61.25849 1129.84872 1156.00000 0.00087
6376 61.26684 1127.82650 1156.00000 0.00087
6377 61.27520 1126.02782 1095.60986 0.00091
6378 61.28355 1124.43306 1135.69006 0.00088
6379 61.29191 1123.02049 1176.48999 0.00085
6380 61.30027 1121.77586 1169.64001 0.00085
6381 61.30862 1120.68724 1176.48999 0.00085
6382 61.31698 1119.73889 1122.25000 0.00089
6383 61.32533 1118.91501 1102.23999 0.00091
6384 61.33369 1118.20329 1142.43994 0.00088
6385 61.34204 1117.59905 1162.80994 0.00086
6386 61.35040 1117.09858 1169.64001 0.00085
6387 61.35875 1116.69760 1149.21008 0.00087
6388 61.36711 1116.39053 1156.00000 0.00087
6389 61.37547 1116.17193 1156.00000 0.00087
6390 61.38382 1116.03246 1108.88989 0.00090
6391 61.39218 1115.96659 1043.28992 0.00096
6392 61.40053 1115.97121 1156.00000 0.00087
6393 61.40889 1116.03465 1095.60986 0.00091
6394 61.41724 1116.15188 1122.25000 0.00089
6395 61.42560 1116.33810 1095.60986 0.00091
6396 61.43396 1116.59688 1162.80994 0.00086
6397 61.44231 1116.92854 1135.69006 0.00088
6398 61.45067 1117.33945 1169.64001 0.00085
6399 61.45902 1117.83868 1156.00000 0.00087
6400 61.46738 1118.43934 1149.21008 0.00087
6401 61.47573 1119.15340 1232.00989 0.00081
6402 61.48409 1119.99508 1135.69006 0.00088
6403 61.49245 1120.98031 1156.00000 0.00087
6404 61.50080 1122.12398 1183.36011 0.00085
6405 61.50916 1123.44440 1122.25000 0.00089
6406 61.51751 1124.96306 1128.95984 0.00089
6407 61.52587 1126.70019 1108.88989 0.00090
6408 61.53422 1128.67386 1135.69006 0.00088
6409 61.54258 1130.90208 1162.80994 0.00086
6410 61.55093 1133.40502 1142.43994 0.00088
6411 61.55929 1136.20386 1089.00000 0.00092
6412 61.56765 1139.31860 1197.15991 0.00084
6413 61.57600 1142.76518 1232.00989 0.00081
6414 61.58436 1146.55947 1169.64001 0.00085
6415 61.59271 1150.71844 1156.00000 0.00087
6416 61.60107 1155.25578 1162.80994 0.00086
6417 61.60942 1160.17946 1176.48999 0.00085
6418 61.61778 1165.48947 1183.36011 0.00085
6419 61.62614 1171.17537 1183.36011 0.00085
6420 61.63449 1177.21257 1190.25000 0.00084
6421 61.64285 1183.55600 1211.03992 0.00083
6422 61.65120 1190.14276 1169.64001 0.00085
6423 61.65956 1196.89016 1183.36011 0.00085
6424 61.66791 1203.69837 1211.03992 0.00083
6425 61.67627 1210.45776 1156.00000 0.00087
6426 61.68462 1217.05856 1204.09009 0.00083
6427 61.69298 1223.40460 1135.69006 0.00088
6428 61.70134 1229.42373 1183.36011 0.00085
6429 61.70969 1235.07098 1169.64001 0.00085
6430 61.71805 1240.32867 1246.08997 0.00080
6431 61.72640 1245.19660 1232.00989 0.00081
6432 61.73476 1249.67477 1267.35986 0.00079
6433 61.74311 1253.75458 1204.09009 0.00083
6434 61.75147 1257.41483 1246.08997 0.00080
6435 61.75983 1260.60666 1218.01013 0.00082
6436 61.76818 1263.27070 1218.01013 0.00082
6437 61.77654 1265.35595 1253.16016 0.00080
6438 61.78489 1266.83804 1169.64001 0.00085
6439 61.79325 1267.73357 1274.49011 0.00078
6440 61.80160 1268.10682 1232.00989 0.00081
6441 61.80996 1268.06785 1267.35986 0.00079
6442 61.81831 1267.75362 1246.08997 0.00080
6443 61.82667 1267.30679 1225.00000 0.00082
6444 61.83503 1266.85452 1303.20984 0.00077
6445 61.84338 1266.50548 1267.35986 0.00079
6446 61.85174 1266.34139 1197.15991 0.00084
6447 61.86009 1266.41731 1239.04004 0.00081
6448 61.86845 1266.76444 1274.49011 0.00078
6449 61.87680 1267.39409 1239.04004 0.00081
6450 61.88516 1268.30405 1274.49011 0.00078
6451 61.89352 1269.47685 1274.49011 0.00078
6452 61.90187 1270.87268 1317.68994 0.00076
6453 61.91023 1272.42488 1239.04004 0.00081
6454 61.91858 1274.03477 1142.43994 0.00088
6455 61.92694 1275.58323 1296.00000 0.00077
6456 61.93529 1276.93933 1303.20984 0.00077
6457 61.94365 1277.97979 1246.08997 0.00080
6458 61.95200 1278.61253 1225.00000 0.00082
6459 61.96036 1278.79678 1296.00000 0.00077
6460 61.96872 1278.55559 1303.20984 0.00077
6461 61.97707 1277.97668 1369.00000 0.00073
6462 61.98543 1277.19898 1317.68994 0.00076
6463 61.99378 1276.39466 1288.81006 0.00078
6464 62.00214 1275.74793 1303.20984 0.00077
6465 62.01049 1275.42901 1274.49011 0.00078
6466 62.01885 1275.57701 1239.04004 0.00081
6467 62.02721 1276.29106 1239.04004 0.00081
6468 62.03556 1277.61855 1346.89001 0.00074
6469 62.04392 1279.55238 1267.35986 0.00079
6470 62.05227 1282.03004 1253.16016 0.00080
6471 62.06063 1284.93342 1324.96008 0.00075
6472 62.06898 1288.08675 1267.35986 0.00079
6473 62.07734 1291.26209 1274.49011 0.00078
6474 62.08570 1294.19805 1346.89001 0.00074
6475 62.09405 1296.61870 1296.00000 0.00077
6476 62.10241 1298.25752 1332.25000 0.00075
6477 62.11076 1298.89074 1339.55994 0.00075
6478 62.11912 1298.36742 1391.28992 0.00072
6479 62.12747 1296.63129 1346.89001 0.00074
6480 62.13583 1293.72825 1317.68994 0.00076
6481 62.14418 1289.79750 1317.68994 0.00076
6482 62.15254 1285.04829 1361.61011 0.00073
6483 62.16090 1279.72948 1239.04004 0.00081
6484 62.16925 1274.10003 1246.08997 0.00080
6485 62.17761 1268.40546 1281.63989 0.00078
6486 62.18596 1262.85211 1339.55994 0.00075
6487 62.19432 1257.60356 1296.00000 0.00077
6488 62.20267 1252.77816 1204.09009 0.00083
6489 62.21103 1248.44946 1253.16016 0.00080
6490 62.21939 1244.64955 1204.09009 0.00083
6491 62.22774 1241.36774 1204.09009 0.00083
6492 62.23610 1238.56026 1225.00000 0.00082
6493 62.24445 1236.15050 1239.04004 0.00081
6494 62.25281 1234.03435 1267.35986 0.00079
6495 62.26116 1232.09332 1225.00000 0.00082
6496 62.26952 1230.20620 1204.09009 0.00083
6497 62.27787 1228.25570 1288.81006 0.00078
6498 62.28623 1226.15647 1246.08997 0.00080
6499 62.29459 1223.87501 1225.00000 0.00082
6500 62.30294 1221.41391 1204.09009 0.00083
6501 62.31130 1218.81496 1274.49011 0.00078
6502 62.31965 1216.15234 1253.16016 0.00080
6503 62.32801 1213.52427 1246.08997 0.00080
6504 62.33636 1211.03893 1197.15991 0.00084
6505 62.34472 1208.80077 1274.49011 0.00078
6506 62.35308 1206.90287 1253.16016 0.00080
6507 62.36143 1205.42169 1218.01013 0.00082
6508 62.36979 1204.41712 1204.09009 0.00083
6509 62.37814 1203.93864 1225.00000 0.00082
6510 62.38650 1204.02773 1211.03992 0.00083
6511 62.39485 1204.71411 1246.08997 0.00080
6512 62.40321 1206.01893 1239.04004 0.00081
6513 62.41156 1207.95945 1204.09009 0.00083
6514 62.41992 1210.54797 1246.08997 0.00080
6515 62.42828 1213.78663 1183.36011 0.00085
6516 62.43663 1217.66863 1267.35986 0.00079
6517 62.44499 1222.17383 1267.35986 0.00079
6518 62.45334 1227.26895 1260.25000 0.00079
6519 62.46170 1232.90469 1218.01013 0.00082
6520 62.47005 1239.00959 1267.35986 0.00079
6521 62.47841 1245.48693 1267.35986 0.00079
6522 62.48677 1252.21501 1324.96008 0.00075
6523 62.49512 1259.05082 1274.49011 0.00078
6524 62.50348 1265.83752 1281.63989 0.00078
6525 62.51183 1272.41882 1324.96008 0.00075
6526 62.52019 1278.65404 1274.49011 0.00078
6527 62.52854 1284.43223 1281.63989 0.00078
6528 62.53690 1289.68911 1317.68994 0.00076
6529 62.54526 1294.41342 1303.20984 0.00077
6530 62.55361 1298.65130 1346.89001 0.00074
6531 62.56197 1302.50195 1324.96008 0.00075
6532 62.57032 1306.10289 1428.83997 0.00070
6533 62.57868 1309.62043 1296.00000 0.00077
6534 62.58703 1313.22467 1317.68994 0.00076
6535 62.59539 1317.07651 1369.00000 0.00073
6536 62.60374 1321.31998 1383.84009 0.00072
6537 62.61210 1326.06135 1274.49011 0.00078
6538 62.62046 1331.35295 1406.25000 0.00071
6539 62.62881 1337.19083 1376.40991 0.00073
6540 62.63717 1343.51361 1421.29004 0.00070
6541 62.64552 1350.20385 1466.88989 0.00068
6542 62.65388 1357.09672 1428.83997 0.00070
6543 62.66223 1363.99393 1428.83997 0.00070
6544 62.67059 1370.67566 1421.29004 0.00070
6545 62.67895 1376.91864 1369.00000 0.00073
6546 62.68730 1382.51352 1398.76013 0.00071
6547 62.69566 1387.28022 1369.00000 0.00073
6548 62.70401 1391.08237 1413.75989 0.00071
6549 62.71237 1393.80260 1406.25000 0.00071
6550 62.72072 1395.34261 1436.41016 0.00070
6551 62.72908 1395.62934 1376.40991 0.00073
6552 62.73743 1394.62510 1428.83997 0.00070
6553 62.74579 1392.33100 1391.28992 0.00072
6554 62.75415 1388.79953 1428.83997 0.00070
6555 62.76250 1384.14472 1489.95984 0.00067
6556 62.77086 1378.53819 1383.84009 0.00072
6557 62.77921 1372.20316 1466.88989 0.00068
6558 62.78757 1365.39603 1383.84009 0.00072
6559 62.79592 1358.37204 1428.83997 0.00070
6560 62.80428 1351.36278 1406.25000 0.00071
6561 62.81264 1344.55992 1383.84009 0.00072
6562 62.82099 1338.10435 1339.55994 0.00075
6563 62.82935 1332.08478 1436.41016 0.00070
6564 62.83770 1326.54505 1413.75989 0.00071
6565 62.84606 1321.49409 1383.84009 0.00072
6566 62.85441 1316.91551 1376.40991 0.00073
6567 62.86277 1312.77706 1310.44006 0.00076
6568 62.87112 1309.03667 1361.61011 0.00073
6569 62.87948 1305.64186 1346.89001 0.00074
6570 62.88784 1302.52470 1383.84009 0.00072
6571 62.89619 1299.60114 1361.61011 0.00073
6572 62.90455 1296.77163 1317.68994 0.00076
6573 62.91290 1293.92773 1281.63989 0.00078
6574 62.92126 1290.95911 1324.96008 0.00075
6575 62.92961 1287.76698 1296.00000 0.00077
6576 62.93797 1284.27845 1354.23999 0.00074
6577 62.94633 1280.44968 1354.23999 0.00074
6578 62.95468 1276.26133 1274.49011 0.00078
6579 62.96304 1271.72324 1383.84009 0.00072
6580 62.97139 1266.87110 1369.00000 0.00073
6581 62.97975 1261.75963 1421.29004 0.00070
6582 62.98810 1256.46706 1339.55994 0.00075
6583 62.99646 1251.08602 1376.40991 0.00073
6584 63.00481 1245.71735 1267.35986 0.00079
6585 63.01317 1240.46306 1281.63989 0.00078
6586 63.02153 1235.41859 1253.16016 0.00080
6587 63.02988 1230.66599 1346.89001 0.00074
6588 63.03824 1226.27086 1296.00000 0.00077
6589 63.04659 1222.28263 1274.49011 0.00078
6590 63.05495 1218.72899 1332.25000 0.00075
6591 63.06330 1215.62235 1211.03992 0.00083
6592 63.07166 1212.96148 1232.00989 0.00081
6593 63.08002 1210.73067 1274.49011 0.00078
6594 63.08837 1208.90202 1197.15991 0.00084
6595 63.09673 1207.43585 1361.61011 0.00073
6596 63.10508 1206.27844 1190.25000 0.00084
6597 63.11344 1205.36341 1246.08997 0.00080
6598 63.12179 1204.61368 1225.00000 0.00082
6599 63.13015 1203.94801 1204.09009 0.00083
6600 63.13851 1203.28897 1288.81006 0.00078
6601 63.14686 1202.57239 1225.00000 0.00082
6602 63.15522 1201.75527 1225.00000 0.00082
6603 63.16357 1200.82433 1310.44006 0.00076
6604 63.17193 1199.79104 1260.25000 0.00079
6605 63.18028 1198.68306 1274.49011 0.00078
6606 63.18864 1197.53536 1288.81006 0.00078
6607 63.19699 1196.38072 1211.03992 0.00083
6608 63.20535 1195.24220 1303.20984 0.00077
6609 63.21371 1194.12360 1211.03992 0.00083
6610 63.22206 1193.00820 1225.00000 0.00082
6611 63.23042 1191.86540 1197.15991 0.00084
6612 63.23877 1190.65116 1211.03992 0.00083
6613 63.24713 1189.31202 1288.81006 0.00078
6614 63.25548 1187.80514 1267.35986 0.00079
6615 63.26384 1186.09691 1288.81006 0.00078
6616 63.27220 1184.17090 1225.00000 0.00082
6617 63.28055 1182.03367 1296.00000 0.00077
6618 63.28891 1179.71669 1232.00989 0.00081
6619 63.29726 1177.26149 1176.48999 0.00085
6620 63.30562 1174.71342 1218.01013 0.00082
6621 63.31397 1172.12235 1218.01013 0.00082
6622 63.32233 1169.53807 1190.25000 0.00084
6623 63.33068 1167.00670 1239.04004 0.00081
6624 63.33904 1164.57040 1128.95984 0.00089
6625 63.34740 1162.26351 1232.00989 0.00081
6626 63.35575 1160.11749 1183.36011 0.00085
6627 63.36411 1158.15659 1225.00000 0.00082
6628 63.37246 1156.39532 1183.36011 0.00085
6629 63.38082 1154.83494 1183.36011 0.00085
6630 63.38917 1153.46819 1211.03992 0.00083
6631 63.39753 1152.27705 1274.49011 0.00078
6632 63.40589 1151.23478 1239.04004 0.00081
6633 63.41424 1150.30859 1190.25000 0.00084
6634 63.42260 1149.46540 1197.15991 0.00084
6635 63.43095 1148.67331 1183.36011 0.00085
6636 63.43931 1147.91042 1183.36011 0.00085
6637 63.44766 1147.16740 1211.03992 0.00083
6638 63.45602 1146.44677 1176.48999 0.00085
6639 63.46437 1145.76158 1149.21008 0.00087
6640 63.47273 1145.12970 1197.15991 0.00084
6641 63.48109 1144.57213 1232.00989 0.00081
6642 63.48944 1144.11060 1169.64001 0.00085
6643 63.49780 1143.76044 1115.56006 0.00090
6644 63.50615 1143.52843 1183.36011 0.00085
6645 63.51451 1143.41259 1225.00000 0.00082
6646 63.52286 1143.40084 1183.36011 0.00085
6647 63.53122 1143.47718 1142.43994 0.00088
6648 63.53958 1143.62191 1142.43994 0.00088
6649 63.54793 1143.80782 1197.15991 0.00084
6650 63.55629 1144.00566 1149.21008 0.00087
6651 63.56464 1144.19118 1122.25000 0.00089
6652 63.57300 1144.34864 1218.01013 0.00082
6653 63.58135 1144.46720 1169.64001 0.00085
6654 63.58971 1144.54312 1169.64001 0.00085
6655 63.59806 1144.58273 1162.80994 0.00086
6656 63.60642 1144.60207 1239.04004 0.00081
6657 63.61478 1144.62487 1162.80994 0.00086
6658 63.62313 1144.68018 1190.25000 0.00084
6659 63.63149 1144.79998 1176.48999 0.00085
6660 63.63984 1145.01559 1218.01013 0.00082
6661 63.64820 1145.35576 1169.64001 0.00085
6662 63.65655 1145.84718 1190.25000 0.00084
6663 63.66491 1146.50866 1135.69006 0.00088
6664 63.67327 1147.35198 1169.64001 0.00085
6665 63.68162 1148.38452 1135.69006 0.00088
6666 63.68998 1149.60185 1149.21008 0.00087
6667 63.69833 1150.99237 1183.36011 0.00085
6668 63.70669 1152.53789 1225.00000 0.00082
6669 63.71504 1154.21516 1218.01013 0.00082
6670 63.72340 1155.99715 1156.00000 0.00087
6671 63.73176 1157.85356 1176.48999 0.00085
6672 63.74011 1159.75620 1169.64001 0.00085
6673 63.74847 1161.68135 1156.00000 0.00087
6674 63.75682 1163.61288 1176.48999 0.00085
6675 63.76518 1165.54583 1183.36011 0.00085
6676 63.77353 1167.48905 1204.09009 0.00083
6677 63.78189 1169.46464 1176.48999 0.00085
6678 63.79024 1171.50500 1162.80994 0.00086
6679 63.79860 1173.65338 1260.25000 0.00079
6680 63.80696 1175.95678 1204.09009 0.00083
6681 63.81531 1178.46193 1253.16016 0.00080
6682 63.82367 1181.21809 1274.49011 0.00078
6683 63.83202 1184.26977 1211.03992 0.00083
6684 63.84038 1187.65486 1128.95984 0.00089
6685 63.84873 1191.40517 1239.04004 0.00081
6686 63.85709 1195.54676 1225.00000 0.00082
6687 63.86545 1200.10140 1246.08997 0.00080
6688 63.87380 1205.08878 1197.15991 0.00084
6689 63.88216 1210.53164 1310.44006 0.00076
6690 63.89051 1216.44930 1190.25000 0.00084
6691 63.89887 1222.85111 1267.35986 0.00079
6692 63.90722 1229.74111 1211.03992 0.00083
6693 63.91558 1237.11169 1281.63989 0.00078
6694 63.92393 1244.93772 1274.49011 0.00078
6695 63.93229 1253.17186 1218.01013 0.00082
6696 63.94065 1261.74045 1303.20984 0.00077
6697 63.94900 1270.53691 1239.04004 0.00081
6698 63.95736 1279.41764 1232.00989 0.00081
6699 63.96571 1288.20169 1267.35986 0.00079
6700 63.97407 1296.66519 1288.81006 0.00078
6701 63.98242 1304.55332 1296.00000 0.00077
6702 63.99078 1311.60012 1281.63989 0.00078
6703 63.99914 1317.54345 1346.89001 0.00074
6704 64.00749 1322.14933 1324.96008 0.00075
6705 64.01585 1325.25169 1354.23999 0.00074
6706 64.02420 1326.77566 1332.25000 0.00075
6707 64.03256 1326.75299 1376.40991 0.00073
6708 64.04091 1325.32243 1288.81006 0.00078
6709 64.04927 1322.71145 1361.61011 0.00073
6710 64.05762 1319.20795 1361.61011 0.00073
6711 64.06598 1315.12875 1310.44006 0.00076
6712 64.07434 1310.78733 1324.96008 0.00075
6713 64.08269 1306.46946 1253.16016 0.00080
6714 64.09105 1302.41670 1197.15991 0.00084
6715 64.09940 1298.82099 1332.25000 0.00075
6716 64.10776 1295.82571 1324.96008 0.00075
6717 64.11611 1293.51475 1303.20984 0.00077
6718 64.12447 1291.92174 1339.55994 0.00075
6719 64.13283 1291.03700 1281.63989 0.00078
6720 64.14118 1290.80434 1303.20984 0.00077
6721 64.14954 1291.12047 1253.16016 0.00080
6722 64.15789 1291.84700 1225.00000 0.00082
6723 64.16625 1292.81834 1274.49011 0.00078
6724 64.17460 1293.85270 1296.00000 0.00077
6725 64.18296 1294.76792 1317.68994 0.00076
6726 64.19132 1295.39936 1211.03992 0.00083
6727 64.19967 1295.61585 1310.44006 0.00076
6728 64.20803 1295.33065 1346.89001 0.00074
6729 64.21638 1294.50799 1232.00989 0.00081
6730 64.22474 1293.15658 1296.00000 0.00077
6731 64.23309 1291.32172 1361.61011 0.00073
6732 64.24145 1289.07426 1303.20984 0.00077
6733 64.24980 1286.49970 1288.81006 0.00078
6734 64.25816 1283.69152 1281.63989 0.00078
6735 64.26652 1280.74212 1281.63989 0.00078
6736 64.27487 1277.73785 1288.81006 0.00078
6737 64.28323 1274.75465 1260.25000 0.00079
6738 64.29158 1271.85502 1288.81006 0.00078
6739 64.29994 1269.08214 1115.56006 0.00090
6740 64.30829 1266.45858 1281.63989 0.00078
6741 64.31665 1263.99173 1274.49011 0.00078
6742 64.32501 1261.67659 1310.44006 0.00076
6743 64.33336 1259.49493 1303.20984 0.00077
6744 64.34172 1257.41996 1274.49011 0.00078
6745 64.35007 1255.41866 1324.96008 0.00075
6746 64.35843 1253.45609 1281.63989 0.00078
6747 64.36678 1251.50395 1361.61011 0.00073
6748 64.37514 1249.54246 1274.49011 0.00078
6749 64.38349 1247.56431 1267.35986 0.00079
6750 64.39185 1245.57349 1239.04004 0.00081
6751 64.40021 1243.58572 1197.15991 0.00084
6752 64.40856 1241.62600 1288.81006 0.00078
6753 64.41692 1239.72542 1253.16016 0.00080
6754 64.42527 1237.91845 1253.16016 0.00080
6755 64.43363 1236.24049 1197.15991 0.00084
6756 64.44198 1234.72571 1267.35986 0.00079
6757 64.45034 1233.40584 1204.09009 0.00083
6758 64.45870 1232.30718 1267.35986 0.00079
6759 64.46705 1231.44804 1296.00000 0.00077
6760 64.47541 1230.83790 1274.49011 0.00078
6761 64.48376 1230.47765 1296.00000 0.00077
6762 64.49212 1230.36158 1274.49011 0.00078
6763 64.50047 1230.47677 1296.00000 0.00077
6764 64.50883 1230.80373 1232.00989 0.00081
6765 64.51718 1231.31823 1169.64001 0.00085
6766 64.52554 1231.98985 1253.16016 0.00080
6767 64.53390 1232.78022 1246.08997 0.00080
6768 64.54225 1233.65157 1232.00989 0.00081
6769 64.55061 1234.56394 1274.49011 0.00078
6770 64.55896 1235.47599 1346.89001 0.00074
6771 64.56732 1236.34625 1310.44006 0.00076
6772 64.57567 1237.13386 1204.09009 0.00083
6773 64.58403 1237.79966 1303.20984 0.00077
6774 64.59239 1238.30860 1267.35986 0.00079
6775 64.60074 1238.62582 1310.44006 0.00076
6776 64.60910 1238.72225 1310.44006 0.00076
6777 64.61745 1238.57650 1317.68994 0.00076
6778 64.62581 1238.18691 1428.83997 0.00070
6779 64.63416 1237.57244 1281.63989 0.00078
6780 64.64252 1236.76814 1332.25000 0.00075
6781 64.65087 1235.82712 1274.49011 0.00078
6782 64.65923 1234.81810 1246.08997 0.00080
6783 64.66759 1233.81678 1253.16016 0.00080
6784 64.67594 1232.89658 1253.16016 0.00080
6785 64.68430 1232.12543 1310.44006 0.00076
6786 64.69265 1231.56106 1253.16016 0.00080
6787 64.70101 1231.24763 1288.81006 0.00078
6788 64.70936 1231.21630 1332.25000 0.00075
6789 64.71772 1231.48546 1303.20984 0.00077
6790 64.72608 1232.06454 1232.00989 0.00081
6791 64.73443 1232.95197 1310.44006 0.00076
6792 64.74279 1234.13931 1267.35986 0.00079
6793 64.75114 1235.62085 1281.63989 0.00078
6794 64.75950 1237.38006 1190.25000 0.00084
6795 64.76785 1239.39605 1310.44006 0.00076
6796 64.77621 1241.64840 1267.35986 0.00079
6797 64.78457 1244.11697 1281.63989 0.00078
6798 64.79292 1246.78591 1317.68994 0.00076
6799 64.80128 1249.65142 1339.55994 0.00075
6800 64.80963 1252.72576 1246.08997 0.00080
6801 64.81799 1256.02646 1303.20984 0.00077
6802 64.82634 1259.58321 1296.00000 0.00077
6803 64.83470 1263.43372 1281.63989 0.00078
6804 64.84305 1267.61571 1310.44006 0.00076
6805 64.85141 1272.15862 1354.23999 0.00074
6806 64.85977 1277.07618 1281.63989 0.00078
6807 64.86812 1282.36067 1267.35986 0.00079
6808 64.87648 1287.97479 1274.49011 0.00078
6809 64.88483 1293.85064 1267.35986 0.00079
6810 64.89319 1299.88863 1296.00000 0.00077
6811 64.90154 1305.95902 1288.81006 0.00078
6812 64.90990 1311.90639 1281.63989 0.00078
6813 64.91826 1317.55280 1339.55994 0.00075
6814 64.92661 1322.71321 1267.35986 0.00079
6815 64.93497 1327.20262 1260.25000 0.00079
6816 64.94332 1330.85717 1339.55994 0.00075
6817 64.95168 1333.55497 1204.09009 0.00083
6818 64.96003 1335.23469 1239.04004 0.00081
6819 64.96839 1335.90820 1346.89001 0.00074
6820 64.97674 1335.65986 1274.49011 0.00078
6821 64.98510 1334.63928 1324.96008 0.00075
6822 64.99346 1333.04415 1317.68994 0.00076
6823 65.00181 1331.09860 1317.68994 0.00076
6824 65.01017 1329.03252 1324.96008 0.00075
6825 65.01852 1327.06163 1413.75989 0.00071
6826 65.02688 1325.37284 1354.23999 0.00074
6827 65.03523 1324.11803 1354.23999 0.00074
6828 65.04359 1323.40856 1339.55994 0.00075
6829 65.05195 1323.31487 1303.20984 0.00077
6830 65.06030 1323.86844 1260.25000 0.00079
6831 65.06866 1325.06626 1232.00989 0.00081
6832 65.07701 1326.86862 1413.75989 0.00071
6833 65.08537 1329.20042 1332.25000 0.00075
6834 65.09372 1331.95854 1346.89001 0.00074
6835 65.10208 1335.02171 1260.25000 0.00079
6836 65.11043 1338.24927 1339.55994 0.00075
6837 65.11879 1341.49314 1274.49011 0.00078
6838 65.12715 1344.59982 1274.49011 0.00078
6839 65.13550 1347.43223 1260.25000 0.00079
6840 65.14386 1349.89196 1354.23999 0.00074
6841 65.15221 1351.91322 1267.35986 0.00079
6842 65.16057 1353.47451 1296.00000 0.00077
6843 65.16892 1354.59404 1339.55994 0.00075
6844 65.17728 1355.33859 1354.23999 0.00074
6845 65.18564 1355.81792 1317.68994 0.00076
6846 65.19399 1356.17589 1376.40991 0.00073
6847 65.20235 1356.57992 1346.89001 0.00074
6848 65.21070 1357.20852 1376.40991 0.00073
6849 65.21906 1358.23829 1398.76013 0.00071
6850 65.22741 1359.83112 1346.89001 0.00074
6851 65.23577 1362.12667 1303.20984 0.00077
6852 65.24412 1365.23712 1310.44006 0.00076
6853 65.25248 1369.23133 1369.00000 0.00073
6854 65.26084 1374.13677 1346.89001 0.00074
6855 65.26919 1379.93964 1354.23999 0.00074
6856 65.27755 1386.58337 1310.44006 0.00076
6857 65.28590 1393.97006 1398.76013 0.00071
6858 65.29426 1401.96589 1310.44006 0.00076
6859 65.30261 1410.40542 1436.41016 0.00070
6860 65.31097 1419.10564 1413.75989 0.00071
6861 65.31933 1427.88084 1436.41016 0.00070
6862 65.32768 1436.55912 1398.76013 0.00071
6863 65.33604 1444.99887 1421.29004 0.00070
6864 65.34439 1453.09955 1436.41016 0.00070
6865 65.35275 1460.80262 1413.75989 0.00071
6866 65.36110 1468.08734 1466.88989 0.00068
6867 65.36946 1474.95674 1436.41016 0.00070
6868 65.37782 1481.41647 1474.56006 0.00068
6869 65.38617 1487.44889 1482.25000 0.00067
6870 65.39453 1492.99858 1497.69006 0.00067
6871 65.40288 1497.96668 1489.95984 0.00067
6872 65.41124 1502.21230 1474.56006 0.00068
6873 65.41959 1505.56880 1513.21008 0.00066
6874 65.42795 1507.87114 1552.36011 0.00064
6875 65.43630 1508.98871 1584.03992 0.00063
6876 65.44466 1508.85052 1513.21008 0.00066
6877 65.45302 1507.46369 1459.24011 0.00069
6878 65.46137 1504.92106 1482.25000 0.00067
6879 65.46973 1501.38547 1466.88989 0.00068
6880 65.47808 1497.06377 1497.69006 0.00067
6881 65.48644 1492.19084 1521.00000 0.00066
6882 65.49479 1487.00304 1444.00000 0.00069
6883 65.50315 1481.72070 1482.25000 0.00067
6884 65.51151 1476.53935 1528.80994 0.00065
6885 65.51986 1471.62618 1482.25000 0.00067
6886 65.52822 1467.11877 1474.56006 0.00068
6887 65.53657 1463.12299 1428.83997 0.00070
6888 65.54493 1459.70839 1428.83997 0.00070
6889 65.55328 1456.90017 1451.60986 0.00069
6890 65.56164 1454.67020 1421.29004 0.00070
6891 65.56999 1452.93004 1513.21008 0.00066
6892 65.57835 1451.52862 1413.75989 0.00071
6893 65.58671 1450.25797 1428.83997 0.00070
6894 65.59506 1448.86412 1466.88989 0.00068
6895 65.60342 1447.06636 1444.00000 0.00069
6896 65.61177 1444.59227 1497.69006 0.00067
6897 65.62013 1441.20795 1600.00000 0.00063
6898 65.62848 1436.74882 1428.83997 0.00070
6899 65.63684 1431.14227 1482.25000 0.00067
6900 65.64520 1424.41293 1482.25000 0.00067
6901 65.65355 1416.67598 1398.76013 0.00071
6902 65.66191 1408.11714 1482.25000 0.00067
6903 65.67026 1398.96831 1497.69006 0.00067
6904 65.67862 1389.48462 1398.76013 0.00071
6905 65.68697 1379.90770 1391.28992 0.00072
6906 65.69533 1370.45486 1346.89001 0.00074
6907 65.70368 1361.31169 1354.23999 0.00074
6908 65.71204 1352.62558 1466.88989 0.00068
6909 65.72040 1344.50684 1398.76013 0.00071
6910 65.72875 1337.03284 1346.89001 0.00074
6911 65.73711 1330.25115 1354.23999 0.00074
6912 65.74546 1324.18325 1459.24011 0.00069
6913 65.75382 1318.82837 1369.00000 0.00073
6914 65.76217 1314.16052 1361.61011 0.00073
6915 65.77053 1310.13073 1324.96008 0.00075
6916 65.77889 1306.67078 1339.55994 0.00075
6917 65.78724 1303.69827 1310.44006 0.00076
6918 65.79560 1301.12402 1324.96008 0.00075
6919 65.80395 1298.85418 1324.96008 0.00075
6920 65.81231 1296.79947 1354.23999 0.00074
6921 65.82066 1294.88370 1239.04004 0.00081
6922 65.82902 1293.04844 1288.81006 0.00078
6923 65.83738 1291.25474 1361.61011 0.00073
6924 65.84573 1289.48282 1332.25000 0.00075
6925 65.85409 1287.72998 1324.96008 0.00075
6926 65.86244 1286.00900 1296.00000 0.00077
6927 65.87080 1284.34489 1324.96008 0.00075
6928 65.87915 1282.77141 1260.25000 0.00079
6929 65.88751 1281.33163 1274.49011 0.00078
6930 65.89586 1280.07884 1332.25000 0.00075
6931 65.90422 1279.06554 1288.81006 0.00078
6932 65.91258 1278.34233 1288.81006 0.00078
6933 65.92093 1277.95524 1274.49011 0.00078
6934 65.92929 1277.94147 1281.63989 0.00078
6935 65.93764 1278.32657 1281.63989 0.00078
6936 65.94600 1279.11786 1303.20984 0.00077
6937 65.95435 1280.30537 1317.68994 0.00076
6938 65.96271 1281.86139 1239.04004 0.00081
6939 65.97107 1283.74215 1267.35986 0.00079
6940 65.97942 1285.89401 1310.44006 0.00076
6941 65.98778 1288.25874 1324.96008 0.00075
6942 65.99613 1290.78182 1225.00000 0.00082
6943 66.00449 1293.42081 1376.40991 0.00073
6944 66.01284 1296.15109 1332.25000 0.00075
6945 66.02120 1298.97154 1346.89001 0.00074
6946 66.02955 1301.90542 1376.40991 0.00073
6947 66.03791 1304.99774 1361.61011 0.00073
6948 66.04627 1308.31126 1339.55994 0.00075
6949 66.05462 1311.92208 1339.55994 0.00075
6950 66.06298 1315.91034 1324.96008 0.00075
6951 66.07133 1320.35172 1260.25000 0.00079
6952 66.07969 1325.31269 1310.44006 0.00076
6953 66.08804 1330.84343 1354.23999 0.00074
6954 66.09640 1336.97115 1369.00000 0.00073
6955 66.10476 1343.69444 1288.81006 0.00078
6956 66.11311 1350.97755 1288.81006 0.00078
6957 66.12147 1358.74749 1324.96008 0.00075
6958 66.12982 1366.89597 1376.40991 0.00073
6959 66.13818 1375.28630 1474.56006 0.00068
6960 66.14653 1383.75065 1383.84009 0.00072
6961 66.15489 1392.10513 1451.60986 0.00069
6962 66.16324 1400.16428 1421.29004 0.00070
6963 66.17160 1407.75559 1497.69006 0.00067
6964 66.17996 1414.73337 1428.83997 0.00070
6965 66.18831 1420.98073 1428.83997 0.00070
6966 66.19667 1426.41572 1421.29004 0.00070
6967 66.20502 1430.98804 1444.00000 0.00069
6968 66.21338 1434.67064 1451.60986 0.00069
6969 66.22173 1437.45008 1505.43994 0.00066
6970 66.23009 1439.31846 1369.00000 0.00073
6971 66.23845 1440.26866 1406.25000 0.00071
6972 66.24680 1440.29621 1413.75989 0.00071
6973 66.25516 1439.40833 1444.00000 0.00069
6974 66.26351 1437.63111 1444.00000 0.00069
6975 66.27187 1435.02146 1383.84009 0.00072
6976 66.28022 1431.67318 1421.29004 0.00070
6977 66.28858 1427.71548 1346.89001 0.00074
6978 66.29693 1423.30440 1354.23999 0.00074
6979 66.30529 1418.60830 1391.28992 0.00072
6980 66.31365 1413.79013 1354.23999 0.00074
6981 66.32200 1408.99295 1376.40991 0.00073
6982 66.33036 1404.32877 1376.40991 0.00073
6983 66.33871 1399.87609 1413.75989 0.00071
6984 66.34707 1395.68197 1346.89001 0.00074
6985 66.35542 1391.76782 1428.83997 0.00070
6986 66.36378 1388.13501 1406.25000 0.00071
6987 66.37214 1384.77036 1383.84009 0.00072
6988 66.38049 1381.64980 1406.25000 0.00071
6989 66.38885 1378.73692 1354.23999 0.00074
6990 66.39720 1375.98120 1339.55994 0.00075
6991 66.40556 1373.31726 1354.23999 0.00074
6992 66.41391 1370.66461 1406.25000 0.00071
6993 66.42227 1367.93008 1428.83997 0.00070
6994 66.43063 1365.01488 1354.23999 0.00074
6995 66.43898 1361.82549 1391.28992 0.00072
6996 66.44734 1358.28806 1317.68994 0.00076
6997 66.45569 1354.36410 1339.55994 0.00075
6998 66.46405 1350.05701 1317.68994 0.00076
6999 66.47240 1345.41461 1303.20984 0.00077
7000 66.48076 1340.52741 1317.68994 0.00076
7001 66.48911 1335.51776 1317.68994 0.00076
7002 66.49747 1330.52544 1310.44006 0.00076
7003 66.50583 1325.69286 1339.55994 0.00075
7004 66.51418 1321.15198 1339.55994 0.00075
7005 66.52254 1317.01563 1296.00000 0.00077
7006 66.53089 1313.37253 1332.25000 0.00075
7007 66.53925 1310.28584 1267.35986 0.00079
7008 66.54760 1307.79434 1398.76013 0.00071
7009 66.55596 1305.91427 1346.89001 0.00074
7010 66.56432 1304.64309 1274.49011 0.00078
7011 66.57267 1303.96055 1339.55994 0.00075
7012 66.58103 1303.83130 1346.89001 0.00074
7013 66.58938 1304.20583 1317.68994 0.00076
7014 66.59774 1305.02128 1369.00000 0.00073
7015 66.60609 1306.20445 1383.84009 0.00072
7016 66.61445 1307.67052 1339.55994 0.00075
7017 66.62280 1309.32001 1310.44006 0.00076
7018 66.63116 1311.04543 1383.84009 0.00072
7019 66.63952 1312.73885 1324.96008 0.00075
7020 66.64787 1314.30008 1361.61011 0.00073
7021 66.65623 1315.64634 1303.20984 0.00077
7022 66.66458 1316.72199 1339.55994 0.00075
7023 66.67294 1317.50619 1310.44006 0.00076
7024 66.68129 1318.01678 1406.25000 0.00071
7025 66.68965 1318.30763 1383.84009 0.00072
7026 66.69801 1318.46280 1391.28992 0.00072
7027 66.70636 1318.58556 1391.28992 0.00072
7028 66.71472 1318.78603 1310.44006 0.00076
7029 66.72307 1319.16820 1339.55994 0.00075
7030 66.73143 1319.82436 1260.25000 0.00079
7031 66.73978 1320.83020 1406.25000 0.00071
7032 66.74814 1322.24286 1346.89001 0.00074
7033 66.75649 1324.10197 1436.41016 0.00070
7034 66.76485 1326.43178 1361.61011 0.00073
7035 66.77321 1329.24327 1310.44006 0.00076
7036 66.78156 1332.53481 1354.23999 0.00074
7037 66.78992 1336.29098 1361.61011 0.00073
7038 66.79827 1340.47945 1339.55994 0.00075
7039 66.80663 1345.04686 1369.00000 0.00073
7040 66.81498 1349.91501 1376.40991 0.00073
7041 66.82334 1354.97885 1398.76013 0.00071
7042 66.83170 1360.10783 1339.55994 0.00075
7043 66.84005 1365.15141 1369.00000 0.00073
7044 66.84841 1369.94898 1369.00000 0.00073
7045 66.85676 1374.34327 1383.84009 0.00072
7046 66.86512 1378.19540 1413.75989 0.00071
7047 66.87347 1381.39873 1436.41016 0.00070
7048 66.88183 1383.88848 1505.43994 0.00066
7049 66.89018 1385.64508 1482.25000 0.00067
7050 66.89854 1386.69179 1406.25000 0.00071
7051 66.90690 1387.08312 1398.76013 0.00071
7052 66.91525 1386.88891 1406.25000 0.00071
7053 66.92361 1386.18039 1406.25000 0.00071
7054 66.93196 1385.01773 1421.29004 0.00070
7055 66.94032 1383.44339 1413.75989 0.00071
7056 66.94867 1381.48277 1459.24011 0.00069
7057 66.95703 1379.14889 1376.40991 0.00073
7058 66.96539 1376.45233 1376.40991 0.00073
7059 66.97374 1373.41163 1376.40991 0.00073
7060 66.98210 1370.05981 1459.24011 0.00069
7061 66.99045 1366.44553 1339.55994 0.00075
7062 66.99881 1362.62937 1444.00000 0.00069
7063 67.00716 1358.67571 1376.40991 0.00073
7064 67.01552 1354.64160 1383.84009 0.00072
7065 67.02388 1350.56823 1391.28992 0.00072
7066 67.03223 1346.47550 1436.41016 0.00070
7067 67.04059 1342.36144 1369.00000 0.00073
7068 67.04894 1338.20681 1361.61011 0.00073
7069 67.05730 1333.98164 1281.63989 0.00078
7070 67.06565 1329.65414 1339.55994 0.00075
7071 67.07401 1325.20134 1288.81006 0.00078
7072 67.08236 1320.62282 1354.23999 0.00074
7073 67.09072 1315.93267 1376.40991 0.00073
7074 67.09908 1311.15006 1281.63989 0.00078
7075 67.10743 1306.30276 1288.81006 0.00078
7076 67.11579 1301.41949 1296.00000 0.00077
7077 67.12414 1296.52244 1303.20984 0.00077
7078 67.13250 1291.62387 1354.23999 0.00074
7079 67.14085 1286.72671 1346.89001 0.00074
7080 67.14921 1281.82839 1288.81006 0.00078
7081 67.15757 1276.92673 1274.49011 0.00078
7082 67.16592 1272.02543 1253.16016 0.00080
7083 67.17428 1267.13779 1260.25000 0.00079
7084 67.18263 1262.28765 1310.44006 0.00076
7085 67.19099 1257.50752 1317.68994 0.00076
7086 67.19934 1252.83535 1303.20984 0.00077
7087 67.20770 1248.31128 1332.25000 0.00075
7088 67.21605 1243.97077 1274.49011 0.00078
7089 67.22441 1239.84388 1253.16016 0.00080
7090 67.23277 1235.95362 1281.63989 0.00078
7091 67.24112 1232.31697 1246.08997 0.00080
7092 67.24948 1228.94628 1232.00989 0.00081
7093 67.25783 1225.85104 1197.15991 0.00084
7094 67.26619 1223.03966 1156.00000 0.00087
7095 67.27454 1220.52042 1253.16016 0.00080
7096 67.28290 1218.30302 1183.36011 0.00085
7097 67.29126 1216.40046 1183.36011 0.00085
7098 67.29961 1214.82508 1267.35986 0.00079
7099 67.30797 1213.58904 1267.35986 0.00079
7100 67.31632 1212.70421 1296.00000 0.00077
7101 67.32468 1212.18147 1211.03992 0.00083
7102 67.33303 1212.02909 1232.00989 0.00081
7103 67.34139 1212.25344 1253.16016 0.00080
7104 67.34974 1212.85832 1183.36011 0.00085
7105 67.35810 1213.84523 1232.00989 0.00081
7106 67.36646 1215.21302 1218.01013 0.00082
7107 67.37481 1216.95794 1204.09009 0.00083
7108 67.38317 1219.07501 1310.44006 0.00076
7109 67.39152 1221.55498 1253.16016 0.00080
7110 67.39988 1224.38015 1296.00000 0.00077
7111 67.40823 1227.52774 1260.25000 0.00079
7112 67.41659 1230.96981 1267.35986 0.00079
7113 67.42495 1234.66562 1225.00000 0.00082
7114 67.43330 1238.56421 1246.08997 0.00080
7115 67.44166 1242.60523 1281.63989 0.00078
7116 67.45001 1246.72048 1239.04004 0.00081
7117 67.45837 1250.83720 1339.55994 0.00075
7118 67.46672 1254.88246 1339.55994 0.00075
7119 67.47508 1258.78437 1296.00000 0.00077
7120 67.48344 1262.48036 1267.35986 0.00079
7121 67.49179 1265.92491 1332.25000 0.00075
7122 67.50015 1269.07619 1288.81006 0.00078
7123 67.50850 1271.89999 1369.00000 0.00073
7124 67.51686 1274.36985 1260.25000 0.00079
7125 67.52521 1276.46600 1324.96008 0.00075
7126 67.53357 1278.17390 1303.20984 0.00077
7127 67.54192 1279.48286 1361.61011 0.00073
7128 67.55028 1280.39361 1310.44006 0.00076
7129 67.55864 1280.92342 1324.96008 0.00075
7130 67.56699 1281.10895 1354.23999 0.00074
7131 67.57535 1281.00814 1197.15991 0.00084
7132 67.58370 1280.69581 1260.25000 0.00079
7133 67.59206 1280.25597 1303.20984 0.00077
7134 67.60041 1279.77622 1317.68994 0.00076
7135 67.60877 1279.33983 1339.55994 0.00075
7136 67.61713 1279.01881 1267.35986 0.00079
7137 67.62548 1278.86945 1346.89001 0.00074
7138 67.63384 1278.93025 1332.25000 0.00075
7139 67.64219 1279.22203 1288.81006 0.00078
7140 67.65055 1279.74969 1324.96008 0.00075
7141 67.65890 1280.50504 1324.96008 0.00075
7142 67.66726 1281.46973 1317.68994 0.00076
7143 67.67561 1282.61805 1288.81006 0.00078
7144 67.68397 1283.91842 1232.00989 0.00081
7145 67.69233 1285.33555 1324.96008 0.00075
7146 67.70068 1286.82957 1324.96008 0.00075
7147 67.70904 1288.35288 1339.55994 0.00075
7148 67.71739 1289.85301 1310.44006 0.00076
7149 67.72575 1291.27344 1281.63989 0.00078
7150 67.73410 1292.55661 1267.35986 0.00079
7151 67.74246 1293.64749 1324.96008 0.00075
7152 67.75082 1294.49283 1267.35986 0.00079
7153 67.75917 1295.04759 1354.23999 0.00074
7154 67.76753 1295.26787 1398.76013 0.00071
7155 67.77588 1295.11680 1369.00000 0.00073
7156 67.78424 1294.56403 1369.00000 0.00073
7157 67.79259 1293.58863 1281.63989 0.00078
7158 67.80095 1292.17939 1376.40991 0.00073
7159 67.80930 1290.33700 1296.00000 0.00077
7160 67.81766 1288.08244 1317.68994 0.00076
7161 67.82602 1285.45843 1346.89001 0.00074
7162 67.83437 1282.52885 1332.25000 0.00075
7163 67.84273 1279.37529 1281.63989 0.00078
7164 67.85108 1276.09093 1324.96008 0.00075
7165 67.85944 1272.77385 1361.61011 0.00073
7166 67.86779 1269.51842 1296.00000 0.00077
7167 67.87615 1266.41053 1246.08997 0.00080
7168 67.88451 1263.52077 1332.25000 0.00075
7169 67.89286 1260.90488 1260.25000 0.00079
7170 67.90122 1258.60479 1317.68994 0.00076
7171 67.90957 1256.64646 1197.15991 0.00084
7172 67.91793 1255.04657 1296.00000 0.00077
7173 67.92628 1253.80777 1288.81006 0.00078
7174 67.93464 1252.92171 1303.20984 0.00077
7175 67.94299 1252.37176 1288.81006 0.00078
7176 67.95135 1252.13334 1332.25000 0.00075
7177 67.95971 1252.17490 1232.00989 0.00081
7178 67.96806 1252.45985 1303.20984 0.00077
7179 67.97642 1252.94941 1267.35986 0.00079
7180 67.98477 1253.60622 1253.16016 0.00080
7181 67.99313 1254.39858 1288.81006 0.00078
7182 68.00148 1255.30418 1246.08997 0.00080
7183 68.00984 1256.31207 1274.49011 0.00078
7184 68.01820 1257.42333 1281.63989 0.00078
7185 68.02655 1258.65026 1281.63989 0.00078
7186 68.03491 1260.01416 1169.64001 0.00085
7187 68.04326 1261.53597 1211.03992 0.00083
7188 68.05162 1263.23260 1190.25000 0.00084
7189 68.05997 1265.11170 1274.49011 0.00078
7190 68.06833 1267.16665 1253.16016 0.00080
7191 68.07669 1269.37346 1324.96008 0.00075
7192 68.08504 1271.68863 1296.00000 0.00077
7193 68.09340 1274.04955 1296.00000 0.00077
7194 68.10175 1276.37644 1267.35986 0.00079
7195 68.11011 1278.57596 1267.35986 0.00079
7196 68.11846 1280.54726 1239.04004 0.00081
7197 68.12682 1282.18998 1303.20984 0.00077
7198 68.13517 1283.41146 1274.49011 0.00078
7199 68.14353 1284.13638 1310.44006 0.00076
7200 68.15189 1284.31605 1303.20984 0.00077
7201 68.16024 1283.93590 1303.20984 0.00077
7202 68.16860 1283.01607 1303.20984 0.00077
7203 68.17695 1281.61178 1232.00989 0.00081
7204 68.18531 1279.80792 1303.20984 0.00077
7205 68.19366 1277.70982 1246.08997 0.00080
7206 68.20202 1275.43251 1197.15991 0.00084
7207 68.21038 1273.09121 1239.04004 0.00081
7208 68.21873 1270.79542 1260.25000 0.00079
7209 68.22709 1268.63937 1281.63989 0.00078
7210 68.23544 1266.69690 1232.00989 0.00081
7211 68.24380 1265.02256 1211.03992 0.00083
7212 68.25215 1263.65164 1218.01013 0.00082
7213 68.26051 1262.60254 1274.49011 0.00078
7214 68.26886 1261.87922 1267.35986 0.00079
7215 68.27722 1261.46681 1246.08997 0.00080
7216 68.28558 1261.33719 1260.25000 0.00079
7217 68.29393 1261.45254 1246.08997 0.00080
7218 68.30229 1261.76666 1211.03992 0.00083
7219 68.31064 1262.22757 1253.16016 0.00080
7220 68.31900 1262.78169 1218.01013 0.00082
7221 68.32735 1263.37802 1281.63989 0.00078
7222 68.33571 1263.97349 1260.25000 0.00079
7223 68.34407 1264.53815 1211.03992 0.00083
7224 68.35242 1265.05576 1239.04004 0.00081
7225 68.36078 1265.52853 1232.00989 0.00081
7226 68.36913 1265.97559 1239.04004 0.00081
7227 68.37749 1266.42631 1274.49011 0.00078
7228 68.38584 1266.92106 1246.08997 0.00080
7229 68.39420 1267.50571 1169.64001 0.00085
7230 68.40255 1268.22375 1296.00000 0.00077
7231 68.41091 1269.11647 1267.35986 0.00079
7232 68.41927 1270.22188 1260.25000 0.00079
7233 68.42762 1271.57463 1211.03992 0.00083
7234 68.43598 1273.20756 1246.08997 0.00080
7235 68.44433 1275.15316 1253.16016 0.00080
7236 68.45269 1277.44316 1197.15991 0.00084
7237 68.46104 1280.11021 1281.63989 0.00078
7238 68.46940 1283.19067 1239.04004 0.00081
7239 68.47776 1286.72103 1267.35986 0.00079
7240 68.48611 1290.72917 1253.16016 0.00080
7241 68.49447 1295.23852 1246.08997 0.00080
7242 68.50282 1300.26912 1232.00989 0.00081
7243 68.51118 1305.82056 1296.00000 0.00077
7244 68.51953 1311.87519 1369.00000 0.00073
7245 68.52789 1318.39624 1246.08997 0.00080
7246 68.53624 1325.32507 1332.25000 0.00075
7247 68.54460 1332.57956 1296.00000 0.00077
7248 68.55296 1340.05634 1274.49011 0.00078
7249 68.56131 1347.63661 1324.96008 0.00075
7250 68.56967 1355.19022 1346.89001 0.00074
7251 68.57802 1362.58590 1274.49011 0.00078
7252 68.58638 1369.70333 1361.61011 0.00073
7253 68.59473 1376.44369 1317.68994 0.00076
7254 68.60309 1382.73785 1383.84009 0.00072
7255 68.61145 1388.55088 1354.23999 0.00074
7256 68.61980 1393.88189 1274.49011 0.00078
7257 68.62816 1398.75636 1421.29004 0.00070
7258 68.63651 1403.21728 1339.55994 0.00075
7259 68.64487 1407.31439 1346.89001 0.00074
7260 68.65322 1411.09310 1376.40991 0.00073
7261 68.66158 1414.58553 1369.00000 0.00073
7262 68.66994 1417.80389 1391.28992 0.00072
7263 68.67829 1420.73659 1421.29004 0.00070
7264 68.68665 1423.34825 1391.28992 0.00072
7265 68.69500 1425.58320 1376.40991 0.00073
7266 68.70336 1427.37023 1459.24011 0.00069
7267 68.71171 1428.63266 1421.29004 0.00070
7268 68.72007 1429.30061 1436.41016 0.00070
7269 68.72842 1429.30079 1451.60986 0.00069
7270 68.73678 1428.57180 1428.83997 0.00070
7271 68.74514 1427.07873 1413.75989 0.00071
7272 68.75349 1424.79862 1346.89001 0.00074
7273 68.76185 1421.73432 1332.25000 0.00075
7274 68.77020 1417.91759 1376.40991 0.00073
7275 68.77856 1413.40810 1383.84009 0.00072
7276 68.78691 1408.29106 1339.55994 0.00075
7277 68.79527 1402.67267 1354.23999 0.00074
7278 68.80363 1396.67340 1339.55994 0.00075
7279 68.81198 1390.41996 1369.00000 0.00073
7280 68.82034 1384.03693 1324.96008 0.00075
7281 68.82869 1377.63849 1332.25000 0.00075
7282 68.83705 1371.32118 1421.29004 0.00070
7283 68.84540 1365.15945 1267.35986 0.00079
7284 68.85376 1359.20223 1346.89001 0.00074
7285 68.86211 1353.47205 1376.40991 0.00073
7286 68.87047 1347.96659 1274.49011 0.00078
7287 68.87883 1342.66172 1317.68994 0.00076
7288 68.88718 1337.51548 1332.25000 0.00075
7289 68.89554 1332.47430 1324.96008 0.00075
7290 68.90389 1327.48161 1267.35986 0.00079
7291 68.91225 1322.48190 1339.55994 0.00075
7292 68.92060 1317.42521 1232.00989 0.00081
7293 68.92896 1312.26878 1332.25000 0.00075
7294 68.93732 1306.98463 1274.49011 0.00078
7295 68.94567 1301.56296 1253.16016 0.00080
7296 68.95403 1296.01248 1281.63989 0.00078
7297 68.96238 1290.35864 1296.00000 0.00077
7298 68.97074 1284.64283 1239.04004 0.00081
7299 68.97909 1278.91844 1253.16016 0.00080
7300 68.98745 1273.24546 1218.01013 0.00082
7301 68.99580 1267.68470 1281.63989 0.00078
7302 69.00416 1262.29188 1232.00989 0.00081
7303 69.01252 1257.11646 1218.01013 0.00082
7304 69.02087 1252.20596 1190.25000 0.00084
7305 69.02923 1247.59208 1211.03992 0.00083
7306 69.03758 1243.29408 1162.80994 0.00086
7307 69.04594 1239.32414 1183.36011 0.00085
7308 69.05429 1235.68534 1239.04004 0.00081
7309 69.06265 1232.37349 1296.00000 0.00077
7310 69.07101 1229.37863 1225.00000 0.00082
7311 69.07936 1226.68559 1197.15991 0.00084
7312 69.08772 1224.27483 1169.64001 0.00085
7313 69.09607 1222.12341 1149.21008 0.00087
7314 69.10443 1220.20609 1149.21008 0.00087
7315 69.11278 1218.49666 1346.89001 0.00074
7316 69.12114 1216.96918 1190.25000 0.00084
7317 69.12950 1215.59921 1169.64001 0.00085
7318 69.13785 1214.36524 1190.25000 0.00084
7319 69.14621 1213.24940 1218.01013 0.00082
7320 69.15456 1212.23751 1183.36011 0.00085
7321 69.16292 1211.31807 1149.21008 0.00087
7322 69.17127 1210.48307 1183.36011 0.00085
7323 69.17963 1209.73208 1183.36011 0.00085
7324 69.18798 1209.06308 1218.01013 0.00082
7325 69.19634 1208.47063 1197.15991 0.00084
7326 69.20470 1207.95089 1246.08997 0.00080
7327 69.21305 1207.50369 1239.04004 0.00081
7328 69.22141 1207.12856 1190.25000 0.00084
7329 69.22976 1206.82442 1190.25000 0.00084
7330 69.23812 1206.58897 1190.25000 0.00084
7331 69.24647 1206.42231 1267.35986 0.00079
7332 69.25483 1206.32104 1190.25000 0.00084
7333 69.26319 1206.27836 1183.36011 0.00085
7334 69.27154 1206.28364 1183.36011 0.00085
7335 69.27990 1206.32258 1183.36011 0.00085
7336 69.28825 1206.37722 1211.03992 0.00083
7337 69.29661 1206.42673 1162.80994 0.00086
7338 69.30496 1206.44905 1204.09009 0.00083
7339 69.31332 1206.42342 1108.88989 0.00090
7340 69.32167 1206.33297 1176.48999 0.00085
7341 69.33003 1206.16622 1135.69006 0.00088
7342 69.33839 1205.91918 1246.08997 0.00080
7343 69.34674 1205.59604 1246.08997 0.00080
7344 69.35510 1205.20814 1176.48999 0.00085
7345 69.36345 1204.77200 1239.04004 0.00081
7346 69.37181 1204.30760 1169.64001 0.00085
7347 69.38016 1203.83773 1281.63989 0.00078
7348 69.38852 1203.38704 1183.36011 0.00085
7349 69.39688 1202.97499 1190.25000 0.00084
7350 69.40523 1202.61827 1218.01013 0.00082
7351 69.41359 1202.33206 1204.09009 0.00083
7352 69.42194 1202.12933 1232.00989 0.00081
7353 69.43030 1202.02173 1246.08997 0.00080
7354 69.43865 1202.01952 1232.00989 0.00081
7355 69.44701 1202.12850 1190.25000 0.00084
7356 69.45536 1202.35150 1169.64001 0.00085
7357 69.46372 1202.69023 1156.00000 0.00087
7358 69.47208 1203.14789 1253.16016 0.00080
7359 69.48043 1203.71973 1197.15991 0.00084
7360 69.48879 1204.39762 1225.00000 0.00082
7361 69.49714 1205.17203 1176.48999 0.00085
7362 69.50550 1206.03303 1197.15991 0.00084
7363 69.51385 1206.96995 1183.36011 0.00085
7364 69.52221 1207.97204 1197.15991 0.00084
7365 69.53057 1209.03001 1135.69006 0.00088
7366 69.53892 1210.13604 1128.95984 0.00089
7367 69.54728 1211.28345 1239.04004 0.00081
7368 69.55563 1212.46630 1204.09009 0.00083
7369 69.56399 1213.67972 1204.09009 0.00083
7370 69.57234 1214.91996 1176.48999 0.00085
7371 69.58070 1216.18139 1162.80994 0.00086
7372 69.58905 1217.45868 1190.25000 0.00084
7373 69.59741 1218.74770 1197.15991 0.00084
7374 69.60577 1220.04628 1176.48999 0.00085
7375 69.61412 1221.35396 1218.01013 0.00082
7376 69.62248 1222.67426 1162.80994 0.00086
7377 69.63083 1224.01435 1142.43994 0.00088
7378 69.63919 1225.38331 1183.36011 0.00085
7379 69.64754 1226.79446 1162.80994 0.00086
7380 69.65590 1228.26549 1176.48999 0.00085
7381 69.66426 1229.81804 1142.43994 0.00088
7382 69.67261 1231.47771 1225.00000 0.00082
7383 69.68097 1233.27341 1156.00000 0.00087
7384 69.68932 1235.23612 1288.81006 0.00078
7385 69.69768 1237.39778 1156.00000 0.00087
7386 69.70603 1239.78934 1176.48999 0.00085
7387 69.71439 1242.43930 1190.25000 0.00084
7388 69.72275 1245.37399 1211.03992 0.00083
7389 69.73110 1248.61585 1204.09009 0.00083
7390 69.73946 1252.18002 1218.01013 0.00082
7391 69.74781 1256.07648 1176.48999 0.00085
7392 69.75617 1260.31026 1274.49011 0.00078
7393 69.76452 1264.88133 1253.16016 0.00080
7394 69.77288 1269.78518 1303.20984 0.00077
7395 69.78123 1275.01307 1267.35986 0.00079
7396 69.78959 1280.55253 1204.09009 0.00083
7397 69.79795 1286.38871 1267.35986 0.00079
7398 69.80630 1292.50087 1204.09009 0.00083
7399 69.81466 1298.86313 1274.49011 0.00078
7400 69.82301 1305.43983 1296.00000 0.00077
7401 69.83137 1312.18465 1317.68994 0.00076
7402 69.83972 1319.03923 1253.16016 0.00080
7403 69.84808 1325.93293 1310.44006 0.00076
7404 69.85644 1332.78656 1296.00000 0.00077
7405 69.86479 1339.51408 1310.44006 0.00076
7406 69.87315 1346.02739 1281.63989 0.00078
7407 69.88150 1352.24950 1253.16016 0.00080
7408 69.88986 1358.11613 1361.61011 0.00073
7409 69.89821 1363.57627 1361.61011 0.00073
7410 69.90657 1368.60204 1317.68994 0.00076
7411 69.91492 1373.19239 1383.84009 0.00072
7412 69.92328 1377.35880 1391.28992 0.00072
7413 69.93164 1381.12014 1324.96008 0.00075
7414 69.93999 1384.49867 1391.28992 0.00072
7415 69.94835 1387.51344 1361.61011 0.00073
7416 69.95670 1390.17657 1413.75989 0.00071
7417 69.96506 1392.49312 1444.00000 0.00069
7418 69.97341 1394.46509 1369.00000 0.00073
7419 69.98177 1396.09703 1369.00000 0.00073
7420 69.99013 1397.40218 1361.61011 0.00073
7421 69.99848 1398.40749 1413.75989 0.00071
