#------------------------------------------------------------------------------
#$Date: 2017-01-09 05:36:37 +0200 (Mon, 09 Jan 2017) $
#$Revision: 190197 $
#$URL: file:///home/coder/svn-repositories/cod/cif/7/04/07/7040748.cif $
#------------------------------------------------------------------------------
#
# This file is available in the Crystallography Open Database (COD),
# http://www.crystallography.net/
#
# All data on this site have been placed in the public domain by the
# contributors.
#
data_7040748
loop_
_publ_author_name
'Eichh\"ofer, Andreas'
'Buth, Gernot'
_publ_section_title
;
 Polymeric cobalt(ii) thiolato complexes - syntheses, structures and
 properties of [Co(SMes)2] and [Co(SPh)2NH3].
;
_journal_issue                   43
_journal_name_full
'Dalton transactions (Cambridge, England : 2003)'
_journal_page_first              17382
_journal_page_last               17391
_journal_paper_doi               10.1039/c6dt03098j
_journal_volume                  45
_journal_year                    2016
_chemical_formula_moiety         'C12 H16 Co N2 S2'
_chemical_formula_sum            'C12 H16 Co N2 S2'
_chemical_formula_weight         311.32
_chemical_name_systematic
; 
 ? 
;
_chemical_properties_physical    Air-sensitive,Moisture-sensitive
_space_group_crystal_system      triclinic
_space_group_IT_number           2
_space_group_name_Hall           '-P 1'
_space_group_name_H-M_alt        'P -1'
_symmetry_space_group_name_Hall  '-P 1'
_symmetry_space_group_name_H-M   'P -1'
_atom_sites_solution_hydrogens   mixed
_atom_sites_solution_primary     direct
_atom_sites_solution_secondary   difmap
_audit_creation_method           SHELXL-2014
_audit_update_record
;
2016-04-21 deposited with the CCDC.
2016-09-27 downloaded from the CCDC.
;
_cell_angle_alpha                98.926(5)
_cell_angle_beta                 95.975(5)
_cell_angle_gamma                92.474(5)
_cell_formula_units_Z            2
_cell_length_a                   6.8884(4)
_cell_length_b                   6.9907(4)
_cell_length_c                   14.6692(10)
_cell_measurement_reflns_used    9738
_cell_measurement_temperature    180(2)
_cell_measurement_theta_max      26.05
_cell_measurement_theta_min      2.95
_cell_volume                     692.78(7)
_computing_cell_refinement       'STOE X-AREA'
_computing_data_collection       'STOE X-AREA'
_computing_data_reduction        'STOE X-RED'
_computing_molecular_graphics    'DIAMOND2d (Brandenburger, 2000)'
_computing_structure_refinement  'SHELXL-2014 (Sheldrick, 2014)'
_computing_structure_solution    'SHELXS-97 (Sheldrick, 1990)'
_diffrn_ambient_temperature      180(2)
_diffrn_detector_area_resol_mean 6.67
_diffrn_measured_fraction_theta_full 0.999
_diffrn_measured_fraction_theta_max 0.970
_diffrn_measurement_device_type  'STOE IPDS 2T'
_diffrn_measurement_method       'rotation method'
_diffrn_radiation_type           MoK\a
_diffrn_radiation_wavelength     0.71073
_diffrn_reflns_av_R_equivalents  0.0000
_diffrn_reflns_av_unetI/netI     0.0444
_diffrn_reflns_Laue_measured_fraction_full 0.999
_diffrn_reflns_Laue_measured_fraction_max 0.970
_diffrn_reflns_limit_h_max       8
_diffrn_reflns_limit_h_min       -8
_diffrn_reflns_limit_k_max       8
_diffrn_reflns_limit_k_min       -8
_diffrn_reflns_limit_l_max       18
_diffrn_reflns_limit_l_min       -18
_diffrn_reflns_number            16154
_diffrn_reflns_point_group_measured_fraction_full 0.999
_diffrn_reflns_point_group_measured_fraction_max 0.970
_diffrn_reflns_theta_full        25.242
_diffrn_reflns_theta_max         26.099
_diffrn_reflns_theta_min         2.829
_exptl_absorpt_coefficient_mu    1.519
_exptl_absorpt_correction_T_max  0.8379
_exptl_absorpt_correction_T_min  0.5956
_exptl_absorpt_correction_type   integration
_exptl_absorpt_process_details   XRED32
_exptl_crystal_colour            blue
_exptl_crystal_density_diffrn    1.492
_exptl_crystal_density_method    'not measured'
_exptl_crystal_description       'quadratic plate'
_exptl_crystal_F_000             322
_exptl_crystal_preparation       'Magnetic properties'
_exptl_crystal_recrystallization_method 'from reaction solution'
_exptl_crystal_size_max          0.120
_exptl_crystal_size_mid          0.100
_exptl_crystal_size_min          0.060
_refine_diff_density_max         0.564
_refine_diff_density_min         -0.629
_refine_diff_density_rms         0.106
_refine_ls_extinction_coef       0.074(11)
_refine_ls_extinction_expression Fc^*^=kFc[1+0.001xFc^2^\l^3^/sin(2\q)]^-1/4^
_refine_ls_extinction_method     SHELXL
_refine_ls_goodness_of_fit_ref   1.093
_refine_ls_hydrogen_treatment    mixed
_refine_ls_matrix_type           full
_refine_ls_number_parameters     178
_refine_ls_number_reflns         16154
_refine_ls_number_restraints     3
_refine_ls_restrained_S_all      1.093
_refine_ls_R_factor_all          0.0820
_refine_ls_R_factor_gt           0.0624
_refine_ls_shift/su_max          0.000
_refine_ls_shift/su_mean         0.000
_refine_ls_structure_factor_coef Fsqd
_refine_ls_weighting_details
'w=1/[\s^2^(Fo^2^)+(0.1000P)^2^] where P=(Fo^2^+2Fc^2^)/3'
_refine_ls_weighting_scheme      calc
_refine_ls_wR_factor_gt          0.1575
_refine_ls_wR_factor_ref         0.1689
_reflns_Friedel_coverage         0.000
_reflns_number_gt                11492
_reflns_number_total             16154
_reflns_threshold_expression     'I > 2\s(I)'
_cod_data_source_file            c6dt03098j2.cif
_cod_data_source_block           2
_cod_depositor_comments
;Adding full bibliography for 7040748--7040750.cif.

 Adding full bibliography for 7040748--7040750.cif.
;
_cod_database_code               7040748
_shelx_space_group_comment
; 
The symmetry employed for this shelxl refinement is uniquely defined 
by the following loop, which should always be used as a source of 
symmetry information in preference to the above space-group names. 
They are only intended as comments. 
;
_shelxl_version_number           2014-3
_shelx_res_file
; 
TITL CoSPh2NH3 
CELL  0.71073    6.8884   6.9907  14.6692   98.926   95.975   92.474 
ZERR     2.00    0.0004   0.0004   0.0010    0.005    0.005    0.005 
LATT  1 
SFAC C H N S CO 
UNIT 24 32 4 4 2 
  
OMIT -3 4 10 
OMIT 6 1 9 
  
TEMP -93 
ACTA 
L.S. 20 
FMAP 2 
PLAN -10 
EADP H13 H14 H15 
DFIX 0.85 0.05 N1 H13 N1 H14 N1 H15 
WGHT    0.100000 
EXTI    0.074140 
BASF   0.37913 
FVAR       0.93486 
CO1   5    0.300908    0.156325    0.919206    11.00000    0.03229    0.03181 = 
         0.04215    0.00619    0.00611    0.00249 
S1    4    0.601674    0.260133    0.883733    11.00000    0.03304    0.04083 = 
         0.04274    0.00890    0.00655    0.00109 
S2    4    0.168877   -0.158825    0.889213    11.00000    0.03868    0.03271 = 
         0.04650    0.00735    0.00427    0.00085 
N1    3    0.317547    0.226705    1.060589    11.00000    0.04391    0.04083 = 
         0.04487    0.00559    0.00943    0.00682 
H13   2    0.190217    0.219154    1.078913    11.00000    0.07913 
H14   2    0.320672    0.357668    1.078026    11.00000    0.07913 
H15   2    0.414734    0.169425    1.088517    11.00000    0.07913 
N2    3    0.104894    0.338389    0.870165    11.00000    0.04034    0.03841 = 
         0.06516    0.01190    0.00376    0.00065 
H16   2    0.133078    0.460673    0.887441    11.00000    0.06268 
H17   2    0.089579    0.317159    0.813833    11.00000    0.08220 
H18   2   -0.011234    0.323486    0.887758    11.00000    0.06013 
C1    1    0.566953    0.269956    0.763059    11.00000    0.03054    0.03434 = 
         0.04555    0.00658    0.00817    0.00557 
C2    1    0.672755    0.407146    0.725415    11.00000    0.03705    0.03551 = 
         0.05157    0.00769    0.00889    0.00017 
AFIX  43 
H2    2    0.762605    0.497881    0.765236    11.00000   -1.20000 
AFIX   0 
C3    1    0.649514    0.413545    0.631904    11.00000    0.04550    0.04473 = 
         0.05062    0.01484    0.00856   -0.00093 
AFIX  43 
H3    2    0.723905    0.508018    0.607952    11.00000   -1.20000 
AFIX   0 
C4    1    0.519422    0.284468    0.572184    11.00000    0.04456    0.05481 = 
         0.04616    0.01491    0.00556    0.00280 
AFIX  43 
H4    2    0.503475    0.289863    0.507540    11.00000   -1.20000 
AFIX   0 
C5    1    0.413199    0.147844    0.607794    11.00000    0.04471    0.05211 = 
         0.04649    0.00607    0.00057   -0.00653 
AFIX  43 
H5    2    0.322588    0.058615    0.567557    11.00000   -1.20000 
AFIX   0 
C6    1    0.437809    0.139849    0.702036    11.00000    0.04141    0.04507 = 
         0.05241    0.01172    0.00820   -0.00462 
AFIX  43 
H6    2    0.364914    0.043453    0.725435    11.00000   -1.20000 
AFIX   0 
C7    1    0.097131   -0.192822    0.767502    11.00000    0.03677    0.02815 = 
         0.04846    0.00409    0.00916   -0.00125 
C8    1    0.192055   -0.320803    0.706712    11.00000    0.03805    0.03491 = 
         0.05580    0.00592    0.01030    0.00246 
AFIX  43 
H8    2    0.289256   -0.397641    0.730811    11.00000   -1.20000 
AFIX   0 
C9    1    0.145984   -0.336728    0.611920    11.00000    0.04934    0.04183 = 
         0.05286   -0.00141    0.01564   -0.00370 
AFIX  43 
H9    2    0.211572   -0.424871    0.571455    11.00000   -1.20000 
AFIX   0 
C10   1    0.005312   -0.225838    0.574989    11.00000    0.05127    0.04967 = 
         0.04470    0.00429    0.00480   -0.00932 
AFIX  43 
H10   2   -0.022310   -0.233169    0.509685    11.00000   -1.20000 
AFIX   0 
C11   1   -0.094070   -0.104276    0.635107    11.00000    0.04186    0.04548 = 
         0.05335    0.01066   -0.00137   -0.00086 
AFIX  43 
H11   2   -0.193366   -0.030070    0.610692    11.00000   -1.20000 
AFIX   0 
C12   1   -0.051244   -0.089209    0.729800    11.00000    0.03670    0.03570 = 
         0.05129    0.00405    0.00548    0.00242 
AFIX  43 
H12   2   -0.123510   -0.007367    0.769914    11.00000   -1.20000 
AFIX   0 
HKLF 5 
  
REM  CoSPh2NH3 
REM R1 =  0.0624 for   11492 Fo > 4sig(Fo)  and  0.0820 for all   16154 data 
REM    178 parameters refined using      3 restraints 
  
END 
  
WGHT      0.1296      0.0000 
  
REM Highest difference peak  0.564,  deepest hole -0.629,  1-sigma level  0.106 
Q1    1   0.1960  0.3609  1.0819  11.00000  0.05    0.56 
Q2    1   0.1303  0.3050  1.0805  11.00000  0.05    0.52 
Q3    1   0.0549 -0.2512  0.8948  11.00000  0.05    0.50 
Q4    1   0.4395  0.3022  0.9198  11.00000  0.05    0.47 
Q5    1   0.7407  0.3964  0.8873  11.00000  0.05    0.47 
Q6    1   0.4716  0.1171  0.8781  11.00000  0.05    0.46 
Q7    1   0.1403  0.0351  0.9245  11.00000  0.05    0.43 
Q8    1  -0.0289 -0.2068  0.9135  11.00000  0.05    0.42 
Q9    1   0.4961  0.2056  0.8978  11.00000  0.05    0.42 
Q10   1   0.2793  0.0825  0.8154  11.00000  0.05    0.40 
;
_shelx_res_checksum              89973
_shelx_hkl_file
; 
  -2  -1 -15   54.55    8.82   1 
   0  -6   0  154.62    6.29   1 
   0   4 -16  119.09    8.02   1 
   1   5 -11    1.00    5.45   1 
   2  -3   5    2.39    4.46   1 
   3   6  -9  302.13    8.61   1 
   4  -1   6  534.24    9.29   1 
   4   6  -7   33.55    6.25   1 
   5   3   2    1.04    8.36   1 
  -1   0  -3  620.43   14.95   1 
   1  -7   1   49.34    6.16   1 
   1  -5   3   39.30    4.90   1 
   1   0   2  330.06   13.02   1 
   1   5 -10   75.97    5.80   1 
   2  -6   4   40.24    5.37   1 
   2   4  -3  254.15    6.30   1 
   2   6 -13    7.83    6.31   1 
   3  -4   6   33.12    5.01   1 
   4   5  -3   89.53    5.92   1 
   6  -2   7   14.01    6.28   1 
   6   5  -2    4.34    6.00   1 
   7  -2   7   49.37    7.59   1 
  -2  -1 -16   65.84    9.64   1 
  -1  -5  -3    1.48    5.56   1 
  -1   2  -7  456.29    7.41   1 
   0   4  -9   -0.82    4.90   1 
   1   4  -5   24.67    4.93   1 
   2  -8   1   36.71    6.08   1 
   2   5  -6  131.40    5.92   1 
   2   6 -12   26.45    6.39   1 
   3  -6   5   57.02    5.46   1 
   3   5  -4   45.20    5.10   1 
   3   6  -8  270.58    7.86   1 
   4  -7   5   -0.62    5.82   1 
   5  -4   7    4.00    5.20   1 
  -2   0 -15  125.88    8.10   1 
  -1  -4  -2   18.09    4.70   1 
   0   3  -5  195.99    6.21   1 
   1   5  -9  228.96    6.97   1 
   2   6 -11   65.43    6.53   1 
   4   6  -6  177.13    7.30   1 
   5   5  -2  182.57    8.84   1 
   5   6  -5    9.84    5.81   1 
   6  -5   7   16.44    4.33   1 
   7  -3   7   14.39    7.27   1 
  -2  -1  -7    0.87    5.04   1 
  -1  -6  -6   77.84    8.32   1 
   0  -6  -1   42.60    5.20   1 
   1  -8  -2   -0.55    6.16   1 
   1  -4   3 1049.44   10.22   1 
   2  -5   4  457.81    7.60   1 
   2  -1   4   93.76    5.46   1 
   2   6 -10   60.99    6.49   1 
   4  -5   6   43.25    5.59   1 
   4   0   5  192.94    7.74   1 
   5  -6   6   50.82    6.15   1 
   6  -3   7   62.32    5.94   1 
  -2   1 -13   40.95    5.85   1 
  -2   1 -12  131.90    6.65   1 
  -1   2  -6 1316.66   12.38   1 
   0   4  -8   11.79    3.34   1 
   1  -7   0   31.65    5.71   1 
   1  -2   3  872.31   10.42   1 
   1   5  -8    4.70    5.16   1 
   2  -8   0    7.64    6.20   1 
   3  -8   2  130.93    6.33   1 
   3   4  -1   32.83    6.04   1 
  -2   1 -15   12.42    6.93   1 
  -2   1 -14    4.17    5.34   1 
  -2   1 -11  216.08    7.00   1 
   0  -7  -4   32.07    7.40   1 
   0  -3   1  671.55    9.98   1 
   0  -2   1  293.18    8.32   1 
   0   1  -1   19.93    6.33   1 
   1  -8  -3    2.01    6.47   1 
   1  -3   3  994.31    9.81   1 
   1   3  -2  498.32    8.67   1 
   2  -6   3   32.90    5.26   1 
   2   5  -5  135.32    6.13   1 
   2   6  -9   17.87    5.80   1 
   4  -7   4    6.18    5.54   1 
   4  -3   6    0.72    4.54   1 
   7  -1   6   78.92    7.87   1 
  -2   1 -16   27.38    7.58   1 
  -2   1 -10  131.56    6.26   1 
  -1  -6  -7  159.22    9.82   1 
   0   5 -15  101.42    7.51   1 
   0   5 -14   38.78    6.47   1 
   1  -5   2   11.22    4.54   1 
   1   1   1 2293.75   43.50   1 
   1   4  -4  378.89    7.60   1 
   1   5  -7   15.88    5.14   1 
   3  -6   4    0.80    5.11   1 
   4   4   0    4.94    5.74   1 
   4   6  -5  187.42    7.47   1 
   6  -1   6    4.91    6.28   1 
   0  -6  -2    7.10    5.09   1 
   1  -7  -1   10.67    5.55   1 
   1   6 -13   -0.44    4.30   1 
   1   6 -12   38.52    6.40   1 
   2  -8  -1   23.88    6.41   1 
   2   4  -2   79.27    5.06   1 
   2   6  -8   11.49    5.55   1 
   3  -8   1  139.70    7.55   1 
   3  -4   5   16.76    4.71   1 
   3  -2   5  108.10    5.16   1 
   3   3   1    2.27    5.85   1 
   3   5  -3  519.42    8.61   1 
   4   1   4  559.48   14.66   1 
   5   6  -4   -1.16    5.82   1 
   6  -5   6   48.19    6.53   1 
  -2   1  -9   18.77    4.61   1 
  -1  -6  -8    3.58    7.38   1 
  -1   4 -15    1.43    5.64   1 
  -1   4 -14    6.85    5.57   1 
  -1   4 -13   29.93    5.61   1 
   0  -7  -5   25.42    6.39   1 
   0   3  -4   49.75    3.90   1 
   1   6 -11   25.11    6.02   1 
   2  -3   4  196.73    5.93   1 
   3   7 -10   -2.23    6.77   1 
   5  -6   5   34.13    5.88   1 
   5  -4   6   46.93    5.31   1 
   5  -2   6   50.53    5.29   1 
  -1  -6  -9    1.58    8.79   1 
  -1   4 -16    5.85    6.37   1 
  -1   4 -12    0.96    4.97   1 
   2  -5   3  321.75    6.78   1 
   2   3   0  581.15   10.87   1 
   2   5  -4   56.51    5.22   1 
   4  -7   3   -3.85    5.79   1 
   4  -5   5  117.45    5.99   1 
   6   5  -1    5.83    7.10   1 
   7  -2   6    9.47    5.77   1 
  -1  -2  -2   90.55    7.67   1 
  -1   2  -5  291.88    6.51   1 
  -1   4 -11    3.58    5.21   1 
   0  -7  -6   -3.89    7.48   1 
   0  -4   0  311.69    6.88   1 
   1  -7  -2   36.64    6.06   1 
   1  -4   2 1991.78   13.58   1 
   1   5  -6  369.00    7.22   1 
   2  -8  -2   88.97    7.46   1 
   2   6  -7   13.69    5.52   1 
   3   0   4  177.49    7.66   1 
   3   7  -9    1.84    6.45   1 
   5   0   5    0.79    5.83   1 
   6  -3   6   50.58    5.68   1 
  -2   1  -8  103.13    5.66   1 
  -1   4 -10    4.52    5.07   1 
   0  -6  -3   59.12    5.87   1 
   1   2   0  432.12    9.95   1 
   3  -6   3    7.63    3.91   1 
   4   6  -4  108.80    7.16   1 
   5   5  -1  228.62    9.38   1 
   7   0   5   85.29    8.19   1 
   0  -7  -7    1.40    7.81   1 
   1   4  -3 1224.02   11.46   1 
   2   7 -11   35.27    5.71   1 
   4  -1   5  611.43    9.29   1 
   4   7  -7   13.47    6.13   1 
   5  -6   4    8.19    5.62   1 
   6  -5   5   29.70    6.06   1 
   6   0   5   42.01    6.70   1 
   6   4   1   78.27   10.80   1 
  -2  -1  -6  323.15   12.73   1 
  -1   4  -9   99.79    5.72   1 
   0   5  -8   11.00    5.02   1 
   0   6 -14    7.39    6.07   1 
   2   6  -6  128.79    6.28   1 
   2   7 -10   20.32    6.36   1 
   3  -7   1   16.57    5.73   1 
   3   7  -8   37.97    6.81   1 
   4  -7   2   12.39    5.85   1 
   4  -3   5   15.86    4.77   1 
   5   6  -3   65.61    8.04   1 
  -2   3 -15   24.05    5.91   1 
  -2   3 -14   72.93    6.23   1 
   0   4  -5  355.96    7.04   1 
   0   6 -13   81.39    6.83   1 
   1  -7  -3  159.82    7.06   1 
   1  -3   2 1785.32   13.83   1 
   1   5  -5  126.34    5.64   1 
   1   6  -8  350.51    7.61   1 
   2  -6   1   98.72    5.77   1 
   3  -4   4   63.86    3.77   1 
   3   5  -2   87.76    5.47   1 
   4  -5   4  170.10    6.03   1 
   5  -4   5  111.57    5.86   1 
  -2   1  -7  782.38   11.21   1 
  -2   3 -16   15.33    6.12   1 
  -2   3 -13    7.86    5.37   1 
  -2   3 -12   26.58    5.43   1 
  -1  -5  -6   54.80    6.97   1 
  -1   5 -15   31.26    6.34   1 
  -1   5 -14   65.36    6.82   1 
  -1   5 -13   52.65    6.05   1 
   0  -6  -4  105.38    6.37   1 
   0  -3   0 1082.16   12.43   1 
   0   3  -3    1.21    3.47   1 
   0   6 -12    7.53    5.74   1 
   1   3  -1  178.29    5.87   1 
   2   5  -3   27.11    4.97   1 
   2   7  -9   13.77    6.28   1 
   3  -6   2  175.90    6.32   1 
   4  -6   3   73.50    4.57   1 
   4   7  -6    4.05    5.96   1 
   5   4   1  202.88   11.58   1 
   7  -4   5    3.66    5.96   1 
  -2   3 -11   21.27    5.11   1 
  -1   2  -4    4.71    4.87   1 
  -1   4  -8  353.50    7.03   1 
  -1   5 -12    4.97    5.39   1 
   0   5  -7    7.03    4.83   1 
   0   6 -11   -2.02    5.47   1 
   1  -2   2  650.50    9.97   1 
   1   7 -12   29.07    6.66   1 
   2   4  -1  547.40    8.91   1 
   3  -5   3  517.95    7.12   1 
   3   4   0   83.84    6.57   1 
   3   7  -7   84.29    7.22   1 
   4   3   2    3.17    8.54   1 
   4   5  -1  356.56    9.43   1 
   4   6  -3    4.24    6.57   1 
   5  -1   5   41.20    5.28   1 
   7  -1   5  124.92    7.62   1 
   7   1   4   45.12    8.65   1 
  -2  -3  -8    9.87   11.43   1 
  -1   5 -11  107.27    6.33   1 
   0  -4  -1  121.37    5.24   1 
   1  -7  -4  124.29    7.15   1 
   1  -5   0  173.17    6.04   1 
   1  -4   1 1541.36   12.27   1 
   1   6  -7  352.03    7.42   1 
   1   7 -11    7.69    6.13   1 
   2  -3   3  430.05    7.24   1 
   2   6  -5  408.54    8.38   1 
   3  -7   0   11.76    5.74   1 
   4  -7   1    8.31    5.91   1 
   5  -6   3   14.14    5.64   1 
   5  -2   5    9.42    4.52   1 
   6  -3   5  166.91    6.77   1 
   6  -1   5    5.44    4.95   1 
  -2   3 -10  330.06    7.56   1 
  -1  -3  -3   38.45    6.00   1 
   0  -6  -5  232.69    7.70   1 
   0   6 -10   87.22    6.15   1 
   3  -2   4    4.04    4.09   1 
   5   1   4    8.41    5.75   1 
   6  -5   4    0.03    5.74   1 
   6  -2   5    1.87    5.00   1 
  -1  -5  -7   91.62    7.90   1 
  -1   4  -7  631.17    8.31   1 
  -1   5 -10  137.86    6.06   1 
   1  -7  -5   80.07    6.66   1 
   1   5  -4  161.75    6.00   1 
   1   7 -10    3.11    5.94   1 
   2  -1   3   17.66    4.83   1 
   3   7  -6    5.80    5.55   1 
   4   7  -5    1.57    7.14   1 
   6   1   4  371.58   12.26   1 
  -2   3  -9  182.52    6.18   1 
   0   6  -9   30.72    5.45   1 
   1   4  -2  847.94    9.79   1 
   1   6  -6   48.46    5.58   1 
   2  -5   1   99.84    5.22   1 
   3  -7  -1  121.62    6.88   1 
   3  -6   1  266.73    6.78   1 
   3  -4   3  124.14    5.18   1 
   4  -5   3   58.31    5.19   1 
  -2   1  -6  860.09   11.31   1 
  -1   5  -9  279.34    6.85   1 
  -1   6 -14   11.88    6.44   1 
   0  -6  -6  115.65    8.21   1 
   1   7  -9   33.52    6.03   1 
   4  -7   0   15.21    5.95   1 
   4  -3   4  105.55    5.18   1 
   5  -6   2  108.22    6.66   1 
   5  -4   4   95.60    4.62   1 
   5   6  -2   20.43    7.52   1 
   7  -4   4   -0.20    5.59   1 
  -1   6 -13   39.94    6.47   1 
   0   6  -8   87.76    5.95   1 
   1  -7  -6    0.55    6.21   1 
   2   5  -2  115.20    5.44   1 
   2   6  -4  113.53    5.84   1 
   4   0   4  285.66    8.43   1 
   4   4   1   93.30    8.05   1 
   7   2   3    1.76    8.76   1 
  -2   3  -8   61.79    5.20   1 
  -1  -5  -8  117.72    8.47   1 
   0   3  -2   44.01    5.24   1 
   1  -5  -1  142.24    4.68   1 
   2  -6  -1   72.50    5.61   1 
   3   5  -1   -1.28    4.85   1 
   3   7  -5    1.39    5.41   1 
   6  -5   3    5.74    5.47   1 
   6   5   0    0.30    9.40   1 
   7  -3   4   16.31    5.84   1 
  -3   0 -14   39.01    7.75   1 
  -1   5  -8   -0.33    3.44   1 
   0  -6  -7   22.02    7.22   1 
   0   2  -1  232.39    6.83   1 
   0   5  -5  185.27    6.06   1 
   1  -7  -7   -0.23    6.23   1 
   1  -4   0  293.56    6.96   1 
   1   5  -3  197.56    5.98   1 
   1   7  -8   36.70    6.03   1 
   2   7  -6   44.28    6.05   1 
   3  -7  -2  153.60    7.18   1 
   3  -6   0   12.60    5.29   1 
   3   1   3    1.91    6.88   1 
   4  -7  -1   30.40    6.18   1 
   4  -6   1    0.74    3.70   1 
   4   6  -2    1.60    5.47   1 
   5   5   0    4.11    6.59   1 
   6  -3   4  137.15    6.20   1 
   7   0   4   -0.12    5.39   1 
  -3   0 -15   10.32    7.56   1 
  -3   0 -13   19.69    6.05   1 
  -2   5 -14   42.02    6.58   1 
  -1   2  -3  969.03   11.26   1 
  -1   6 -11   21.62    4.46   1 
   0  -3  -1 1017.21   11.73   1 
   0  -1   0  613.69   14.37   1 
   0   4  -3   94.58    5.38   1 
   0   6  -7  150.12    6.15   1 
   1   6  -5   28.12    3.87   1 
   4  -5   2    7.29    4.70   1 
   4  -1   4  225.80    6.45   1 
   4   7  -4    0.92    5.68   1 
  -3   0 -12    4.76    5.19   1 
  -3   2 -15   23.76    6.21   1 
  -3   2 -14   62.83    6.64   1 
  -3   2 -13   79.02    6.48   1 
  -2   5 -13    1.93    3.87   1 
  -1  -5  -9    4.19    6.92   1 
   2  -5   0  373.01    6.95   1 
   2  -3   2  208.24    5.99   1 
   5  -6   1  150.99    5.67   1 
   5  -2   4  160.09    5.90   1 
   5   0   4    5.21    5.87   1 
   6   0   4  169.22    8.21   1 
   7  -4   3    0.80    5.73   1 
   7  -1   4   46.22    5.90   1 
  -3   0 -11   91.64    7.23   1 
  -3   2 -12   64.87    5.65   1 
  -2   3  -7  531.21    7.70   1 
  -2   5 -12    7.36    4.15   1 
  -1   4  -5   58.64    5.04   1 
  -1   5  -7   43.69    3.79   1 
   0  -6  -8    0.07    6.06   1 
   1   7  -7   51.63    6.31   1 
   2  -6  -2   36.93    5.32   1 
   3  -7  -3   89.59    6.95   1 
   3  -4   2  166.44    5.44   1 
   4  -7  -2    5.10    5.94   1 
   5  -4   3   63.20    5.25   1 
   6  -2   4   54.25    5.59   1 
  -2   1  -5  556.46    9.78   1 
  -2   5 -11   92.03    6.26   1 
  -1  -5 -10    4.55    8.37   1 
  -1   0  -2  275.62   11.81   1 
  -1   6  -9   41.01    5.51   1 
   1  -5  -2  147.09    5.90   1 
   2   3   1 1070.89   15.07   1 
   2   4   0   13.77    4.60   1 
   2   6  -3   13.20    4.98   1 
   2   7  -5   43.11    5.57   1 
   3  -6  -1   -0.71    5.09   1 
   3   7  -4    0.61    5.49   1 
   4   5   0   98.28    7.66   1 
   5  -1   4   -2.01    4.22   1 
   6  -5   2   18.17    4.22   1 
   6  -1   4    0.44    5.00   1 
  -3  -1 -15   -0.94    8.70   1 
  -3  -1 -14   12.77    7.64   1 
  -3  -1 -13   69.07    9.58   1 
  -3   2 -11   11.70    5.01   1 
   0   5  -4  173.58    5.95   1 
   0   6  -6   62.42    4.18   1 
   1   3   0   12.96    4.20   1 
   1   4  -1  174.40    5.72   1 
   1   6  -4  666.72    8.85   1 
   3  -2   3   62.35    4.78   1 
   4  -3   3  151.46    5.59   1 
   6   2   3   12.34    8.32   1 
  -3   0 -10   -0.86    5.86   1 
  -2   5 -10  207.86    7.19   1 
  -1  -5 -11    3.09    8.96   1 
  -1  -3  -4  682.16   12.69   1 
  -1   5  -6    7.15    4.73   1 
   1  -2   1  378.52    8.42   1 
   1   7  -6  177.46    6.93   1 
   2  -7  -6  152.98    8.36   1 
   3  -7  -4    7.89    6.02   1 
   4  -7  -3   -3.45    5.86   1 
   4  -5   1    8.11    4.91   1 
   5  -6   0   84.36    4.95   1 
   7   3   2  104.91   15.65   1 
   8   0   3   12.61    7.53   1 
  -3   2 -10   19.98    5.07   1 
  -2   3  -6  119.77    5.76   1 
  -2   6 -13   -5.60    6.03   1 
   0   7  -8   -2.76    3.73   1 
   1   5  -2    3.89    4.25   1 
   2  -6  -3  138.47    6.33   1 
   2  -5  -1   71.54    5.28   1 
   2   5  -1  413.43    8.33   1 
   4   7  -3   56.95    6.90   1 
   5   6  -1   23.93    7.61   1 
   6  -3   3   34.62    5.28   1 
   8  -1   3   55.98    7.16   1 
  -3   4 -14    6.13    6.10   1 
  -3   4 -13   -1.82    5.66   1 
  -2   5  -9  310.53    7.41   1 
  -2   6 -12    1.52    6.26   1 
  -1   4  -4   86.40    5.24   1 
  -1   7 -11    2.06    4.22   1 
   1  -4  -1   23.30    3.47   1 
   2  -7  -7   40.95    7.16   1 
   3  -7  -5    5.75    6.37   1 
   3  -6  -2    5.93    5.32   1 
   3  -5   0    8.44    3.44   1 
   3   0   3   78.78    6.27   1 
   3   4   1  401.89   10.55   1 
   6  -5   1   40.57    6.06   1 
   7  -4   2   10.70    3.92   1 
  -3   2  -9   47.73    6.16   1 
  -1   7 -10   44.35    6.32   1 
   0   6  -5   15.69    5.20   1 
   0   7  -7   96.37    6.34   1 
   1  -5  -3   32.51    5.09   1 
   1  -3   0  172.85    6.24   1 
   1   8  -8   -0.36    6.02   1 
   2   7  -4    8.03    5.35   1 
   3  -4   1  162.90    5.47   1 
   4  -7  -4    6.79    6.35   1 
   4   6  -1   40.57    7.40   1 
   5  -6  -1   40.52    5.99   1 
   5  -4   2    3.75    3.29   1 
   7  -2   3   66.14    6.25   1 
   7   1   3   59.61    7.52   1 
  -3   0  -9   43.68    6.56   1 
  -3   4 -12    3.49    3.67   1 
  -2  -3  -9   23.45   10.62   1 
  -2   6 -11    9.59    6.07   1 
  -1  -2  -3 1092.85   19.57   1 
  -1   5  -5   86.65    5.22   1 
   0   3  -1  661.32    9.66   1 
   1   7  -5    9.45    5.38   1 
   2   6  -2   39.03    5.27   1 
   2   8  -6    6.98    5.82   1 
   3   5   0  124.65    6.36   1 
   3   7  -3   23.10    5.94   1 
  -3   4 -11  121.95    6.70   1 
  -2  -1  -5   40.72    9.22   1 
  -2   5  -8  172.82    5.53   1 
  -1   7  -9  120.22    7.02   1 
   0   5  -3   54.56    3.94   1 
   2  -3   1 1273.84   10.44   1 
   3  -7  -6    0.53    6.68   1 
   4  -5   0  150.41    5.91   1 
   5  -2   3  333.03    7.25   1 
   6  -2   3   16.22    4.73   1 
   7  -1   3   14.16    5.63   1 
   7   0   3  116.33    8.09   1 
  -2   3  -5   -0.26    4.43   1 
  -2   6 -10   49.97    4.78   1 
  -1   2  -2  602.23    9.92   1 
   0  -3  -2  598.70    9.56   1 
   0   1   0  596.45   14.31   1 
   1   2   1  396.09   10.88   1 
   1   8  -7    4.67    6.26   1 
   3  -6  -3   37.61    5.65   1 
   8  -2   2   15.34    6.07   1 
  -3   2  -8  657.11    9.56   1 
  -3   4 -10  175.79    6.59   1 
  -1   6  -6    4.92    5.00   1 
   0  -2  -1 1476.70   16.22   1 
   0   6  -4   60.74    5.28   1 
   2  -1   2  207.43    7.21   1 
   3  -5  -1  265.64    5.76   1 
   3   3   2   24.97    8.64   1 
   3   6  -1   29.28    5.22   1 
   4  -3   2  210.37    5.88   1 
   4  -1   3   -2.96    4.20   1 
   5  -6  -2    5.38    5.75   1 
   6  -5   0  133.25    5.61   1 
   7  -4   1   20.78    4.50   1 
  -2   1  -4   92.37    5.35   1 
  -2   5  -7   -0.46    3.44   1 
  -2   6  -9    7.48    5.48   1 
  -1   7  -8   88.28    6.32   1 
   0  -4  -4   50.89    5.00   1 
   0   8  -8    8.46    6.12   1 
   1  -6  -8  248.04   10.00   1 
   1  -5  -4  197.38    6.47   1 
   1  -4  -2  675.17    9.04   1 
   2  -6  -5  140.61    6.80   1 
   2   8  -5   11.79    6.11   1 
   4   7  -2   81.05    8.41   1 
   5  -4   1   27.45    5.09   1 
   6  -3   2    8.03    5.12   1 
   6  -1   3   -0.23    4.99   1 
  -3   4  -9   20.14    5.61   1 
  -1   4  -3  907.39    9.08   1 
  -1   5  -4    2.37    4.38   1 
   1   5  -1   86.08    5.28   1 
   1   7  -4   28.09    5.66   1 
   1   8  -6    7.11    6.12   1 
   2   7  -3   28.56    5.14   1 
   3  -6  -4    3.63    5.47   1 
   3  -2   2 1374.96   11.62   1 
   4   1   3  125.32    7.36   1 
   5  -1   3   95.00    5.29   1 
   6   0   3  141.63    7.31   1 
   8  -1   2    2.51    5.64   1 
   8   1   2    4.69    7.47   1 
  -3   0  -8    1.89    5.87   1 
  -2   6  -8   22.35    5.56   1 
  -2   7 -11   25.41    4.98   1 
   1  -6  -9  140.61    9.23   1 
   1   4   0    3.59    4.07   1 
   3  -4   0   75.62    4.92   1 
   4  -5  -1  318.09    5.98   1 
   4   0   3  290.58    7.77   1 
   5  -6  -3   85.88    7.01   1 
   8   0   2    1.27    5.88   1 
  -3   2  -7  312.61    7.25   1 
  -2   5  -6  157.13    5.97   1 
  -2   7 -10    7.19    5.92   1 
  -1  -3  -5   44.85    6.99   1 
  -1   3  -2 1537.94   12.28   1 
  -1   6  -5    0.05    4.88   1 
  -1   7  -7   22.43    5.41   1 
   0   2   0 3654.33   24.00   1 
   0   5  -2   31.28    4.91   1 
   0   8  -7    1.76    6.06   1 
   1   6  -2  447.64    8.03   1 
   2  -6  -6  189.22    7.42   1 
   2  -5  -3  108.56    5.65   1 
   2  -4  -1  673.02    8.00   1 
   2   5   0 1185.07   12.76   1 
   3   7  -2    7.74    5.75   1 
   5   0   3   94.17    6.98   1 
   5   1   3  227.46    8.72   1 
   6  -5  -1   65.49    6.02   1 
   7  -4   0   25.38    6.08   1 
  -3   4  -8   63.74    5.40   1 
  -3   6 -12  104.48    7.53   1 
  -2   3  -4  175.01    5.85   1 
   0   4  -1    9.34    2.93   1 
   1  -6 -10    8.66    8.12   1 
   1  -5  -5  152.53    6.34   1 
   2   4   1   60.45    5.89   1 
   2   6  -1   32.91    5.11   1 
   3  -6  -5    4.94    5.63   1 
   8  -2   1   61.51    8.23   1 
  -4   3 -14   16.11    6.08   1 
  -3   6 -11   58.65    6.61   1 
  -2   6  -7   45.35    5.58   1 
  -2   7  -9    3.62    5.88   1 
   0   6  -3   25.80    3.78   1 
   1   8  -5    6.65    5.91   1 
   2  -6  -7   24.74    6.09   1 
   2  -3   0  293.73    6.83   1 
   2   0   2   94.05    6.24   1 
   2   2   2  226.50   14.10   1 
   2   8  -4    2.88    5.91   1 
   5  -6  -4   76.12    6.87   1 
   5   5   1   73.80   10.26   1 
   7  -1   2   19.47    6.68   1 
  -4   3 -13    0.21    5.67   1 
  -1   7  -6    9.93    5.53   1 
   1  -2   0 2553.02   17.76   1 
   1   7  -3  117.64    6.26   1 
   4  -5  -2  111.56    5.80   1 
   4  -3   1   74.28    4.93   1 
   4   5   1   27.40    6.45   1 
   4   6   0   60.06    7.31   1 
   5  -4   0   80.58    4.18   1 
   5  -2   2  482.55    8.18   1 
   5   6   0   20.43    8.89   1 
   6  -3   1  107.30    6.06   1 
  -4   3 -12   12.82    5.77   1 
  -3   4  -7   10.57    4.94   1 
  -3   6 -10    9.42    5.79   1 
  -2  -3 -10    6.88    9.91   1 
  -2   5  -5  403.23    7.32   1 
  -1   5  -3   31.10    4.77   1 
   0  -5  -9  130.34    7.98   1 
   0  -4  -5   49.48    5.08   1 
   0   8  -6   17.16    6.17   1 
   1  -4  -3 1199.53   11.22   1 
   2   7  -2   -1.82    4.95   1 
   3  -6  -6   -5.22    6.07   1 
   6  -5  -2    6.89    4.08   1 
   7   2   2   21.76    7.28   1 
  -4   1 -14    2.34    5.96   1 
  -3   2  -6   73.85    4.99   1 
  -2   6  -6   22.85    5.31   1 
  -2   7  -8   59.38    6.35   1 
  -1  -4  -9   56.43    8.45   1 
  -1   4  -2 1855.45   13.29   1 
   0  -3  -3    0.52    4.15   1 
   0   3   0 1027.69   11.76   1 
   1  -5  -6  155.23    6.68   1 
   1   3   1  196.76    6.73   1 
   2  -6  -8   36.96    6.70   1 
   3  -5  -3   35.21    3.97   1 
   3  -4  -1    3.06    4.43   1 
   5  -6  -5   51.82    6.45   1 
   7  -4  -1   23.33    5.84   1 
   7   0   2  238.27    8.23   1 
   8  -1   1   14.95    5.91   1 
  -4   1 -13   -2.29    5.71   1 
  -4   3 -11   58.02    5.71   1 
  -3   0  -7   20.87    5.87   1 
  -3   6  -9   10.68    5.86   1 
   1   8  -4   11.08    5.90   1 
   2  -4  -2   55.46    5.08   1 
   3   5   1   98.35    7.12   1 
   3   6   0   43.13    5.85   1 
   4   7  -1   48.74    8.11   1 
   6  -1   2    3.21    4.85   1 
   7  -2   1   89.42    6.46   1 
   7   1   2   89.01    7.77   1 
  -4   1 -12   10.10    7.06   1 
  -1   2  -1  374.56    8.38   1 
  -1   7  -5   23.82    5.20   1 
  -1   8  -7   53.99    5.19   1 
   0   5  -1   12.40    4.51   1 
   0   6  -2  124.19    5.72   1 
   0   8  -5   75.72    6.65   1 
   1   6  -1  374.87    7.62   1 
   2  -6  -9   66.59    7.62   1 
   2   8  -3    4.64    7.08   1 
   3  -6  -7    9.25    6.21   1 
   4  -5  -3   52.05    5.43   1 
   6  -5  -3   -1.48    5.80   1 
   6   3   2   12.36    9.50   1 
   8  -2   0   17.02    6.03   1 
  -4   3 -10   61.79    5.94   1 
  -4   5 -12    6.94    6.19   1 
  -3   4  -6   33.25    5.06   1 
  -2   1  -3   20.56    4.85   1 
  -2   3  -3  360.70    6.30   1 
  -2   7  -7    7.51    5.54   1 
   1  -5  -7  233.42    8.36   1 
   1   5   0  159.39    5.82   1 
   2  -6 -10   52.08    7.58   1 
   3   7  -1   -2.49    5.68   1 
   4  -1   2  322.50    7.09   1 
   5  -6  -6   23.40    4.66   1 
   5  -4  -1  124.22    4.58   1 
   5  -1   2    5.01    4.37   1 
   8   0   1   15.52    6.34   1 
  -4   1 -11   24.38    6.88   1 
  -4   5 -11   23.35    6.10   1 
  -3   6  -8  105.86    6.39   1 
  -2   5  -4  418.93    7.46   1 
  -2   6  -5    4.49    4.78   1 
  -1  -4 -10   14.47    8.09   1 
   0  -4  -6    0.22    5.70   1 
   1   7  -2  123.46    6.27   1 
   3  -6  -8   51.44    6.79   1 
   3  -2   1  806.64    8.79   1 
   6  -3   0   37.67    5.43   1 
   7  -4  -2   38.15    6.15   1 
   8   1   1    2.38    7.25   1 
   0   4   0  282.55    6.65   1 
   1  -4  -4  709.20    9.25   1 
   2   1   2    8.47    8.86   1 
   2   6   0  213.72    7.01   1 
   3  -4  -2  163.80    5.72   1 
   4  -3   0  105.76    5.19   1 
   4   4   2   32.66    9.85   1 
   6  -5  -4    8.73    5.94   1 
   6   0   2   44.83    5.44   1 
   7  -1   1   95.28    6.02   1 
  -4   3  -9  114.77    6.14   1 
  -4   5 -10   26.96    6.04   1 
  -3   2  -5   98.64    5.26   1 
  -3   7  -9   17.35    6.43   1 
  -1  -3  -6    1.25    5.53   1 
  -1   7  -4   87.04    6.03   1 
   1  -5  -8   84.50    7.61   1 
   1   8  -3   28.29    5.84   1 
   2  -3  -1   40.88    3.72   1 
   2   7  -1    2.40    5.02   1 
   3  -6  -9   17.44    7.01   1 
   4  -5  -4    0.42    5.06   1 
   5  -2   1  139.04    5.82   1 
  -4   0 -14   56.58    9.69   1 
  -4   1 -10    9.58    5.16   1 
  -3   4  -5   21.28    4.91   1 
  -3   6  -7  254.68    6.24   1 
  -2  -3 -11    2.01    9.46   1 
  -1  -4 -11    2.53    8.36   1 
   0   8  -4   59.34    6.61   1 
   1   0   1   67.91    7.51   1 
   1   4   1  119.53    5.60   1 
   2  -5  -6   58.07    5.84   1 
   2   5   1   99.21    6.39   1 
   5  -4  -2   69.06    5.30   1 
   7  -2   0    3.18    5.19   1 
   8  -1   0   41.70    6.36   1 
  -4   0 -13   30.18    8.38   1 
  -4   5  -9   11.32    5.69   1 
  -3   7  -8   87.88    6.61   1 
  -1   4  -1 1257.20   10.69   1 
   0  -2  -2  315.83    8.39   1 
   2  -1   1 3602.72   22.19   1 
   2   3   2  103.49    7.05   1 
   2   8  -2    4.31    7.01   1 
   3   0   2   43.93    5.63   1 
   6  -5  -5  101.86    6.94   1 
   6   1   2   -0.18    5.94   1 
   6   2   2  102.12    8.55   1 
   7  -4  -3    9.26    4.12   1 
   8  -2  -1    3.27    6.16   1 
  -4   3  -8   75.25    5.53   1 
  -2   5  -3  293.97    6.43   1 
  -2   7  -5  169.84    6.75   1 
  -1  -4 -12   86.42   10.44   1 
   0  -4  -7   49.90    7.03   1 
   0   6  -1  388.64    7.27   1 
   0   7  -2   23.35    5.38   1 
   1  -5  -9    0.90    5.57   1 
   4  -5  -5   76.69    5.90   1 
   5   0   2  168.05    6.37   1 
   6  -3  -1   77.71    5.68   1 
   7   0   1  197.27    8.50   1 
  -4   0 -12   22.46    7.44   1 
  -4   1  -9    6.08    6.05   1 
  -3   0  -6   58.51    6.51   1 
  -3   6  -6  104.55    6.04   1 
  -2   3  -2  199.58    5.95   1 
  -1   6  -2  133.46    5.91   1 
   0  -3  -4  432.38    8.84   1 
   1   6   0   57.92    5.36   1 
   1   7  -1   91.49    5.75   1 
   2  -5  -7    8.44    5.45   1 
   3  -4  -3  292.84    6.36   1 
   4   0   2  950.21   12.35   1 
   6  -2   0   76.21    5.40   1 
   6  -1   1   10.72    4.73   1 
  -4   5  -8   -0.96    5.48   1 
  -3   7  -7   29.04    6.10   1 
  -2   8  -6    5.57    6.12   1 
  -1  -4 -13   94.82   10.54   1 
  -1  -2  -4  284.79   10.95   1 
  -1   7  -3   67.40    4.52   1 
   0   5   0    3.82    4.30   1 
   0   8  -3   21.73    6.05   1 
   1  -5 -10   64.49    7.37   1 
   1  -2  -1    5.66    5.32   1 
   4  -3  -1   -1.85    4.29   1 
   5  -4  -3   29.76    5.21   1 
   6  -5  -6   51.10    6.75   1 
   7  -4  -4   15.13    5.90   1 
   7  -3  -2   11.11    4.09   1 
   8   0   0   60.47    6.69   1 
  -4   3  -7    3.79    4.82   1 
  -3   4  -4   66.20    5.19   1 
  -2  -3 -12   -0.54    8.82   1 
  -1   5  -1   86.97    4.01   1 
   1   8  -2   64.10    6.58   1 
   3   7   0   -0.89    6.82   1 
   4  -5  -6  148.07    6.71   1 
   4   7   0   12.25    7.58   1 
   7  -2  -1   80.09    6.02   1 
   7  -1   0  101.03    6.08   1 
   8  -2  -2    5.52    5.96   1 
  -4   0 -11   56.87    7.98   1 
  -3   2  -4    2.00    4.19   1 
  -3   6  -5   49.14    5.39   1 
   1  -5 -11   50.75    7.16   1 
   1   5   1  133.47    5.72   1 
   2  -5  -8   13.67    5.62   1 
   2  -3  -2   47.72    5.01   1 
   3  -2   0   41.89    4.77   1 
   3   6   1    2.05    6.37   1 
   4   6   1   36.52    7.54   1 
   5  -2   0    4.39    4.56   1 
   5  -1   1   49.21    4.91   1 
   7   1   1   15.39    5.88   1 
   8  -1  -1   54.94    6.94   1 
  -4   5  -7   -2.09    5.32   1 
   0  -4  -8    1.80    5.06   1 
   0   3   1  964.41   11.21   1 
   1  -5 -12   68.54    7.78   1 
   1  -3  -3 1256.78   12.00   1 
   2   7   0   37.50    5.95   1 
   5   1   2   90.60    6.09   1 
   6  -3  -2   73.87    5.69   1 
   7  -4  -5   12.76    6.17   1 
   7   3   1   26.13    8.90   1 
   8   1   0    5.19    6.03   1 
  -5   4 -11   26.79    6.49   1 
  -4   1  -8   -1.39    5.21   1 
  -2  -3 -13    0.48    9.46   1 
  -2   5  -2  171.39    4.89   1 
  -2   8  -5   36.48    6.15   1 
  -1  -3  -7   31.02    6.71   1 
  -1   3   0  156.83    5.99   1 
   0   7  -1  184.61    6.84   1 
   2  -5  -9    4.42    5.84   1 
   2   4   2  162.40    7.36   1 
   2   6   1  202.79    7.79   1 
   2   8  -1   32.72    6.21   1 
   3  -4  -4  459.05    7.34   1 
   4  -5  -7  141.40    5.94   1 
   4  -1   1  978.95   10.37   1 
   5  -4  -4    8.30    5.16   1 
   6   0   1   51.20    6.23   1 
   7   2   1   10.56    7.02   1 
  -5   2 -13   42.89    8.40   1 
  -4   3  -6    1.41    4.96   1 
  -2  -3 -14   -1.51    9.83   1 
  -2   1  -2  205.90    7.08   1 
  -1   4   0  272.68    6.65   1 
  -1   6  -1  387.37    7.27   1 
  -1   7  -2  175.48    5.26   1 
   0   2   1 1275.37   14.91   1 
   0   4   1  108.73    5.26   1 
   0   6   0  143.67    5.84   1 
   0   8  -2    5.62    5.46   1 
   6  -2  -1  129.08    5.92   1 
  -5   4 -10   16.87    5.74   1 
  -4   5  -6   46.25    5.32   1 
  -3   4  -3  110.48    5.24   1 
  -3   6  -4    5.88    5.04   1 
  -3   7  -5   80.16    6.15   1 
  -2   7  -3    1.91    5.27   1 
  -1   2   0 2315.41   16.99   1 
  -1   8  -3   56.03    4.82   1 
   0  -4  -9  267.71    9.49   1 
   2  -5 -10   18.63    6.43   1 
   4  -5  -8   61.16    6.66   1 
   4  -3  -2  194.51    5.79   1 
   6  -1   0  210.85    6.57   1 
   7  -4  -6   25.52    6.51   1 
   7  -2  -2   32.09    5.69   1 
   8  -2  -3    9.48    6.21   1 
   8   0  -1   65.57    7.88   1 
  -5   2 -12   32.48    6.59   1 
  -2  -2  -7    0.14    9.88   1 
  -2   3  -1 1304.90   11.23   1 
  -2   8  -4   96.27    6.88   1 
   0  -3  -5  964.48   12.12   1 
   1   7   0  145.67    6.34   1 
   1   8  -1    0.98    5.76   1 
   2  -5 -11   16.91    6.46   1 
   4   1   2   60.51    6.22   1 
   5   6   1   63.03   12.14   1 
   6  -3  -3    4.25    5.32   1 
   7  -3  -4  185.64    7.52   1 
   8  -1  -2   32.00    6.18   1 
  -5   4  -9   11.87    5.73   1 
  -4   7  -7    7.00    6.13   1 
  -1   5   0  153.02    5.77   1 
   1  -4  -7   94.46    5.86   1 
   2  -5 -12   10.65    7.02   1 
   3  -4  -5  236.25    6.35   1 
   3   5   2  191.30    8.61   1 
   4  -5  -9    8.35    6.45   1 
   5  -4  -5    7.68    5.17   1 
   5   3   2    1.81    9.16   1 
   7  -1  -1  173.62    7.11   1 
  -5   2 -11    2.61    5.75   1 
  -4   1  -7  113.52    6.50   1 
  -4   3  -5   14.65    5.14   1 
  -4   5  -5  110.96    5.96   1 
  -3   2  -3   58.46    4.78   1 
   0  -4 -10  133.08    7.32   1 
   0   5   1   58.63    4.90   1 
   1   3   2  208.87    7.79   1 
   2  -3  -3   95.83    5.17   1 
   3   1   2  623.54   13.74   1 
   4  -5 -10   -3.63    7.04   1 
   5  -2  -1   -3.55    3.21   1 
  -3   0  -5  173.55    7.92   1 
  -3   6  -3    8.81    5.07   1 
  -3   7  -4  103.27    6.48   1 
  -2   5  -1   80.49    3.96   1 
  -1   7  -1   56.05    5.76   1 
   1   4   2   23.43    5.48   1 
   5  -1   0    3.60    4.27   1 
   6   1   1  110.91    6.33   1 
   8  -2  -4    1.81    6.20   1 
  -5   2 -10   10.66    5.81   1 
  -5   4  -8   18.70    5.91   1 
  -4   7  -6   -0.19    5.87   1 
  -2   8  -3   54.92    6.24   1 
  -1  -3  -8   26.71    6.95   1 
   0  -4 -11   39.40    8.22   1 
   0   8  -1   26.53    5.93   1 
   1  -4  -8  209.52    7.97   1 
   3  -2  -1 1053.27   10.26   1 
   4  -3  -3  195.27    5.86   1 
   4   5   2    1.78    7.91   1 
   5  -4  -6   32.25    5.71   1 
   6  -3  -4    7.15    5.19   1 
  -5   6  -8   22.39    6.41   1 
  -3   4  -2  151.86    5.44   1 
   1  -2  -2  119.74    6.23   1 
   2   7   1    1.40    6.67   1 
   2   8   0   25.77    6.80   1 
   3  -4  -6    6.68    3.68   1 
   3   7   1   -0.07    6.77   1 
   7   1   0   -1.04    5.58   1 
   8  -1  -3    5.84    5.53   1 
  -5   1 -13   14.45    8.13   1 
  -5   2  -9  105.68    8.09   1 
  -4   5  -4  156.44    6.12   1 
   0   6   1   41.47    5.05   1 
   2  -1   0  285.97    7.79   1 
   5  -4  -7   53.27    6.15   1 
   6  -1  -1   92.11    5.71   1 
   6   0   0   35.53    6.05   1 
   7  -1  -2   40.46    5.63   1 
   8  -2  -5    1.82    6.16   1 
   8   0  -2   10.22    5.70   1 
  -5   1 -12   65.92    8.70   1 
  -5   4  -7    7.69    5.39   1 
  -4   1  -6  574.62   10.60   1 
  -4   3  -4  114.05    5.47   1 
  -4   7  -5    3.33    5.80   1 
  -3   7  -3  118.09    5.45   1 
  -1   4   1   22.13    4.42   1 
   0  -3  -6 1174.81   13.35   1 
   1  -4  -9  145.37    6.96   1 
   1   2   2   88.50    8.22   1 
   1   5   2  141.50    6.11   1 
   1   8   0   17.10    5.93   1 
   4  -1   0 1573.87   12.50   1 
   4   0   1   88.70    5.40   1 
   4   7   1    1.92    8.63   1 
   7   0  -1    4.86    5.27   1 
   8   2  -1   -0.29    7.48   1 
  -5   6  -7   25.62    6.44   1 
  -1   0  -1   74.98    8.95   1 
   1   7   1    6.28    5.30   1 
   2  -3  -4  472.99    7.81   1 
   2   0   1   71.07    5.99   1 
   3  -4  -7   45.52    5.54   1 
   3  -1   0  219.42    6.56   1 
   5  -2  -2  238.65    5.37   1 
   6  -3  -5    5.81    3.83   1 
   6   2   1  120.31    7.81   1 
   7  -2  -4  261.82    7.94   1 
  -5   1 -11   56.21    8.35   1 
  -5   2  -8  392.65    9.75   1 
  -3  -1  -7  625.10   21.43   1 
  -2   3   0  276.98    6.52   1 
  -2   5   0  328.88    6.71   1 
  -2   8  -2    5.48    4.21   1 
  -1  -3  -9    9.45    7.01   1 
  -1   5   1  143.65    5.60   1 
  -1   7   0   32.16    5.25   1 
   1  -4 -10    7.06    6.98   1 
   2   6   2   36.08    6.45   1 
   3   0   1    8.43    5.11   1 
   4  -3  -4  298.00    6.58   1 
   5  -4  -8   41.69    6.05   1 
   8  -1  -4   19.40    6.26   1 
  -5   4  -6   42.16    5.74   1 
  -5   6  -6   41.07    6.00   1 
  -4   7  -4    2.06    5.58   1 
  -3   2  -2 1288.13   11.76   1 
   0   4   2   82.52    5.06   1 
   0   8   0    4.34    5.62   1 
   3  -4  -8  235.26    7.09   1 
   3   6   2   21.61    6.84   1 
   4   2   2   62.21    8.21   1 
  -5   1 -10   -1.00    6.68   1 
  -4   5  -3   44.16    3.91   1 
  -3   4  -1  156.36    5.56   1 
   1  -4 -11   -2.89    5.73   1 
   5  -4  -9   16.64    6.26   1 
   5  -1  -1   32.31    4.68   1 
   5   1   1  175.87    7.39   1 
   6  -3  -6    4.96    5.46   1 
   7  -1  -3   32.07    5.78   1 
   8   0  -3   66.01    6.87   1 
  -4   3  -3  142.64    5.66   1 
  -2   1  -1 3487.94   22.20   1 
  -1  -2  -5    4.04    5.87   1 
   0   1   1 1188.73   20.00   1 
   0   3   2  516.62    8.87   1 
   0   5   2    7.81    4.50   1 
   1  -4 -12    0.92    7.76   1 
   3  -4  -9  145.58    7.03   1 
   3  -2  -2   -0.36    4.39   1 
   5  -4 -10   10.73    6.40   1 
   7  -3  -8    4.18    4.65   1 
   7  -2  -5    1.96    5.42   1 
   7   3   0    9.04    7.19   1 
  -5   2  -7  185.52    7.15   1 
  -5   4  -5  100.71    5.97   1 
  -5   6  -5   40.02    6.12   1 
  -2   8  -1   26.37    5.73   1 
  -1  -3 -10  242.89   10.23   1 
   0  -3  -7  932.79   12.07   1 
   1  -4 -14   11.72    6.83   1 
   1  -4 -13   -3.19    6.50   1 
   2  -3  -5  245.09    6.62   1 
   4  -3  -5  114.81    5.91   1 
   5  -2  -3  399.23    7.30   1 
   6  -3  -7   12.03    5.57   1 
   6   4   1   83.54   11.67   1 
   7   0  -2   43.10    5.78   1 
   7   1  -1  160.55    7.14   1 
   7   4   0    1.63    8.58   1 
   8  -1  -5    0.84    5.89   1 
  -6   4  -9   80.38    7.78   1 
  -4   1  -5  552.34    9.60   1 
  -4   7  -3   10.31    5.69   1 
  -2   7   0  428.48    8.37   1 
  -1   2   1    8.40    3.81   1 
   1   8   1   78.87    7.19   1 
   3  -4 -10  184.36    7.70   1 
   5  -4 -11   -1.87    4.63   1 
   6   0  -1  194.80    6.41   1 
  -6   3 -10   21.61    6.85   1 
  -5   1  -9  116.68    7.28   1 
  -4   5  -2    1.70    4.78   1 
  -3   7  -1   11.92    5.56   1 
  -1   7   1   15.00    5.39   1 
   0   6   2    7.20    4.86   1 
   4  -1  -1  769.74    9.61   1 
   4   6   2    6.81    9.05   1 
   7  -2  -6   19.66    5.84   1 
   8   0  -4   11.45    6.03   1 
   8   2  -2   -3.85    5.97   1 
  -4   0  -7   22.60    6.34   1 
  -3   0  -4  175.68    7.99   1 
  -2   5   1   74.21    5.26   1 
  -1  -3 -11   24.69    7.73   1 
   0   8   1   72.47    6.46   1 
   1  -2  -3  117.05    6.10   1 
   1   7   2   45.70    7.36   1 
   2   7   2   38.90    6.33   1 
   3  -4 -12   36.76    7.40   1 
   3  -4 -11   28.84    5.02   1 
   6  -3  -8   26.92    5.93   1 
   7  -1  -4    1.56    5.24   1 
  -6   3  -9  169.20    8.32   1 
  -6   5  -7   14.02    6.40   1 
  -5   2  -6   47.99    5.69   1 
  -5   4  -4  106.50    6.03   1 
  -5   6  -4    6.73    4.00   1 
  -3   4   0   66.50    4.84   1 
  -1   4   2  628.58    8.41   1 
  -1   5   2  129.60    5.24   1 
   0  -3  -8  136.26    7.59   1 
   3  -4 -13   25.20    7.52   1 
   4  -3  -6   14.31    3.79   1 
   5  -2  -4   44.90    5.17   1 
  -5   1  -8   52.74    7.20   1 
  -4   3  -2  209.48    6.01   1 
  -4   7  -2   15.37    5.68   1 
  -3   2  -1  852.71    9.79   1 
  -3   6   0   12.86    5.22   1 
  -2   3   1   43.94    4.95   1 
  -2   8   0    8.80    6.03   1 
  -1  -3 -12    0.21    7.13   1 
   2  -3  -6  234.01    6.61   1 
   3  -2  -3  693.69    8.75   1 
   3   7   2   -2.32    7.26   1 
   5  -1  -2   97.19    5.39   1 
   6  -3  -9   20.57    4.65   1 
   7  -2  -7   49.37    4.89   1 
  -6   4  -7    7.56    6.16   1 
  -3   8  -1   74.81    5.77   1 
  -2  -2  -8   39.27    9.68   1 
  -1  -3 -14   -0.30    7.87   1 
  -1  -3 -13    4.13    7.68   1 
   1   4   3   27.08    5.59   1 
   1   5   3    1.64    5.95   1 
   2   4   3  261.37    9.46   1 
   4   0   0  273.68    6.73   1 
   6  -3 -10   28.57    6.32   1 
   7   2  -1   28.22    6.01   1 
  -6   3  -8    7.44    5.86   1 
  -6   5  -6   53.81    6.95   1 
  -5   6  -3    9.39    5.92   1 
  -4   1  -4  228.40    7.07   1 
  -4   5  -1    6.68    3.54   1 
  -1   3   2 1667.46   13.60   1 
   0   2   2  281.97    8.43   1 
   2  -1  -1    7.32    5.08   1 
   4  -3  -7   21.37    3.82   1 
   4   1   1  575.39   10.57   1 
   6  -3 -11   -0.09    6.60   1 
   7  -2  -8  114.70    7.30   1 
   7  -1  -5   22.29    5.50   1 
   7   1  -2  119.05    6.61   1 
   8   0  -5   23.84    4.50   1 
  -6   2 -10    2.30    7.66   1 
  -5   2  -5    4.76    4.90   1 
  -5   4  -3   49.12    5.47   1 
   0  -3  -9  133.87    7.51   1 
   5  -2  -5   77.49    5.68   1 
   6   0  -2  555.17    8.65   1 
   6   2   0   90.80    7.13   1 
  -6   3  -7   51.95    6.48   1 
  -5   1  -7  253.51    9.17   1 
  -4   7  -1    3.11    5.65   1 
  -1   7   2   26.42    5.52   1 
   0   5   3   56.24    4.99   1 
   1   8   2   46.64    7.22   1 
   2  -3  -7  126.63    4.73   1 
   2   6   3    4.79    6.20   1 
   4  -3  -8  105.50    6.17   1 
   7  -2  -9   75.39    6.93   1 
   8   2  -3   26.05    6.53   1 
  -6   2  -9    3.80    7.25   1 
  -6   5  -5   22.29    6.25   1 
  -4   0  -6    6.47    6.10   1 
  -3   6   1   -3.05    4.98   1 
  -2   5   2  309.78    6.80   1 
  -2   8   1   26.49    6.15   1 
   0   4   3  114.84    5.50   1 
   0   6   3   57.18    6.41   1 
   0   8   2    1.16    5.80   1 
   4  -1  -2   62.91    5.21   1 
   5   1   0  201.00    7.62   1 
   7  -1  -6   44.51    5.87   1 
   8   0  -6   15.66    6.32   1 
  -5   6  -2   79.39    6.58   1 
  -4   3  -1   65.50    5.09   1 
  -3   4   1    2.50    4.51   1 
  -2   6   2   28.10    5.44   1 
   0  -3 -10  314.15    9.32   1 
   1   3   3   38.97    5.68   1 
   3  -2  -4  118.06    5.43   1 
   3   5   3  258.50   11.35   1 
   4  -3  -9   81.96    6.10   1 
   5  -1  -3  159.81    5.84   1 
   7   3  -1    0.98    7.08   1 
  -6   3  -6   57.18    5.79   1 
  -5   4  -2    5.29    5.03   1 
  -4   5   0  104.76    4.56   1 
  -1  -2  -6  234.58    9.30   1 
   0  -3 -11  244.15    9.68   1 
   1  -2  -4  135.79    6.17   1 
   2  -3  -8   55.22    4.22   1 
   3   0   0  192.74    6.40   1 
   5  -2  -6    4.08    5.01   1 
  -6   2  -8   65.40    6.96   1 
  -6   5  -4    1.89    5.92   1 
  -5   2  -4  166.35    6.40   1 
  -4   7   0    6.77    5.87   1 
  -3   2   0   34.97    4.85   1 
  -2   1   0  273.81    7.88   1 
  -1   5   3   31.12    4.85   1 
  -1   6   3  412.26    7.69   1 
   0  -3 -15   20.83    8.77   1 
   0  -3 -12  185.08    9.94   1 
   1   7   3   68.09    6.44   1 
   2   3   3   84.17    8.45   1 
   4  -3 -10   63.61    6.58   1 
   6  -1  -5  502.08    8.21   1 
   7  -1  -7   55.31    5.93   1 
   7   1  -3   19.56    5.31   1 
   8   0  -7   25.06    6.55   1 
  -5   1  -6   23.64    5.44   1 
  -4   1  -3    0.55    4.52   1 
  -1   4   3 1078.83   10.59   1 
   0  -3 -14   -4.51    6.60   1 
   0  -3 -13   32.07    7.11   1 
   0   3   3    2.99    5.05   1 
   2  -3  -9   -0.65    5.32   1 
   2   7   3   19.93    7.02   1 
   3   6   3   14.99    7.87   1 
   4  -3 -11   22.44    6.02   1 
   6   0  -3  312.46    7.19   1 
   7   2  -2   38.34    6.06   1 
   8   2  -4   -0.24    6.04   1 
  -6   2  -7    4.08    6.76   1 
  -6   3  -5  163.46    7.34   1 
  -5   6  -1  129.02    5.45   1 
  -3   0  -3   76.51    6.72   1 
  -2  -2  -9   16.33    8.34   1 
  -2   3   2   39.76    5.05   1 
   3   2   2 1405.59   25.72   1 
   4  -3 -14   -1.80    7.43   1 
   4  -3 -13    9.80    6.66   1 
   4  -3 -12    1.45    6.20   1 
   5  -2  -7   29.64    5.33   1 
   6   3   0   47.06    7.10   1 
   7  -1  -8   26.80    6.10   1 
   7   4  -1    1.83    7.51   1 
  -6   5  -3    5.73    5.66   1 
  -3   6   2    9.04    4.96   1 
  -2   8   2   64.15    6.88   1 
  -1   2   2   90.19    4.89   1 
  -1   7   3  114.51    6.44   1 
   2  -3 -10  117.67    6.66   1 
   3  -2  -5  387.85    7.25   1 
   4  -1  -3  123.75    5.56   1 
   4   0  -1   30.19    4.66   1 
   5  -1  -4  142.58    4.69   1 
   8   1  -6   53.57    7.26   1 
  -5   4  -1   18.25    5.17   1 
  -4   3   0   90.26    5.23   1 
  -4   5   1  287.50    6.90   1 
  -4   6   1    2.10    3.79   1 
  -4   7   1   32.73    6.24   1 
  -2   5   3   87.33    5.37   1 
   0   8   3    5.75    7.53   1 
   2  -3 -11  210.86    8.40   1 
   3   1   1 1434.85   17.12   1 
   5  -2  -8   51.29    5.53   1 
   6  -1  -6  105.41    4.89   1 
   7  -1  -9    8.31    5.74   1 
  -6   1 -11   22.67    8.27   1 
  -5   1  -5   45.30    6.72   1 
  -5   2  -3  306.49    7.49   1 
  -3  -1  -6  774.60   26.49   1 
  -3   4   2  125.68    4.36   1 
   2  -3 -15    5.40    6.84   1 
   2  -3 -14    9.24    6.46   1 
   2  -3 -13   37.80    7.09   1 
   2  -3 -12  155.39    8.18   1 
   2   0   0  182.85    7.32   1 
   5   3   1   32.10    7.35   1 
   6   2  -1   54.48    6.66   1 
   7   1  -4  180.16    6.94   1 
  -6   2  -6    7.56    5.77   1 
  -6   3  -4  129.35    6.63   1 
  -6   5  -2   10.17    5.79   1 
  -5   6   0   67.23    4.85   1 
  -1   3   3 1118.56   11.20   1 
   1  -2  -5  311.01    7.43   1 
   2  -1  -2 1905.26   15.19   1 
   5  -2  -9   71.33    5.81   1 
   6  -1  -7   93.34    6.11   1 
   6   0  -4   75.47    5.56   1 
   7  -1 -10    1.87    6.02   1 
  -5   0  -9   42.33    7.66   1 
  -2  -2 -10   31.68    9.55   1 
   0   6   4   82.54    5.62   1 
   1   5   4    3.19    4.90   1 
   3  -2  -6  358.05    7.26   1 
   3   7   3   12.28    7.69   1 
   5   1  -1   -0.50    4.37   1 
   7   2  -3    5.90    5.95   1 
   7   3  -2   31.51    6.16   1 
  -5   4   0   82.07    5.70   1 
  -4   1  -2  321.02    7.57   1 
  -2  -2 -15    4.78    9.38   1 
  -1  -2  -7  743.20   14.27   1 
  -1   6   4  244.47    6.90   1 
   5  -2 -10    6.21    3.97   1 
  -7   3  -7    6.50    6.29   1 
  -7   4  -5    7.93    6.54   1 
  -6   1  -9   64.19    7.50   1 
  -6   2  -5    6.02    5.47   1 
  -6   3  -3   29.84    5.72   1 
  -4   5   2  103.50    5.64   1 
  -4   7   2    2.40    5.78   1 
  -3   2   1  959.32   10.14   1 
  -1   5   4  127.79    5.86   1 
   0   4   4   44.95    5.74   1 
   1   7   4   81.82    7.92   1 
   4  -1  -4  578.27    8.21   1 
   5  -2 -12   10.83    6.22   1 
   5  -2 -11   19.98    5.81   1 
   6   4   0  137.03    9.04   1 
   7   1  -5    8.70    5.73   1 
  -6   5  -1   34.60    6.12   1 
  -5   1  -4    3.42    5.66   1 
  -5   2  -2  442.56    8.30   1 
  -5   6   1   34.97    5.80   1 
  -4   3   1   -3.45    4.42   1 
  -3   7   3   54.75    4.88   1 
  -2  -2 -14    2.37    7.51   1 
  -2  -2 -11   79.65    9.86   1 
  -1   7   4   99.34    6.38   1 
   1   4   4   25.15    5.68   1 
   3  -2  -7  197.59    6.30   1 
   4   2   1   93.76    7.40   1 
   5  -2 -14    0.43    6.55   1 
   5  -2 -13   -1.40    6.29   1 
   5  -1  -6   34.00    5.33   1 
   6   0  -5    8.02    5.15   1 
  -7   3  -6   72.05    7.13   1 
  -3   4   3  257.59    6.22   1 
  -2  -2 -13   14.78    7.88   1 
  -2  -2 -12    6.68    8.37   1 
  -2   3   3   90.96    5.16   1 
  -2   6   4  189.53    6.65   1 
  -1   4   4  609.48    8.51   1 
   1  -2  -6  357.28    7.69   1 
   1   0   0  165.52    9.13   1 
   2   6   4   40.54    6.88   1 
   6  -1  -9   20.68    4.06   1 
  -7   4  -4    3.23    6.18   1 
  -2   0  -1   77.30    7.06   1 
  -2   5   4   15.80    4.65   1 
   3   0  -1  835.32   10.79   1 
   4   0  -2  286.75    6.58   1 
   6  -1 -10  220.46    8.04   1 
   7   2  -4    1.19    5.41   1 
   7   4  -2    0.05    6.04   1 
  -6   2  -4   39.70    5.75   1 
  -6   3  -2    3.65    5.49   1 
  -5   4   1  132.58    5.98   1 
  -1  -2  -8  551.16   12.14   1 
   2   7   4   37.50    7.57   1 
   3  -2  -8   10.99    4.94   1 
   4  -1  -5  767.55    8.88   1 
   6  -1 -11  240.11    8.27   1 
   6   0  -6  104.84    5.50   1 
   6   2  -2   56.96    5.67   1 
   6   3  -1  653.83   12.16   1 
   6   5   0   -1.22    9.72   1 
   7   1  -6    6.08    5.86   1 
   7   3  -3   14.05    7.30   1 
  -7   3  -5   53.42    6.91   1 
  -6   1  -7   -0.39    5.71   1 
  -6   5   0  100.69    6.97   1 
  -5   6   2    9.16    5.65   1 
  -4   5   3   33.14    5.38   1 
  -4   7   3    0.35    5.71   1 
  -3   0  -2   41.71    6.11   1 
  -2   1   1    3.65    5.17   1 
   2  -1  -3    2.78    5.05   1 
   6  -1 -13    5.38    6.17   1 
   6  -1 -12   -4.29    6.00   1 
  -7   4  -3    4.15    6.07   1 
  -5   2  -1  133.28    6.04   1 
  -4   1  -1  954.40   11.12   1 
  -3   6   4    4.19    3.74   1 
  -3   7   4    9.44    5.77   1 
  -1  -1  -3  112.04   11.27   1 
   0   2   3  692.28   11.46   1 
   1  -2  -7  226.17    6.83   1 
   3  -2  -9  101.73    4.53   1 
   5   1  -2   57.35    5.17   1 
  -6   2  -3   19.08    5.72   1 
  -4   3   2  169.45    5.61   1 
  -1   6   5   36.28    5.28   1 
   0   6   5  213.99    7.89   1 
   3  -2 -10   16.81    5.42   1 
   5   4   1  212.46   11.57   1 
   6   0  -7  161.93    5.99   1 
   7   1  -7   61.51    6.11   1 
  -7   2  -7   33.65    6.98   1 
  -7   3  -4   10.25    5.83   1 
  -6   1  -6    6.25    5.90   1 
  -6   3  -1   99.15    6.37   1 
  -3   2   2    2.74    4.56   1 
  -1  -2  -9  781.92   14.95   1 
  -1   2   3   95.92    5.88   1 
  -1   5   5  121.20    5.71   1 
  -1   7   5   73.59    6.30   1 
   0   3   4  380.26    8.34   1 
   0   7   5   33.85    7.42   1 
   3  -2 -15    3.00    6.17   1 
   3  -2 -14    5.64    6.35   1 
   3  -2 -13    2.03    6.34   1 
   3  -2 -12  142.56    7.14   1 
   3  -2 -11   85.98    6.40   1 
   4  -1  -6  393.53    7.34   1 
   7   2  -5    4.30    5.50   1 
  -7   4  -2    9.53    6.28   1 
  -6   5   1   43.96    4.87   1 
  -5   4   2   60.72    5.43   1 
  -3   4   4  403.95    7.22   1 
  -2   6   5  103.86    5.94   1 
   1  -2  -8   77.36    5.52   1 
   2   4   4  144.36    8.76   1 
   4   0  -3  110.84    5.39   1 
   6   0  -8  246.89    7.20   1 
   7   1  -8   55.86    6.30   1 
  -7   2  -6    6.31    6.30   1 
  -5   6   3   66.10    5.24   1 
  -4   7   4    7.36    6.35   1 
  -2   5   5   13.31    4.78   1 
  -1  -2 -10   59.37    8.02   1 
   1  -2 -16    2.64    6.55   1 
   1   6   5    2.95    6.39   1 
   6   1  -5  393.48    8.08   1 
   6   2  -3   44.66    6.31   1 
   7   3  -4    5.70    5.77   1 
   7   4  -3   21.95    7.96   1 
  -7   3  -3   62.51    6.44   1 
  -6   1  -5    6.99    6.80   1 
  -6   2  -2   16.13    5.23   1 
  -5   2   0    4.16    4.88   1 
  -4   5   4   -1.63    5.04   1 
  -2   3   4  412.31    7.48   1 
  -1  -2 -11  109.86    7.72   1 
   1  -2 -15   29.40    6.83   1 
   1  -2  -9  221.97    7.31   1 
   1   2   3 1116.03   19.25   1 
   1   7   5   14.82    7.24   1 
   4  -1  -7   99.41    4.33   1 
   5  -1 -14   94.86    8.09   1 
   6   0  -9   84.02    6.30   1 
   7   1  -9   16.59    6.18   1 
   7   2  -6   -0.66    5.65   1 
  -7   4  -1    9.65    6.30   1 
  -6   3   0   41.80    5.43   1 
  -4   0  -3  301.27    8.09   1 
  -3   6   5   -2.31    3.98   1 
  -3   7   5    0.95    5.85   1 
  -1   4   5  205.12    6.13   1 
   1  -2 -14   83.55    7.14   1 
   1  -2 -10    6.08    5.32   1 
   1   3   4  635.27   11.90   1 
   1   5   5    9.30    4.93   1 
   2  -1  -4  212.74    6.63   1 
   3   0  -2  990.65   11.36   1 
   5   1  -3   86.47    5.40   1 
   5   3   0    2.06    5.85   1 
   6   0 -10   17.50    5.82   1 
   6   4  -1  168.08    8.92   1 
   7   1 -10   41.20    7.00   1 
  -7   2  -5    1.75    6.00   1 
  -6   5   2    2.25    4.19   1 
  -4   1   0 1546.36   13.43   1 
  -4   3   3  169.24    5.75   1 
   0   4   5   42.14    4.74   1 
   1  -2 -13  107.07    7.27   1 
   1  -2 -12   44.99    6.87   1 
   1  -2 -11   96.24    6.80   1 
   2   0  -1 4191.69   24.96   1 
   2   1   1  802.01   17.27   1 
   4  -1  -8    2.24    3.59   1 
   6   0 -11   18.61    5.96   1 
   6   3  -2  175.45    7.07   1 
   7   1 -11    9.59    6.35   1 
  -7   3  -2   88.73    7.15   1 
  -5   4   3   35.29    5.27   1 
  -5   6   4   85.51    6.52   1 
  -1   0   0  164.06    9.37   1 
   0   1   2 1187.64   18.24   1 
   3   1   0  512.59    9.74   1 
   4  -1  -9   28.97    5.35   1 
   4   0  -4  214.84    6.34   1 
   6   0 -13    9.41    6.17   1 
   6   0 -12    8.70    5.99   1 
   6   1  -6  389.44    7.46   1 
   7   2  -7    0.14    5.93   1 
   7   3  -5    7.05    5.70   1 
  -7   4   0   12.81    6.36   1 
  -6   1  -4   -2.82    5.50   1 
  -5   0  -5    1.64    6.63   1 
   3   6   4    7.22    8.74   1 
   4  -1 -15    4.18    6.18   1 
   4  -1 -10   84.86    5.86   1 
   6   2  -4   70.88    5.91   1 
  -6   3   1   66.54    5.84   1 
  -5   2   1    0.69    4.74   1 
  -4   5   5   73.70    5.79   1 
  -3   0  -1    7.89    5.47   1 
  -3   2   3  664.17    8.72   1 
  -3   4   5  224.14    6.04   1 
  -2   6   6  152.07    6.58   1 
  -1   7   6    2.44    5.52   1 
   3   7   4    3.51   10.06   1 
   4  -1 -14   10.53    6.35   1 
   4  -1 -13    9.43    5.90   1 
   4  -1 -12   13.73    6.04   1 
   4  -1 -11   84.40    6.12   1 
   7   2  -8   13.60    5.88   1 
   7   4  -4   72.13    7.57   1 
  -7   3  -1  150.30    7.29   1 
  -6   5   3    3.07    4.15   1 
  -2   1   2 1957.60   15.98   1 
  -2   5   6   48.69    5.47   1 
  -1   5   6  135.73    6.20   1 
   0   6   6   85.07    6.12   1 
   0   7   6    3.75    5.91   1 
   2  -1  -5   60.39    5.67   1 
   4   2   0  210.75    7.74   1 
   5   1  -4  420.15    7.73   1 
  -3   6   6    1.31    3.94   1 
   2   6   5   65.14    7.96   1 
   2   7   5   22.58    8.06   1 
   4   0  -5   46.16    5.07   1 
   5   2  -2  548.17    9.10   1 
   5   5   1   82.02   10.62   1 
   6   5  -1    6.76    7.45   1 
   7   2  -9   42.52    6.61   1 
   7   3  -6    0.51    5.78   1 
  -7   1  -8    6.27    8.13   1 
  -7   4   1    6.35    6.13   1 
  -6   1  -3   -1.32    5.64   1 
  -5   4   4    0.27    5.44   1 
  -5   6   5   34.13    6.39   1 
  -4   0  -2  869.57   12.65   1 
  -4   3   4  264.39    6.44   1 
   3   0  -3  696.68    9.66   1 
   4   4   2   36.18   10.47   1 
   6   2  -5   51.11    5.50   1 
   6   3  -3    2.48    5.14   1 
   7   2 -10   50.03    7.09   1 
  -7   3   0  183.93    7.64   1 
  -6   3   2   63.79    6.01   1 
  -5   0  -4    5.38    7.01   1 
  -4   1   1  773.08    9.88   1 
  -2   0   0  189.97    7.85   1 
  -2   3   5  202.99    6.23   1 
  -1   2   4  119.64    6.09   1 
   6   4  -2   20.89    6.96   1 
   7   3  -7   14.73    7.45   1 
   7   4  -5   75.39    7.58   1 
  -7   1  -7   38.72    7.22   1 
  -7   2  -2   60.30    6.61   1 
  -6   5   4    5.67    5.83   1 
  -5   2   2  243.42    6.56   1 
  -3  -1  -5  259.68   19.04   1 
   2  -1  -6  400.45    7.83   1 
   5   0 -13   56.57    5.29   1 
   5   0 -12   89.30    5.37   1 
   5   1  -5  409.15    7.50   1 
  -7   1  -6   72.00    8.58   1 
  -7   4   2   13.31    6.42   1 
  -4   5   6  123.19    6.36   1 
  -3  -1 -15   -0.36    8.07   1 
  -1   4   6    8.75    4.59   1 
   0   3   5  857.65   11.33   1 
   1   6   6   78.72    7.73   1 
   1   7   6    7.18    6.08   1 
   2  -1 -16   -2.23    6.48   1 
   2   5   5  538.09   14.12   1 
   4   0  -6   48.13    3.87   1 
   5   3  -1  360.03    9.21   1 
   6   1 -11   68.54    5.43   1 
   6   2  -6   85.87    6.19   1 
  -6   0 -10   27.47   11.21   1 
  -6   0  -9    8.80    9.20   1 
  -5   6   6   11.35    6.47   1 
  -3   2   4  117.16    5.56   1 
  -3   4   6    7.53    4.97   1 
  -2   6   7   17.44    5.76   1 
  -1   7   7    2.18    5.86   1 
   3   5   4  145.14   14.21   1 
   7   3  -8   12.56    5.97   1 
   7   4  -6   18.24    8.05   1 
  -7   3   1   32.17    6.12   1 
  -6   0  -8    4.06    8.45   1 
  -6   2   1   97.34    5.13   1 
  -5   4   5    4.80    5.45   1 
   0  -1 -17    2.81    8.21   1 
   0   2   4 1407.47   15.39   1 
   2  -1 -15   15.16    6.56   1 
   2  -1  -7  393.83    7.77   1 
   2   0  -2 1667.51   15.98   1 
   5   1  -6   -0.28    4.77   1 
   5   2  -3  595.60    8.77   1 
   5   4   0  276.16   10.17   1 
   6   3  -4    8.22    5.56   1 
   7   3  -9   -5.77    6.47   1 
  -7   1  -5  113.35    8.33   1 
  -6   3   3    4.45    5.53   1 
  -6   5   5   72.23    6.83   1 
  -4   3   5  109.40    5.90   1 
  -2  -1 -16   75.61   10.14   1 
  -2   5   7   10.40    5.13   1 
   0  -1  -4    9.41    4.91   1 
   0   4   6    1.91    4.71   1 
   1   5   6   52.99    6.92   1 
   2  -1 -14   19.59    6.25   1 
   2  -1  -8 1086.57   11.29   1 
   3   0  -4  309.61    7.28   1 
   4   0 -16   32.40    5.31   1 
   6   2  -7   26.61    5.57   1 
  -7   4   3    8.96    6.05   1 
  -6   0  -7   23.03    8.20   1 
  -5   2   3  338.79    7.12   1 
  -4   0  -1   75.37    5.86   1 
  -4   1   2   53.01    5.54   1 
  -3  -1 -14   16.59    9.47   1 
  -3   0   0  195.01    7.11   1 
  -1   5   7  194.47    6.90   1 
   0   7   7   -1.89    7.47   1 
   2  -1 -13  369.63    9.59   1 
   2  -1  -9   85.53    5.88   1 
   3   1  -1  153.54    6.31   1 
   4   0 -15   21.09    6.34   1 
   4   0  -8    9.86    3.68   1 
   5   1  -7   16.22    5.06   1 
   5   6   1   59.06   11.52   1 
  -7   1  -4   38.10    6.85   1 
  -7   3   2    2.57    6.04   1 
  -4   5   7  153.96    6.71   1 
  -2   1   3    2.00    5.23   1 
   0  -1 -16   18.06    6.39   1 
   0   6   7   15.01    5.85   1 
   2  -1 -12  193.73    7.27   1 
   2  -1 -11   14.41    5.56   1 
   2  -1 -10   76.32    5.78   1 
   4   0 -14    2.78    4.20   1 
   6   2  -8   59.32    6.04   1 
   6   4  -3   11.78    5.67   1 
   6   5  -2    1.72    7.51   1 
  -7   2   0   -1.77    5.84   1 
  -6   0  -6    6.95    7.34   1 
  -6   2   2  354.16    8.85   1 
  -2  -1 -15   83.84    9.81   1 
  -2   3   6  208.67    6.32   1 
   4   2  -1  127.24    5.95   1 
   5   1 -15   57.13    7.27   1 
   5   1  -8   31.75    5.27   1 
   6   2  -9   15.73    5.88   1 
   6   3  -5   21.53    5.46   1 
  -7   1  -3   13.41    7.55   1 
  -6   3   4    4.85    5.47   1 
  -6   5   6   27.70    6.57   1 
  -5   4   6   30.86    4.30   1 
  -3   4   7   41.19    5.28   1 
   0  -1 -15    9.20    6.31   1 
   1   0  -1  766.93   14.94   1 
   3   0  -5   27.85    3.80   1 
   5   1 -14    1.93    6.12   1 
   5   1  -9  139.66    6.20   1 
   6   2 -13    4.30    6.51   1 
   6   2 -12   29.49    6.46   1 
   6   2 -11   21.73    6.19   1 
   6   2 -10   31.35    6.03   1 
  -7   4   4    3.61    4.51   1 
  -6   0  -5   43.65    7.80   1 
  -3  -1 -13   61.45   10.54   1 
  -2   6   8   29.54    6.03   1 
   3   0 -16   -0.78    6.58   1 
   5   1 -13   -3.28    6.17   1 
   5   1 -12   19.90    6.04   1 
   5   1 -11  231.34    7.30   1 
   5   1 -10  277.10    6.68   1 
   5   3  -2  180.18    6.99   1 
   6   3  -6   48.85    7.01   1 
  -8   2  -2   23.03    6.93   1 
  -7   3   3  128.77    7.31   1 
  -5   2   4   50.12    5.65   1 
  -4   3   6   13.65    5.11   1 
  -3   2   5  319.49    6.09   1 
  -2  -1 -14   26.36    7.77   1 
  -1  -1  -4  312.20   13.23   1 
  -1   4   7   73.62    5.41   1 
   0  -1 -14   16.72    6.02   1 
   0  -1  -5  304.27    9.54   1 
   3   0 -15   35.01    6.51   1 
   3   0  -6  638.19    8.80   1 
   6   4  -4   14.23    6.89   1 
  -7   1  -2   15.20    6.34   1 
  -2   5   8   10.10    5.28   1 
  -1   2   5  287.30    7.26   1 
   2   0  -3  324.05    8.52   1 
   5   2  -5  371.31    7.39   1 
  -8   2  -1   45.85    7.26   1 
  -7   4   5   15.81    6.37   1 
  -6   0  -4  167.77    8.86   1 
  -6   3   5    9.12    5.44   1 
  -4   1   3  103.65    4.67   1 
  -4   5   8   53.21    6.27   1 
  -2   0   1 3910.78   25.68   1 
   0  -1 -13   23.60    5.48   1 
   1   3   5   34.52    5.95   1 
   3   0 -14   76.31    5.18   1 
   3   0  -7  952.75   10.19   1 
   6   3  -7   16.53    5.73   1 
   6   5  -3   -1.00    7.49   1 
  -7   2   2   26.40    6.24   1 
  -7   3   4  128.87    7.75   1 
  -6   5   7    7.72    4.72   1 
  -5   4   7   43.31    4.49   1 
  -3  -1 -12   92.69   10.67   1 
  -1   5   8   67.40    5.84   1 
   1   6   7  164.76    9.53   1 
   3   0 -13   65.34    4.77   1 
   3   0 -12  395.77    8.30   1 
   3   0  -8  910.91    9.72   1 
   3   1  -2   10.85    4.68   1 
   4   1 -16   27.89    7.46   1 
   5   4  -1   45.44    6.94   1 
   5   5   0    3.27    7.12   1 
   6   3  -8    5.93    5.63   1 
  -7   1  -1   78.76    6.97   1 
  -3   0   1  814.71   11.28   1 
  -2  -1 -13   36.67    7.88   1 
   0  -1 -12   27.41    5.73   1 
   0  -1  -6  773.31   11.85   1 
   0   3   6 1092.41   12.53   1 
   2   6   6   95.29    9.95   1 
   3   0 -11   75.93    6.04   1 
   3   0 -10   82.29    5.71   1 
   3   0  -9  284.56    6.94   1 
   4   1 -15   53.55    6.91   1 
   4   2  -2  386.33    7.78   1 
   5   3  -3    2.89    5.94   1 
   6   3  -9    2.87    5.93   1 
   6   4  -5   41.15    6.40   1 
  -8   2   0    7.69    6.64   1 
  -6   0  -3  128.28    8.48   1 
  -5   2   5   75.73    5.72   1 
  -4   3   7   18.97    5.13   1 
  -3   4   8  195.77    6.79   1 
  -2   3   7  114.77    5.77   1 
   0  -1 -11   11.09    5.52   1 
   0   4   7   38.26    5.26   1 
   0   6   8    7.06    7.29   1 
   1   0 -17    1.80    6.25   1 
   2   4   5  148.85   10.28   1 
   4   3   0    3.26    5.98   1 
   5   2  -7  282.36    7.10   1 
   6   3 -12    8.37    6.13   1 
   6   3 -11    6.87    6.04   1 
  -7   4   6   17.76    6.59   1 
  -6   3   6    9.57    5.54   1 
  -3   1   4 1173.46   11.32   1 
  -3   2   6  306.58    6.80   1 
  -2   1   4  196.42    6.44   1 
  -2   6   9   35.44    6.56   1 
   0  -1 -10    1.11    5.04   1 
   0  -1  -7  592.87   10.37   1 
   6   4  -6   79.15    6.79   1 
   6   5  -4    5.93    7.23   1 
  -8   2   1    5.61    6.19   1 
  -7   1   0  111.81    6.71   1 
  -5   4   8   38.79    5.98   1 
  -4   0   1   36.74    5.10   1 
  -4   5   9   10.59    5.68   1 
  -3  -1 -11  100.59   10.38   1 
  -2  -1 -12   16.40    7.38   1 
   0  -1  -9   51.22    5.58   1 
   0  -1  -8  301.00    8.19   1 
   2   1   0  121.72    6.83   1 
   3   1 -17    1.87    6.30   1 
   5   2 -12   63.10    6.56   1 
   5   2  -9  656.68    9.42   1 
   5   2  -8  535.02    8.04   1 
  -6   0  -2   46.54    6.35   1 
  -3  -1  -4   76.77   11.83   1 
  -2   5   9    5.84    5.44   1 
  -1   0   1  760.06   15.22   1 
  -1   3   7  526.75    8.48   1 
   0   1   3  501.28   11.59   1 
   1   0 -16   53.30    6.63   1 
   1   5   7   76.20    7.66   1 
   4   1 -10   77.62    4.51   1 
   4   1  -9   13.97    3.71   1 
   5   2 -11    6.84    4.19   1 
   5   2 -10  207.06    6.28   1 
   5   3  -4   15.15    5.14   1 
   6   4  -7   31.15    6.21   1 
  -8   1  -3   56.09    7.93   1 
   0   2   5 1007.50   12.70   1 
   3   1 -16   -0.08    6.43   1 
   3   1  -3  439.32    8.21   1 
   4   2  -3   71.65    5.09   1 
   5   4  -2  146.82    7.95   1 
   6   5  -5   46.81    7.95   1 
  -8   2   2    9.37    6.56   1 
  -7   1   1  167.29    7.82   1 
  -5   2   6   10.15    5.22   1 
  -4  -1  -6  714.72   31.33   1 
  -2  -1 -11  163.83    9.31   1 
   1   0 -15   45.65    6.28   1 
   5   6   0   26.80    9.18   1 
   6   4  -9   -1.28    6.04   1 
   6   4  -8   -4.21    6.15   1 
  -8   1  -2    6.43    6.48   1 
  -7   3   6   11.43    6.24   1 
  -6   0  -1   38.68    6.12   1 
  -6   1   3   84.38    6.42   1 
  -6   3   7   12.47    5.66   1 
  -5   1   4  136.48    5.04   1 
  -4   3   8  103.43    5.88   1 
  -3  -1 -10   -0.83    7.83   1 
  -3   4   9  120.78    6.51   1 
  -1   0 -17    5.95    6.31   1 
  -1   2   6  316.24    7.23   1 
  -1   5   9   -0.51    6.50   1 
   1   0  -2 1352.90   18.19   1 
   1   2   4  244.21    9.89   1 
   2   5   6  467.68   14.97   1 
   3   1 -15    8.62    5.96   1 
   4   2 -16   22.62    6.61   1 
   4   4   1   99.22    8.42   1 
   4   5   2    1.85    8.90   1 
   5   3  -5   41.65    5.27   1 
   6   4 -11   -2.22    6.73   1 
   6   4 -10    3.49    6.26   1 
  -7   0  -7   56.11   11.22   1 
  -7   0  -6  110.85   11.00   1 
  -5   0   1    8.37    4.95   1 
  -5   4   9   20.54    6.03   1 
  -2  -1 -10  669.77   15.84   1 
  -2   3   8   52.27    5.14   1 
  -2   6  10   42.42    6.63   1 
   2   1 -17    7.14    6.87   1 
   3   3   2   26.37    7.84   1 
   5   5  -1  220.13    9.78   1 
   6   5  -6   31.11    6.78   1 
  -8   1  -1    4.16    6.69   1 
  -8   2   3   -2.64    6.35   1 
  -7   0  -5   74.32    9.23   1 
  -7   1   2   29.85    6.25   1 
  -4   0   2  296.85    7.37   1 
  -4   1   5  709.37    9.02   1 
  -4   5  10    4.12    6.04   1 
  -3   2   7  168.39    5.88   1 
  -2   0   2 1646.52   16.97   1 
   1   0 -14   97.92    6.48   1 
   3   1  -4  445.54    8.04   1 
   4   2 -15    3.75    4.17   1 
   4   2  -4   17.80    4.67   1 
   5   3 -14   18.20    6.40   1 
   5   3  -6   68.16    5.86   1 
   6   5  -7   20.50    7.85   1 
  -7   0  -4    5.89    8.04   1 
  -7   2   5   -3.90    5.82   1 
  -6   0   0   22.25    5.87   1 
  -4  -1  -5  944.87   27.73   1 
  -2   1   5   60.76    5.41   1 
  -1   0 -16    7.09    6.20   1 
   3   1 -13   22.16    5.77   1 
   4   2 -14   65.81    6.65   1 
   4   3  -1   21.86    5.15   1 
   5   3 -13   72.19    6.90   1 
   5   3  -7  324.61    7.79   1 
   5   4  -3  481.42    9.51   1 
  -8   1   0   33.72    7.20   1 
  -7   0  -3   89.10    9.39   1 
  -7   3   7   -4.58    4.49   1 
  -6   1   4  154.11    6.04   1 
  -6   3   8   16.20    6.05   1 
  -5   2   7   18.71    5.36   1 
  -3  -1  -9    0.61    7.67   1 
  -2  -1  -9    1.68    6.84   1 
  -2   5  10   16.56    5.84   1 
   0   4   8    2.43    6.25   1 
   0   6   9   10.56    6.12   1 
   1   0 -13  113.95    6.70   1 
   1   6   8    5.35    7.33   1 
   2   1 -16   53.23    6.84   1 
   3   1  -5   24.75    4.99   1 
   4   2 -13    2.54    5.71   1 
   4   2  -5  345.18    7.60   1 
   5   3 -12   11.08    6.12   1 
   5   3 -11   41.04    6.23   1 
   5   3  -8  137.33    6.55   1 
   6   5  -8    8.61    6.14   1 
  -8   2   4    1.58    6.75   1 
  -7   1   3   33.52    6.35   1 
  -4   3   9   79.44    5.74   1 
  -1   6  10   13.34    6.18   1 
   0   3   7  742.05   10.56   1 
   4   2 -12  230.59    7.67   1 
   5   3 -10   10.34    4.13   1 
   5   3  -9   -0.64    3.66   1 
  -8   1   1   32.65    7.64   1 
  -7   0  -2  221.65    9.32   1 
  -7   2   6    6.97    6.09   1 
  -6   0   1  158.74    7.48   1 
  -5   4  10   13.64    5.80   1 
  -3   4  10  149.01    6.75   1 
  -1   3   8  525.07    8.74   1 
   1   0 -12    3.11    5.28   1 
   2   1 -15  155.40    7.70   1 
   4   2 -11  466.84    8.36   1 
   4   2  -6  402.47    7.57   1 
   5   4  -4  425.27    9.13   1 
   5   5  -2  171.65    9.13   1 
  -7   3   8    9.03    6.44   1 
  -4   0   3  111.97    5.97   1 
  -3  -1  -3    2.93    8.46   1 
  -3   0   3  662.02   10.36   1 
  -1   0 -15   20.56    6.33   1 
   1   0  -3 1274.27   15.70   1 
   3   1  -7    6.03    3.54   1 
   4   2 -10    2.10    5.29   1 
   4   2  -9   18.78    5.36   1 
   4   2  -8  227.79    6.54   1 
   4   2  -7  203.73    6.27   1 
   5   6  -1    5.43    7.87   1 
  -8   1   2   13.73    7.00   1 
  -7   1   4   -3.64    6.04   1 
  -6   3   9    2.71    6.04   1 
  -5   2   8   20.42    5.50   1 
  -3  -1  -8  239.66   14.51   1 
  -3   1   6    8.17    3.43   1 
  -3   2   8    3.95    4.85   1 
  -2   3   9   -3.03    4.95   1 
  -1   5  10   32.64    6.30   1 
   1   0 -11    1.95    5.02   1 
   1   3   6   -0.42    5.70   1 
   2   1 -14   76.53    6.45   1 
   2   1  -1    4.79    5.89   1 
   4   3  -2   59.67    6.11   1 
   5   4  -5  150.03    8.00   1 
  -6   0   2  486.45   10.68   1 
  -5   0   3    4.13    4.99   1 
  -5   1   6   27.37    4.01   1 
  -3   0 -15    5.97    7.96   1 
  -1   2   7  198.92    6.13   1 
   1   0 -10   25.74    5.50   1 
   1   5   8  118.99    9.10   1 
  -7   0   0  120.84    7.71   1 
  -7   2   7   32.18    6.65   1 
  -4  -1  -3  150.57    9.48   1 
  -2  -1  -6  340.63   13.32   1 
  -2  -1  -5   43.39    9.97   1 
  -2   0   3  307.51    8.36   1 
  -1   0 -14   53.10    7.36   1 
   0   2   6 1222.01   14.01   1 
   2   1 -13   77.47    6.12   1 
   4   3 -14   23.03    6.27   1 
   4   4   0    6.03    6.34   1 
   5   4  -6   23.37    5.61   1 
   5   5  -3  188.14    8.69   1 
  -8   1   3    0.22    6.46   1 
  -7   1   5   16.25    6.32   1 
  -5   4  11   -3.88    6.00   1 
  -4   3  10   45.77    4.36   1 
  -2   1   6  324.29    6.24   1 
  -2   5  11   14.23    6.10   1 
   0   1 -17   18.79    6.52   1 
   1   0  -9  656.92    9.61   1 
   1   0  -4  228.70    7.91   1 
   2   2 -17    6.90    6.52   1 
   2   6   7    7.11    9.46   1 
   5   4 -11   12.35    4.53   1 
   5   4 -10   57.68    6.49   1 
   5   4  -9  153.20    7.19   1 
   5   4  -8  204.18    7.30   1 
   5   4  -7   37.18    5.85   1 
  -7   0   1   12.86    6.10   1 
  -6   3  10    8.71    6.27   1 
  -4   0   4  217.22    6.80   1 
  -3   4  11   32.06    6.03   1 
  -1   0   2 1297.40   18.26   1 
   1   0  -8  480.73    8.50   1 
   1   0  -5   14.50    5.44   1 
   2   1 -12   -0.41    5.34   1 
   4   3  -3   16.96    4.64   1 
   5   6  -2   17.12    7.79   1 
  -8   1   4   13.63    6.94   1 
  -6   0   3  249.89    8.01   1 
  -5   2   9   51.09    5.75   1 
  -4   0 -14   51.72   10.26   1 
  -3  -1  -2  802.62   17.52   1 
  -3   0   4  291.82    6.45   1 
   0   6  10   22.60    6.62   1 
   1   0  -7  351.02    7.90   1 
   1   0  -6  475.50    9.13   1 
   2   2 -16   -3.17    6.02   1 
   3   2 -13   22.26    4.24   1 
   4   3 -12  186.21    7.40   1 
   4   6   2    5.56    9.30   1 
   5   5  -4  318.42    8.76   1 
  -8   0  -3    4.91    8.65   1 
  -7   1   6   33.77    6.50   1 
  -5  -1  -4    8.21    8.88   1 
  -3  -1  -7  656.88   23.24   1 
  -3   2   9   88.35    5.51   1 
  -1   0 -13   10.41    5.68   1 
  -1   3   9  232.64    6.66   1 
   0   1 -16   24.95    6.54   1 
   0   1   4    5.82    4.86   1 
   0   4   9  226.52    8.41   1 
   2   1  -2  258.27    7.97   1 
   3   2 -12    9.21    5.18   1 
   3   3 -16   34.43    6.82   1 
   4   3  -4  149.27    6.05   1 
  -8   0  -2    3.80    6.89   1 
  -7   0   2   33.67    6.66   1 
  -5  -1  -5    4.48    8.89   1 
  -5  -1  -3  240.42   11.54   1 
  -3   0 -14   24.00    6.84   1 
  -2   3  10   96.43    5.81   1 
   0   3   8  107.65    6.30   1 
   4   3 -11  339.34    7.53   1 
   4   3 -10  349.73    7.98   1 
   4   5   1   29.72    6.85   1 
   5   5  -5    0.42    5.48   1 
   5   6  -3   58.07    8.15   1 
  -8   0  -1   10.33    7.11   1 
  -8   1   5   -1.02    6.45   1 
  -6   0   4   55.95    6.05   1 
  -6   3  11    7.09    6.29   1 
  -4  -1  -1  678.45   13.61   1 
  -4   0   5   43.19    5.39   1 
  -4   3  11    6.76    4.03   1 
  -1   5  11   35.36    6.38   1 
   1   2 -17   38.53    6.65   1 
   1   6   9    3.38    7.71   1 
   2   1 -10  504.54    8.29   1 
   2   2 -15    1.14    5.72   1 
   4   3  -9   65.96    5.79   1 
   4   3  -5  304.41    7.10   1 
   4   4  -1    6.16    6.25   1 
   5   5 -11   -0.77    4.74   1 
   5   5 -10   33.84    6.50   1 
   5   5  -6   25.37    5.77   1 
  -8   0   0   52.91    8.10   1 
  -7   2   9   39.40    7.24   1 
  -5  -1  -2  107.10    8.88   1 
  -5   2  10    9.54    5.53   1 
  -4   1   8    3.52    4.88   1 
  -2   0   4  432.07    9.12   1 
  -2   1   7  390.53    7.60   1 
  -2   5  12   13.70    6.11   1 
  -1   2   8   71.41    5.13   1 
   0   1 -15   16.83    5.57   1 
   2   1  -9  787.53    9.35   1 
   2   2   2  238.59   13.72   1 
   3   2 -10    7.56    5.31   1 
   3   3 -15   58.90    5.25   1 
   3   4   3  189.32   12.93   1 
   4   3  -7  159.91    6.08   1 
   4   4 -14   12.94    4.81   1 
   5   5  -9   32.48    6.47   1 
   5   5  -8  117.04    6.98   1 
   5   5  -7  158.84    7.30   1 
  -7   1   7   40.57    6.44   1 
  -6   1   8    6.74    5.57   1 
  -5  -1  -1  175.31    9.48   1 
  -3  -1  -1 1558.48   19.80   1 
  -3   0   5   31.30    5.07   1 
  -3   4  12   27.11    6.31   1 
  -1   0 -12   13.04    5.32   1 
   2   1  -3 1320.64   13.71   1 
   2   2 -14    0.27    5.60   1 
   3   3   1    0.93    5.33   1 
   4   4 -13   11.97    6.19   1 
   5   6  -4    8.49    6.07   1 
  -8   0   1   26.47    7.44   1 
  -8   1   6   -1.41    6.83   1 
  -6   0   5    9.62    5.71   1 
  -5  -1  -6   92.39   15.02   1 
  -4  -1   0 1124.12   14.97   1 
  -3   2  10   10.32    5.26   1 
   2   1  -8  249.90    5.83   1 
   2   3 -17    2.55    4.47   1 
   3   2  -9  309.28    6.04   1 
   3   2  -8  738.16    9.17   1 
   3   2  -4  172.48    5.95   1 
   3   3 -14   74.36    6.46   1 
   5   6  -5    7.60    7.41   1 
  -8   0   2   -4.03    6.74   1 
  -5  -1   0  193.79    9.21   1 
  -4   0 -13   36.66    9.67   1 
  -3   0 -13   22.66    7.35   1 
   1   2 -16   31.41    4.89   1 
   2   1  -7   89.67    4.36   1 
   2   1  -4  852.91   10.30   1 
   3   2  -7  475.20    7.79   1 
   3   2  -6  129.76    6.07   1 
   3   2  -5  125.64    5.95   1 
   4   4 -12   -0.62    5.77   1 
   4   4  -2 1051.73   13.33   1 
   5   6  -6   14.39    6.36   1 
  -7   1   8   14.03    6.40   1 
  -4   0   6   36.36    3.90   1 
  -4   3  12   -3.24    4.03   1 
  -2   1 -16   24.16    8.07   1 
  -2   3  11  170.08    6.44   1 
  -1   4  11    0.90    5.39   1 
   0   1 -14    7.57    5.41   1 
   0   2   7   74.90    5.57   1 
   2   2 -13   44.64    5.70   1 
   2   3 -16   18.38    6.25   1 
   2   4   6    0.85    8.63   1 
   3   3 -13   32.05    5.91   1 
   4   4 -11   42.62    6.16   1 
   5   6  -8    4.43    6.25   1 
   5   6  -7    0.61    6.03   1 
  -8   0   3   56.53    7.79   1 
  -6  -1  -3  178.10   10.83   1 
  -6  -1  -2    0.03    7.22   1 
  -6   0   6   91.62    6.96   1 
  -6   1   9   13.23    6.07   1 
  -5  -1   1    0.29    6.33   1 
  -5   2  11   13.18    4.09   1 
  -4  -1   1  561.06   10.62   1 
  -4   1   9   19.83    3.87   1 
  -3  -1  -6  824.75   28.27   1 
  -3  -1   0  543.12   11.10   1 
  -1   0 -11    4.53    5.07   1 
  -1   0   3 1078.89   14.10   1 
   1   5   9   -4.37    7.06   1 
   2   5   7    4.42    8.67   1 
   4   5   0  108.65    8.09   1 
  -6  -1  -4  293.81   12.89   1 
  -6  -1  -1  100.72    7.57   1 
  -3   0   6  613.02    9.02   1 
  -3   4  13   15.33    6.28   1 
  -2   0   5 1493.81   13.58   1 
  -2   1   8  989.38   10.60   1 
  -1   5  12   55.39    8.31   1 
   0   4  10  129.74    7.65   1 
   1   2 -15    8.82    5.68   1 
   1   3   7   27.82    6.47   1 
   2   2 -12   17.84    5.50   1 
   3   3 -12   54.49    5.77   1 
   4   4 -10   19.31    4.02   1 
   4   4  -3   39.10    5.57   1 
   4   6   1   29.55    9.05   1 
  -8   0   4    3.83    6.61   1 
  -7   1   9   -1.98    6.14   1 
  -6  -1   0  210.81    9.19   1 
  -1   2   9  193.06    6.37   1 
   4   4  -9   78.20    4.83   1 
   4   4  -8  231.00    7.46   1 
   4   4  -4    3.51    4.80   1 
  -6  -1  -5  240.20   14.98   1 
  -6   0   7  133.16    6.51   1 
  -5  -1   2   46.49    6.14   1 
  -4   0   7   10.97    3.53   1 
  -4   3  13    8.05    5.97   1 
  -3  -1   1  161.26    8.05   1 
  -3   2  11   53.88    4.52   1 
   0   1 -13    8.72    5.25   1 
   0   1   5  266.46    7.93   1 
   0   5  11  124.26    9.07   1 
   1   3 -17   11.05    6.34   1 
   3   3 -11   86.30    5.79   1 
   4   4  -7   29.12    5.22   1 
   4   4  -6    9.15    5.09   1 
   4   4  -5   41.23    5.31   1 
  -8   0   5    6.21    7.21   1 
  -6   1  10  138.77    6.52   1 
  -5   0 -12   83.98   12.47   1 
  -5   2  12    2.90    5.91   1 
  -4   1  10   71.02    5.70   1 
  -2   1 -15   15.47    7.56   1 
  -1   0 -10  143.37    6.30   1 
  -1   2 -17    7.10    6.47   1 
   1   2 -14   20.73    5.45   1 
   3   3   0  996.82   14.07   1 
   3   5   4  154.85   15.27   1 
   4   5  -1  335.38    9.60   1 
  -7   1  10    1.16    6.34   1 
  -5  -1   3   89.94    6.14   1 
  -3   0 -12    4.80    6.62   1 
  -2   3  12  135.69    6.83   1 
   3   3 -10  150.12    6.38   1 
   4   5 -11  112.49    5.86   1 
  -8   0   6    9.12    6.98   1 
  -7  -1  -2   65.70    9.02   1 
  -7  -1  -1   16.49    8.13   1 
  -7  -1   0    0.92    8.39   1 
  -6   0   8  214.97    7.56   1 
  -4   0 -12   20.41    8.76   1 
  -1   4  12    4.60    5.76   1 
   0   1 -12   66.41    5.59   1 
   1   3 -16   12.13    6.24   1 
   2   4 -16    9.89    6.17   1 
   3   3  -9  180.94    6.41   1 
   3   4 -13   67.84    5.25   1 
  -7  -1  -3   39.45    9.66   1 
  -7  -1   1  115.70    9.40   1 
  -4   0   8    9.59    3.68   1 
  -3  -1   2   10.23    5.17   1 
  -2   0   6 1099.54   11.48   1 
  -2   1   9   65.82    5.47   1 
  -1   0   4  207.29    7.74   1 
   1   2 -13  155.38    6.55   1 
   4   5  -9    2.57    5.88   1 
   4   5  -2  354.55    8.95   1 
   4   6   0   50.91    7.73   1 
  -7  -1   2   82.88    8.88   1 
  -5  -1   4  377.48    8.78   1 
  -5   2  13    2.49    5.97   1 
  -4   1  11   75.95    5.77   1 
  -4   3  14    4.22    6.08   1 
  -3   2  12   98.25    5.25   1 
  -1   0  -9  457.06    9.95   1 
  -1   2 -16    4.99    5.87   1 
   0   3 -17   -2.20    5.95   1 
   3   3  -8  144.73    5.84   1 
   3   3  -1  119.63    6.08   1 
   3   5 -14    8.06    6.46   1 
   4   5  -8   75.44    6.05   1 
   4   6 -11  104.23    8.05   1 
  -6   0   9   71.19    6.43   1 
  -1   2  10    5.92    4.93   1 
   0   4  11   32.26    6.98   1 
   1   3 -15   99.99    6.93   1 
   1   4   9   43.26    7.17   1 
   2   4 -15   34.40    6.38   1 
   2   6   8    5.94   11.06   1 
   3   3  -7   89.78    5.45   1 
   4   5  -7  296.80    8.13   1 
   4   5  -4   89.80    7.07   1 
   4   5  -3   92.74    6.10   1 
  -7  -1  -4   24.57    8.55   1 
  -7  -1   3   26.70    6.95   1 
  -6  -1  -6   -0.78   11.79   1 
  -5  -1   5  373.63    8.34   1 
  -4   0   9    8.81    5.19   1 
  -3  -1   3  438.18    9.12   1 
  -3   0   8  808.62    9.73   1 
  -2   1 -14   -4.02    5.34   1 
   0   1 -11  123.45    5.82   1 
   0   3  10  279.90    9.01   1 
   3   3  -6  161.70    6.17   1 
   3   3  -2  126.32    5.94   1 
   4   5  -5  181.38    6.91   1 
   4   6 -10  113.70    7.86   1 
   4   6  -1   34.11    7.52   1 
   4   7   0    8.32    7.96   1 
  -7  -1   4  163.57    7.93   1 
  -6   1  12   -1.72    4.31   1 
  -3   0 -11   73.38    7.77   1 
  -2  -1  -1  864.44   18.99   1 
  -2   0   7 1817.41   14.06   1 
  -2   3  13   33.75    5.92   1 
   1   2 -12   96.13    4.85   1 
   1   5  10    4.48    7.08   1 
   2   3 -12  215.90    5.74   1 
   3   3  -5    1.12    4.33   1 
   3   3  -4   17.43    4.53   1 
   3   3  -3  789.46    9.93   1 
   3   4   2  219.01   10.34   1 
   3   5 -13    1.97    6.01   1 
   4   6  -9   30.15    6.62   1 
  -8  -1   0   -4.57    8.61   1 
  -8  -1   1    0.66    8.55   1 
  -6   0  10   10.75    5.69   1 
  -5   2  14    9.90    6.25   1 
  -4   1  12   19.45    5.84   1 
  -3   2  13    4.35    5.77   1 
  -2  -1  -2    9.46   10.37   1 
  -2   1  10   64.56    5.24   1 
   0   1   6  686.07   10.56   1 
   0   3 -16   11.68    6.14   1 
   0   5  12   38.01    7.02   1 
   1   3   8   23.77    6.36   1 
   2   4 -14   -0.64    5.70   1 
   4   6  -8   13.13    6.27   1 
   4   6  -2    0.14    7.16   1 
  -8  -1  -1    1.71    6.83   1 
  -8  -1   2   13.39    7.57   1 
  -7  -1   5   10.25    6.29   1 
  -5  -1   6   -6.17    5.36   1 
  -3  -1   4  429.80    8.60   1 
  -2  -1   0  137.65    8.38   1 
  -1   0  -8   58.94    5.71   1 
  -1   0   5   12.60    5.33   1 
  -1   2 -15    9.84    5.56   1 
  -1   3  12   24.13    5.50   1 
  -1   4  13   -0.82    5.84   1 
   1   2   6  209.39    8.70   1 
   1   3 -14  137.76    6.76   1 
   2   2   1  126.00    8.33   1 
   2   3 -11   29.17    5.50   1 
   3   5 -12   74.24    6.69   1 
   4   6  -7   38.96    6.39   1 
   4   6  -3    6.92    7.15   1 
   4   7  -1   39.58    8.37   1 
  -8  -1   3   27.96    7.72   1 
  -7  -1  -5    9.53   10.07   1 
  -6   1  13    1.83    6.18   1 
  -4   0  10    5.35    5.25   1 
  -3   0   9  255.70    6.83   1 
   0   1 -10  158.15    6.15   1 
   4   6  -6  150.40    7.35   1 
   4   6  -5  176.13    7.26   1 
   4   6  -4   94.01    6.39   1 
  -8  -1   4    8.46    7.11   1 
  -7  -1   6   10.49    6.30   1 
  -6   0  11   12.70    6.11   1 
  -5  -1   7   18.40    5.65   1 
  -5   1  13   54.83    5.18   1 
  -4   0 -11   51.31    7.83   1 
  -2  -1   1   21.10    5.78   1 
  -2   1 -13   48.58    5.98   1 
  -1   2  11   81.34    5.77   1 
   0   2   9 1198.19   12.77   1 
   2   2  -6  759.62    8.79   1 
   2   4 -13   -0.77    5.58   1 
   3   5 -11   65.98    6.22   1 
   4   7  -7   10.86    6.67   1 
   4   7  -2   51.46    7.49   1 
  -7  -1   7   49.69    7.18   1 
  -5   0  11   20.96    5.86   1 
  -4   1  13    9.04    5.71   1 
  -3  -1   5   26.73    5.27   1 
  -2   3  14    7.20    5.96   1 
   0   3 -15   29.16    5.64   1 
   2   2  -5  515.48    8.51   1 
   2   3 -10  461.37    8.06   1 
   4   7  -6   -1.98    6.37   1 
   4   7  -5   -4.83    6.33   1 
   4   7  -4   -2.94    7.66   1 
   4   7  -3   62.36    7.19   1 
  -8  -1   6   47.91    8.45   1 
  -3   2  14    4.94    5.78   1 
  -2  -1   2  253.05    8.32   1 
  -2   1  11   12.42    5.06   1 
  -1   2 -14   18.67    5.58   1 
   0   4  12    2.37    7.01   1 
   1   2 -10  167.23    6.11   1 
   3   5 -10   41.76    5.85   1 
   3   6 -12   24.47    5.22   1 
  -6   0  12    7.20    6.30   1 
  -5  -1   8   23.52    5.73   1 
  -3   0  10   67.20    5.56   1 
  -1   0   6  431.49    8.80   1 
   0   1  -9  141.85    6.28   1 
   0   3  11  180.75    7.38   1 
   2   2   0 1153.39   15.90   1 
   2   4 -12   45.23    4.59   1 
   3   4  -7   -1.88    3.56   1 
   3   4   1  408.57   10.95   1 
  -7  -1   8   27.81    5.15   1 
  -3   0 -10    2.40    6.31   1 
  -2  -1   3 1287.78   14.43   1 
  -1   0  -7   45.29    5.56   1 
  -1   3  13  136.22    7.34   1 
  -1   4  14    2.14    6.09   1 
   0   1   7  506.26    9.09   1 
   0   4 -16  118.90    8.06   1 
   1   4  10   13.63    7.87   1 
   2   2  -3  356.11    8.18   1 
   3   4  -6    5.25    4.80   1 
   3   5  -9  157.38    7.01   1 
  -5  -1   9  113.17    6.52   1 
  -4   1  14   10.99    5.91   1 
   0   3 -14   35.12    5.87   1 
   1   3 -12    5.31    5.22   1 
   2   2  -2 1128.89   12.80   1 
   2   2  -1 5230.48   28.18   1 
   2   4 -11  169.90    6.59   1 
   3   4  -5    5.77    4.75   1 
   3   5   3  272.58   13.02   1 
  -7  -1   9   10.09    7.01   1 
  -6   0  13    7.05    6.19   1 
  -4   0  12  263.55    7.88   1 
  -3  -1  -5  254.54   17.82   1 
  -2   1 -12  160.76    6.99   1 
  -1   2  12   33.29    5.42   1 
   1   2  -9  170.75    6.13   1 
   1   5 -15    3.83    6.16   1 
   1   5  11   -2.61    8.52   1 
   2   3  -8   18.86    4.91   1 
   2   5   8  112.24   15.31   1 
   3   4  -4   15.16    6.01   1 
   3   4   0   69.19    5.88   1 
   3   5  -8    5.02    5.55   1 
   3   6   4    8.97    9.34   1 
  -5   0  13   64.19    6.80   1 
  -3  -1   7    3.53    3.57   1 
  -3   0  11   60.06    4.31   1 
  -3   2 -15   34.01    6.68   1 
  -3   2  15   -4.70    5.74   1 
  -2  -1   4  876.94   11.62   1 
  -2   1  12  148.36    5.34   1 
  -2   3 -16   16.67    6.45   1 
  -2   3  15    9.65    6.05   1 
  -1   0   7  338.39    7.56   1 
  -1   2 -13  100.11    6.49   1 
   0   2  10  583.80   10.30   1 
   1   3   9    9.02    6.49   1 
   3   4  -3   31.34    5.04   1 
   3   4  -2  276.19    7.94   1 
   3   4  -1   28.65    5.93   1 
  -7  -1  10   23.01    7.66   1 
  -5  -1  10  288.04    7.96   1 
   0   1  -8   30.53    5.22   1 
   0   4 -15   41.11    6.42   1 
   1   2   7  630.58   12.83   1 
   1   4 -13  370.80    8.30   1 
   2   4 -10   78.60    5.85   1 
   2   4   7   10.77   11.11   1 
   2   5 -12    5.62    4.01   1 
   2   6 -13    8.71    6.24   1 
   3   5  -7   14.78    5.69   1 
   3   7 -10    0.99    6.65   1 
  -5   1 -13   15.15    8.26   1 
  -4   1  15    2.00    5.65   1 
  -3  -1   8    5.51    5.03   1 
  -2  -1   5  243.22    7.74   1 
   0   3 -13   23.72    5.46   1 
   1   2  -8   73.81    5.81   1 
   1   3 -11   -0.95    3.67   1 
   2   3  -7  185.46    6.34   1 
   3   7   4    5.11   10.44   1 
  -7  -1  -6   -0.40   14.39   1 
  -7  -1  11    3.22    6.77   1 
  -6  -2   2   49.22    8.05   1 
  -6  -2   3   41.59    7.96   1 
  -4  -1  -6  725.53   27.42   1 
  -4   0 -10   11.13    6.79   1 
  -3   0  12  358.14    7.89   1 
  -1   0  -6    8.75    4.95   1 
  -1   3  14   19.05    6.05   1 
  -1   4 -16    1.48    6.37   1 
   0   1   8  247.87    7.10   1 
   0   3  12  140.50    7.56   1 
   0   4  13   20.36    6.37   1 
   1   1  -2 2973.95   24.30   1 
   1   5 -14    1.72    5.83   1 
   3   5  -6    4.25    5.20   1 
   3   7  -9   12.72    6.58   1 
  -6  -2   1   42.88    7.75   1 
  -6  -2   4   72.06    7.25   1 
  -6  -2   5   45.31    6.53   1 
  -6   0 -10   19.10   10.77   1 
  -5  -2   2  549.51   11.14   1 
  -5  -2   3  573.76   10.51   1 
  -5  -1  11  154.38    7.56   1 
  -5   0  14   48.18    5.80   1 
  -2   1  13  305.72    8.10   1 
  -1   0   8  432.99    8.12   1 
  -1   2  13   76.77    6.34   1 
   2   4  -9  123.44    6.26   1 
   2   5 -11    3.08    3.90   1 
   2   6 -12   24.75    6.29   1 
   3   5   2  196.84    9.23   1 
  -7  -2   2   26.00    7.28   1 
  -7  -2   5    4.79    6.83   1 
  -6  -2   6   76.73    7.04   1 
  -5  -2   1   19.69    6.34   1 
  -5  -2   5  359.15    8.57   1 
  -3  -1   9  152.04    5.96   1 
  -2  -1   6   42.84    5.07   1 
  -2   1 -11  230.19    7.02   1 
  -2   3 -15   30.15    6.22   1 
  -1   2 -12   77.41    5.82   1 
   0   4 -14    8.20    5.43   1 
   2   3  -6  763.81    9.59   1 
   3   5  -5   36.86    5.43   1 
   3   7  -8   55.07    7.20   1 
  -7  -2   1   24.03    7.95   1 
  -6  -2   0   73.49    7.12   1 
  -5  -2   0   85.63    8.07   1 
  -5  -2   6    4.11    5.57   1 
  -5  -1  12   28.79    6.21   1 
  -3   0  -9   46.61    6.79   1 
  -3   2 -14   77.64    6.97   1 
   0   1  -7    3.45    4.77   1 
   0   2  11   39.35    5.71   1 
   1   1  -1   71.28    6.95   1 
   1   2  -7   -4.28    4.78   1 
   1   5 -13    5.30    5.56   1 
   2   5 -10    3.29    5.46   1 
   3   5  -4   39.33    5.56   1 
   3   6   3   10.94    8.26   1 
  -6  -2   7   17.89    6.37   1 
  -5   0  15   15.11    6.59   1 
  -3   0  13   62.83    5.92   1 
  -2  -1   7   92.61    5.52   1 
  -1   4 -15    0.43    6.03   1 
   0   3 -12    9.62    5.31   1 
   1   4  11   -0.64    7.08   1 
   2   4  -8   42.97    5.18   1 
   2   6 -11   60.71    6.53   1 
   3   5  -3  458.09    8.99   1 
   3   5   1   91.69    7.44   1 
   3   7  -7  104.73    7.75   1 
  -8  -2   2    4.09    8.30   1 
  -8  -2   3   12.34    7.75   1 
  -8  -2   4    2.83    7.63   1 
  -7  -2   0  100.52    9.55   1 
  -6  -2  -1  104.21    9.96   1 
  -6  -2   8   38.61    6.67   1 
  -4  -2   2  395.51    8.99   1 
  -4  -2   3   68.29    5.92   1 
  -4  -2   4   13.52    5.30   1 
  -4  -2   5  334.11    8.33   1 
  -2   1  14   12.91    5.57   1 
  -1   0   9  582.74    9.07   1 
   0   1   9   43.36    5.11   1 
   1   3  10  208.89    9.37   1 
   2   3  -5  542.10    7.99   1 
   3   5  -2   76.46    5.94   1 
   3   5  -1   -2.62    6.13   1 
   3   5   0  127.08    7.70   1 
   3   6  -5  114.76    6.95   1 
   3   7  -6    9.71    6.44   1 
   3   7   3   15.68    8.19   1 
  -5  -1  13    5.11    5.93   1 
  -4  -2   1  131.69    7.88   1 
  -1   2  14   78.81    6.38   1 
   0   3  13   25.18    6.05   1 
   0   4 -13   74.22    6.28   1 
   0   4  14   25.07    8.59   1 
   1   1   0   36.48    7.35   1 
   1   4 -11   43.70    4.22   1 
   1   5  12    8.99    9.36   1 
   2   5  -9    7.41    5.21   1 
   2   7 -11   44.64    5.88   1 
  -6  -2   9   10.51    4.64   1 
  -5  -2  -1    5.20    6.62   1 
  -4  -2   6  351.83    7.32   1 
  -4   0  15   12.32    4.60   1 
  -3   0  14   80.78    6.48   1 
  -2  -1   8  267.41    6.86   1 
   1   2  -6   59.16    5.11   1 
   1   5 -12  140.93    6.67   1 
   2   3  -4  678.78    9.16   1 
   2   4  -7   66.15    5.29   1 
   2   6 -10   48.46    6.29   1 
   3   6  -4  220.51    7.75   1 
   3   6   2   13.54    7.08   1 
   3   7  -5    2.97    5.76   1 
  -7  -2  -1    8.21    7.61   1 
  -6  -2  10   27.20    6.70   1 
  -5   1 -12   55.59    8.67   1 
  -4  -2   7  195.72    6.89   1 
  -2   3 -14   87.52    6.33   1 
  -1   2 -11  227.32    6.87   1 
   0   1  -6   66.92    5.61   1 
   0   3 -11    6.54    5.18   1 
   1   1   3  111.66   11.74   1 
   2   7 -10    9.06    6.74   1 
   3   6  -3  166.28    7.26   1 
   3   6   1    1.04    6.81   1 
   3   7  -4    4.43    5.81   1 
   3   7   2    0.77    7.55   1 
  -5  -1  14    4.47    6.21   1 
  -4  -2   0  206.78    7.87   1 
  -4  -2   8  229.09    7.04   1 
  -4  -1  13    9.19    5.64   1 
  -3   2 -13   77.06    6.46   1 
  -2  -1   9  715.59    9.27   1 
  -2   1 -10  156.22    6.19   1 
  -2   1  15   21.82    6.03   1 
  -1   0  10   28.38    5.00   1 
  -1   4 -14   14.28    5.73   1 
  -1   5 -15   33.47    6.54   1 
   1   4 -10   18.73    5.22   1 
   2   5  -8    4.06    5.29   1 
   2   6  -9    8.05    6.07   1 
   3   6  -2   95.36    6.25   1 
   3   6  -1   21.93    6.69   1 
   3   6   0   46.45    7.33   1 
   3   7  -3   32.93    6.29   1 
   3   7   1    2.13    7.43   1 
  -6  -2  -2   90.32    9.69   1 
  -6  -2  11   22.49    6.64   1 
  -5  -2  10  185.19    6.83   1 
   0   1  10    1.15    4.59   1 
   0   6 -14    8.90    6.25   1 
   1   1   1 2506.98   42.96   1 
   1   5 -11    0.21    5.23   1 
   2   3  -3 1000.79   11.14   1 
   2   4  -6    7.79    4.93   1 
   3   7  -2    7.13    6.07   1 
   3   7  -1    1.61    5.67   1 
   3   7   0    1.75    7.39   1 
  -4  -2   9   16.21    5.79   1 
  -3  -1  12   94.56    4.66   1 
  -3   0  15   18.18    6.23   1 
  -1   2  15   28.47    6.16   1 
   0   4 -12   41.68    4.25   1 
   1   2  -5    0.10    4.67   1 
   1   7 -12   26.76    6.76   1 
   2   7  -9   18.09    6.51   1 
  -6  -2  12   12.64    6.85   1 
  -5  -1  15   30.32    5.57   1 
  -3  -2   3 2103.02   16.66   1 
  -3  -2   4  163.88    5.61   1 
  -3  -2   6  131.09    6.40   1 
  -2  -1  10  498.56    8.07   1 
  -1   0  11    1.86    4.63   1 
   0   3  14    3.28    5.96   1 
   1   4  12   53.96    9.04   1 
   2   3  -2  840.50   11.39   1 
   2   5  -7   59.19    5.57   1 
   2   6  -8   10.01    5.61   1 
  -7  -2  -2   14.75    8.38   1 
  -5  -2  -2  146.60    9.03   1 
  -4  -2  -1   98.22    8.17   1 
  -4  -2  10   -0.80    3.75   1 
  -3  -2   2 2483.01   19.33   1 
  -3  -2   7  433.77    8.31   1 
  -3  -1  13   14.36    5.56   1 
  -3   0  -8    0.78    5.97   1 
  -2   1  16   -1.34    6.00   1 
  -2   3 -13   14.35    5.37   1 
  -1   2 -10   82.61    5.69   1 
  -1   5 -14   56.97    6.93   1 
   0   3 -10    4.51    4.79   1 
   1   1   4  256.46   11.69   1 
   1   2   9  541.85   11.18   1 
   1   3  11   22.27    6.83   1 
   1   4  -9  698.67    9.28   1 
   2   4  -5  127.01    6.21   1 
   2   7  -8    7.75    6.14   1 
  -6  -2  13    9.35    6.74   1 
  -4  -1  15   32.45    6.83   1 
  -3   0  16   -0.16    6.25   1 
  -1  -1   4   97.25    5.38   1 
  -1   4 -13   31.53    4.01   1 
   0   1  11    7.07    4.39   1 
   0   2  13   17.09    5.67   1 
   0   6 -13   69.84    6.64   1 
   1   5 -10   84.12    5.86   1 
  -5   2 -13   56.15    8.46   1 
  -4  -2  11  365.94    7.45   1 
  -3  -2   8  695.14    8.73   1 
  -2  -1  11  135.22    4.93   1 
  -1  -1   2 3096.02   25.70   1 
   0   1  -5  243.39    6.63   1 
   0   4 -11  325.67    7.27   1 
   1   7 -11    2.58    4.26   1 
   2   3  -1 1200.54   13.51   1 
   2   6  -7    0.24    5.34   1 
  -5   0  -9   46.64    8.19   1 
  -4   3 -14   11.22    6.29   1 
  -3  -2   1   19.08    5.42   1 
  -3  -1  14    1.01    5.57   1 
  -3   2 -12   62.86    5.93   1 
  -2   1  -9   26.42    5.61   1 
  -1   0  12   -0.99    5.01   1 
  -1   2  16   -0.02    6.08   1 
  -1   6 -14   10.96    6.27   1 
   1   1   5   36.71    7.34   1 
   1   2  -4  194.03    6.98   1 
   2   4  -4  146.63    6.00   1 
   2   7  -7   15.93    6.40   1 
  -4  -2  12  170.84    6.26   1 
  -4  -1  16   22.40    7.01   1 
  -2  -1  12    1.83    5.12   1 
  -2   1  17    7.66    5.88   1 
   1   4  -8 1220.91   10.84   1 
  -7  -3   5    5.22    8.10   1 
  -7  -3   6   -2.20    6.46   1 
  -7  -3   7    1.83    6.97   1 
  -7  -3   8    9.22    7.11   1 
  -6  -3   5   18.35    6.19   1 
  -6  -3   6   42.29    6.91   1 
  -6  -3   7    3.38    6.60   1 
  -6  -3   8    7.23    6.72   1 
  -6   0  -9    9.34    8.43   1 
  -5  -2  14   38.10    5.54   1 
  -5   1 -11   58.13    8.02   1 
  -3   0  17    3.51    6.28   1 
  -1   4 -12   -4.84    5.14   1 
  -1   5 -13   53.09    6.01   1 
   0   1  12   24.03    6.05   1 
   0   3  -9   31.09    4.83   1 
   0   3  15   14.68    6.49   1 
   0   6 -12    5.96    5.93   1 
   1   2  10   56.97    7.14   1 
   1   5  -9  209.14    6.67   1 
   1   7 -10    5.73    5.94   1 
   2   3   0  537.03   10.11   1 
   2   4   8   80.37   15.91   1 
   2   5  -5  133.27    6.05   1 
   2   6  -6   98.03    6.75   1 
   2   7  -6   31.73    6.34   1 
   2   8  -6    7.04    6.34   1 
  -7  -3   4   13.01    8.12   1 
  -7  -3   9    6.69    7.40   1 
  -6  -3   4    5.77    6.18   1 
  -6  -3   9   -3.70    6.67   1 
  -4  -2  13    1.48    4.02   1 
  -3   4 -14   13.62    6.41   1 
  -2   3 -12   19.60    5.34   1 
  -2   5 -14   47.89    6.63   1 
  -1   0  13   99.46    6.20   1 
   0   2  14   79.27    6.76   1 
   1   3  -6   80.63    5.35   1 
   1   3  12    5.73    6.66   1 
   2   4  -3  220.19    6.60   1 
  -6  -2  -3   12.82    8.83   1 
  -5  -3   5   29.82    5.90   1 
  -5  -3   6   69.63    6.38   1 
  -5  -3   7  293.90    8.79   1 
  -5  -3   8  108.76    7.35   1 
  -2  -1  13   71.06    5.70   1 
  -1   2  -9  127.06    6.03   1 
   1   4  13   62.68    9.96   1 
   2   3   1 1208.50   16.28   1 
   2   6  -5  311.82    8.48   1 
   2   8  -5   14.52    6.81   1 
  -7  -3   3   17.13    6.83   1 
  -7  -2  -3    1.47   10.16   1 
  -6  -3   3   -3.38    5.85   1 
  -5  -3   4   11.60    6.98   1 
  -5  -3   9    0.98    5.56   1 
  -4  -2  14   47.35    6.69   1 
  -3  -2   0    4.73    5.92   1 
  -1   6 -13   24.79    4.88   1 
   1   4  -7  644.16    8.66   1 
   1   5  -8    2.53    5.17   1 
   1   7  -9   21.62    6.18   1 
   2   5  -4   62.98    5.53   1 
   2   7  -5   30.45    6.19   1 
  -6  -3  12    1.65    6.51   1 
  -5  -3  10   -4.76    6.27   1 
  -2  -2   7 1236.54   11.79   1 
  -1   0  14   81.91    6.25   1 
   0   1  -4  356.76    9.06   1 
   0   1  13   35.34    6.68   1 
   0   6 -11    0.53    5.55   1 
   1   2  -3  254.55    7.90   1 
   2   3   2  118.46    8.31   1 
   2   4  -2   72.46    5.34   1 
   2   8  -4    0.82    6.39   1 
  -7  -3   2   26.26    7.83   1 
  -5  -3   3   -0.37    5.41   1 
  -5  -3  11   31.20    6.69   1 
  -4  -2  -2   65.98    8.34   1 
  -4  -2  15    1.58    6.13   1 
  -4   3 -13    4.51    5.77   1 
  -3   2 -11   10.19    5.03   1 
  -2  -1  14   66.76    4.66   1 
  -1   4 -11   10.55    5.09   1 
  -1   5 -12    7.10    3.95   1 
   0   3  -8   10.53    4.66   1 
   1   2  11  110.65    7.68   1 
   2   6  -4  107.50    6.29   1 
   2   7  -4    7.99    5.72   1 
   2   8  -3   -0.92    7.86   1 
  -5  -3  12   13.35    6.53   1 
  -5   2 -12   35.15    6.38   1 
  -4  -3   6  271.08    7.82   1 
  -4  -3   8    6.78    5.55   1 
  -4  -3   9   53.80    6.15   1 
  -2   5 -13   11.16    5.64   1 
   0   5 -10  334.27    6.69   1 
   1   7  -8   34.40    6.20   1 
   2   3   3   87.86    8.92   1 
   2   3   4  338.96   17.30   1 
   2   5  -3   20.05    5.43   1 
  -5  -2  -3   58.96   10.77   1 
  -5  -1  -6  108.13   13.31   1 
  -4  -3   5  266.23    7.93   1 
  -4  -3  10  345.28    8.40   1 
  -4  -2  16   14.08    6.57   1 
  -3   4 -13   -0.65    5.73   1 
  -2  -1  15  119.90    7.19   1 
  -2   1  -8  105.70    5.58   1 
  -2   3 -11   25.40    5.02   1 
   1   3  13    2.60    7.07   1 
   1   5  -7   16.45    5.26   1 
   2   4  -1  519.41   10.05   1 
   2   7  -3   23.65    6.24   1 
   2   8  -2   -0.74    6.61   1 
  -5  -3   2  173.42    7.21   1 
  -5  -3  13   38.94    5.32   1 
  -4  -3   4  155.89    6.61   1 
  -4  -3  11  391.88    8.97   1 
  -3   0  -7   19.10    5.69   1 
  -2   6 -13    3.95    6.03   1 
  -1   0  15   38.24    5.97   1 
  -1   2  -8  170.22    5.97   1 
   0   1  14   13.43    5.56   1 
   0   6 -10   67.13    4.67   1 
   1   4  -6  214.18    5.43   1 
   1   8  -7    1.34    6.62   1 
   2   6  -3   16.16    5.23   1 
  -7  -3   1    2.63    7.45   1 
  -5  -3  14   -2.07    6.55   1 
  -4  -3  12  152.03    7.64   1 
  -2  -2  11   51.77    4.35   1 
   1   7  -7   41.55    6.52   1 
   2   5  -2  107.80    5.82   1 
   2   7  -2    0.08    5.65   1 
   2   8  -1   21.52    6.96   1 
  -5   1 -10    1.52    6.48   1 
  -4  -3   3   16.44    6.23   1 
  -2  -2  12   21.67    5.21   1 
  -2  -1  16   59.47    6.49   1 
   1   2  -2    7.45    6.40   1 
   1   2  12   71.00    7.25   1 
   2   4   0   15.73    5.87   1 
   2   6  -2   35.17    5.79   1 
   2   8   0   36.22    6.95   1 
  -4   3 -12    9.39    7.08   1 
  -2   5 -12   10.48    5.61   1 
  -1   0  16   27.20    6.07   1 
  -1   4 -10   10.25    4.97   1 
   0   3  -7  161.71    5.84   1 
   1   5  -6  368.68    7.18   1 
   1   8  -6    0.03    6.35   1 
   2   7  -1    4.46    5.92   1 
  -6   1 -10   55.75    8.28   1 
  -5  -3   1  355.88    9.88   1 
  -3  -3   7   92.15    5.94   1 
  -3  -3   8  140.73    6.14   1 
  -3  -3   9  182.95    6.42   1 
  -3  -2  16   -4.44    6.37   1 
  -1   7 -11    1.25    4.21   1 
   0   1  15   10.44    5.49   1 
   0   6  -9   12.86    4.11   1 
   1   4  -5   19.17    5.09   1 
   1   7  -6  164.24    7.32   1 
   2   5  -1  420.27    8.67   1 
   2   6  -1   32.81    6.87   1 
  -5   0  -8  216.76   10.18   1 
  -3  -3   6  156.62    5.60   1 
  -3  -3  10  114.54    5.22   1 
  -3  -3  11   84.39    5.79   1 
  -3  -2  -1  398.10   11.56   1 
  -3   2 -10   25.57    4.92   1 
  -3   4 -12   -2.57    5.52   1 
  -2  -1  17    8.42    6.43   1 
  -2   3 -10  322.47    6.95   1 
  -2   6 -12   -0.02    5.85   1 
   1   3  14    1.87    7.42   1 
   1   8  -5    2.97    6.13   1 
   2   7   0   33.84    6.45   1 
  -7  -3   0    6.51    7.50   1 
  -7  -1  -6    1.24   13.51   1 
  -6  -4   8   -1.39    6.95   1 
  -6  -4   9    1.48    6.62   1 
  -6  -4  10   -7.74    6.77   1 
  -6  -4  11    3.98    7.55   1 
  -6  -3   0   49.40    8.46   1 
  -5   2 -11   -3.12    5.72   1 
  -4  -3   2   64.44    5.42   1 
  -3  -3   5   -0.77    4.59   1 
  -3  -3  12   39.08    5.88   1 
  -3  -2  17   23.29    6.39   1 
  -1   0  17    4.72    5.80   1 
   0   1  -3  434.77   10.13   1 
   0   5  -8   12.08    5.13   1 
   0   8  -8    9.17    6.41   1 
   2   4   1   58.76    5.45   1 
   2   5   0 1210.25   14.37   1 
  -7  -4   6   15.92    8.69   1 
  -6  -4   7   18.24    7.12   1 
  -1   7 -10   35.81    6.48   1 
   1   2  13  130.08    8.11   1 
   1   5  -5  115.60    5.74   1 
   1   7  -5   10.86    5.73   1 
   2   6   0  237.56    7.62   1 
   2   7   1    1.73    5.98   1 
  -6  -4   6   92.58    7.30   1 
  -6   0  -8    0.12    7.74   1 
  -5  -4   8  155.52    7.90   1 
  -5  -4   9  175.00    8.14   1 
  -5  -4  10   35.20    6.86   1 
  -3  -3   4   18.83    4.83   1 
  -3  -3  13   26.21    4.44   1 
  -2  -2  15    1.73    5.66   1 
  -2   1  -7  815.21   10.37   1 
  -2   5 -11   95.98    6.04   1 
  -1  -2   8   74.28    5.69   1 
  -1   2  -7  497.42    8.18   1 
  -1   4  -9  113.12    5.65   1 
   0   1  16   11.03    6.02   1 
   0   6  -8   86.27    5.91   1 
   1   8  -4   12.78    6.47   1 
   2   7   2   38.96    6.96   1 
  -7  -4   5   29.18    7.91   1 
  -6  -1  -6   -0.32   10.11   1 
  -5  -4   7   29.37    6.33   1 
  -5  -4  11   18.76    4.84   1 
  -5  -4  12    9.49    7.00   1 
  -3  -3  14   58.20    6.40   1 
  -3   6 -12  107.65    7.19   1 
  -2  -2   1 5342.26   29.61   1 
  -2   6 -11   12.87    5.63   1 
  -1  -2   6   61.22    5.21   1 
  -1  -2   7   -0.06    3.26   1 
  -1  -2   9  139.09    4.86   1 
  -1  -2  10  164.17    5.89   1 
   0  -1   6   68.69    5.61   1 
   0  -1   7    4.17    3.31   1 
   0  -1   8   31.25    4.86   1 
   0  -1   9  139.94    6.23   1 
   0   3  -6  254.13    6.46   1 
   0   8  -7    3.61    6.33   1 
   1   4  -4  339.91    7.91   1 
   2   4   2  174.34    7.92   1 
   2   5   1  111.41    7.90   1 
   2   6   1  191.89    7.31   1 
   2   6   8    8.70   10.99   1 
   2   7   3   16.15    6.59   1 
   2   7   4   24.48    8.09   1 
   2   7   5   20.60    8.35   1 
  -6  -4   5   25.34    6.40   1 
  -5  -3   0    0.01    5.93   1 
  -4   3 -11   73.29    6.80   1 
  -2  -2  16    9.11    5.94   1 
  -1  -2  11  137.89    6.12   1 
   0  -1  10  133.03    5.93   1 
   1   2  -1 1971.30   18.48   1 
   1   7  -4   20.73    6.04   1 
  -4  -3   1   21.43    6.26   1 
  -3  -3   3  819.21   10.42   1 
  -3  -3  15   38.27    5.26   1 
  -3   4 -11  122.02    6.17   1 
  -1  -2   5    1.29    4.83   1 
  -1  -2  12   97.06    6.30   1 
  -1   7  -9  125.80    7.14   1 
   0  -1   5  291.54    7.89   1 
   1   2  14  123.83    8.41   1 
   1   5  -4  158.85    6.14   1 
   1   8  -3   23.54    6.83   1 
   2   6   2   32.33    5.59   1 
  -7  -4   4   54.60    7.93   1 
  -6  -4   4   13.66    7.34   1 
  -5  -4   5  147.03    6.88   1 
  -4  -4   8  254.51    7.99   1 
  -4  -4   9   68.73    6.82   1 
  -4  -4  10   27.83    6.00   1 
  -4  -4  11   34.90    6.18   1 
  -4  -4  12    0.18    5.98   1 
  -4   5 -12    8.69    6.24   1 
  -3  -3  16   37.74    6.50   1 
  -2  -2  17   -2.91    6.21   1 
  -2   3  -9  197.47    6.12   1 
   0  -1  11   78.65    4.24   1 
   0   1  17    3.19    6.25   1 
   0   6  -7  126.22    6.10   1 
   0   8  -6   19.09    6.35   1 
   2   4   3  288.94   10.88   1 
   2   5   2   10.75    6.54   1 
   2   6   3    4.07    6.64   1 
  -4  -4   7   29.59    5.81   1 
  -4  -4  13   14.55    6.64   1 
  -3   2  -9   45.61    5.26   1 
  -2   5 -10  229.27    6.90   1 
  -1  -2  13  147.82    6.48   1 
   0  -1  12   69.29    5.27   1 
   1   8  -2   50.64    7.01   1 
   2   6   7   12.14    9.46   1 
  -5   2 -10   11.04    6.95   1 
  -4  -4  14    7.51    6.71   1 
  -4  -1  -5  970.76   21.82   1 
  -3   6 -11   56.01    6.61   1 
  -2  -3   6  783.92    9.92   1 
  -2   7 -10   10.89    4.19   1 
  -1  -2   4  204.18    6.96   1 
  -1  -2  14   17.57    5.43   1 
  -1   4  -8  360.65    7.00   1 
  -1   8  -8   78.75    6.21   1 
   0  -1   4  362.17    9.04   1 
   1   4  -3 1150.92   11.57   1 
   1   7  -3  107.13    6.67   1 
   2   5   3   53.29    7.13   1 
   2   6   4   35.60    7.29   1 
   2   6   5   55.39    9.05   1 
   2   6   6   83.77   10.06   1 
  -7  -4   3   20.41    8.23   1 
  -7  -3  -1   16.45    8.99   1 
  -6  -3  -1    0.85    7.40   1 
  -6   1  -9   80.97    8.31   1 
  -5  -4   4  429.75    9.27   1 
  -4  -4   6    6.58    5.35   1 
  -4  -4  15    4.85    7.13   1 
  -3   0  -6   58.81    5.90   1 
  -1   7  -8   64.72    6.28   1 
   0  -1  13    6.62    4.91   1 
   0   3  -5  186.41    6.00   1 
   1   2  15   27.57    7.95   1 
   1   8  -1    9.00    6.36   1 
  -6  -4   3   12.46    5.96   1 
  -6   2 -10   -4.32    7.30   1 
  -3  -3   2  135.70    6.17   1 
  -2  -3   5  600.16    9.21   1 
  -1  -2  15    9.30    5.69   1 
  -1   2  -6 1297.32   11.65   1 
   0   6  -6   73.38    5.68   1 
   0   8  -5   72.49    5.47   1 
   1   0   8   51.44    5.40   1 
   1   0   9  429.98    9.37   1 
   1   5  -3  185.52    6.17   1 
   2   4   4  135.05    9.24   1 
  -4  -4   5   38.95    5.47   1 
  -4   5 -11   22.39    5.91   1 
  -3  -4   9   90.55    6.28   1 
  -3  -4  10  147.52    6.64   1 
  -3  -4  11    6.30    5.71   1 
  -3  -4  12   41.24    6.29   1 
  -3   4 -10  170.72    6.44   1 
  -2  -3  15   30.19    6.03   1 
  -2   4  -9  286.72    6.32   1 
   0  -1  14    7.32    5.53   1 
   1   0   7   43.91    5.53   1 
   1   0  10  141.44    6.71   1 
   1   7  -2  102.05    6.79   1 
   2   5   4  460.36   12.37   1 
  -5   4 -11   30.53    6.11   1 
  -4   1  -8    0.44    5.75   1 
  -4   3 -10   65.89    5.72   1 
  -3  -4   8   10.98    5.36   1 
  -2  -3  16   13.17    6.09   1 
  -2   7  -9    6.04    5.66   1 
  -1  -2   3  241.38    7.72   1 
  -1  -2  16   51.94    6.24   1 
   1   0   6    0.83    5.90   1 
   1   0  11    4.33    5.66   1 
   1   8   0   19.12    6.40   1 
   2   3   8    8.58   12.54   1 
   2   5   5  488.81   14.36   1 
   2   5   8   96.35   14.35   1 
  -5  -4   3  428.32    9.81   1 
  -4  -3   0    5.69    5.76   1 
  -3  -4   7    2.55    5.10   1 
  -3   6 -10   10.95    5.66   1 
  -2  -3   4  687.06    9.38   1 
  -2   1  -6  787.80   10.20   1 
  -2   3  -8   59.67    5.18   1 
  -2   5  -9  279.45    5.87   1 
  -2   6  -9    5.55    5.27   1 
  -1   7  -7   20.87    5.52   1 
   0  -1  15   26.19    5.44   1 
   0   8  -4   82.83    7.20   1 
   1   4  -2  779.48    9.92   1 
   1   7  -1   77.22    7.60   1 
   2   4   5  137.23   10.55   1 
  -7  -4   2   -1.28    7.43   1 
  -6  -5   8   13.33    7.11   1 
  -6  -4   2   22.26    7.14   1 
  -5  -5  11    3.43    6.99   1 
  -4  -4   4    3.48    4.90   1 
  -2  -3  17    5.28    6.13   1 
  -1  -2  17   26.61    6.48   1 
  -1   4  -7  620.06    8.27   1 
   0  -1   3  432.85   10.19   1 
   0   1  -2  307.30    9.12   1 
   0   6  -5   11.70    5.35   1 
   1   0  12   16.19    5.05   1 
   1   2   0  478.73   10.48   1 
   1   5  -2    4.49    4.54   1 
   1   8   1   79.66    8.00   1 
   2   5   6  383.17   14.23   1 
   2   5   7    4.81    8.80   1 
  -5  -5   9   24.48    7.05   1 
  -5  -5  10   28.06    7.33   1 
  -5  -3  -1   35.90    7.39   1 
  -5   0  -7  499.56   11.76   1 
  -3  -4   6    9.77    4.99   1 
  -3   2  -8  602.04    8.52   1 
  -1   8  -6    9.01    4.56   1 
   0  -1  16   39.59    6.25   1 
   1   3  -1  160.67    6.06   1 
   1   8   2   62.80    8.95   1 
   2   3   9   23.83   11.36   1 
  -6  -5   7   23.12    6.66   1 
  -1  -3  12    1.48    5.17   1 
   0   3  -4   46.27    4.97   1 
   0   8  -3   32.90    6.43   1 
   1   0   5  316.35    9.43   1 
   1   0  13   12.35    5.24   1 
   1   7   0  159.82    7.09   1 
   2   4   6    0.64    8.77   1 
  -6   3 -10   31.12    6.38   1 
  -5  -5   8   62.70    7.44   1 
  -5   2  -9  108.52    7.65   1 
  -4  -5  12   61.98    8.05   1 
  -4   5 -10   38.71    5.71   1 
  -3  -3   1  128.37    6.17   1 
  -3   4  -9   20.36    4.83   1 
  -3   7  -9   18.79    6.24   1 
  -1  -3  13  121.78    5.22   1 
  -1   7  -6    4.28    5.47   1 
   0  -1  17   21.55    6.40   1 
  -7   0  -7   75.69   10.35   1 
  -6  -5   6   53.14    6.79   1 
  -5  -5   7  161.31    7.53   1 
  -5  -4   2  137.94    6.90   1 
  -4  -5  10  101.85    7.13   1 
  -4  -5  13    7.25    4.79   1 
  -4  -4   3   42.11    5.13   1 
  -3  -4   5    6.94    4.73   1 
  -3   6  -9   20.22    5.54   1 
  -2  -4  10   77.71    5.66   1 
  -2  -4  11  174.34    6.76   1 
  -2  -4  12   56.91    5.90   1 
  -2  -4  13   -4.23    5.58   1 
  -2  -3   3 1042.85   11.18   1 
  -2   5  -8  218.29    6.34   1 
  -2   6  -8   21.14    3.87   1 
  -1   8  -5    7.25    5.97   1 
   0   6  -4   51.19    5.52   1 
   1   0  14   46.38    5.86   1 
   2   3  10    4.47    9.80   1 
  -6   0  -7   30.28    6.90   1 
  -6   2  -9   10.96    6.93   1 
  -5   4 -10   16.20    5.59   1 
  -4  -5   9   -2.15    6.24   1 
  -4   3  -9  132.99    5.78   1 
  -2  -4   9  123.54    6.33   1 
  -2  -4  14   18.04    5.96   1 
  -1  -3  15   85.71    5.45   1 
  -1  -2   2   39.45    5.60   1 
  -1   2  -5  314.80    7.30   1 
   0   4  -4  801.45    9.93   1 
   0   8  -2    0.02    6.24   1 
   1   4  -1  165.52    6.29   1 
   1   5  -1   81.18    5.43   1 
   1   7   1    8.49    6.08   1 
   2   4   7   11.94   10.97   1 
  -7   1  -8    7.59    7.50   1 
  -6   1  -8   13.38    6.81   1 
  -5  -5   6   22.79    6.87   1 
  -4  -5   8   84.05    6.26   1 
  -2  -4   8   40.48    5.54   1 
  -2  -4  15   28.68    4.87   1 
  -1  -3  16   26.19    6.02   1 
  -1   4  -6  379.20    6.85   1 
   1   0  15   17.95    5.92   1 
  -7  -4   1    1.31    7.39   1 
  -6  -5   5   31.80    6.73   1 
  -6  -4   1  155.69    8.93   1 
  -2  -4  16    5.43    4.25   1 
  -2   3  -7  524.96    7.24   1 
  -2   8  -6    1.36    6.29   1 
  -1  -3  17    8.82    5.94   1 
  -1   5  -6    3.15    3.33   1 
  -1   7  -5   20.38    5.44   1 
   0   8  -1   20.82    6.14   1 
   2   4   8   74.49   14.95   1 
  -4  -5   7  287.61    8.14   1 
  -3  -5  11   59.18    6.45   1 
  -3  -5  12   71.59    6.70   1 
  -3  -5  13    4.33    6.19   1 
  -3  -5  14    5.22    6.50   1 
  -3  -4   4   10.29    4.80   1 
  -3  -2  -2 1417.65   24.86   1 
  -2  -4   7   65.04    4.16   1 
   1   7   2   46.60    6.60   1 
   2   3  11    0.46    9.31   1 
  -5  -5   5    6.60    6.75   1 
  -4   5  -9   15.22    5.60   1 
  -3  -5  10   42.45    5.87   1 
  -3   6  -8   92.29    6.27   1 
  -2   5  -7    3.99    4.82   1 
   0   6  -3   18.73    5.20   1 
   1   0   4  442.74   11.13   1 
   1   0  16    5.72    5.81   1 
   1   3   0   14.41    5.32   1 
   1   5   0  168.88    6.16   1 
  -6   3  -9  193.02    8.62   1 
  -4  -4   2 1073.87   12.32   1 
  -4   1  -7  103.38    5.97   1 
  -3  -5   9  170.02    7.06   1 
  -3   2  -7  329.39    7.48   1 
  -3   4  -8   51.67    4.02   1 
  -2  -4   6   10.15    4.97   1 
  -2  -3   2  853.33   10.51   1 
  -1  -3   5   99.72    4.40   1 
   0  -1   2  327.29   10.44   1 
   0   3  -3   -0.37    4.81   1 
   0   8   0    4.92    6.12   1 
   1   7   3   80.98    7.07   1 
  -6  -5   4    3.57    6.00   1 
  -5  -4   1   46.92    6.83   1 
  -5   4  -9   12.55    5.41   1 
  -2   8  -5   32.39    6.52   1 
  -1   3  -5  429.29    6.83   1 
  -1   7  -4   81.35    6.03   1 
  -1   8  -3   65.06    4.99   1 
   1   0  17    3.91    5.89   1 
   1   4   0    1.96    4.45   1 
   2   2   9    8.76    7.01   1 
   2   2  10   23.48    7.23   1 
  -5   2  -8  402.90    8.96   1 
  -4  -3  -1    0.44    6.41   1 
  -3  -5   8    9.03    5.62   1 
  -3  -4   3   29.12    4.69   1 
  -3   7  -7   20.04    4.31   1 
  -2   1  -5  518.16    8.73   1 
  -1   4  -5   61.82    5.02   1 
  -1   5  -5   83.89    5.19   1 
   0  -3  12   20.11    5.24   1 
   0   4  -3   96.01    5.29   1 
   1   7   4   81.95    8.48   1 
   2   2   8   32.23    8.95   1 
   2   2  11   68.69    8.60   1 
   2   3  12    0.57    9.42   1 
  -6  -3  -2   10.71   10.29   1 
  -5  -5   4  311.86   10.22   1 
  -5  -1  -5    2.17    7.65   1 
  -4   3  -8   85.93    5.47   1 
  -3  -3   0  995.66   13.33   1 
  -3   0  -5  163.50    7.16   1 
  -2  -4   5  125.90    5.78   1 
  -1  -4  15   -3.20    5.74   1 
   0  -3  10    4.37    4.73   1 
   0  -3  11   10.19    3.50   1 
   0  -3  13   32.02    5.43   1 
   0  -3  14   37.80    5.67   1 
   0   6  -2  137.87    5.98   1 
   0   8   1   60.61    7.30   1 
  -6   2  -8   76.72    7.67   1 
  -4  -5   5  184.83    6.86   1 
  -3  -5   7   11.32    5.40   1 
  -3   6  -7  302.76    7.26   1 
  -2  -5  15    5.62    6.04   1 
  -2   3  -6  118.97    5.52   1 
  -2   8  -4   94.25    7.33   1 
  -1  -4  16   13.34    5.98   1 
  -1  -3   4 1061.39   10.91   1 
   0  -3   9   32.07    4.83   1 
   0  -3  15   19.74    5.83   1 
   1   2   1  316.39   10.71   1 
   1   5   1  134.10    6.07   1 
   1   7   5   18.55    7.57   1 
   2   2  12    2.85    6.37   1 
  -4  -6  11   90.03    8.43   1 
  -4   5  -8    4.26    3.54   1 
  -2  -5  11   -0.93    3.98   1 
  -2   5  -6  173.24    5.91   1 
  -1  -4   8 1171.73   10.78   1 
  -1   2  -4    3.84    4.74   1 
  -1   7  -3   69.46    6.06   1 
   0  -3  16   -0.90    5.83   1 
   0   8   2    1.00    6.26   1 
  -6  -5   3   -0.89    6.13   1 
  -5  -6   8    0.33    6.24   1 
  -5   6  -8   19.86    5.98   1 
  -4  -6  10  106.19    7.81   1 
  -4   7  -7   -3.17    4.20   1 
  -3  -5   6   -1.78    5.01   1 
  -3   4  -7   14.02    4.58   1 
  -3   5  -7  441.43    7.96   1 
  -3   7  -6   -1.04    5.64   1 
  -2  -5  10    1.40    3.89   1 
  -2   4  -6  682.64    7.75   1 
  -1  -2   1 1868.99   17.67   1 
   0  -3   8   11.24    4.72   1 
   0  -3  17    7.60    5.94   1 
   0   5  -2   25.46    4.99   1 
   1   7   6    3.20    6.42   1 
   2   2  13   14.76    8.07   1 
  -5   0  -6  170.69    7.86   1 
  -4  -6   9   38.11    6.67   1 
  -2  -4   4  148.27    5.54   1 
  -1   8  -1   -2.03    5.83   1 
   0   6  -1  367.72    7.75   1 
   0   8   3   12.73    6.75   1 
   1  -2  11  204.83    6.42   1 
   1  -2  12   88.92    5.67   1 
   1  -2  13   97.73    6.28   1 
   1   4   1  130.45    6.87   1 
   2   1  10  561.68   12.93   1 
   2   1  11  148.42    8.15   1 
  -7   1  -7   34.72    6.31   1 
  -6   3  -8    7.96    5.49   1 
  -5  -6   7   -2.44    5.90   1 
  -5   4  -8   23.23    5.50   1 
  -4  -5   4  104.84    5.70   1 
  -4  -4   1    2.00    4.96   1 
  -3  -6  13   30.60    8.28   1 
  -2   6  -5    4.12    4.96   1 
  -2   8  -3   53.84    6.82   1 
   0  -3   7  159.79    5.87   1 
   1  -2  10   87.76    5.52   1 
   1  -2  14   19.08    5.35   1 
   2   1  12    9.08    5.32   1 
  -3  -6  12   19.39    5.30   1 
  -2  -5   8    1.23    3.60   1 
   0   3  -2   30.82    3.78   1 
  -7   1  -4   38.69    5.81   1 
  -6  -5   4    9.65    5.93   1 
  -6  -3   0   36.91    5.36   1 
  -6   3  -5  164.27    6.66   1 
  -5  -6   7   -0.11    5.79   1 
  -5  -5   4  314.75    8.01   1 
  -5  -3   0    2.52    4.53   1 
  -4  -4   2 1053.46   10.80   1 
  -3  -5   5   48.44    5.33   1 
  -2  -6  10   65.16    8.49   1 
   0   6   0  134.04    6.71   1 
   2  -3  13    5.19    5.30   1 
   2   6   7   13.00    5.71   1 
   3   1   9   -6.64    4.89   1 
   3   4  11   64.96    5.25   1 
  -7  -2  -1   18.57    5.33   1 
  -6  -4   2   19.81    5.50   1 
  -5  -4   2  151.64    6.12   1 
  -5   4  -5   95.16    6.27   1 
  -4   1  -4  208.92    5.91   1 
  -3  -1  -2  764.88    9.53   1 
  -3   0  -3   53.12    3.79   1 
  -2   1  -3   20.05    4.79   1 
  -1  -5   8    5.78    6.65   1 
   0   8   3    8.20    6.79   1 
   1   7   4   61.76    6.74   1 
   2  -3  12   28.32    6.62   1 
   2  -1   6  892.02   10.76   1 
   2   6   6  117.59    6.87   1 
   3   0  10   -3.67    4.82   1 
   3   3   8    6.70    4.91   1 
  -7  -1  -2   88.47    5.98   1 
  -6   1  -4    6.94    4.83   1 
  -4  -6   8   20.61    7.09   1 
  -2  -2   0 1173.70   12.54   1 
  -1  -4   5   25.34    5.73   1 
  -1  -2   1 1588.27   17.00   1 
   0   5  -1   13.27    4.61   1 
   1   5   1  158.58    5.93   1 
   2   2   3  407.49    7.35   1 
   2   3   3   77.73    5.50   1 
   3   1   8  217.33    6.44   1 
  -8   1  -3   53.15    5.01   1 
  -7  -4   3   41.31    6.25   1 
  -7  -3   1    0.15    5.46   1 
  -6  -2  -1   80.27    4.71   1 
  -4  -2  -1   65.40    3.77   1 
  -3  -4   3   25.91    5.59   1 
  -3  -3   1  134.71    5.73   1 
  -3   2  -4    3.74    4.44   1 
  -2   6  -3   30.37   10.36   1 
  -2   8  -1   21.36    9.31   1 
  -1   7  -1   59.15    7.42   1 
   2   4   3  352.83    7.08   1 
   3   0   9   32.20    3.78   1 
   3   2   7  185.65    5.14   1 
   3   3   7   11.08    5.07   1 
   3   5  10    8.43    6.15   1 
  -8  -1  -1   -0.16    5.71   1 
  -8   0  -2   -1.16    5.29   1 
  -6  -5   5   46.45    6.16   1 
  -6   0  -3  120.39    5.60   1 
  -5  -6   8    2.64    5.88   1 
  -5  -5   5    4.70    5.22   1 
  -4  -5   5  175.67    6.78   1 
  -4  -1  -2   59.82    4.74   1 
  -4   0  -3  322.65    6.87   1 
  -1  -6  14   11.26   13.99   1 
   1   7   3   92.06    6.92   1 
   2  -3  11   28.55    6.20   1 
   2   6   5   43.54    6.45   1 
   3   5   9   64.49    6.97   1 
  -7   3  -4   15.91    5.56   1 
  -6  -4   3   13.15    5.26   1 
  -6  -3   1  594.76    9.04   1 
  -5  -1  -2  109.14    5.24   1 
  -5   0  -3   88.54    5.18   1 
  -4   6  -4   49.31   10.31   1 
  -3   8  -2  130.58   15.95   1 
  -2  -4   4  157.27    6.13   1 
   0   8   2    0.31    6.00   1 
   1  -4  10    2.97    8.00   1 
   3   0   8    3.60    4.45   1 
   3   2   6  229.68    6.77   1 
   3   3   6  353.82    7.01   1 
   3   5   8   59.47    6.35   1 
  -7  -2   0  132.06    6.24   1 
  -7   1  -3   11.98    5.39   1 
  -7   4  -4    1.08    6.99   1 
  -6   2  -4   42.55    5.38   1 
  -5  -3   1  347.72    7.17   1 
  -4  -4   3   38.85    5.00   1 
  -4  -3   1   21.48    4.51   1 
  -3  -5   6    1.03    5.79   1 
  -3   5  -4  241.82   13.06   1 
  -2  -6  11   77.15    8.76   1 
  -2  -3   2  867.69   10.61   1 
  -2  -1  -1  753.47   10.31   1 
  -1   8   0   14.49    7.77   1 
   1   3   0   14.70    4.21   1 
   1   4   0    1.83    5.05   1 
   2   1   3   37.97    4.71   1 
   2   6   4   45.68    5.74   1 
   3  -2  15   39.45    7.67   1 
  -7  -4   4   84.51    6.76   1 
  -7  -1  -1   20.65    5.18   1 
  -5  -4   3  345.63    7.19   1 
  -5   2  -4  157.34    5.93   1 
  -4  -6   9   33.17    6.59   1 
   2   3   2  127.00    5.58   1 
   3  -2  14   85.29    6.72   1 
   3   5   7   65.94    4.91   1 
  -8   1  -2   -0.49    6.14   1 
  -7  -3   2   18.02    4.11   1 
  -6  -5   6   64.64    6.58   1 
  -6  -2   0   83.79    5.59   1 
  -5   6  -4    4.18    7.08   1 
  -3  -2   0    5.51    4.29   1 
   1   7   2   57.62    5.99   1 
   2   4   2  209.85    6.28   1 
   3  -2  13  105.26    6.68   1 
   3   0   7   23.59    4.88   1 
   3   1   6  750.07    8.87   1 
   3   3   5  136.01    5.70   1 
   4   2  12   59.78    6.26   1 
   4   2  13   18.26    5.96   1 
  -8  -1   0    4.79    4.05   1 
  -8   0  -1   18.45    5.89   1 
  -6   1  -3   -0.31    4.90   1 
  -6   3  -4  123.55    6.29   1 
  -6   5  -4   -0.74    7.04   1 
  -5  -5   6   30.13    5.51   1 
  -4  -5   6  228.43    6.93   1 
  -1  -1   0   44.48    5.85   1 
   0   6  -1  349.68    8.65   1 
   1   5   0  187.90    6.16   1 
   2  -3  10  312.57    8.89   1 
   2  -1   5  581.61    9.26   1 
   2   2   2  283.38    6.79   1 
   2   7   5   11.79    6.62   1 
   3  -2  12   83.43    6.94   1 
   3   2   5   10.53    4.41   1 
   3   5   6    5.65    3.79   1 
   4   1  13   10.54    5.52   1 
   4   2  11   73.53    6.11   1 
  -6  -4   4   15.62    5.51   1 
  -6  -3   2  162.00    6.45   1 
  -6   0  -2   54.22    4.95   1 
  -4  -2   0  213.06    5.64   1 
  -3   4  -4   68.24    7.33   1 
   0   8   1   66.13    8.31   1 
   1   2   0  388.49    8.72   1 
   2   6   3    6.31    5.13   1 
   3   6   7   55.37    6.72   1 
   4   2  10   -1.24    5.32   1 
   4   3  10  185.35    7.14   1 
  -8  -2   2    1.60    5.83   1 
  -7  -4   5   77.56    6.72   1 
  -7  -2   1   25.69    3.95   1 
  -6  -5   7   28.15    6.51   1 
  -5   1  -3   92.46    5.35   1 
  -4  -6  10  138.93    8.27   1 
  -4   3  -4  115.02    6.58   1 
  -3  -4   4    9.38    4.46   1 
  -3  -3   2  129.40    4.97   1 
  -2  -6  12   23.90    9.20   1 
  -1   0  -1   74.05    6.57   1 
   2   7   4   44.41    6.37   1 
   3  -2  11   18.46    6.31   1 
   3   5   5   19.52    5.27   1 
   4   0  13   44.35    6.38   1 
   4   0  14   51.65    6.67   1 
   4   4  10   38.28    6.29   1 
  -8   2  -2   37.70    6.05   1 
  -7  -3   3   11.41    5.54   1 
  -7   1  -2   16.79    5.23   1 
  -5  -4   4  436.90    8.07   1 
  -5  -3   2  173.11    6.08   1 
  -5  -1  -1  171.76    5.63   1 
  -4  -4   4    6.33    4.58   1 
  -4   1  -3   -3.48    3.99   1 
  -3  -5   7   12.16    6.15   1 
  -3  -1  -1 1071.41   10.12   1 
  -3   0  -2   40.33    4.74   1 
  -1  -5   9  229.89   11.09   1 
   3   3   4  163.65    5.63   1 
   3   6   6    2.99    5.99   1 
   4   0  12   26.23    5.45   1 
   4   1  10  188.89    5.52   1 
   4   2   9   11.42    3.78   1 
   4   4   9   22.87    6.09   1 
  -8  -1   1    3.14    5.49   1 
  -7  -1   0    0.53    3.48   1 
  -7   3  -3   70.71    6.34   1 
  -5  -5   7  187.06    7.40   1 
  -5   0  -2  146.73    4.45   1 
  -5   4  -4  106.65    6.24   1 
  -4  -3   2   62.43    4.93   1 
  -4  -1  -1  647.68    8.11   1 
  -4   5  -4  169.09    9.01   1 
  -3  -6  11   24.83    6.47   1 
   0   4  -2  136.96    7.16   1 
   1   7   1    8.98    5.28   1 
   3   0   6   57.74    5.06   1 
   3   2   4  369.66    6.94   1 
   4   0  11   79.82    5.97   1 
   4   2   8   77.11    5.47   1 
   4   3   8   26.77    5.48   1 
  -8   0   0   58.48    6.41   1 
  -8   1  -1   19.95    5.50   1 
  -7   4  -3   -1.22    6.81   1 
  -6  -4   5   39.03    5.75   1 
  -6  -2   1   49.39    5.00   1 
  -6   2  -3   21.38    5.10   1 
  -4  -6  11  160.40   10.02   1 
  -4  -5   7  319.30    7.83   1 
  -4   0  -2  690.27    8.17   1 
  -2  -4   5  132.82    6.78   1 
  -2  -2   1 5686.39   25.57   1 
   2   4   1   64.84    4.77   1 
   2   6   2   34.53    5.44   1 
   3  -2  10   28.99    6.05   1 
   3   5   4  187.13    6.63   1 
   3   6   5    9.52    5.72   1 
   4   4   8   -0.89    4.04   1 
  -7  -4   6   31.93    6.40   1 
  -7  -2   2   43.26    5.47   1 
  -6  -5   8    6.18    6.03   1 
  -6  -3   3    0.59    4.92   1 
  -2  -5   8    3.46    4.70   1 
  -1   8  -1   -0.48    7.26   1 
   1   8   2   69.31    7.77   1 
   2  -3   9  203.08    8.85   1 
   2   1   2   10.18    4.79   1 
   2   3   1 1105.19   10.72   1 
   2   7   3    9.87    6.01   1 
   4  -1  13    3.79    6.89   1 
   4  -1  14    4.49    5.70   1 
   4   0  10   12.30    4.85   1 
   4   3   7    5.63    5.32   1 
   4   4   7   74.02    6.18   1 
   4   5   8    5.72    5.95   1 
  -8  -2   3   43.29    4.57   1 
  -7  -3   4   19.76    5.45   1 
  -1  -4   6  225.46    8.51   1 
  -1   7  -2  202.70    9.44   1 
   0   5  -2   30.60    5.57   1 
   1  -5  15   39.80   13.29   1 
   3   3   3  343.18    6.72   1 
   4   1   8   60.47    4.24   1 
   4   2   7  194.23    6.17   1 
  -8   2  -1   60.63    6.78   1 
  -7   2  -2   76.67    6.16   1 
  -6   0  -1   43.89    5.17   1 
  -6   3  -3   25.89    5.18   1 
  -5  -5   8  120.91    7.86   1 
  -5  -4   5  172.94    6.40   1 
  -5   2  -3  329.47    7.03   1 
  -3  -6  12   43.86    8.38   1 
  -2  -6  13    7.97    8.93   1 
  -2  -3   3 1038.35   11.28   1 
  -1   4  -3  983.68   28.88   1 
   0   3  -2   41.24    6.12   1 
   0   8   0    1.78    5.97   1 
   1   4  -1  187.53    6.38   1 
   3   6   4   13.83    5.69   1 
   4  -1  12    6.85    5.42   1 
   4   0   9  208.32    6.71   1 
   4   5   7    1.59    5.78   1 
  -8  -1   2   43.43    5.96   1 
  -7  -1   1  171.39    6.15   1 
  -5  -3   3    2.88    4.68   1 
  -4  -4   5   44.50    5.00   1 
  -4  -2   1  131.41    5.24   1 
  -3  -5   8   10.81    6.21   1 
  -3  -4   5    3.51    4.44   1 
  -3  -2   1   18.01    4.42   1 
  -2   8  -2   11.11    9.97   1 
   1   5  -1   97.37    6.08   1 
   2   2   1  135.93    5.81   1 
   2   7   2   61.77    7.24   1 
   3  -2   9   50.68    5.11   1 
   3   0   5  192.56    5.92   1 
   3   5   3  309.53    7.44   1 
   4  -1  11   35.64    5.33   1 
   4   1   7  119.30    5.64   1 
   4   4   6   49.06    5.56   1 
  -8   0   1   57.22    5.81   1 
  -8   1   0   51.62    6.20   1 
  -7   1  -1   85.92    5.90   1 
  -6  -4   6  113.85    6.30   1 
  -6  -2   2   61.65    5.03   1 
  -5  -1   0  201.74    5.70   1 
  -4  -5   8   85.76    6.13   1 
  -3   2  -3   57.04    4.80   1 
  -1   5  -3   33.98    8.65   1 
   1   3  -1  172.16    5.99   1 
   1   7   0  162.05    6.88   1 
   2   6   1  202.56    6.98   1 
   3   2   3  626.44    7.36   1 
   4   2   6  160.88    5.86   1 
   4   5   6    2.51    5.83   1 
  -8  -2   4   12.50    4.28   1 
  -7  -3   5    3.86    5.48   1 
  -7  -2   3    0.70    5.04   1 
  -7   3  -2  104.93    6.59   1 
  -6  -3   4   10.32    4.93   1 
  -6   5  -3    2.03    6.75   1 
  -5   1  -2    4.69    4.29   1 
  -4  -3   3   15.86    3.14   1 
  -3  -3   3  826.59    9.19   1 
  -2  -1   0  138.88    5.97   1 
   0   6  -2  145.89    7.68   1 
   1  -2   4    5.33    6.50   1 
   1   8   1   76.88    7.30   1 
   2  -1   4   81.62    5.20   1 
   3   6   3   11.97    5.44   1 
   4   4   5   81.74    5.79   1 
  -5  -5   9   40.65    7.14   1 
  -4  -1   0 1071.96   10.26   1 
  -4   7  -3    3.46    9.97   1 
  -3  -6  13  142.88   10.30   1 
  -1  -2   2   33.66    4.78   1 
   3   7   4    8.05    6.09   1 
   4  -1  10   13.25    5.04   1 
   4   3   5  130.66    4.61   1 
   5   1  12   27.16    6.09   1 
   5   3  10    0.65    4.20   1 
  -8  -1   3   47.19    6.01   1 
  -7   4  -2    9.10    5.51   1 
  -6   2  -2   13.25    3.62   1 
  -5  -4   6   32.89    5.39   1 
  -4   1  -2  303.73    6.63   1 
  -3  -1   0  525.67    7.69   1 
  -2  -5   9    8.44    6.02   1 
  -2   1  -2  189.07    6.93   1 
   1   0   1   77.12    6.72   1 
   1   1   0   39.11    5.77   1 
   2   4   0   13.65    4.32   1 
   3   3   2   28.05    4.49   1 
   3   5   2  232.48    6.79   1 
   4   1   6  886.16    8.95   1 
   4   2   5   35.45    4.96   1 
   4   5   5   43.33    4.43   1 
   5   1  11    4.85    5.75   1 
   5   3   9    6.11    5.70   1 
  -8   2   0   24.92    5.98   1 
  -7  -1   2  113.64    5.95   1 
  -6  -4   7   48.27    5.67   1 
  -5  -3   4   14.03    4.79   1 
  -4   0  -1   91.95    5.02   1 
  -2   0  -1   77.39    5.75   1 
   1  -5  14   88.44   18.04   1 
   2   3   0  566.99    8.56   1 
   2   7   1    3.09    5.47   1 
   3  -2   8  645.54    9.61   1 
   4  -1   9    7.83    5.87   1 
   5   1  10    8.10    5.57   1 
   5   2   9    0.95    5.57   1 
  -8   0   2    9.31    5.34   1 
  -8   1   1   67.80    6.33   1 
  -7  -3   6    7.43    5.42   1 
  -6   0   0   26.15    3.56   1 
  -5   4  -3   54.35    6.32   1 
  -5   6  -3   15.87    7.19   1 
  -4  -5   9    3.94    5.22   1 
  -4  -4   6    9.17    4.47   1 
  -3  -5   9  183.52    8.00   1 
  -2  -4   6    7.99    4.29   1 
  -1  -5  10   71.44    8.86   1 
   1  -4   9  106.85   15.86   1 
   2  -3   8   68.72    6.70   1 
   3   1   3    2.93    3.03   1 
   3   6   2   29.79    5.60   1 
   3   7   3   17.52    5.89   1 
   4   4   4  261.05    6.93   1 
   4   6   5    8.51    5.90   1 
   5   3   8   40.90    6.02   1 
   5   4   8    4.79    6.10   1 
  -7  -2   4    1.07    5.04   1 
  -7   1   0   82.70    4.62   1 
  -6  -3   5   31.08    4.99   1 
  -6  -2   3   40.15    3.72   1 
  -5  -5  10   32.77    6.17   1 
  -4   3  -3  142.67    5.61   1 
  -3  -4   6    7.39    4.36   1 
  -3   0  -1    7.40    3.11   1 
   0   8  -1   29.90    7.82   1 
   2   6   0  245.56    7.15   1 
   3   0   4  176.89    5.69   1 
   3   2   2 1666.63   11.74   1 
   4   5   4  118.63    5.19   1 
   5   1   9  100.47    6.15   1 
   5   2   8    5.41    5.30   1 
  -8  -1   4   16.88    5.50   1 
  -6   3  -2    7.05    4.65   1 
  -5  -4   7   33.50    5.24   1 
  -5  -1   1   -1.45    4.17   1 
  -5   2  -2  490.91    7.96   1 
  -4  -2   2  306.80    5.75   1 
   0   1  -1   19.02    9.47   1 
   1   8   0   17.52    6.32   1 
   2   1   1  862.80   10.62   1 
   4   1   5 1118.40    9.80   1 
   4   2   4  108.20    5.29   1 
   5   0  11   41.28    4.40   1 
   5   3   7   74.33    5.99   1 
   5   4   7   70.07    6.34   1 
  -7   3  -1  182.77    7.15   1 
  -6  -4   8    3.79    5.56   1 
  -3  -2   2 2544.95   15.65   1 
  -2  -2   2 1218.32   12.46   1 
  -2   3  -3  355.81   10.53   1 
   1   7  -1   92.04    6.23   1 
   3   4   1  400.30    7.10   1 
   3   5   1  101.58    5.63   1 
   4  -1   8    2.37    4.65   1 
   4   0   6    7.17    4.59   1 
   4   6   4   -0.82    5.99   1 
  -8   0   3   84.98    6.31   1 
  -8   2   1   -0.95    5.57   1 
  -7  -3   7    9.83    5.82   1 
  -7  -1   3   25.72    5.16   1 
  -5   0   0   65.00    4.80   1 
  -5   1  -1   63.41    4.63   1 
  -4  -5  10  106.46    7.17   1 
  -3  -3   4   17.44    4.13   1 
  -2  -3   4  702.99   10.06   1 
   0  -3   5  175.43   11.43   1 
   1   2  -1 1928.59   17.54   1 
   3   3   1    2.77    4.41   1 
   3   7   2   -3.32    5.89   1 
   4   4   3   36.54    3.77   1 
   4   5   3  112.20    6.08   1 
   5  -1  13   10.31    6.54   1 
   5   1   8   18.41    5.31   1 
   5   3   6   13.64    5.40   1 
   5   4   6   84.82    6.36   1 
  -7  -2   5    1.86    5.10   1 
  -7   4  -1   17.02    5.70   1 
  -6  -3   6   41.01    5.43   1 
  -6   2  -1   11.59    4.83   1 
  -5  -5  11    1.25    5.74   1 
  -5  -3   5   37.87    5.03   1 
  -2  -5  10    1.15    6.08   1 
   2   2   0 1172.14   11.92   1 
   2   7   0   46.15    6.14   1 
   3   6   1    0.26    5.23   1 
   5  -1  12   55.11    6.65   1 
   5   5   6   12.34    5.92   1 
  -8  -1   5   32.33    5.89   1 
  -7   1   1  179.44    6.48   1 
  -6  -4   9    7.15    5.65   1 
  -6  -2   4   89.45    5.43   1 
  -6   0   1  190.11    5.86   1 
  -6   5  -2   25.99    5.77   1 
  -4  -4   7   26.13    4.82   1 
  -4  -1   1  559.11    7.88   1 
  -3  -5  10   55.60    5.88   1 
  -1  -4   7  659.10   12.86   1 
   1   5  -2    3.26    4.45   1 
   3  -2   7  303.68    7.33   1 
   4   6   3    6.80    5.79   1 
   5   0   9   49.40    5.80   1 
   5   1   7   87.63    5.43   1 
   5   2   6    2.37    5.22   1 
  -5  -4   8  238.20    7.02   1 
   1   4  -2  811.05   11.07   1 
   2   4  -1  507.59    7.96   1 
   4  -1   7  118.50    5.65   1 
   4   1   4  595.71    7.64   1 
   4   2   3    2.26    4.20   1 
   5  -1  11   65.81    6.18   1 
   5   3   5   76.32    5.71   1 
   5   4   5   63.31    4.65   1 
   5   5   5   11.34    5.62   1 
  -7  -3   8    6.98    5.89   1 
  -7  -1   4  201.54    6.32   1 
  -4  -5  11  172.68    8.01   1 
  -4   5  -3   57.68    6.68   1 
  -3  -4   7   -1.30    4.37   1 
   0  -2   3   25.57    7.95   1 
   2   6  -1   42.92    5.25   1 
   3   2   1  430.92    7.17   1 
   3   7   1    1.25    5.47   1 
   4  -3  14   19.59    6.57   1 
   4   0   5  216.70    6.03   1 
   4   4   2   42.60    5.08   1 
   4   5   2   -5.96    4.93   1 
   5   0   8  233.15    6.87   1 
  -8   0   4   14.54    4.05   1 
  -8   2   2   14.72    5.74   1 
  -7  -2   6    5.32    5.24   1 
  -7   3   0  209.50    7.01   1 
  -5  -1   2   59.28    4.60   1 
  -4  -3   5  308.34    6.79   1 
  -4  -2   3   72.77    4.78   1 
  -4   0   0  214.31    5.06   1 
  -4   1  -1 1050.63   10.27   1 
  -3  -1   1  161.04    5.46   1 
  -2  -4   7   64.62    5.45   1 
   1   8  -1    7.88    7.23   1 
   2  -1   3   17.21    4.69   1 
   3   0   3   63.13    3.67   1 
   3   5   0  142.89    5.76   1 
   5  -1  10    4.22    5.30   1 
   6   2   9   -0.82    5.84   1 
  -8  -1   6  100.32    6.80   1 
  -8   1   3    2.93    4.01   1 
  -6  -4  10   -0.16    5.67   1 
  -6  -3   7    8.96    3.87   1 
  -6   3  -1   96.02    5.53   1 
  -5  -3   6   66.85    5.39   1 
  -1  -5  11    1.03    6.10   1 
  -1  -1   1   69.51    6.00   1 
   2   3  -1 1299.50   11.91   1 
   2   8   0   26.79    6.45   1 
   3  -4  14   18.68    7.90   1 
   3   6   0   46.57    5.32   1 
   4  -3  13    3.45    5.74   1 
   4   6   2    8.95    5.65   1 
   5   1   6  117.92    5.56   1 
   5   4   4    1.58    5.30   1 
   5   5   4   12.49    5.96   1 
  -7  -3   9    7.78    6.00   1 
  -6  -2   5   47.00    3.85   1 
  -5  -4   9  196.17    6.95   1 
  -5   2  -1  140.82    5.47   1 
  -4  -4   8  297.74    7.35   1 
  -3  -5  11   58.08    6.08   1 
  -3   2  -2 1377.98   13.28   1 
  -3   4  -3  122.33    6.96   1 
   0  -5  12   41.01   11.73   1 
   0   8  -2    8.69    8.21   1 
   2   7  -1    0.42    6.29   1 
   5  -2  13   44.07    8.18   1 
   5   3   4   10.16    5.03   1 
   6   2   8   22.71    5.98   1 
  -7   1   2   53.25    5.19   1 
  -7   4   0   29.27    5.75   1 
  -6   0   2  591.07    8.08   1 
  -6   2   0   72.85    5.51   1 
  -5   0   1   13.64    3.00   1 
  -5   1   0    3.03    4.30   1 
  -5   4  -2    5.69    4.91   1 
  -4  -5  12  117.71    7.53   1 
  -3  -3   5    0.86    4.00   1 
  -2  -5  11    1.35    6.31   1 
  -2  -1   1   17.77    3.65   1 
   0   5  -3   61.65    6.46   1 
   1   7  -2  118.86    7.85   1 
   3   3   0  811.33    8.54   1 
   4  -1   6  552.13    7.99   1 
   4   1   3  172.34    5.52   1 
   5  -1   9  126.98    6.61   1 
   5   0   7  434.29    7.15   1 
   6   1   9   46.49    6.45   1 
   6   3   7   17.72    6.18   1 
  -8   0   5   26.49    4.22   1 
  -7  -2   7    3.87    5.24   1 
  -7  -1   5    9.87    5.01   1 
  -6  -4  11    5.50    5.74   1 
  -6  -3   8   -0.48    5.25   1 
  -5   6  -2  102.66    8.16   1 
  -3  -2   3 2117.28   13.96   1 
  -3   0   0  200.43    6.10   1 
  -1   7  -3   83.49    9.75   1 
   0   6  -3   30.57    6.84   1 
   1   3  -2  445.89    8.82   1 
   2  -3   7  580.29   12.49   1 
   3   7   0    2.62    5.72   1 
   4  -3  12    3.68    5.99   1 
   4   2   2   59.74    3.52   1 
   4   4   1  102.64    5.38   1 
   4   5   1   31.95    5.21   1 
   5  -2  12   43.30    7.56   1 
   5   1   5    1.47    4.73   1 
   5   2   4   10.11    4.66   1 
   5   4   3  107.59    6.00   1 
   5   5   3   86.28    6.28   1 
  -8   1   4   23.61    5.79   1 
  -8   2   3    9.35    5.35   1 
  -4  -1   2  146.07    5.29   1 
  -4   3  -2  191.21    5.88   1 
  -3   1  -1 1499.41   13.50   1 
   3  -4  13    0.96    7.01   1 
   3  -2   6   66.19    5.14   1 
   4   6   1   46.66    6.04   1 
   6   0  10   31.07    6.51   1 
   6   2   7   44.26    4.60   1 
   6   3   6    6.51    5.64   1 
  -7   3   1   33.28    5.58   1 
  -6  -2   6   97.83    5.52   1 
  -6   5  -1   39.48    5.65   1 
  -5  -4  10   47.74    5.84   1 
  -5  -3   7  370.54    7.27   1 
  -4  -5  13   11.04    6.17   1 
  -3  -5  12   95.50    8.18   1 
  -3   5  -3  547.15   13.15   1 
  -3   6  -3   10.19    7.75   1 
  -2  -3   5  601.86    9.51   1 
   4   3   1    1.10    4.32   1 
   5   0   6  201.23    6.58   1 
   5   3   3    1.82    3.23   1 
  -8   0   6   19.87    5.72   1 
  -7  -2   8   17.05    5.26   1 
  -5  -1   3   77.29    3.68   1 
  -4  -4   9   88.80    5.86   1 
  -4  -2   4   11.69    4.48   1 
  -2  -2   3  381.69    7.72   1 
   0   4  -3   94.20    7.40   1 
   2   1   0  133.22    6.21   1 
   2   6  -2   40.30    6.05   1 
   2   8  -1   34.72    7.61   1 
   3   5  -1   -1.05    4.54   1 
   4  -3  11   67.16    7.35   1 
   5  -2  11    0.93    5.50   1 
   6   2   6   25.37    5.53   1 
   6   4   5  124.31    7.06   1 
  -7  -1   6   11.15    5.04   1 
  -7   1   3   19.52    5.13   1 
  -6  -3   9    1.98    5.20   1 
  -6   3   0   38.93    4.96   1 
  -2   0   0  182.41    6.80   1 
   2   4  -2   74.14    4.77   1 
   3   2   0    3.77    4.39   1 
   3   4  -1   33.72    4.53   1 
   3   6  -1   21.57    5.12   1 
   5   4   2  265.06    7.19   1 
   5   5   2  261.81    7.69   1 
   6   0   9   13.67    4.03   1 
   6   1   7    3.76    5.41   1 
   6   3   5  281.08    7.47   1 
  -8   1   5    5.66    5.48   1 
  -8   2   4   11.58    5.88   1 
  -7   4   1   13.20    5.62   1 
  -6   0   3  308.96    6.64   1 
  -5  -4  11   11.44    5.63   1 
  -4   0   1   33.63    4.42   1 
  -4   2  -1  181.99    5.79   1 
  -2  -5  12    2.80    6.55   1 
  -2   4  -3  173.82    9.75   1 
  -1  -5  12  132.41    9.97   1 
   1   8  -2   54.69    8.15   1 
   2   2  -1 4981.18   23.08   1 
   3   0   2   40.30    4.57   1 
   4  -1   5  612.78    8.18   1 
   4   5   0  118.37    5.68   1 
   5  -2  10   15.13    6.38   1 
   5   1   4    7.39    3.27   1 
   5   2   3   50.88    3.70   1 
   5   6   2   11.31    5.99   1 
  -6   2   1  126.55    5.74   1 
  -5   0   2    3.28    4.14   1 
  -4   1   0 1563.56   12.02   1 
  -3  -5  13    0.46    7.15   1 
  -1  -4   8 1195.33   17.27   1 
   0   2  -2  124.71    9.66   1 
   2   7  -2    0.94    6.56   1 
   3  -4  12    3.67    6.86   1 
   3   7  -1   -0.44    5.18   1 
   4   1   2   51.93    3.54   1 
   4   2   1   94.97    4.88   1 
   4   4   0    9.47    3.35   1 
   4   6   0   59.35    6.00   1 
   5   3   2   -0.22    4.67   1 
   6   0   8   -0.82    5.49   1 
   6   2   5   38.69    5.39   1 
   6   4   4   64.54    6.64   1 
  -8   0   7   23.90    6.02   1 
  -7  -2   9   46.07    5.95   1 
  -6  -3  10    6.89    5.58   1 
  -6  -2   7   21.84    3.66   1 
  -5  -3   8  108.27    4.60   1 
  -5   1   1   32.72    4.34   1 
  -5   2   0    8.93    4.19   1 
  -4  -4  10   23.70    5.26   1 
  -3  -3   6  174.19    5.68   1 
  -3  -1   2   13.54    4.08   1 
  -2   1  -1 3434.96   22.08   1 
   1   5  -3  212.40    7.58   1 
   3   3  -1  137.08    5.57   1 
   4  -3  10   73.11    7.43   1 
   5   0   5    4.53    3.33   1 
   6   1   6    5.29    5.14   1 
   6   3   4  290.81    7.55   1 
  -7  -1   7   64.73    5.85   1 
  -7   3   2    3.35    5.26   1 
  -5  -4  12   22.39    7.10   1 
  -4  -3   7  145.52    5.85   1 
  -4   7  -2    7.27    7.76   1 
   4   3   0    5.36    4.28   1 
   4   7   0   14.35    6.07   1 
   5   5   1   91.24    6.27   1 
  -8   1   6   -0.28    5.60   1 
  -8   2   5    5.69    5.63   1 
  -7   1   4    0.75    4.97   1 
  -5  -1   4  441.96    7.04   1 
  -5   4  -1   21.00    4.70   1 
  -4  -1   3    2.33    4.15   1 
  -3  -2   4  183.29    6.34   1 
  -1   0   0  165.55    8.37   1 
  -1   2  -2  565.17   17.87   1 
   2   3  -2  859.10    9.99   1 
   5  -2   9   99.22    6.38   1 
   5   1   3  261.94    6.35   1 
   5   4   1  196.69    6.56   1 
   5   6   1   53.03    6.48   1 
   6   0   7   32.42    5.71   1 
   6   4   3   57.45    6.19   1 
  -7  -2  10   62.47    6.60   1 
  -6   0   4   72.61    5.09   1 
  -6   5   0  153.44    7.31   1 
  -4  -2   5  361.05    6.70   1 
  -3  -5  14    7.60    6.22   1 
  -2  -5  13    2.37    6.71   1 
   1   7  -3  128.33    7.67   1 
   3  -2   5   94.19    5.40   1 
   3   5  -2   93.58    5.24   1 
   6  -1   9   80.40    6.30   1 
   6   1   5  354.98    7.53   1 
   6   2   4   -0.26    3.56   1 
   6   3   3  182.20    6.46   1 
  -7  -1   8   58.80    5.78   1 
  -7   4   2   31.30    5.83   1 
  -6  -3  11    8.87    4.19   1 
  -6  -2   8   52.19    4.06   1 
  -6   3   1   66.16    5.71   1 
  -5  -4  13   29.80    6.18   1 
  -5  -3   9   -2.12    4.96   1 
  -4  -4  11   34.36    5.34   1 
  -4   5  -2   -0.44    4.52   1 
   1   4  -3 1129.91   13.39   1 
   2   8  -2    4.08    5.79   1 
   3   6  -2   92.10    5.66   1 
   4   5  -1  318.74    7.21   1 
   4   6  -1   42.64    5.69   1 
   5   0   4    5.58    4.54   1 
   5   3   1   37.57    4.75   1 
  -5   6  -1  182.26    8.64   1 
  -3   0   1  834.14    9.62   1 
  -2  -3   6  776.59   11.13   1 
   1   1  -1   74.53    5.99   1 
   3  -4  11  127.84    9.79   1 
   4  -3   9  130.97    7.65   1 
   4  -1   4  249.29    5.92   1 
   4   4  -1    0.02    4.38   1 
   6   0   6   10.28    4.98   1 
   6   5   2    8.12    6.00   1 
   7   2   6  164.07    7.81   1 
  -7   1   5   21.71    5.16   1 
  -7   3   3  161.39    6.49   1 
  -6  -3  12   -3.25    5.48   1 
  -6   2   2  350.76    6.23   1 
  -5   0   3    3.94    2.78   1 
  -4   3  -1   72.67    5.49   1 
  -3  -4  10  157.79    6.52   1 
  -1  -5  13    3.27    6.77   1 
   0  -5  13    5.36    8.95   1 
   0   8  -3   35.41    8.71   1 
   2  -1   2  192.72    6.86   1 
   2   6  -3   15.77    4.93   1 
   3   1   0  541.26    7.64   1 
   3   2  -1   26.52    4.71   1 
   3   7  -2   12.00    5.44   1 
   4   1   1  539.10    6.78   1 
   4   2   0  208.66    5.50   1 
   4   7  -1   37.09    6.66   1 
   5  -2   8  378.37    8.32   1 
   5   5   0    8.01    5.30   1 
   5   6   0   11.87    6.31   1 
   6  -1   8   16.00    5.61   1 
   6   2   3   11.91    5.34   1 
   6   4   2    6.66    3.79   1 
   7   1   7   -4.39    5.49   1 
  -6  -2   9   15.35    5.19   1 
  -5  -3  10    6.98    5.12   1 
  -4   0   2  295.24    6.25   1 
  -3  -3   7   92.93    5.11   1 
  -3   2  -1  897.08   10.76   1 
  -2  -5  14   -1.48    7.06   1 
  -2  -1   2  272.42    7.19   1 
   1   2  -2   29.87    4.69   1 
   5   4   0  222.82    5.41   1 
   6   1   4  395.03    7.60   1 
   6   3   2   17.39    5.19   1 
  -7  -1   9    4.50    4.01   1 
  -6   0   5    9.85    4.64   1 
  -5  -1   5  318.92    5.72   1 
  -5   1   2   96.92    4.98   1 
  -5   2   1    3.01    4.24   1 
  -4  -4  12   -2.85    5.30   1 
  -3   8  -2  149.32   15.24   1 
   2   7  -3   29.83    6.69   1 
   3   0   1    5.30    4.47   1 
   4   0   2  902.63    9.33   1 
   4   3  -1   13.43    4.40   1 
   5   1   2  116.17    5.25   1 
   5   2   1    4.24    3.26   1 
   7   2   5   42.17    6.13   1 
   7   3   4    3.76    6.01   1 
  -4  -2   6  408.42    6.89   1 
  -4   1   1  797.41    8.94   1 
  -4   2   0  818.64    9.37   1 
  -2  -2   4   98.94    5.21   1 
   1   8  -3   36.05    7.36   1 
   2   4  -3  252.28    6.90   1 
   3   3  -2  135.24    5.43   1 
   5   3   0    4.14    4.41   1 
   6  -2  10    0.23    5.62   1 
   6  -1   7    4.51    5.33   1 
   6   0   5   50.43    5.55   1 
   6   4   1   95.06    6.10   1 
   6   5   1    4.22    5.64   1 
   7   1   6    2.23    5.42   1 
  -7  -1  10   48.68    5.93   1 
  -7   1   6   48.80    5.52   1 
  -7   4   3    9.65    5.22   1 
  -6  -2  10   38.86    5.38   1 
  -6   5   1   75.94    6.12   1 
  -4  -1   4   37.00    4.55   1 
  -3  -1   3  445.18    7.40   1 
  -2   5  -3  290.84   12.79   1 
  -1  -4   9  691.78   13.72   1 
   4   5  -2  418.85    8.06   1 
   4   6  -2    5.03    5.00   1 
   5  -2   7  186.96    6.59   1 
   5   0   3   95.76    4.98   1 
  -7   3   4  206.02    7.29   1 
  -6   2   3  190.15    6.09   1 
  -6   3   2   82.52    5.34   1 
  -5  -3  11   46.62    5.55   1 
  -5   4   0   91.83    5.67   1 
  -4  -4  13   23.01    5.92   1 
  -3  -4  11    9.79    4.93   1 
  -3  -2   5  116.80    5.21   1 
  -2  -5  15    4.72    6.28   1 
  -1  -5  14   -0.36    8.15   1 
   1   0   0  161.93    8.34   1 
   2  -3   6  119.78    7.80   1 
   2   1  -1   20.41    5.07   1 
   3   6  -3  205.56    7.52   1 
   4  -3   8   88.83    6.85   1 
   5   5  -1  214.66    6.96   1 
   5   6  -1   15.79    5.95   1 
   6   1   3  251.14    6.72   1 
   6   2   2   85.38    4.41   1 
   7   0   7   88.68    7.36   1 
   7   2   4   -3.08    5.45   1 
  -5   0   4   34.89    4.52   1 
  -3   4  -2  144.27    6.86   1 
  -2  -4  10   76.60    6.65   1 
   2   2  -2 1152.25   12.08   1 
   2   8  -3   -0.34    7.04   1 
   3   5  -3  501.02    7.92   1 
   4   4  -2 1008.26    9.77   1 
   4   7  -2   73.96    6.62   1 
   5   4  -1   57.66    5.27   1 
   6  -2   9    8.08    5.90   1 
   6   3   1    3.08    3.57   1 
   7   1   5   11.18    5.60   1 
   7   3   3   35.50    4.52   1 
  -7  -1  11   11.92    5.41   1 
  -6  -2  11   30.05    5.63   1 
  -6   0   6  114.87    5.19   1 
  -5  -1   6    3.92    4.40   1 
  -4  -4  14   18.27    7.32   1 
   3   7  -3   26.17    6.00   1 
   4  -1   3    2.51    4.14   1 
   4   1   0 1164.81    9.98   1 
   4   2  -1  130.70    5.33   1 
   5   1   1  174.85    5.50   1 
   6  -1   6    3.52    5.02   1 
   6   0   4  181.82    6.13   1 
   6   5   0    7.44    5.82   1 
  -7   0   9   45.82    5.66   1 
  -7   1   7   60.46    5.67   1 
  -7   4   4   12.20    5.55   1 
  -5  -3  12   13.68    5.52   1 
  -5   3   1    2.28    4.65   1 
  -3  -3   8  120.47    5.42   1 
   1  -5  14   80.94   17.02   1 
   1   3  -3 1144.50   13.42   1 
   3  -4  10  159.94   10.11   1 
   3  -2   4    3.00    4.15   1 
   6   4   0  141.69    6.57   1 
   7   0   6  162.05    7.20   1 
   7   2   3    2.67    5.41   1 
  -5   1   3  120.00    4.21   1 
  -5   2   2  237.88    5.82   1 
  -5   6   0   87.50    6.74   1 
  -4  -2   7  193.54    5.56   1 
  -4   0   3  115.88    4.92   1 
  -3  -4  12   55.72    6.04   1 
  -2  -3   7  174.58    6.13   1 
  -2   0   1 4107.91   22.62   1 
  -2   6  -3   36.12    9.86   1 
   0  -5  14   45.61    9.79   1 
   0  -4   9    1.17    6.92   1 
   2   0   0  184.10    7.25   1 
   5  -2   6   57.50    6.20   1 
   5   3  -1  379.91    6.77   1 
   6  -2   8   66.25    6.35   1 
   6   2   1  134.60    6.03   1 
   7  -1   8    4.91    6.21   1 
   7   1   4   44.75    5.87   1 
   7   3   2  125.90    6.68   1 
  -6  -2  12   21.26    5.78   1 
  -5  -3  13   59.37    6.40   1 
  -4  -4  15   23.90    6.25   1 
  -2   3  -2  185.11    7.69   1 
  -1  -5  15    2.71    7.57   1 
   2   3  -3 1004.87   10.67   1 
   4   0   1   69.74    3.78   1 
   5   0   2  163.72    4.46   1 
   5   5  -2  183.00    6.67   1 
   5   6  -2    9.03    5.70   1 
   6   1   2   -1.70    3.27   1 
   6   3   0   56.59    5.39   1 
  -7   0  10    8.80    5.50   1 
  -7   1   8   31.78    5.52   1 
  -6   0   7  156.57    5.90   1 
  -6   3   3    2.23    3.34   1 
  -6   5   2    3.59    5.31   1 
  -4  -1   5   32.77    3.40   1 
  -4   5  -1    8.06    4.79   1 
  -4   7  -1    2.60    6.65   1 
  -3   0   2  808.11    8.53   1 
  -1  -1   2 3083.16   24.15   1 
   1   5  -4  172.53    7.47   1 
   1   7  -4   28.95    7.44   1 
   2   6  -4  123.78    6.75   1 
   3   1  -1  128.36    4.24   1 
   3   2  -2 2550.80   14.78   1 
   4   5  -3   92.46    5.50   1 
   4   6  -3    0.33    5.08   1 
   6  -1   5    8.06    5.06   1 
   6   5  -1   10.90    5.50   1 
  -6  -2  13    1.83    5.77   1 
  -5  -3  14   17.85    5.71   1 
  -5  -1   7   15.50    3.30   1 
  -5   0   5    1.87    3.03   1 
  -4   1   2   55.86    4.66   1 
  -4   3   0   94.53    4.84   1 
  -3  -2   6  140.68    5.61   1 
  -3   5  -2  349.22    9.59   1 
  -3   7  -2  127.56   10.80   1 
  -2  -4  11  184.83    7.04   1 
   0   3  -3    2.43    6.04   1 
   0   6  -4   53.06    8.17   1 
   4  -3   7    1.61    5.74   1 
   4   7  -3   46.51    6.46   1 
   5   4  -2  140.70    5.97   1 
   6   0   3  114.45    4.51   1 
   6   4  -1  171.98    6.60   1 
   7  -1   7   51.66    6.21   1 
   7   2   2   27.89    5.69   1 
  -7   4   5   19.18    6.02   1 
  -5   4   1  133.57    5.56   1 
  -3  -3   9  176.85    6.10   1 
  -1  -4  10   16.44    6.22   1 
   2   7  -4    5.75    5.32   1 
   3   0   0  189.94    6.00   1 
   3   3  -3  793.26    8.85   1 
   4   4  -3   43.97    4.92   1 
   6  -2   7   11.02    5.24   1 
   7   1   3   55.93    5.71   1 
   7   3   1   33.77    5.67   1 
  -7   0  11   13.40    4.13   1 
  -7   1   9   -0.51    5.22   1 
  -7   3   6   12.24    4.08   1 
  -4  -2   8  238.16    6.05   1 
  -3  -1   4  360.59    5.99   1 
  -3   6  -2  175.09    9.19   1 
  -2  -2   5  531.64    8.23   1 
   0  -5  15  152.65   14.07   1 
   0  -3   6  254.35   11.19   1 
   3   6  -4  252.81    7.20   1 
   5   1   0  184.53    5.60   1 
   6   2   0   94.48    5.33   1 
  -6   0   8  219.32    5.42   1 
  -2  -1   3 1375.75   13.04   1 
  -2   1   0  283.65    7.54   1 
   3   5  -4   45.24    4.76   1 
   3   7  -4   -0.81    6.52   1 
   4  -1   2  331.62    6.87   1 
   4   2  -2  397.48    6.63   1 
   5  -2   5    9.73    4.56   1 
   5   3  -2  201.99    5.69   1 
   6  -3  10   36.88    6.69   1 
   6   3  -1  636.27    8.67   1 
   7  -1   6   81.36    6.65   1 
   7   0   4    2.76    5.06   1 
   7   4   0    5.12    4.08   1 
  -7   2   8  117.82    6.69   1 
  -7   4   6   34.10    6.31   1 
  -6   2   5   85.50    4.25   1 
  -6   3   4   -2.38    4.92   1 
  -6   5   3    1.58    5.32   1 
  -5  -1   8   40.19    4.80   1 
  -5   2   3  418.61    6.91   1 
  -4   0   4  236.31    5.87   1 
  -3   2   0   30.47    4.09   1 
  -2  -4  12   60.35    6.73   1 
  -2  -3   8   19.92    5.33   1 
   0   5  -4  158.00   10.12   1 
   1  -4   9   98.01   15.16   1 
   1   8  -4   20.68    8.08   1 
   2   8  -4  -15.71    7.14   1 
   4   1  -1  434.59    6.28   1 
   5   0   1  213.12    5.63   1 
   5   5  -3  222.62    6.57   1 
   5   6  -3   61.09    5.87   1 
   6  -1   4    2.57    5.04   1 
   6   0   2   49.60    4.99   1 
   6   5  -2    1.03    5.66   1 
   7   2   1   13.46    5.44   1 
  -7   1  10    2.37    5.43   1 
  -5   0   6   27.36    3.45   1 
  -5   6   1   51.65    7.12   1 
  -4  -1   6   29.69    3.33   1 
  -3  -4  15   24.73    6.45   1 
   2   4  -4  137.37    5.49   1 
   6  -2   6    9.24    5.07   1 
   6   4  -2   34.76    5.31   1 
   7   1   2   82.29    4.62   1 
   7   3   0   12.79    5.55   1 
  -6   0   9   87.42    5.54   1 
  -3  -3  10  157.89    5.84   1 
   1   4  -4  361.19    9.34   1 
   4   5  -4  112.17    5.50   1 
   4   6  -4  102.18    6.14   1 
   5   4  -3  542.81    8.35   1 
   6  -3   9  173.62    9.57   1 
  -7   2   9   93.87    6.72   1 
  -4  -2   9   15.58    3.30   1 
  -3  -2   7  484.61    7.56   1 
   2  -1   1 3465.28   22.15   1 
   3  -4   9   19.23    7.50   1 
   4   7  -4    3.02    5.59   1 
   6   2  -1   60.23    5.02   1 
   7  -1   5  119.33    6.75   1 
   7   0   3  112.81    6.06   1 
   7   4  -1    3.27    4.06   1 
  -7   3   8   12.01    5.83   1 
  -6  -1  13    4.79    5.73   1 
  -6   3   5    4.89    4.77   1 
  -5  -1   9  104.87    4.31   1 
  -5   4   2   59.79    5.14   1 
  -4   1   3  128.41    5.12   1 
  -2  -4  13    3.55    6.44   1 
  -1  -4  11   57.74    6.84   1 
   1  -5  15   44.59   13.29   1 
   3  -2   3   63.56    4.75   1 
   4  -3   6    0.27    5.80   1 
   5   1  -1    0.96    4.12   1 
   6  -1   3    2.28    4.95   1 
   6   1   0  204.37    5.03   1 
   6   3  -2  176.40    6.30   1 
   7   2   0  151.61    6.29   1 
  -6   0  10    9.26    3.54   1 
  -6   5   4   14.68    5.29   1 
  -4  -3  14   31.11    5.82   1 
  -4   3   1    3.90    3.98   1 
  -3   0   3  692.85    8.29   1 
   4   4  -4    3.79    4.11   1 
   5  -4  11   26.59    7.94   1 
   5  -2   4  176.44    5.94   1 
   5   3  -3    1.59    4.67   1 
   6   5  -3   -2.80    5.44   1 
   7  -2   7   42.08    6.44   1 
   7   1   1   16.90    5.19   1 
   7   3  -1   -5.37    5.41   1 
  -5   2   4   57.93    4.84   1 
  -4  -2  10   -0.21    4.60   1 
  -4   5   0  140.25    6.06   1 
  -3  -3  11  105.85    5.82   1 
  -3   4  -1  158.44    6.66   1 
   2   1  -2  252.49    6.96   1 
   2   2  -3  308.24    7.28   1 
   3   1  -2   12.85    4.48   1 
   3   2  -3 1952.64   13.08   1 
   5   0   0   70.29    4.71   1 
   5   5  -4  342.24    7.65   1 
   5   6  -4    2.69    5.72   1 
   6  -3   8   10.60    6.93   1 
   6  -2   5    3.36    4.96   1 
   6   0   1   38.90    3.53   1 
   7  -1   4   37.73    5.74   1 
  -6   0  11   32.44    5.43   1 
  -5  -1  10  345.40    6.91   1 
  -4  -3  15   68.61    6.84   1 
  -4   0   5   39.91    3.30   1 
  -4   7   0   13.03    5.66   1 
  -2  -4  14   11.53    6.66   1 
  -2  -3   9  781.33   10.38   1 
   0   8  -4   97.40   12.47   1 
   4  -1   1 1063.66   10.25   1 
   6   4  -3   15.76    5.21   1 
   7   0   2  279.93    7.19   1 
   7   4  -2   -3.03    5.64   1 
   8   1   2    5.81    5.80   1 
  -6   3   6    7.52    4.89   1 
  -5  -2  15   47.52    6.79   1 
  -5   6   2    0.28    6.50   1 
  -4   6   0   21.25    5.52   1 
   2   6  -5  330.22    8.28   1 
   2   7  -5   49.55    7.10   1 
   3   3  -4   21.28    4.13   1 
   3   6  -5  118.39    6.11   1 
   3   7  -5   -1.02    6.71   1 
   4   1  -2  155.10    5.23   1 
   4   2  -3   75.12    4.88   1 
   5   4  -4  468.95    7.91   1 
  -6   0  12   15.62    5.50   1 
  -5  -1  11  223.49    6.37   1 
  -3  -3  12   47.09    5.57   1 
  -3  -2   8  770.47    9.25   1 
  -3   8  -1  117.89   11.18   1 
  -2   0   2 1678.31   14.45   1 
   2   3  -4  643.13    9.28   1 
   3   0  -1  833.59    9.65   1 
   3   5  -5   43.67    4.84   1 
   4   6  -5  204.90    6.98   1 
   5  -4  10   21.57    7.37   1 
   6   1  -1 1209.26   10.39   1 
   6   2  -2   46.45    3.67   1 
   7   1   0    3.79    5.02   1 
   7   2  -1   22.70    3.81   1 
   7   3  -2   31.14    5.59   1 
   8   0   3    9.02    6.06   1 
  -6   5   5  109.43    6.51   1 
  -4  -2  11  469.27    8.08   1 
  -2  -4  15   48.72    6.50   1 
  -1  -4  12  226.11    9.09   1 
   1  -2   3  920.67   24.72   1 
   4   3  -4  134.11    5.26   1 
   4   5  -5  190.63    6.66   1 
   4   7  -5    0.08    5.68   1 
   6  -3   7   56.40    7.47   1 
   6  -1   2    4.60    3.42   1 
   6   3  -3    0.17    4.96   1 
   6   5  -4    2.42    5.57   1 
   7  -1   3   18.38    5.50   1 
  -6   0  13    1.79    5.63   1 
  -5   4   3   38.97    4.78   1 
  -4  -1   8   65.45    3.65   1 
  -4   1   4  578.77    7.57   1 
  -2  -4  16   20.27    7.75   1 
  -2  -1   4  904.52   10.75   1 
  -2   4  -2  243.54    8.36   1 
   1   2  -3  243.92    7.71   1 
   2   0  -1 3293.99   20.20   1 
   4   0  -1   28.76    3.26   1 
   5  -2   3  332.63    7.04   1 
   5   1  -2   57.54    4.53   1 
   5   2  -3  588.94    7.86   1 
   6   0   0   36.33    4.88   1 
   7   4  -3   33.86    6.12   1 
   8   1   1   -2.05    5.89   1 
  -6   3   7   10.78    5.06   1 
  -5  -1  12   34.89    5.31   1 
  -4  -2  12  264.50    7.16   1 
  -3  -3  13   41.02    5.38   1 
  -3   2   1 1024.27   10.48   1 
   1   1  -2 3010.00   23.85   1 
   2  -3   5    1.92    6.15   1 
   2   8  -5   16.40    7.41   1 
   4  -3   5   13.21    5.64   1 
   5   3  -4   20.76    4.73   1 
   5   6  -5    2.71    5.40   1 
   6   4  -4   21.01    5.38   1 
   7  -2   5    5.52    5.42   1 
  -6   5   6   51.60    6.14   1 
  -3   0   4  304.76    6.30   1 
  -2  -3  10  442.69    8.37   1 
  -1  -2   5    2.15    3.98   1 
  -1   4  -3  932.70   27.25   1 
   1   7  -5    4.49    6.21   1 
   4   4  -5   43.03    4.82   1 
   5   0  -1   18.17    4.28   1 
   5   5  -5    4.95    5.22   1 
   7   2  -2   45.83    5.37   1 
   8   0   2    0.73    5.51   1 
  -5  -1  13    6.40    3.60   1 
  -5   6   3  105.13    6.78   1 
  -4  -2  13   -0.92    5.14   1 
  -4   3   2  169.92    5.40   1 
  -3  -3  14   82.63    5.76   1 
  -3  -2   9  317.59    6.87   1 
  -3   7  -1   17.87    6.86   1 
  -1   0   1  762.60   13.73   1 
   5  -4   9   14.14    7.11   1 
   6   2  -3   52.48    4.96   1 
   7   1  -1  160.71    6.20   1 
   7   3  -3   26.60    5.50   1 
  -6   3   8   32.73    5.37   1 
  -5  -1  14    8.66    5.47   1 
  -4   5   1  333.79    7.45   1 
  -4   7   1   28.53    7.42   1 
  -3   6  -1  246.74    8.91   1 
   1   3  -4 1120.42   13.96   1 
   1   5  -5  126.66    7.83   1 
   2   4  -5  130.10    5.51   1 
   3  -4   8   54.82    7.98   1 
   5   4  -5  194.14    6.30   1 
   6  -3   6   43.50    6.02   1 
   6  -1   1   13.39    4.74   1 
   6   1  -2  501.28    6.75   1 
   6   3  -4   13.67    4.95   1 
   7  -1   2   13.31    5.22   1 
   8   1   0    7.59    4.19   1 
  -6   1  13    4.58    5.54   1 
  -6   2  10   38.04    5.49   1 
  -5  -1  15   73.18    6.79   1 
  -5   2   6    9.39    3.29   1 
  -5   4   4    2.60    4.63   1 
  -4  -2  14   81.56    6.22   1 
  -3  -3  15   75.73    6.43   1 
  -2   8  -2   14.90    9.40   1 
   3  -2   2 1288.04   12.77   1 
   4  -1   0 1658.01   12.06   1 
   4   2  -4   15.27    4.48   1 
   6   5  -5   50.91    5.98   1 
   7  -3   7   21.65    7.72   1 
   7  -2   4    3.54    5.23   1 
   7   0   0  125.62    6.03   1 
   7   4  -4   82.79    6.55   1 
  -6   3   9   36.01    5.58   1 
  -6   5   7   17.73    4.33   1 
  -4  -2  15    1.16    5.78   1 
  -4   1   5  777.82    8.17   1 
  -3  -3  16   50.15    6.60   1 
  -2  -3  11   26.23    5.01   1 
  -2   1   1    3.70    4.61   1 
   0  -4  11  342.51   11.19   1 
   3   1  -3  444.45    7.27   1 
   3   2  -4  174.59    5.91   1 
   4   1  -3   -0.35    4.13   1 
   4   6  -6  200.04    8.01   1 
   6   0  -1  160.97    4.54   1 
   8   0   1   13.30    4.33   1 
  -6   2  11  156.91    6.73   1 
  -4  -2  16   19.31    6.11   1 
  -3  -2  10   12.26    4.62   1 
  -1  -1   3   35.29    5.07   1 
   0   4  -4  795.77   18.35   1 
   1   8  -5    7.88    8.10   1 
   3   6  -6    7.96    4.97   1 
   3   7  -6   10.84    6.45   1 
   4   7  -6    0.96    5.75   1 
   5  -2   2  503.29    7.82   1 
   5   1  -3   93.73    4.85   1 
   5   2  -4  456.77    7.69   1 
   6   4  -5   49.04    5.59   1 
   7   2  -3    8.29    5.13   1 
   8   2  -2   -2.83    5.86   1 
  -6   2  12  138.94    7.19   1 
  -5   2   7   22.96    4.62   1 
  -5   6   4   94.35    6.61   1 
  -3  -1   7   10.96    4.42   1 
  -2   3  -1 1334.57   15.28   1 
   3   3  -5    1.59    3.84   1 
   3   5  -6   -2.43    5.58   1 
   4   0  -2  303.28    6.28   1 
   4   5  -6  203.81    6.25   1 
   5  -4   8   20.57    6.99   1 
   5   3  -5   39.46    4.93   1 
   5   6  -6   12.11    5.78   1 
   7  -1   1   94.28    5.99   1 
   7   1  -2   97.95    4.70   1 
   7   3  -4   14.00    5.42   1 
   8   1  -1   -0.22    3.92   1 
  -6   3  10   16.11    3.88   1 
  -5   4   5    8.15    5.01   1 
  -4   3   3  171.34    5.55   1 
  -3   4   0   68.94    4.92   1 
   5   0  -2    1.76    4.20   1 
   5   5  -6   32.43    5.39   1 
   6  -1   0  214.51    6.11   1 
   6   2  -4  103.32    5.39   1 
   7  -3   6   70.52    6.88   1 
   7  -2   3   81.07    5.78   1 
   8  -1   2    1.22    5.97   1 
   8   0   0   73.41    6.28   1 
  -6   3  11    8.41    5.57   1 
  -3   0   5   26.54    4.18   1 
  -3   8   0   12.95    7.51   1 
  -2  -3  12  231.36    7.35   1 
  -2  -1   5  255.28    6.89   1 
  -2   5  -2  221.70    9.19   1 
   0  -3   7  141.20    7.62   1 
   2   2  -4   94.18    5.17   1 
   2   6  -6  114.14    7.44   1 
   2   7  -6   46.33    6.67   1 
   3   0  -2  974.37    9.69   1 
   4  -3   4  106.05    5.81   1 
   6   3  -5   16.75    5.17   1 
   7   4  -5   58.65    6.91   1 
  -4   1   6  407.78    6.57   1 
  -4   5   2  121.11    6.88   1 
  -4   7   2    4.70    6.81   1 
  -3   2   2    5.07    3.89   1 
  -2   0   3  304.96    7.59   1 
   2  -1   0  259.52    7.31   1 
   2   1  -3 1308.24   12.78   1 
   4   4  -6    9.33    4.43   1 
   5   4  -6   28.29    5.08   1 
   6   0  -2  562.98    7.83   1 
   6   5  -6   69.40    6.40   1 
   8   2  -3   55.73    6.12   1 
  -5   2   8   30.88    3.70   1 
  -5   6   5   60.34    6.45   1 
  -3  -1   8    3.44    4.41   1 
   0  -4  12   50.95    7.15   1 
   1   0  -1  748.80   13.76   1 
   7   2  -4   -1.74    5.07   1 
   8   1  -2   36.74    5.88   1 
  -5   1  11   62.01    5.53   1 
  -5   4   6   40.18    5.16   1 
   1   4  -5   23.51    5.21   1 
   2   3  -5  496.56    8.72   1 
   6  -3   4  134.97    7.58   1 
   6   4  -6  113.20    6.29   1 
   7  -3   5   62.68    6.40   1 
   7  -1   0  118.56    6.14   1 
   7   1  -3   23.31    3.82   1 
   7   3  -5    9.65    5.39   1 
   8  -1   1   11.68    5.82   1 
  -5   2   9   61.86    5.41   1 
  -3   5   0    5.47    4.96   1 
  -3   7   0    5.55    6.54   1 
  -2   6  -2  147.82    8.49   1 
   2   8  -6    3.08    8.34   1 
   4  -1  -1  728.43    8.57   1 
   4   1  -4   35.97    4.43   1 
   4   2  -5  352.91    6.60   1 
   5  -4   7    1.75    6.34   1 
   5  -2   1  150.74    5.48   1 
   5  -1  -1   19.79    3.19   1 
   5   1  -4  413.69    6.94   1 
   7  -2   2   64.39    4.47   1 
   8   0  -1   37.20    4.21   1 
  -5   1  12   31.01    4.15   1 
  -5   6   6   28.14    6.33   1 
  -4   1   7  101.73    5.01   1 
  -4   3   4  263.92    6.19   1 
  -3   6   0   16.45    5.98   1 
  -2  -3  15   29.70    5.82   1 
  -1  -2   6   58.32    4.89   1 
   4   6  -7   44.00    5.87   1 
   4   7  -7   19.01    5.77   1 
   5   3  -6   71.06    5.12   1 
   5   6  -7    4.66    5.50   1 
   6  -1  -1   92.22    5.55   1 
   6   2  -5   60.51    5.29   1 
   7   4  -6   39.32    5.96   1 
  -5   1  13  101.66    6.23   1 
  -5   2  10   24.30    4.94   1 
  -5   4   7   66.33    5.51   1 
  -4  -1  16   69.53    6.72   1 
  -4   0  10    2.66    4.58   1 
  -3   0   6  641.28    7.93   1 
  -2  -3  16   26.84    5.83   1 
  -2  -3  17    8.36    6.43   1 
   0  -4  13   77.48    7.80   1 
   1  -4  10    1.98    7.31   1 
   2   0  -2 1599.64   14.66   1 
   4   5  -7  304.00    7.36   1 
   5   0  -3    2.78    4.24   1 
   5   5  -7  168.42    6.92   1 
   6   3  -6   48.25    5.30   1 
   8   1  -3   68.17    6.14   1 
   8   2  -4   28.63    5.91   1 
  -5   1  14  123.39    5.49   1 
  -4   5   3   43.46    5.00   1 
  -4   7   3    0.50    5.63   1 
  -3  -2  16    2.11    5.59   1 
  -3  -2  17    9.31    6.26   1 
   3  -2   1  882.42   10.56   1 
   3   1  -4  436.27    7.09   1 
   3   2  -5  131.50    5.41   1 
   3   6  -7   37.26    5.39   1 
   3   7  -7  168.76    8.63   1 
   4   0  -3  111.98    4.95   1 
   6   0  -3  292.93    6.55   1 
   6   5  -7   29.50    5.79   1 
   7  -3   4    5.53    5.67   1 
   7   2  -5    0.64    5.14   1 
   8  -1   0   48.37    6.01   1 
  -5   2  11   25.60    5.23   1 
  -4   1   8    2.52    4.30   1 
  -2  -1   6   38.29    4.34   1 
   0  -4  14    4.79    6.65   1 
   2   4  -6    8.70    5.14   1 
   3  -4   7    9.12    7.37   1 
   4  -3   3  141.10    5.72   1 
   5   4  -7   35.26    5.14   1 
   7  -2   1  106.17    6.21   1 
   7  -1  -1  143.43    5.07   1 
   7   1  -4  147.44    4.98   1 
   7   3  -6    1.55    5.34   1 
   8  -2   2   18.56    6.11   1 
   8   0  -2    3.96    5.38   1 
  -5   2  12   13.87    5.46   1 
  -5   4   8   47.36    5.78   1 
  -3  -1  10   28.02    4.54   1 
  -3   2   3  672.20    8.43   1 
  -3   4   1    0.06    4.23   1 
   3   3  -6  153.61    5.32   1 
   3   5  -7   14.89    4.78   1 
   4   4  -7   29.97    4.77   1 
   6  -3   3   34.98    5.16   1 
   6   4  -7   40.16    5.57   1 
  -5   2  13    2.61    5.60   1 
  -4   0  12  297.47    7.04   1 
  -4   3   5  116.85    5.02   1 
  -2   1   2 1712.01   13.94   1 
  -1  -3  11    4.49    4.36   1 
   0  -4  15   44.22    8.19   1 
   5  -4   6   47.32    6.69   1 
   5  -2   0   10.34    4.31   1 
   5  -1  -2   99.17    4.91   1 
  -5   2  14    0.31    5.68   1 
  -5   4   9   21.81    5.53   1 
  -4   0  13   -3.02    5.04   1 
  -4   1   9   30.62    4.75   1 
  -4   7   4   19.51    7.21   1 
  -3   0   7  781.19    7.93   1 
  -2   4  -1  939.41   13.65   1 
   0  -4  16  118.64    9.41   1 
   3   0  -3  716.56    8.42   1 
   5   1  -5  373.40    6.87   1 
   6  -1  -2   38.16    5.07   1 
   6   2  -6   90.92    5.55   1 
   8  -2   1   58.97    6.82   1 
   8  -1  -1   67.33    6.33   1 
   8   1  -4    9.09    3.76   1 
  -5   4  10   13.45    5.60   1 
  -4   0  14    3.48    5.24   1 
  -4   0  15   31.16    6.06   1 
  -4   0  16   65.93    6.89   1 
  -4   5   4    2.05    4.62   1 
  -2   8  -1   23.26    8.59   1 
   0  -3   8   10.42    6.03   1 
   4  -5  12    6.50   13.31   1 
   4  -1  -2   56.21    4.65   1 
   5   3  -7  335.50    6.88   1 
   5   6  -8    3.21    5.47   1 
   7  -1  -2   53.09    5.39   1 
   8   0  -3   75.52    6.29   1 
  -4   1  10   79.17    5.11   1 
  -3   7   1  134.58    6.90   1 
  -2  -2  11   68.27    5.10   1 
  -1  -3  12    6.91    4.70   1 
   1   7  -6  189.04   11.35   1 
   4   1  -5   42.09    4.51   1 
   4   2  -6  356.55    6.62   1 
   4   6  -8   19.47    5.35   1 
   5   0  -4   40.87    4.38   1 
   5   5  -8  123.72    6.44   1 
   6   0  -4   61.85    5.00   1 
   6   3  -7   10.39    3.83   1 
   6   5  -8   12.62    6.03   1 
   7  -2   0    5.53    5.29   1 
   7   1  -5   11.65    5.03   1 
   7   2  -6    6.45    3.88   1 
  -5   4  11   -1.19    4.02   1 
  -4   3   6   14.92    4.48   1 
  -3  -1  12   80.32    4.60   1 
  -3   0   8  908.29    9.25   1 
  -3   6   1    4.49    4.75   1 
  -2  -1   7   94.74    4.95   1 
  -1  -2   7   -0.01    4.05   1 
   1   2  -4  208.99    7.49   1 
   2   6  -7    5.27    6.16   1 
   6  -3   2    3.14    4.65   1 
   7   3  -7    3.58    5.40   1 
  -4   1  11   97.06    5.26   1 
  -3  -1  13   17.75    5.22   1 
  -2  -2  12   19.46    4.62   1 
  -2   3   0  296.60    7.95   1 
  -1  -3  13  177.87    6.98   1 
   1  -4  11   14.17    7.45   1 
   2   2  -5  437.95    7.67   1 
   2   7  -7   24.95    6.98   1 
   4   0  -4  222.63    5.72   1 
   4   5  -8   90.68    5.76   1 
   5   4  -8  208.84    6.55   1 
   6   4  -8   -3.67    5.35   1 
   8  -2   0   11.41    5.90   1 
   8   1  -5   18.30    5.93   1 
  -4   1  12   17.11    4.95   1 
  -4   5   5   89.03    5.47   1 
  -3  -1  14   -2.09    3.65   1 
  -3  -1  15   12.21    5.46   1 
  -3  -1  16    7.57    5.76   1 
  -3  -1  17   -2.43    5.84   1 
  -3   2   4  123.29    5.14   1 
  -1  -3  14  167.01    8.37   1 
  -1   3  -2 1645.95   24.55   1 
   1   5  -6  370.07   10.49   1 
   2  -3   4  180.15    9.47   1 
   2   1  -4  876.21   10.53   1 
   4  -3   2  206.44    6.99   1 
   5  -4   5   94.15    6.10   1 
   8   0  -4   17.59    5.80   1 
  -4   1  13   16.68    5.28   1 
  -4   1  14    8.73    5.52   1 
  -4   3   7   18.47    4.69   1 
  -3   0   9  274.36    6.29   1 
  -3   4   2  145.71    5.63   1 
  -2  -2  13   44.67    5.40   1 
  -2  -2  14   -1.95    5.74   1 
  -1  -3  15  150.59    7.67   1 
  -1  -3  16   31.18    6.18   1 
  -1  -3  17   10.85    6.21   1 
  -1   0   2 1403.42   16.98   1 
  -1   2  -1  372.01   11.29   1 
   1   3  -5  108.27    6.56   1 
   2  -1  -1    4.25    4.69   1 
   2   3  -6  702.85    9.98   1 
   3   2  -6  130.87    5.64   1 
   5  -2  -1    4.10    4.26   1 
   5  -1  -3  152.77    5.44   1 
   6  -1  -3   82.13    4.01   1 
   6   2  -7   20.90    5.23   1 
   7  -4   5   -0.40    7.26   1 
   7  -1  -3   35.09    5.23   1 
  -4   1  15    1.84    3.89   1 
  -2  -2  15    3.98    5.23   1 
  -2  -2  16    6.61    5.63   1 
  -2  -2  17    4.92    5.90   1 
  -2   5  -1  100.31    6.82   1 
   1   1  -3   29.87    5.01   1 
   3  -2   0   32.65    4.44   1 
   3   1  -5   32.81    4.42   1 
   3   6  -8  262.55    8.26   1 
   3   7  -8   64.88    7.90   1 
   4   4  -8  264.49    6.99   1 
   5   1  -6    4.76    4.35   1 
   7   1  -6    8.23    5.24   1 
   7   2  -7   -1.78    5.32   1 
  -4   3   8  115.71    5.47   1 
  -4   5   6  130.96    6.35   1 
  -3   7   2  135.55    7.24   1 
  -2  -1   8  282.18    6.27   1 
   3   3  -7   83.43    4.79   1 
   3   5  -8    9.07    5.85   1 
   5  -5  10    7.89    9.46   1 
   6  -3   1  102.52    5.58   1 
   6   0  -5   14.26    4.61   1 
   6   3  -8    6.15    3.63   1 
   7   3  -8    6.05    5.92   1 
   8  -2  -1    7.38    5.75   1 
  -3   0  10   71.92    3.72   1 
  -3   6   2   12.11    5.73   1 
  -2   1   3    5.71    4.51   1 
  -2   6  -1   85.07    6.84   1 
  -1  -2   8   80.15    5.17   1 
  -1   5  -3   33.40    8.42   1 
   0  -3   9   28.98    5.75   1 
   1  -4  12   -0.06    7.08   1 
   4  -5  11   22.14   14.99   1 
   4  -1  -3  118.01    5.02   1 
   5   0  -5    3.92    4.31   1 
   5   3  -8   88.54    4.21   1 
   5   5  -9   54.63    5.88   1 
   8   1  -6   68.56    5.10   1 
  -4   3   9   84.28    5.47   1 
  -4   5   7  175.34    6.61   1 
  -3   0  11   82.63    5.26   1 
  -3   2   5  381.26    6.80   1 
  -1   7  -3   84.81   10.00   1 
   1   8  -6    1.32   10.63   1 
   2   0  -3  313.85    7.57   1 
   3   0  -4  311.88    6.42   1 
   4   1  -6   37.32    4.50   1 
   4   2  -7  193.08    5.62   1 
   6   4  -9    3.29    5.26   1 
   7  -4   4   -1.68    5.74   1 
   8   0  -5   28.93    5.99   1 
  -4   3  10   75.44    5.56   1 
  -3   0  12  440.49    7.61   1 
  -2  -1   9  785.17    9.31   1 
  -2   8   0    7.19    7.04   1 
   1  -4  13   35.98    8.16   1 
   2   4  -7   73.46    6.18   1 
   3  -4   6   32.47    7.11   1 
   4   6  -9   37.60    5.93   1 
   5  -4   4  107.86    6.19   1 
   7  -2  -2   49.27    5.52   1 
   7  -1  -4    4.63    4.99   1 
  -4   3  11   18.05    5.13   1 
  -4   5   8   65.26    6.00   1 
  -3   0  13   80.96    5.46   1 
  -3   0  14  120.28    6.23   1 
  -3   0  15   50.27    5.99   1 
  -3   0  16   -1.08    5.56   1 
  -3   4   3  279.94    6.39   1 
  -3   7   3   96.35    7.82   1 
   1  -4  14    8.55    7.21   1 
   1  -4  16    7.85    7.65   1 
   4   5  -9   10.31    4.93   1 
   5  -2  -2  230.79    6.07   1 
   5   4  -9  179.32    6.41   1 
   6   2  -8   53.03    5.33   1 
   7   1  -7   82.18    5.80   1 
   7   2  -8    8.57    5.29   1 
   8  -2  -2    0.38    5.90   1 
  -4   3  12   -2.16    5.30   1 
  -4   3  13    1.00    5.36   1 
  -4   3  14   13.21    5.92   1 
  -4   5   9   17.41    5.22   1 
  -1  -2   9  152.58    5.68   1 
   1  -4  15    3.27    5.96   1 
   4  -3   1   69.82    5.70   1 
   4   0  -5   36.27    3.40   1 
   6  -3   0   36.08    5.26   1 
   8  -1  -4   18.89    4.17   1 
  -4   5  10    0.31    5.72   1 
  -3   2   6  346.35    6.54   1 
  -3   6   3   28.85    5.09   1 
  -2  -1  10  380.39    6.35   1 
  -2   4   0 1524.06   15.61   1 
   1   4  -6  219.94    7.82   1 
   5   1  -7   16.97    4.60   1 
   6   0  -6   92.94    5.33   1 
   6   3  -9    3.38    5.11   1 
   7  -4   3    1.52    5.80   1 
   7   0  -6    4.29    3.53   1 
   7   3  -9    4.20    4.08   1 
   8   0  -6    4.87    5.62   1 
  -2  -1  11  170.67    6.29   1 
  -2  -1  17   18.51    6.22   1 
   4   4  -9   86.32    5.48   1 
  -3   4   4  436.57    7.18   1 
  -3   7   4   10.59    5.52   1 
  -2  -1  12   -1.76    4.52   1 
  -2  -1  15  153.20    7.10   1 
  -2  -1  16   83.12    6.47   1 
  -2   1   4  205.31    6.08   1 
  -2   3   1   48.45    4.42   1 
  -1  -2  10  157.45    5.82   1 
   3   2  -7  423.01    7.22   1 
   5   0  -6   41.20    4.67   1 
   5   3  -9   -0.72    3.39   1 
   5   5 -10   39.30    6.01   1 
   7  -2  -3  188.41    7.08   1 
   7  -1  -5   28.14    5.15   1 
  -3   2   7  205.56    5.55   1 
  -2  -1  13   86.03    5.64   1 
  -2  -1  14  105.40    6.07   1 
  -2   8   1    4.73    7.44   1 
  -1  -2  17   35.50    6.82   1 
   0  -3  17   -0.75    6.44   1 
   1   0  -2 1347.82   16.92   1 
   2   2  -6  750.98    9.53   1 
   2   6  -8    8.40    7.06   1 
   3  -2  -1  947.47   10.51   1 
   3  -1  -3 1228.68   10.83   1 
   3   1  -6  390.39    7.00   1 
   3   6  -9  341.31    9.62   1 
   4  -1  -4  557.84    7.75   1 
   5  -4   3   55.68    5.52   1 
   6  -1  -5  474.23    7.65   1 
   6   4 -10    3.18    3.84   1 
   7   1  -8   56.45    5.67   1 
   8  -2  -3    6.55    3.93   1 
  -3   6   4   -0.79    4.90   1 
  -2   5   0  354.54    8.78   1 
  -1  -2  11  155.02    5.88   1 
  -1  -2  16   62.27    6.41   1 
   0  -3  16    0.68    5.99   1 
   2   1  -5  265.37    6.93   1 
   3   3  -8  140.54    5.39   1 
   3   7  -9   14.54    7.03   1 
   4  -5  10   31.78   14.72   1 
   4   1  -7   48.16    4.63   1 
   4   2  -8  229.39    6.04   1 
   6  -5   7   10.93    7.80   1 
   6  -3  -1   51.05    5.74   1 
   6   2  -9   12.88    5.11   1 
   7  -4   2    4.53    5.48   1 
   7  -3  -1   43.19    5.75   1 
   7   2  -9   40.06    4.26   1 
  -3   2   8   13.19    4.26   1 
  -3   7   5    5.85    5.53   1 
  -2   6   0  223.67    7.32   1 
  -1  -2  12  115.20    5.52   1 
  -1  -2  13  176.73    7.47   1 
  -1  -2  14   19.43    6.08   1 
  -1  -2  15   17.38    5.50   1 
   0  -3  13   34.40    6.40   1 
   0  -3  14   39.85    6.91   1 
   0  -3  15   31.63    6.30   1 
   2   3  -7  183.54    6.27   1 
   2   7  -8    8.91    6.94   1 
   3   5  -9  167.18    6.50   1 
   5  -2  -3  373.44    6.91   1 
   5  -1  -5  106.20    5.22   1 
   5   4 -10   49.02    5.72   1 
   6   0  -7  146.86    5.59   1 
  -3   2   9  108.53    5.24   1 
  -3   4   5  221.28    6.01   1 
   2  -1  -2 2021.96   15.77   1 
   3   0  -5   30.21    4.26   1 
   4   0  -6   47.72    4.36   1 
   4   6 -10  108.98    7.57   1 
   6   3 -10   11.63    5.35   1 
  -3   2  10   14.20    4.60   1 
  -3   2  15    6.98    5.85   1 
  -3   6   5    4.52    4.82   1 
  -3   7   6   -5.29    5.96   1 
  -1   0   3 1292.07   14.39   1 
   4  -3   0   94.86    5.04   1 
   4   5 -10   94.79    6.34   1 
   5   1  -8   28.91    3.46   1 
   7  -1  -6   44.23    5.51   1 
   8  -2  -4    2.41    5.80   1 
  -3   2  11   84.87    5.33   1 
  -3   2  12  152.52    6.29   1 
  -3   2  13   10.62    5.21   1 
  -3   2  14    5.35    5.26   1 
  -3   4   6   10.25    4.47   1 
  -2   1   5   60.73    4.51   1 
  -2   8   2   84.72    8.75   1 
   0   2  -3   23.68    7.58   1 
   5  -4   2    4.71    5.87   1 
   5   0  -7  117.80    5.46   1 
   5   3 -10    8.77    4.90   1 
   6  -5   6   43.04    8.17   1 
   6  -2  -4    7.08    3.21   1 
   7  -4   1   16.71    5.90   1 
  -3   6   6    3.12    5.25   1 
   1   2  -5    2.11    4.92   1 
   3  -4   5   23.07    6.79   1 
   4   4 -10   27.79    5.10   1 
   5   5 -11    0.09    6.53   1 
   6   4 -11    2.77    5.64   1 
   7   1  -9   17.23    4.00   1 
   7   2 -10   57.80    6.34   1 
  -3   4   7   40.07    4.92   1 
  -3   6   7   10.39    5.40   1 
  -2   3   2   44.38    4.45   1 
   0   3  -4   51.79    9.29   1 
   2   4  -8   39.69    5.17   1 
   4  -1  -5  714.39    8.18   1 
   6   1  -9    9.37    4.88   1 
   6   2 -10   37.85    5.28   1 
  -3   4   8  243.73    6.40   1 
  -3   6   8   29.36    5.94   1 
  -2   6   1   64.30    6.46   1 
   2  -3   3  378.41   11.21   1 
   5  -2  -4   55.46    4.90   1 
   5  -1  -6   30.60    4.93   1 
   6   0  -8  242.38    6.77   1 
   8  -2  -5    9.72    5.85   1 
  -3   4   9  138.52    6.47   1 
  -3   4  12    4.76    5.91   1 
  -3   4  13   17.13    5.88   1 
  -3   6   9   19.60    4.53   1 
  -2   1   6  313.05    5.46   1 
  -2   5   1   65.19    5.30   1 
   1   3  -6   72.43    5.23   1 
   1   5  -7   18.32    6.51   1 
   3  -2  -2    1.51    3.99   1 
   3  -1  -4 1144.40   10.39   1 
   3   1  -7    9.07    4.17   1 
   3   2  -8  492.47    7.19   1 
   4  -5   9   18.39   12.54   1 
   4   1  -8   51.79    3.55   1 
   4   2  -9   17.36    4.46   1 
   5   4 -11   15.22    5.43   1 
   6  -5   5    5.39    7.81   1 
   6   3 -11    6.55    5.30   1 
   7  -4   0    9.25    5.88   1 
   7  -1  -7   32.64    5.80   1 
  -3   4  10    7.99    4.73   1 
  -3   4  11   -0.66    4.05   1 
  -2   1  16   -1.08    5.60   1 
  -2   7   2   14.29    5.70   1 
  -1   4  -2 1879.61   21.80   1 
  -1   7  -2  137.05    8.92   1 
   1   1  -4  102.11    5.87   1 
   3   3  -9  185.14    6.52   1 
   4   0  -7    5.17    4.20   1 
   5   1  -9   60.84    5.63   1 
  -2   1   7  410.79    6.84   1 
   3   6 -10  136.94    8.47   1 
   4  -3  -1    3.58    4.15   1 
   4   6 -11  174.55    9.31   1 
   5  -4   1   19.08    4.94   1 
   6  -3  -3    5.78    4.94   1 
   6  -1  -7   99.27    5.66   1 
   7   1 -10   39.56    6.01   1 
  -2   1  15   22.32    4.01   1 
   0   8  -4   91.43   12.48   1 
   2   2  -7 1020.32   11.15   1 
   3   0  -6  460.96    6.61   1 
   3   5 -10   51.46    5.59   1 
   4   5 -11  142.90    7.38   1 
   5   3 -11   32.98    5.38   1 
  -2   1   8 1094.48    9.89   1 
  -2   1  13  381.43    7.49   1 
  -2   1  14   31.22    5.57   1 
  -2   3   3   82.48    4.73   1 
  -2   6   2   38.54    5.08   1 
  -2   7   3   -0.02    5.22   1 
  -1   0   4  217.73    7.12   1 
   1   7  -7   59.12   12.19   1 
   2   1  -6   25.55    3.24   1 
   3   7 -10    5.10    7.03   1 
   6  -5   4    3.30    7.08   1 
   6   2 -11   22.56    5.48   1 
   7  -4  -1   14.17    5.68   1 
   7  -2  -6    5.88    5.32   1 
  -2   1   9   80.73    4.78   1 
  -2   1  10   77.32    4.82   1 
  -2   1  11   15.81    4.83   1 
  -2   1  12  228.05    6.50   1 
  -2   5   2  320.04    7.04   1 
  -1   2   0 2660.92   22.85   1 
   2  -4  13   -0.22    7.91   1 
   2   3  -8   21.27    4.29   1 
   4  -1  -6  378.66    6.51   1 
   4   4 -11   39.94    5.21   1 
   5  -2  -5   66.12    3.92   1 
   5  -1  -7   77.78    4.89   1 
   6   0  -9   67.84    4.13   1 
   7  -1  -8   27.11    5.47   1 
  -1   0  17    6.49    5.97   1 
   2  -4  10   98.59   10.24   1 
   2  -1  -3    3.18    3.22   1 
   2   5  -9    9.97    5.77   1 
   2   6  -9   21.90    6.48   1 
   5   4 -12   20.17    5.56   1 
   6   3 -12    1.33    5.41   1 
  -2   3   4  432.19    7.60   1 
  -2   6   3  135.77    6.16   1 
  -1   3  -1   59.61    6.23   1 
  -1   5  -2   11.30    6.06   1 
   2  -4  11   67.75    8.62   1 
   3  -4   4   67.65    7.51   1 
   4  -5   8    3.21   10.11   1 
   4   1  -9   12.95    4.32   1 
   4   2 -10    6.75    4.48   1 
   5  -4   0   78.88    5.60   1 
   5   1 -10  318.43    6.93   1 
   6  -3  -4   -3.48    4.96   1 
   6  -1  -8    0.30    4.91   1 
   7   1 -11   19.02    5.49   1 
  -2   3  15    7.34    5.85   1 
  -2   5   3  100.20    5.28   1 
  -1   0  16   44.36    6.05   1 
  -1   8   0   12.40    7.63   1 
   1  -2   2  612.79   18.49   1 
   2   0  -5 1171.31   10.84   1 
   3  -2  -3  676.71    8.81   1 
   3   1  -8    7.11    4.27   1 
   3   2  -9  312.71    6.99   1 
   4  -3  -2  181.16    5.63   1 
   4   0  -8    5.21    4.42   1 
   5   2 -11    9.99    5.06   1 
   6  -5   3    1.28    5.77   1 
   7  -4  -2   19.19    5.89   1 
  -2   3  14    7.34    5.66   1 
  -2   6   4  206.71    6.87   1 
  -1   0   5   13.95    4.72   1 
  -1   0  15   60.13    5.98   1 
  -1   7  -1   54.25    7.00   1 
   2   7  -9   21.93    8.38   1 
   7  -1  -9   -7.86    5.41   1 
  -2   3   5  246.57    6.11   1 
  -2   3  13   44.67    5.73   1 
   0  -1  17   36.03    6.42   1 
   1   0  -3  889.88   12.07   1 
   2   4  -9  117.54    6.21   1 
   3   0  -7  914.83    9.30   1 
   3   3 -10  139.62    5.79   1 
   5  -2  -6   13.96    4.62   1 
   5   3 -12   22.23    5.40   1 
   6   0 -10   15.27    5.08   1 
   6   2 -12   33.80    5.93   1 
  -2   3  12  164.49    6.51   1 
  -2   5   4   20.09    4.68   1 
  -2   5  12   17.31    6.00   1 
  -2   6   5  112.46    6.10   1 
  -2   6  10   62.96    6.76   1 
  -1   0  14  125.24    6.17   1 
   0  -2  11  210.07    7.05   1 
   4  -5  12    7.46   14.75   1 
   4   5 -12   93.67    7.01   1 
   6  -5   2   24.88    7.27   1 
  -2   3   6  191.35    4.80   1 
  -2   3  11  211.78    6.79   1 
  -2   5   5    7.66    4.68   1 
  -2   5  11   19.14    6.09   1 
  -2   6   6  161.73    6.68   1 
  -2   6   7   24.26    5.64   1 
  -2   6   8   36.64    6.21   1 
  -2   6   9   63.87    6.36   1 
  -1   0  13  127.10    5.95   1 
  -1   8   1    4.37    5.65   1 
   3   5 -11   75.00    7.12   1 
   3   6 -11   27.93    7.17   1 
   4  -5   7    1.22    8.97   1 
   4  -1  -7   96.24    4.91   1 
   5  -4  -1  129.21    6.08   1 
   6  -3  -5    2.34    5.01   1 
   7  -4  -3    9.57    5.60   1 
  -2   3   7  111.10    4.10   1 
  -2   3   8   63.23    4.95   1 
  -2   3   9    1.46    4.55   1 
  -2   3  10  117.85    5.52   1 
  -2   5   6   51.78    5.23   1 
  -2   5  10   18.74    5.45   1 
  -1   0   6  444.12    8.04   1 
   0  -1  16   53.70    6.28   1 
   1  -3  11    1.59    5.32   1 
   1  -2  17    6.46    6.31   1 
   1   2  -6   61.25    5.87   1 
   2  -3   2  194.59    8.30   1 
   2   1  -7   87.95    4.88   1 
   2   2  -8  226.09    6.16   1 
   4   4 -12    3.92    4.91   1 
   5   1 -11  205.83    6.43   1 
   5   4 -13   26.17    5.93   1 
   7  -2  -8   99.82    6.25   1 
  -2   5   7   13.76    5.25   1 
  -2   5   8   12.85    5.01   1 
  -2   5   9   -0.92    5.13   1 
  -1   0   7  356.48    6.86   1 
  -1   0  12    0.83    3.12   1 
  -1   8   2   -3.47    7.35   1 
   4  -3  -3  186.69    5.80   1 
   4   2 -11  431.19    8.25   1 
   7  -1 -10    3.51    5.34   1 
  -1   0   8  494.93    7.65   1 
  -1   0  10   33.12    4.81   1 
  -1   0  11    0.44    3.06   1 
  -1   2  16    3.71    4.16   1 
  -1   7   0   37.66    5.83   1 
   0  -1  15   28.50    5.99   1 
   2  -1  -4  207.02    5.99   1 
   3  -4   3  127.29    7.33   1 
   3  -2  -4  110.67    5.21   1 
   4   0  -9    7.86    3.21   1 
   5  -2  -7   19.30    4.83   1 
   6  -5   1   33.21    6.23   1 
   6   0 -11   26.54    5.44   1 
   6   2 -13    9.08    5.57   1 
  -1   0   9  484.97    6.97   1 
  -1   4  -1 1503.27   17.03   1 
  -1   8   3   -0.92    6.08   1 
   0   1  -2  304.92   15.76   1 
   1  -2  16    2.46    5.89   1 
   1   3  -7  184.58    6.79   1 
   3   2 -10    9.33    4.28   1 
   4   3 -12  187.88    6.95   1 
   5  -4  -2   72.31    6.57   1 
   5  -1  -9  312.92    6.61   1 
   5   3 -13   71.18    6.25   1 
   6  -3  -6    6.82    5.17   1 
   6  -2  -8  208.27    5.75   1 
   7  -4  -4    3.15    5.78   1 
  -1   2   1    6.43    4.60   1 
  -1   2  15   36.03    4.46   1 
  -1   5  -1  102.77    6.44   1 
   0  -1  14    8.37    5.34   1 
   0   8  -3   32.34    8.72   1 
   2  -3  16   21.59    6.71   1 
   4  -5   6   49.88    9.11   1 
  -1   2  14  127.32    6.60   1 
  -1   7   1   13.71    6.50   1 
   2   5 -10    0.30    6.10   1 
   3   0  -8  656.47    7.69   1 
   3   3 -11   81.32    5.47   1 
   4  -5  11   23.08   14.74   1 
   4  -1  -8    0.25    3.11   1 
   4   5 -13   15.03    7.12   1 
   0  -1  13    9.27    4.98   1 
   1  -2  15   -1.82    5.09   1 
   2   6 -10   63.09    7.56   1 
   4  -3  -4  249.86    6.48   1 
   5   1 -12   34.71    5.30   1 
   6  -5   0  139.45    7.64   1 
  -1   2  13  125.34    6.29   1 
  -1   4  14    6.92    4.17   1 
  -1   7   2   23.70    6.81   1 
   1   5  -8    3.97    6.14   1 
   2  -3  15   45.59    8.12   1 
   2   4 -10   80.11    6.65   1 
   4   1 -11   62.61    5.31   1 
   4   2 -12  236.99    7.08   1 
   4   4 -13   28.56    5.44   1 
   5   0 -11   31.40    3.85   1 
   5   2 -13  204.21    7.52   1 
   6   0 -12   11.43    5.49   1 
   6   1 -13   -1.14    5.53   1 
   7  -4  -5   26.82    6.24   1 
   0  -1  12   81.00    5.47   1 
   1  -1  17   13.23    6.45   1 
   3  -4   2  154.09    7.31   1 
   3  -4  14    8.30    8.18   1 
   3   5 -12   91.86    7.31   1 
   4  -5   5  131.90    9.49   1 
   5  -4  -3   30.29    4.98   1 
   6  -3  -7   14.81    3.63   1 
  -1   2  12   50.99    5.34   1 
  -1   4  13    2.79    3.95   1 
  -1   5  12   59.24    6.63   1 
  -1   7   3  140.83    7.38   1 
  -1   7   4  107.32    7.63   1 
  -1   7   6   -3.09    7.07   1 
  -1   7   7    4.71    5.60   1 
   0   1  16   20.08    6.06   1 
   1  -2  14   24.69    5.55   1 
   1   0  -4  211.54    7.11   1 
   2  -3   1 1385.12   15.71   1 
   2   1  -8  270.34    6.38   1 
   2   2  -9    8.26    4.05   1 
   3  -2  -5  353.21    6.82   1 
   3   6 -12   42.77    7.85   1 
   5  -1 -10  146.40    5.16   1 
   5   3 -14    9.19    6.06   1 
   6  -5  -1   59.77    6.35   1 
   6  -1 -11  224.03    7.44   1 
  -1   2   2  113.26    5.91   1 
  -1   4  12    7.56    5.48   1 
  -1   5   0  169.75    7.21   1 
  -1   6  10   -6.73    6.37   1 
  -1   7   5   56.15    6.24   1 
   0  -1  11  140.50    5.87   1 
   0   8  -2    4.77    7.09   1 
   2  -1  -5   59.00    4.56   1 
   3   4 -12   43.98    5.67   1 
   4  -1  -9   33.90    4.55   1 
   4   3 -13   13.74    5.12   1 
   7  -4  -6   33.56    6.11   1 
  -1   2  11   83.38    4.15   1 
  -1   4   0  287.62    7.51   1 
  -1   5  11   47.27    5.93   1 
  -1   6   9  112.08    6.94   1 
   1  -2  13  125.16    7.24   1 
   3   0  -9  257.40    6.18   1 
   4  -3  -5  111.15    5.15   1 
   5   1 -13    5.16    5.10   1 
  -1   2  10    5.62    4.77   1 
  -1   4  11   -1.12    5.20   1 
  -1   5  10   65.42    6.15   1 
  -1   6   8  213.53    8.07   1 
   0  -1  10  147.87    5.61   1 
   0   1  15   14.39    4.02   1 
   1   0  17   -2.46    6.29   1 
   1   2  -7   -5.76    5.17   1 
   2   7 -10   16.87    8.73   1 
   3  -4  13    0.40    7.47   1 
   4  -5   4  173.89    8.70   1 
   5  -4  -4    7.10    4.46   1 
   5  -2  -9   52.96    5.21   1 
   5   2 -14   90.79    6.66   1 
   6  -3  -8   33.66    5.49   1 
   6  -2 -10   40.05    5.58   1 
   6   0 -13    3.10    5.52   1 
  -1   2   9  242.86    5.92   1 
  -1   5   9    3.59    5.25   1 
  -1   6   7  227.23    7.77   1 
   0  -1   9  162.46    5.79   1 
   3   3 -12   49.52    5.52   1 
   4   0 -11  274.57    6.70   1 
   4   1 -12    5.48    4.76   1 
   4   2 -13    7.33    5.07   1 
   6  -5  -2    6.32    5.36   1 
  -1   2   3  102.73    4.68   1 
  -1   4  10    7.20    3.65   1 
  -1   5   1  149.79    5.89   1 
  -1   6   4  260.88    7.37   1 
  -1   6   5   37.36    5.35   1 
   0  -1   5  286.14    8.04   1 
   0  -1   8   35.99    4.42   1 
   0   1  14   15.37    5.72   1 
   0   3  15   16.55    6.26   1 
   0   8  -1   22.18    7.79   1 
   1  -2  12  112.21    7.01   1 
   1   8  -6   -0.13   11.88   1 
   3  -4   1  151.97    6.35   1 
   4  -5  10   39.17   14.78   1 
   4   4 -14   21.75    5.84   1 
   5  -1 -11   43.66    4.17   1 
  -1   2   4  142.24    5.87   1 
  -1   2   7  225.87    5.93   1 
  -1   2   8   58.29    3.66   1 
  -1   4   1   27.60    4.73   1 
  -1   4   9  142.69    6.06   1 
  -1   5   8   76.91    5.97   1 
   0  -1   6   64.07    4.92   1 
   0  -1   7    4.20    4.14   1 
   1   0  16    7.48    6.25   1 
   1   3  -8  789.34   11.62   1 
   3  -2  -6  259.74    5.29   1 
   4  -5   3   59.57    7.06   1 
  -1   2   5  320.93    6.76   1 
  -1   2   6  358.11    6.79   1 
  -1   4   8  205.34    6.20   1 
  -1   5   2  138.79    5.77   1 
  -1   5   6  143.96    5.90   1 
  -1   5   7  224.58    6.72   1 
   0   4  14   31.64    6.31   1 
   0   7  -3   18.63    7.43   1 
   0   8   0    6.47    6.96   1 
   1  -2   1  382.21   11.67   1 
   2  -3   0  293.43    8.24   1 
   2   1  -9  690.11    9.16   1 
   2   5 -11    3.53    6.18   1 
   3   1 -11  115.17    5.50   1 
   3   5 -13   -1.74    6.86   1 
   4  -3  -6   15.31    4.61   1 
   4  -1 -10   54.03    3.80   1 
   4   3 -14   38.39    5.62   1 
   5  -4  -5    8.80    5.06   1 
   6  -5  -3   -0.54    5.52   1 
   6  -3  -9   23.53    5.65   1 
  -1   4   7   93.42    5.38   1 
  -1   5   3   30.82    4.92   1 
  -1   5   4  189.39    6.21   1 
  -1   5   5  143.47    5.82   1 
   0   1  13   38.29    5.31   1 
   0   3  14    0.95    4.08   1 
   0   8   1   60.60    8.36   1 
   1  -2  11  247.26    7.45   1 
   2  -1  -6  369.20    6.65   1 
   2   2 -10  152.24    5.70   1 
   2   4 -11  149.10    6.72   1 
   3  -4  12    3.27    7.09   1 
   3   0 -10   85.88    5.11   1 
   3   4 -13   86.78    6.48   1 
   5  -2 -10   12.45    5.02   1 
   5   1 -14    5.45    5.50   1 
  -1   4   3 1131.65   11.07   1 
  -1   4   6   10.56    4.41   1 
   0   4  13   31.61    6.06   1 
   0   8   2   -4.00    5.98   1 
   0   8   3    5.88    5.86   1 
   2   6 -11   85.39    9.14   1 
   3  -4   0   73.22    6.07   1 
   3   6 -13  122.45    9.81   1 
   4  -5   2   -0.06    5.91   1 
   5   2 -15   43.12    6.58   1 
  -1   4   4  661.87    8.43   1 
  -1   4   5  227.30    6.12   1 
   0   1  12   37.60    5.09   1 
   0   3  13   48.21    5.84   1 
   0   5  12   69.41    6.69   1 
   1   0  -5   13.86    4.82   1 
   1   0  15   44.13    5.96   1 
   4   2 -14   67.77    6.01   1 
   6  -5  -4    9.68    5.98   1 
   0   6  -4   58.47    8.52   1 
   0   6  10   18.20    6.52   1 
   1  -2  10  105.17    5.60   1 
   3  -2  -7  187.76    5.61   1 
   3   3 -13   28.53    5.20   1 
   4   4 -15   26.89    6.20   1 
   5  -4  -6   32.90    5.44   1 
   6  -3 -10   20.89    5.60   1 
   6  -2 -12  100.57    7.25   1 
   0   4  12   -8.22    5.36   1 
   0   5  11  128.53    7.33   1 
   0   7  -2   23.62    6.72   1 
   0   7   7    5.39    5.96   1 
   2  -1  16   29.20    6.42   1 
   4  -5   1   11.28    6.05   1 
   4  -3  -7   13.23    3.43   1 
   4  -1 -11   61.28    3.98   1 
   0   1  11    8.13    4.62   1 
   0   3  12  198.93    7.04   1 
   0   6   9   15.43    6.02   1 
   0   7   6    5.32    5.86   1 
   1   0  14   61.80    5.68   1 
   1   2  -8   73.17    5.42   1 
   2  -3  -1   44.94    4.64   1 
   2  -3  11   33.64    6.47   1 
   3  -4  -1   -1.23    5.41   1 
   3  -4  11  154.51   10.49   1 
   4   3 -15   65.10    6.80   1 
   5   1 -15   58.54    6.41   1 
   0   4  11   43.15    5.64   1 
   1  -2   9  163.43    7.09   1 
   1   2  15   42.06    6.14   1 
   1   5  -9  213.11   10.39   1 
   2  -1  -7  367.72    6.82   1 
   2   1 -10  482.76    7.85   1 
   3   0 -11   68.49    5.20   1 
   5  -1 -13   83.16    6.27   1 
   6  -5  -5   80.73    6.78   1 
   0   1  10    1.03    4.56   1 
   0   3  11  272.79    6.97   1 
   0   6   8    8.49    5.54   1 
   0   7  -1  204.12    8.01   1 
   3   4 -14  110.44    7.35   1 
   3   5 -14    9.52    7.19   1 
   4  -5   0  137.41    7.50   1 
   4   0 -13   -2.47    5.04   1 
   4   1 -14   52.90    5.96   1 
   5  -4  -7   57.54    5.72   1 
   6  -3 -11    2.80    5.61   1 
   0   3  -5  176.81   11.85   1 
   0   7   0  226.76    7.91   1 
   0   7   3   -0.54    5.31   1 
   1   0  13   16.74    5.52   1 
   1   3  -9 1138.31   13.81   1 
   2  -1  15   21.51    5.91   1 
   2   4 -12   52.30    5.56   1 
   2   5 -12    3.19    6.43   1 
   3  -2  -8    8.12    3.05   1 
   4  -3  -8   97.85    5.46   1 
   4   2 -15    2.05    5.34   1 
   0   4  10  146.16    5.11   1 
   0   6   7   24.28    5.55   1 
   0   7   1   20.57    5.67   1 
   0   7   2    8.97    5.19   1 
   1  -2   0 2629.96   23.05   1 
   1   0  -6  459.25    8.33   1 
   1   2  14  200.13    7.58   1 
   1   3  14    6.27    5.99   1 
   1   8  -5    4.25    8.86   1 
   3  -4  -2  142.98    5.78   1 
   3   3 -14   74.61    5.63   1 
   5  -2 -12   10.74    3.78   1 
   6  -5  -6   45.78    6.70   1 
   0   1   9   54.61    4.87   1 
   0   3  10  360.13    7.26   1 
   0   6   6   96.03    6.28   1 
   2  -3  -2   45.76    4.61   1 
   2  -3  10  420.48   10.61   1 
   2   1  16  117.73    7.58   1 
   2   7 -11   84.99   13.05   1 
   4  -5  -1  320.71    7.78   1 
   5  -4  -8   42.14    5.79   1 
   5  -1 -14  134.86    7.06   1 
   0   4   9  267.86    6.94   1 
   0   5   8    5.71    3.70   1 
   0   6  -3   27.88    6.31   1 
   2  -1  -8  976.51    9.83   1 
   3   0 -12  391.06    7.59   1 
   3   1 -13   15.87    3.66   1 
   4  -5   9   22.73   13.27   1 
   5  -6   3   14.79    8.75   1 
   5  -6   4    4.58    7.69   1 
   5  -6   5   46.46   10.20   1 
   0   3   9  142.71    5.88   1 
   0   6   5  235.22    7.43   1 
   1   0  12   21.32    5.01   1 
   1   2  13  247.56    7.26   1 
   1   3  13    4.04    5.56   1 
   2  -1  14   -0.95    5.38   1 
   2   1 -11  159.99    5.94   1 
   2   6 -12   28.79    8.51   1 
   3  -4  10  196.48   10.86   1 
   3  -2  -9   91.00    5.33   1 
   3  -2  15   43.31    6.67   1 
   4  -4  13    4.20    7.63   1 
   4  -3  -9   74.93    5.36   1 
   4   0 -14   -1.39    3.66   1 
   5  -6   2  118.02    8.84   1 
   6  -5  -7   16.66    6.42   1 
   0   1  -3  410.56   13.18   1 
   0   1   8  320.57    6.73   1 
   0   4   8    4.71    5.04   1 
   0   5   7  152.96    5.60   1 
   0   6   4   97.01    5.82   1 
   1   2  -9  148.10    5.92   1 
   2   2 -12   20.96    4.69   1 
   3  -4  -3  265.33    6.66   1 
   4  -5  -2  101.98    6.05   1 
   4  -1 -13   18.80    5.23   1 
   4   2 -16   15.63    6.14   1 
   5  -6   6   58.25   13.06   1 
   5  -2 -13   -0.89    3.73   1 
   0   6  -2  149.99    7.72   1 
   0   6   3   53.98    5.76   1 
   1  -2  -1    8.98    4.93   1 
   1   5  11   -3.06    4.18   1 
   1   8  -4   14.55    7.68   1 
   2  -3  -3   92.86    4.95   1 
   2  -2  12   54.74    5.66   1 
   2   1  15   78.75    5.29   1 
   2   2  15    2.30    5.82   1 
   3   4 -15   37.15    6.34   1 
   5  -6   1  191.51    8.22   1 
   5  -4  -9   16.67    5.74   1 
   0   3   8  135.33    5.50   1 
   0   5   6  176.77    5.41   1 
   0   6   2    8.82    4.73   1 
   1   0  -7  338.68    7.03   1 
   1   3  12    0.03    5.08   1 
   1   6   9    2.64    5.97   1 
   2  -3   9  228.79    9.20   1 
   2   4 -13    2.73    6.38   1 
   3   3 -15   66.62    6.41   1 
   4  -5  -3   46.53    6.22   1 
   5  -6   0   90.24    8.19   1 
   0   1   7  502.36    7.21   1 
   0   4   7   44.92    3.83   1 
   0   6  -1  406.21    8.89   1 
   0   6   0  160.79    7.43   1 
   0   6   1   39.98    5.37   1 
   1   0  11    7.73    4.77   1 
   1   2  12   89.88    5.87   1 
   1   3 -10  592.04   10.86   1 
   1   5  10    7.68    5.61   1 
   1   6  -9  163.22   16.04   1 
   1   7  -7   58.32   13.55   1 
   1   8  -3   29.57    7.86   1 
   1   8   1   86.32    8.83   1 
   1   8   2   62.11    7.82   1 
   2  -1  -9   76.39    4.76   1 
   2  -1  13   63.79    5.73   1 
   3  -4  -4  407.53    7.46   1 
   3  -2 -10   11.82    4.68   1 
   3  -2  14  104.56    8.34   1 
   3   0 -13   69.48    5.37   1 
   3   1 -14   -1.30    5.13   1 
   4  -3 -10   52.44    4.22   1 
   4   0 -15   33.46    5.86   1 
   0   3   7  949.54    9.51   1 
   1   7   6    2.29    6.36   1 
   1   8  -2   47.32    8.24   1 
   1   8  -1    6.83    7.74   1 
   1   8   0   19.02    6.65   1 
   2   1  14   36.67    6.00   1 
   2   3  14    9.95    5.99   1 
   2   5 -13    3.42    6.46   1 
   5  -6  -1   47.51    6.59   1 
   5  -4 -10   12.69    5.88   1 
   5  -2 -14    3.63    3.92   1 
   0   1   6  791.19    9.63   1 
   0   4   6   -1.22    4.57   1 
   0   5   4  105.46    5.80   1 
   1  -2   6 1480.08   17.82   1 
   1   3  11   30.47    5.38   1 
   1   6   8    4.67    4.20   1 
   2  -3  -4  364.19    6.69   1 
   2   1 -12   -5.72    4.53   1 
   2   2  14   -3.00    5.54   1 
   4  -5  -4    0.97    4.52   1 
   1  -2  -2  116.25    6.12   1 
   1   2  11  145.72    5.85   1 
   1   5 -10   68.38    8.39   1 
   1   5   9    1.43    5.43   1 
   1   7   5   15.03    6.10   1 
   3  -4  -5  215.93    6.32   1 
   4  -4  12    3.42    7.28   1 
   4  -3 -11   10.14    5.18   1 
   4  -3  14   22.43    6.68   1 
   5  -6  -2    1.98    5.57   1 
   0   3   6 1281.61   11.07   1 
   0   4   5   52.21    5.10   1 
   0   5   3   57.48    5.28   1 
   1   0  10  162.70    5.80   1 
   1   2 -10  118.84    5.63   1 
   1   6   7  179.84    7.64   1 
   1   7   4   71.71    7.90   1 
   2  -1 -10   63.18    4.88   1 
   2   3  13    2.84    5.87   1 
   3  -4   9   25.73    8.05   1 
   3  -2 -11   63.12    5.20   1 
   3   0  15   11.78    5.98   1 
   3   4 -16    0.88    5.64   1 
   0   1   5  301.10    7.16   1 
   1   0  -8  321.10    6.08   1 
   2  -3  -5  227.38    6.20   1 
   2  -1  12  181.41    6.53   1 
   2   1  13   32.97    5.61   1 
   3   1 -15    3.94    5.40   1 
   3   1  15   -0.75    6.17   1 
   3   3 -16   35.79    6.27   1 
   4  -5  -5   76.00    5.65   1 
   4   0 -16   46.92    6.64   1 
   5  -6  -3  109.19    6.84   1 
   5  -4 -11    2.12    5.74   1 
   0   4   4   47.22    4.92   1 
   1  -2  -3  110.41    5.97   1 
   1   3  10  270.49    6.63   1 
   1   5   8  134.08    6.34   1 
   1   7   3   83.93    6.81   1 
   2  -3   8   71.59    6.98   1 
   2   2  13   21.33    3.95   1 
   2   4 -14    9.09    6.51   1 
   2   4  12    2.71    5.61   1 
   2   5  11   96.76    7.02   1 
   2   6 -13   14.54    8.46   1 
   3  -4  -6    7.99    4.70   1 
   3  -2  13  105.98    7.11   1 
   0   1  -4  323.33    9.43   1 
   0   3   5  981.25   10.10   1 
   0   5  -3   63.83    6.78   1 
   0   5   1   71.22    5.07   1 
   1   2  10   64.40    5.21   1 
   1   4   9   44.73    4.08   1 
   2   1 -13   72.22    5.32   1 
   4  -5  -6  125.49    6.51   1 
   4  -3 -12    1.03    5.38   1 
   5  -6  -4  102.86    7.05   1 
   0   5   0    0.64    4.24   1 
   1   0   9  527.41    8.20   1 
   1   7   2   51.59    6.20   1 
   2  -3  -6  211.05    6.05   1 
   2   2 -14    0.63    4.74   1 
   2   3  12   -2.90    5.27   1 
   2   5 -14    0.35    6.61   1 
   3  -2 -12  127.81    6.10   1 
   3   0  14   51.00    6.20   1 
   0   1   4    8.26    5.43   1 
   0   3  -6  225.50   10.57   1 
   0   3   4  426.15    8.00   1 
   0   4   3  142.77    5.63   1 
   1  -2  -4  130.49    5.89   1 
   1  -2   5  309.84   10.61   1 
   1   0  -9  613.45    8.55   1 
   1   3   9    8.48    4.96   1 
   1   5   7   92.48    6.08   1 
   1   6   5   -1.66    5.48   1 
   2  -1 -11    9.44    3.39   1 
   2   2  12    5.11    5.33   1 
   2   4  11   11.13    5.87   1 
   2   5  10  153.49    7.83   1 
   3  -4  -7   44.97    5.21   1 
   3   0 -15   46.66    5.86   1 
   3   1 -16    0.89    5.62   1 
   3   1  14   35.03    5.98   1 
   3   2  14    1.98    5.98   1 
   4  -3  13    3.19    5.93   1 
   5  -6  -5   60.99    6.71   1 
   1   4   8  277.89    6.85   1 
   1   7  -6  185.83   12.13   1 
   1   7   1    5.92    5.63   1 
   2  -1  11  260.75    6.94   1 
   2   1  12   14.42    5.14   1 
   4  -5  -7  150.62    6.77   1 
   4  -3 -13   -2.76    5.47   1 
   0   4   2   92.68    5.28   1 
   1   2   9  667.37    7.76   1 
   1   6   4  142.29    6.59   1 
   1   7   0  153.37    8.37   1 
   2  -3  -7  128.23    5.46   1 
   2   6   8    7.17    4.30   1 
   3  -2  12   76.65    7.16   1 
   3   3  13   16.87    6.22   1 
   5  -6  -6   22.24    6.64   1 
   0   3   3    3.61    4.47   1 
   1  -2  -5  291.02    6.68   1 
   1   5 -11    1.88    7.21   1 
   1   5   6   54.33    5.78   1 
   1   7  -1   94.48    7.75   1 
   2   3  11    2.48    5.07   1 
   2   4 -15   46.45    7.53   1 
   3  -4  -8  196.98    6.40   1 
   3  -2 -13   11.19    5.25   1 
   4  -6   1   -0.64    6.78   1 
   4  -5  -8   48.14    6.19   1 
   0   1  -5  238.61    7.84   1 
   0   1   3  470.58    8.74   1 
   0   4   1  120.64    5.68   1 
   1   0 -10   28.58    4.76   1 
   1   0   8   60.27    4.98   1 
   1   3   8   26.17    5.05   1 
   1   4   7   19.09    5.18   1 
   1   7  -5    6.89    7.87   1 
   1   7  -2  127.39    8.36   1 
   2  -1 -12  149.23    4.94   1 
   2   2 -15    7.83    5.02   1 
   2   4  10   12.37    5.47   1 
   2   7   5   20.72    6.42   1 
   3  -5   4  266.08   13.44   1 
   3   0 -16   -3.91    5.71   1 
   3   0  13   26.96    5.74   1 
   3   2  13   31.62    6.17   1 
   4  -6   2    4.71    6.85   1 
   1   2 -12  110.30    6.39   1 
   1   6   3  328.89    7.74   1 
   1   7  -4   25.07    7.05   1 
   1   7  -3  110.76    8.30   1 
   2  -3  -8   55.03    4.96   1 
   2  -3   7  713.05   14.10   1 
   2   1  11  201.85    6.68   1 
   2   2  11   76.37    4.38   1 
   2   6   7   10.22    4.22   1 
   3  -4   8   70.48    9.03   1 
   3   1 -17   -0.27    5.75   1 
   3   1  13   85.04    6.79   1 
   4  -6   3   77.41    9.35   1 
   4  -5   8    2.25   10.85   1 
   4  -3 -14   11.59    5.96   1 
   4  -1  14    3.30    5.89   1 
   0   3   2  603.88    9.20   1 
   0   4   0  338.51    8.50   1 
   1  -2  -6  312.09    6.65   1 
   1   2   8  462.62    6.58   1 
   1   5   5   17.26    5.19   1 
   2  -1  10  192.86    6.28   1 
   2   5 -15    6.72    7.33   1 
   2   7   4   30.58    6.62   1 
   2   8   0   36.81    6.93   1 
   3  -4  -9  108.76    5.02   1 
   3  -2 -14    2.99    5.40   1 
   4  -5  -9   11.06    5.54   1 
   4  -3  12   16.61    7.22   1 
   1   6   2  256.76    7.54   1 
   2  -1 -13  330.07    7.34   1 
   2   1 -15  141.76    7.02   1 
   2   3  10    6.32    5.19   1 
   2   4   9  119.30    6.17   1 
   2   5   8  146.78    6.77   1 
   3   3  12    9.10    4.05   1 
   3   5  10   12.91    6.31   1 
   4   0  14   83.73    7.06   1 
   5  -5  10   14.25    9.48   1 
   0   1  -6   64.16    5.12   1 
   0   1   2 1349.78   16.39   1 
   0   3  -7  150.18    8.61   1 
   0   4  -1   11.40    5.62   1 
   1   0 -11   -2.00    4.63   1 
   1   3   7   30.45    3.53   1 
   1   4   6   10.80    3.38   1 
   2  -3  -9   -2.00    4.68   1 
   2   3 -16   15.60    5.69   1 
   2   6   6  100.07    6.64   1 
   2   8  -1   23.28    7.18   1 
   3  -4 -10  151.69    6.58   1 
   3  -2  11   19.34    6.35   1 
   3   0 -17    5.62    5.71   1 
   1  -2  -7  204.66    5.98   1 
   1   0   7   57.77    5.11   1 
   1   5   4    8.37    4.87   1 
   2   2 -16   13.08    5.64   1 
   2   2  10   40.54    5.37   1 
   2   4 -16   12.78    6.33   1 
   2   7   3   26.97    6.12   1 
   2   8  -2    1.61    7.88   1 
   3   0  12    6.78    5.37   1 
   3   2  12   36.90    4.39   1 
   4  -5 -10    2.81    3.85   1 
   0   3   1 1088.18   11.99   1 
   1   2 -13  147.62    6.49   1 
   1   2   7  784.49    9.25   1 
   1   6   1  835.30   11.23   1 
   2   1  10  769.75    9.12   1 
   2   5   7    4.44    5.02   1 
   3  -2 -15    5.35    5.61   1 
   3   1  12  111.04    5.04   1 
   4  -6   4   54.02   11.65   1 
   4  -1  13    1.00    5.41   1 
   4   2  13   12.41    6.20   1 
   5  -7   0    0.90    8.02   1 
   1  -2   4    5.26    7.78   1 
   1   4   5   26.04    4.99   1 
   1   5 -12  134.91    9.68   1 
   2  -3 -10  102.83    5.49   1 
   2  -1 -14   20.78    5.42   1 
   2   1 -16   67.78    6.45   1 
   2   3   9   42.99    4.99   1 
   2   4   8  125.89    6.06   1 
   2   6   5   61.83    6.33   1 
   2   8  -3    3.06    6.26   1 
   3  -4 -11   45.32    5.64   1 
   3   3  11   59.34    4.77   1 
   3   5   9   81.57    6.76   1 
   4  -5 -11   24.23    6.48   1 
   5  -7   1   22.75    8.93   1 
   0   1  -7    0.83    4.20   1 
   1  -2  -8   52.45    3.73   1 
   1   0 -12    5.66    4.70   1 
   1   3   6   -0.56    3.11   1 
   1   4 -13  328.03    9.67   1 
   1   5   3    5.82    4.49   1 
   1   6   0   73.04    6.97   1 
   2  -1   9   23.35    4.65   1 
   2   7   2   53.88    6.64   1 
   2   8  -4    2.24    7.89   1 
   3   6   7   68.99    6.81   1 
   4   0  13   38.13    6.32   1 
   4   1  13    9.67    4.08   1 
   0   3   0 1160.00   13.92   1 
   2   2 -17    4.12    5.77   1 
   2   3 -17    5.77    5.88   1 
   2   8  -6    3.98    8.28   1 
   2   8  -5    4.10    7.96   1 
   3   2  11   12.75    5.41   1 
   5  -7   2    3.21   10.05   1 
   0   3  -8   11.55    5.29   1 
   1  -2  -9  203.75    5.77   1 
   1   2 -14   21.99    6.40   1 
   1   3 -14  152.61    8.10   1 
   2  -3 -11  136.54    5.26   1 
   2  -1 -15   24.21    5.62   1 
   2   2   9   12.53    3.72   1 
   2   5   6  533.15    8.61   1 
   2   6   4   38.14    5.81   1 
   2   7   1    3.77    5.71   1 
   3  -4 -12   36.22    6.13   1 
   3   5   8   61.94    6.34   1 
   4  -6  -8   -3.82    6.13   1 
   4  -3  11   66.10    6.65   1 
   5  -2  13   53.32    7.03   1 
   0   1  -8   34.27    4.46   1 
   0   1   1 1282.12   18.11   1 
   1   0   6    3.21    4.87   1 
   1   2   6  210.04    5.29   1 
   1   4   4   26.71    4.99   1 
   1   5   2  166.28    7.35   1 
   1   6  -1  456.27    8.88   1 
   2   1 -17   11.03    6.03   1 
   2   1   9    3.25    4.57   1 
   2   3   8   14.48    4.82   1 
   2   4   7   15.96    5.12   1 
   3  -2  10   25.82    6.14   1 
   3   0  11   99.22    5.76   1 
   3   1  11  105.75    4.84   1 
   3   3  10   62.06    5.86   1 
   3   7   4    7.86    6.27   1 
   4   2  12   67.15    6.25   1 
   5  -4  11   32.60    8.05   1 
   1   0 -13   76.31    4.46   1 
   1   3   5   41.73    4.97   1 
   2  -3 -12  124.63    6.35   1 
   3  -4 -13   15.57    6.02   1 
   3   6   6   -2.16    6.09   1 
   4  -1  12    9.78    5.40   1 
   4   1  12   24.80    5.85   1 
   5  -1  13   12.57    6.31   1 
   1  -2 -10    1.97    4.95   1 
   1   4 -14   73.48    8.04   1 
   1   6  -2  508.83   10.72   1 
   2   6   3    4.76    5.42   1 
   2   7   0   44.48    6.43   1 
   4   0  12   20.81    5.53   1 
   4   3  11   36.14    6.26   1 
   4   4  10   16.64    6.36   1 
   0   1  -9  132.79    5.73   1 
   0   3  -9   27.49    5.92   1 
   0   3  -1  708.68   12.78   1 
   1   5 -13    0.91    8.06   1 
   2  -3   6  128.57    8.46   1 
   2  -1 -16    1.08    5.59   1 
   2   2   8   50.86    4.92   1 
   3  -6  -3   29.09    5.76   1 
   3  -6  -2   11.56    5.28   1 
   3   2  10   11.40    5.12   1 
   3   5   7  111.98    6.28   1 
   3   7   3    8.89    6.34   1 
   0  -1  -4    5.13    5.39   1 
   1  -2 -11   87.23    5.45   1 
   1   0 -14   89.99    6.17   1 
   1   2 -15   10.98    5.41   1 
   1   3 -15  138.03    7.47   1 
   1   4   3   31.61    4.87   1 
   1   5   1  164.31    6.22   1 
   2  -5  -3   90.82    5.43   1 
   2  -5  -2  314.10    8.22   1 
   2  -3 -13   38.53    5.64   1 
   2  -1   8  114.21    5.59   1 
   2   4   6   -6.83    5.18   1 
   3  -6  -5    9.02    5.17   1 
   3  -6  -4    2.68    5.28   1 
   3  -6  -1   -1.93    5.10   1 
   3   3   9    9.53    5.24   1 
   3   6   5    1.64    5.81   1 
   0  -1  -5  259.52    7.02   1 
   0  -1  -3  429.29    8.59   1 
   1   2   5    4.89    4.74   1 
   1   6  -3  930.82   13.85   1 
   2  -5  -5    2.84    5.02   1 
   2  -5  -4   15.14    5.05   1 
   2  -5  -1   68.37    6.73   1 
   2   1   8   23.60    4.79   1 
   2   3   7   42.21    5.13   1 
   2   7  -1    1.62    5.87   1 
   3  -6  -6   -0.49    5.72   1 
   3  -6   0   17.00    6.92   1 
   3  -4   7    9.54    7.60   1 
   3   0  10    3.94    4.85   1 
   3   1  10   -0.29    4.97   1 
   3   4   8  125.14    5.21   1 
   4   2  11   62.98    4.71   1 
   4   5   8   -0.51    6.15   1 
   5  -2  12   41.33    6.30   1 
   0  -1  -6  694.12    9.29   1 
   0  -1  -2 1254.81   16.21   1 
   0   1 -10  129.42    5.60   1 
   1   3   4  700.78    9.00   1 
   2  -5  -6   38.61    5.39   1 
   2  -1 -17    4.41    5.82   1 
   2   5   4  583.98    9.01   1 
   2   6   2   33.14    5.51   1 
   3  -6  -7    9.31    5.64   1 
   3   7   2    9.99    6.12   1 
   4  -7  -4   21.72    7.07   1 
   4  -7  -3    1.74    6.48   1 
   4  -7  -2    9.69    6.42   1 
   4   4   9   39.58    6.15   1 
   5   1  12   15.51    6.30   1 
   0  -1  -7  530.51    8.08   1 
   0   3 -10    5.11    5.99   1 
   1  -2 -12   47.61    5.20   1 
   1   0 -15   48.64    6.03   1 
   1   2 -16   60.80    7.56   1 
   1   4 -15    1.74    5.63   1 
   1   6  -4  705.82   13.33   1 
   2  -5  -7    0.37    5.53   1 
   2  -5   0  367.14    9.67   1 
   2  -3 -14    0.80    3.98   1 
   2   7  -2    4.26    7.20   1 
   3   5   6    8.01    5.27   1 
   4  -7  -1   24.29    6.73   1 
   4  -1  11   20.84    5.35   1 
   4   1  11  151.08    6.67   1 
   5  -1  12   69.33    6.93   1 
   1   0   5  243.15    6.31   1 
   1   3 -16   30.03    7.36   1 
   1   5   0  189.66    6.26   1 
   3  -6  -8   25.00    6.22   1 
   3  -6   1  260.26   10.07   1 
   3  -2   9   49.34    5.56   1 
   3   2   9   51.54    5.23   1 
   3   6   4   10.20    5.94   1 
   4  -7   0   11.40    8.25   1 
   4   0  11   68.03    5.87   1 
   5   0  12   81.43    5.74   1 
   0  -1  -8  230.70    6.29   1 
   0   1 -11   99.44    5.57   1 
   0   3  -2   40.57    7.50   1 
   1  -2 -13   91.49    5.89   1 
   1   4   2   23.65    4.63   1 
   1   5 -14   -0.54    7.15   1 
   2  -5  -8   13.54    5.23   1 
   2  -3 -15    4.52    5.81   1 
   2   2   7   -1.57    3.19   1 
   2   4   5  176.84    5.99   1 
   2   6   1  219.98    7.33   1 
   3  -6  -9   12.51    6.30   1 
   3   3   8    8.59    4.98   1 
   3   4   7  527.32    8.69   1 
   3   7   1    3.94    6.12   1 
   4   5   7    4.43    5.98   1 
   5  -4  10   24.61    7.85   1 
   0  -1  -9   48.08    4.81   1 
   1  -4  -5  201.83    6.33   1 
   1  -4  -4  614.11    8.60   1 
   1  -4  -3 1069.63   11.21   1 
   1   0 -16   42.14    6.03   1 
   1   6  -5   36.86    7.05   1 
   2  -5  -9    3.95    5.39   1 
   2   3   6  209.44    4.92   1 
   2   5   3   52.74    5.54   1 
   2   7  -3   35.98    7.64   1 
   3   1   9   -0.93    4.85   1 
   4   2  10    2.22    3.76   1 
   4   6   5    1.23    6.22   1 
   0  -1  -1 1221.10   18.11   1 
   0   1 -12   61.76    5.47   1 
   0   3 -11    8.67    5.13   1 
   1  -4  -7   61.00    5.39   1 
   1  -4  -6    5.23    3.35   1 
   1  -4  -2  615.24    9.32   1 
   1   2 -17   64.26    6.74   1 
   1   2   4  291.41    6.77   1 
   1   3   3   43.76    4.95   1 
   1   4 -16   10.29    7.46   1 
   2  -5   1  110.11    7.71   1 
   2   1   7    1.71    4.67   1 
   3   5   5   21.56    5.40   1 
   4  -7   1    1.24    7.80   1 
   4  -5   7    1.15    9.39   1 
   4   3   9  124.73    6.38   1 
   4   4   8   10.11    5.65   1 
   5   3  10   -0.58    4.41   1 
   0  -1 -10    3.47    4.56   1 
   0   1   0  653.95   17.15   1 
   1  -4  -8  163.16    6.14   1 
   1  -2 -14   87.56    6.35   1 
   1   3 -17    8.20    7.31   1 
   1   5  -1  104.59    5.62   1 
   1   6  -6   46.75    8.48   1 
   2  -5 -10   17.15    5.61   1 
   2  -1   7  911.28   10.48   1 
   3  -6   2  175.41   10.52   1 
   3   0   9   45.16    5.00   1 
   3   6   3   11.07    3.90   1 
   4   1  10  297.66    7.31   1 
   5  -2  11    0.78    5.36   1 
   5   1  11    7.61    5.75   1 
   1  -4  -1   24.18    6.03   1 
   2  -5 -11   14.23    6.03   1 
   2   6   0  251.07    7.36   1 
   2   7  -4   10.76    6.08   1 
   3   2   8  509.23    7.89   1 
   3   7   0    3.12    5.95   1 
   4   5   6    3.01    5.62   1 
   5   0  11   56.95    6.56   1 
   0  -1 -11    9.57    4.79   1 
   0   1 -13    4.27    5.01   1 
   0   3 -12   14.15    5.23   1 
   1  -4  -9  104.07    5.87   1 
   1  -2 -15   28.79    5.80   1 
   1   0 -17   -2.58    4.24   1 
   1   4   1  132.89    5.68   1 
   1   5 -15    5.41    7.52   1 
   2   2   6  123.31    5.51   1 
   2   4   4  136.49    4.60   1 
   3   3   7   17.57    4.94   1 
   4  -1  10    8.64    5.12   1 
   4   6   4   -1.41    6.08   1 
   1  -4 -10   10.96    5.21   1 
   1   6  -7  301.59   13.62   1 
   2  -5 -12   14.78    6.07   1 
   2   3   5  692.15    8.34   1 
   2   5   2    9.33    4.78   1 
   2   7  -5   45.94    7.83   1 
   3   6   2   18.34    5.71   1 
   4   2   9    9.58    3.83   1 
   4   4   7   66.46    6.04   1 
   5   3   9    6.62    5.83   1 
   5   4   8   11.83    5.98   1 
   0  -1 -12   22.72    4.93   1 
   1   5  -2    2.20    5.74   1 
   2  -6  -5  105.38    6.64   1 
   3  -7  -5   -3.75    7.56   1 
   3   1   8  300.09    6.69   1 
   3   5   4  159.40    5.26   1 
   3   7  -1   -1.94    5.70   1 
   4  -7   2   10.05    9.10   1 
   4   3   8   26.69    3.96   1 
   0   1 -14   10.69    5.40   1 
   0   3 -13   26.69    5.46   1 
   1  -4 -11    2.73    3.71   1 
   1  -2 -16   10.69    5.79   1 
   1   0   4  465.57    9.29   1 
   1   3   2  230.02    6.52   1 
   1   6  -8  326.04   16.96   1 
   2  -6  -7   17.83    5.73   1 
   2  -6  -6  135.34    6.90   1 
   2  -6  -4  188.10    7.02   1 
   2  -6  -3  117.55    7.59   1 
   2   6  -1   35.11    5.45   1 
   3  -7  -6    0.38    6.41   1 
   3  -7  -4    5.90    6.06   1 
   3  -7  -3   79.67    8.68   1 
   3  -2   8  580.88    9.19   1 
   5   1  10   11.39    5.51   1 
   6  -1  11   11.55    6.63   1 
   0  -1 -13   25.66    5.14   1 
   1  -4 -12    3.49    5.67   1 
   1  -4   0  287.72    8.03   1 
   1   2   3 1109.48   10.98   1 
   2  -6  -8   33.22    6.09   1 
   2  -5   2  235.26   10.22   1 
   2   1   6  369.61    6.92   1 
   2   7  -6   47.24    8.06   1 
   3   0   8    1.92    4.47   1 
   3   4   5   63.78    5.55   1 
   4   1   9  296.95    7.08   1 
   4   5   5   53.91    5.81   1 
   4   6   3    3.75    5.79   1 
   5   5   6   13.49    6.00   1 
   0  -3  -6 1067.44   10.51   1 
   0   1 -15   20.08    5.62   1 
   1   4   0    1.96    4.48   1 
   1   6  -9  147.02   16.08   1 
   2  -6  -9   47.65    6.46   1 
   2  -6  -2   38.51    5.64   1 
   2   4   3  293.03    5.79   1 
   2   5   1  131.61    6.12   1 
   3  -7  -2  122.00    7.86   1 
   3   2   7  276.45    6.53   1 
   3   3   6  352.62    6.87   1 
   3   6   1    4.55    5.47   1 
   3   7  -2   11.47    6.07   1 
   5  -4   9   11.87    6.01   1 
   5  -2  10   11.63    5.58   1 
   5   0  10    2.70    5.55   1 
   0  -3  -8  105.59    5.37   1 
   0  -3  -7  649.77    7.82   1 
   0  -3  -5  862.70    9.84   1 
   0  -1 -14   15.82    5.26   1 
   0   3 -14   29.70    5.81   1 
   0   3  -3    1.68    7.77   1 
   1  -5  -8   60.46    5.97   1 
   1  -5  -7  183.77    6.87   1 
   1  -5  -6  119.68    6.16   1 
   1  -5  -5  121.92    5.99   1 
   1  -5  -4  153.79    6.43   1 
   1  -4 -13    5.52    5.66   1 
   2  -6 -10   58.75    6.93   1 
   3   5   3  332.57    7.78   1 
   4   2   8   65.62    5.43   1 
   4   4   6   43.62    5.46   1 
   4   7   0   14.63    6.49   1 
   5  -1  10   -0.86    5.20   1 
   5   3   8   37.76    6.01   1 
   5   4   7   53.25    4.77   1 
   0  -3  -9  115.76    5.69   1 
   0  -3  -4  398.79    7.69   1 
   1  -5  -9    1.78    5.40   1 
   1   5  -3  226.64    8.31   1 
   2  -6  -1   68.70    7.22   1 
   2  -1   6  871.81   10.39   1 
   2   2   5 1377.20   10.79   1 
   2   3   4  354.60    6.03   1 
   2   6  -2   41.19    5.46   1 
   2   7  -7   23.47    8.14   1 
   3  -7  -1  144.22    7.89   1 
   4  -1   9    2.58    4.92   1 
   4   3   7    1.61    3.63   1 
   6  -3  10   28.86    7.71   1 
   0  -3 -10  275.28    6.87   1 
   0  -1 -15    4.05    5.30   1 
   0   1 -16   35.15    6.09   1 
   1  -5 -10   57.96    5.88   1 
   1  -5  -3   32.27    5.10   1 
   1  -4 -14    4.84    5.81   1 
   3  -6   3    7.07    9.42   1 
   4   5   4  146.39    6.85   1 
   4   6   2    8.53    5.84   1 
   5   5   5    9.62    6.03   1 
   6   0  10   24.95    6.42   1 
   6   2   9   -4.49    6.15   1 
   0  -3 -11  205.51    6.68   1 
   0  -3  -3    1.11    4.48   1 
   0   3 -15   25.61    5.97   1 
   1  -5 -11   31.46    6.21   1 
   2  -3   5    2.43    5.97   1 
   3   4   4   76.17    5.46   1 
   3   6   0   55.51    5.87   1 
   3   7  -3   35.59    6.51   1 
   4   7  -1   52.63    7.04   1 
   5   1   9   87.24    6.01   1 
   6  -2  10   -2.64    7.08   1 
   0  -3 -12  170.77    6.85   1 
   0   4 -13   50.04    7.55   1 
   1  -5  -2  137.19    6.22   1 
   1   3   1  225.87    6.72   1 
   2   4   2  200.06    6.06   1 
   2   5   0 1331.32   11.93   1 
   2   7  -8    8.32    7.77   1 
   3  -7   0    8.67    7.48   1 
   3  -4   6   37.08    8.21   1 
   4   1   8   76.64    5.46   1 
   5   4   6   84.98    6.40   1 
   6  -1  10   55.90    6.38   1 
   0  -1 -16    3.02    6.03   1 
   0   1 -17   12.64    6.12   1 
   1  -5 -12   30.33    4.94   1 
   1  -4   1 1489.79   18.04   1 
   1   4  -1  183.06    7.34   1 
   2  -6   0  226.71    9.17   1 
   2   6  -3    8.39    5.48   1 
   3   2   6  199.94    5.96   1 
   3   3   5  121.62    5.62   1 
   3   5   2  205.13    5.63   1 
   4   4   5   66.57    4.40   1 
   5   0   9   41.88    5.81   1 
   5   2   8   -0.94    3.74   1 
   5   3   7   35.73    5.82   1 
   0  -4  -8    2.51    4.93   1 
   0  -4  -7   22.00    5.20   1 
   0  -4  -6    1.01    4.65   1 
   0  -3 -13    9.35    5.66   1 
   0  -3  -2  558.55    9.22   1 
   0  -1   0  609.66   17.04   1 
   0   3 -16    4.64    5.79   1 
   1   2   2   88.71    5.95   1 
   1   6 -13    1.66   15.25   1 
   2   1   5   47.41    4.83   1 
   2   7  -9   18.14    9.52   1 
   3  -2   7  338.16    8.06   1 
   3   0   7   20.96    4.68   1 
   3   7  -4    2.99    5.92   1 
   4   2   7  155.67    4.66   1 
   4   3   6   73.17    5.39   1 
   4   5   3  133.13    6.22   1 
   4   6   1   31.60    6.07   1 
   5   5   4    2.74    5.82   1 
   5   6   2   10.94    5.95   1 
   6   1   9   -3.14    4.38   1 
   0  -4 -10  113.21    6.29   1 
   0  -4  -9  178.76    5.42   1 
   0  -4  -5   46.61    5.19   1 
   0  -3 -14    5.61    5.60   1 
   0  -1 -17   10.20    6.13   1 
   0   4 -14    5.92    6.73   1 
   1  -5  -1  146.91    7.16   1 
   1   5  -4  180.24    7.99   1 
   2  -7  -7   22.25    6.74   1 
   2  -7  -6  120.02    7.91   1 
   2  -7  -5  111.09    7.46   1 
   2   3   3   96.76    5.25   1 
   4  -7   3    4.02   10.87   1 
   4   7  -2   82.96    7.09   1 
   5  -2   9   91.52    6.24   1 
   6   2   8   18.00    5.74   1 
  -1   0 -10  139.01    5.94   1 
  -1   0  -9  390.18    7.40   1 
  -1   0  -8   56.12    4.87   1 
   0  -4 -11   26.77    5.58   1 
   0   3 -17   -3.43    7.46   1 
   2  -7  -4   74.95    8.24   1 
   3   4   3  207.74    6.16   1 
   3   6  -1   20.82    5.48   1 
   4  -1   8    0.22    4.68   1 
   5   1   8   14.62    5.30   1 
   6   0   9    6.46    5.85   1 
   6   3   7   17.76    4.25   1 
  -1   0 -11    6.13    4.93   1 
  -1   0  -7   43.50    5.08   1 
   0  -4 -12    4.74    5.46   1 
   0  -4  -4   47.25    4.61   1 
   0  -3 -15   15.81    6.10   1 
   0   4 -15   42.92    7.77   1 
   1  -6 -10   12.33    6.16   1 
   1  -2   3  881.86   24.15   1 
   2   5  -1  447.55    7.96   1 
   2   6  -4  124.00    7.50   1 
   2   7 -10   14.83    9.70   1 
   3   5   1  109.93    5.67   1 
   5  -6   6   50.21   12.21   1 
   5  -4   8   20.83    7.02   1 
   5   4   5   71.38    6.00   1 
   6  -3   9  167.36    8.21   1 
  -1   0 -12   14.93    4.91   1 
  -1   0  -6   -2.02    5.19   1 
   0  -4 -13   19.39    6.11   1 
   1   0   3  550.92   10.28   1 
   2   4   1   61.68    4.87   1 
   3  -7   1   14.22    7.79   1 
   3   7  -5    3.70    5.98   1 
   4   1   7  113.57    5.49   1 
   4   4   4  245.43    5.63   1 
   4   6   0   70.69    6.20   1 
   4   7  -3   60.85    8.11   1 
   5   3   6   12.21    5.29   1 
   5   6   1   64.89    6.82   1 
   6  -2   9    5.48    5.64   1 
   6  -1   9   72.20    6.49   1 
  -1   0 -13    8.95    5.18   1 
   0  -4  -3  127.18    5.55   1 
   0  -3  -1 1019.17   12.52   1 
   1   6 -14   11.93   13.37   1 
   2  -6   1   83.14    7.54   1 
   2   7 -11   78.95   13.45   1 
   3   2   5    9.54    4.37   1 
   3   3   4  133.44    4.27   1 
   4   2   6  148.61    5.62   1 
   4   5   2   -0.86    4.76   1 
   5   5   3   89.06    4.92   1 
   6   4   5  107.45    7.05   1 
  -1  -2 -11  105.79    5.85   1 
  -1  -2 -10   43.68    5.24   1 
  -1  -2  -9  532.58    7.15   1 
  -1  -2  -7  649.30    8.89   1 
  -1   0 -14   48.59    5.54   1 
  -1   2 -10   89.65    6.28   1 
   0  -4 -14   24.37    6.40   1 
   0   4 -16  122.22   10.20   1 
   1  -5   0  162.05    7.69   1 
   1   3   0   14.35    4.42   1 
   2  -7  -2   41.47    7.67   1 
   3   6  -2  109.27    6.06   1 
   5   0   8  160.15    5.25   1 
   6   2   7   62.61    6.07   1 
   6   3   6    8.97    5.45   1 
  -1  -2 -12   85.29    5.93   1 
  -1   2 -12   82.01    5.62   1 
  -1   2 -11  176.01    6.77   1 
  -1   2  -9  126.39    6.78   1 
   1   4  -2  809.31   11.52   1 
   2  -1   5  489.88    8.47   1 
   3   7  -6   12.72    7.49   1 
   4  -5   6   52.72    9.08   1 
   5   4   4    3.98    5.19   1 
  -1  -2 -13  178.61    7.04   1 
  -1  -2  -6  184.30    5.16   1 
  -1   0 -15   20.69    5.96   1 
  -1   0  -5  214.68    6.22   1 
  -1   2 -13   93.28    6.00   1 
   1   5  -5  113.22    7.76   1 
   2  -5   3  295.59   13.46   1 
   2   1   4   25.91    4.40   1 
   2   3   2  114.62    4.26   1 
   2   6  -5  381.23   10.02   1 
   3   0   6   61.58    5.07   1 
   3   4   2  238.26    6.09   1 
   3   5   0  141.29    5.87   1 
   4   6  -1   43.37    5.71   1 
   4   7  -4    2.13    6.05   1 
   5  -2   8  418.12    8.87   1 
   5  -1   8   57.72    5.81   1 
   5   1   7   83.27    5.40   1 
   5   6   0   23.13    6.29   1 
   6   0   8    2.15    5.30   1 
  -1  -3 -10  232.14    6.39   1 
  -1  -3  -9    5.23    4.89   1 
  -1  -2 -14  151.36    7.09   1 
  -1   2 -14   16.64    6.30   1 
  -1   2  -8  140.29    6.55   1 
   0  -4  -2   90.22    5.49   1 
   2   5  -2  117.55    5.60   1 
   4   4   3   48.68    3.96   1 
   5   3   5   85.72    5.68   1 
   5   5   2  273.54    7.79   1 
  -1  -3 -12   -3.56    5.12   1 
  -1  -3 -11   27.51    5.31   1 
  -1  -3  -8   15.85    3.49   1 
  -1  -3  -7   27.09    4.78   1 
  -1  -2  -5    1.99    3.42   1 
  -1   0 -16   10.29    5.93   1 
   1   2   1  431.54    8.92   1 
   2   4   0   12.38    4.41   1 
   3   6  -3  183.24    8.00   1 
   4  -1   7  117.76    5.66   1 
   4   5   1   29.34    5.35   1 
   5   2   6    3.17    3.64   1 
   6   4   4   54.18    5.07   1 
  -1  -3 -13    3.38    5.69   1 
  -1  -3  -6   -0.27    4.43   1 
  -1  -2 -15   11.79    6.09   1 
  -1  -1 -16   32.62    5.06   1 
  -1   2 -15   -0.12    5.22   1 
   1  -7  -7    3.30    6.43   1 
   3   3   3  322.81    6.52   1 
   3   7  -7  149.11    9.55   1 
   4   1   6  755.18    8.63   1 
   4   3   4   36.69    5.03   1 
   6  -3   8    9.95    5.80   1 
   6  -1   8   15.75    5.66   1 
   6   3   5  262.56    7.60   1 
   6   5   2    7.77    5.83   1 
   7  -1   8    5.36    6.37   1 
   7   1   7    1.47    5.90   1 
  -1  -3 -14    2.39    5.88   1 
  -1   0 -17   -4.01    6.12   1 
  -1   2  -7  476.36   10.54   1 
   1  -7  -6   -1.43    6.15   1 
   3  -2   6   69.10    5.13   1 
   3   2   4  331.67    6.61   1 
   4   2   5   22.09    3.60   1 
   4   7  -5    3.82    6.33   1 
   5   0   7  556.63    8.38   1 
   5   4   3  125.87    5.89   1 
   5   6  -1   19.04    6.15   1 
   6   2   6   12.44    3.94   1 
  -1  -3  -5   35.89    5.00   1 
  -1  -2  -4  224.63    5.41   1 
  -1   0  -4  378.10    8.73   1 
  -1   2 -16    1.88    5.72   1 
   0  -6 -10   31.10    6.71   1 
   0  -6  -9    8.30    5.72   1 
   0  -6  -8    3.73    5.65   1 
   1  -7  -5   54.29    6.58   1 
   1  -4   2 1852.53   22.42   1 
   2   6  -6  115.58    8.09   1 
   3  -7   2  125.85   11.57   1 
   4   6  -2    4.42    5.65   1 
   5   5   1   94.33    6.31   1 
   6  -5   7   13.69    7.77   1 
  -1   2 -17    7.23    7.42   1 
   0  -6  -7   14.83    5.73   1 
   0  -4  -1  109.51    5.71   1 
   0  -3   0 1001.08   12.88   1 
   1  -7  -4   96.68    8.12   1 
   3   4   1  406.44    7.17   1 
   3   5  -1    1.05    4.72   1 
   4   4   2   49.77    5.26   1 
   5  -4   7    1.32    6.20   1 
   6   0   7   26.05    5.58   1 
   6   4   3   74.24    6.24   1 
   0  -6  -6   92.20    6.54   1 
   1  -5   1   91.12    5.81   1 
   2   3   1 1208.64   10.89   1 
   2   5  -3   23.85    5.17   1 
   3   6  -4  264.58    7.60   1 
   3   7  -8   59.60    7.60   1 
   4   0   6    5.55    4.45   1 
   4   5   0   93.31    4.62   1 
   4   7  -6    3.61    7.64   1 
   5   1   6  110.64    5.52   1 
   5   3   4   16.25    3.69   1 
   6   5   1    6.13    5.93   1 
  -1  -3  -4  660.37    9.04   1 
   0  -6  -5  184.80    7.36   1 
   1   3  -1  166.32    6.05   1 
   1   4  -3 1133.99   13.31   1 
   1   5  -6  361.28   11.29   1 
   2  -6   2  141.87    8.25   1 
   5   6  -2   21.40    6.02   1 
   6   3   4  291.44    7.40   1 
  -1  -2  -3 1202.16   12.04   1 
   0   5 -14   38.48   10.48   1 
   0   5 -13    3.28    9.10   1 
   1  -7  -3  133.27    7.43   1 
   2   4  -1  523.07    8.14   1 
   3   0   5  165.13    5.72   1 
   3   3   2   26.55    4.64   1 
   4   3   3   10.78    4.83   1 
   4   6  -3    2.66    5.25   1 
   5  -2   7  202.27    6.61   1 
   5   4   2  253.06    6.84   1 
   6   1   6    3.14    3.74   1 
   6   2   5   24.78    5.28   1 
   7   1   6   -0.70    5.57   1 
   7   2   5   66.70    6.31   1 
   7   3   4   12.99    4.36   1 
  -1  -5 -11    0.86    5.94   1 
  -1  -5 -10    6.60    5.58   1 
  -1  -5  -9    3.24    5.39   1 
  -1  -4  -5   24.37    4.84   1 
   0  -6  -4   81.49    5.75   1 
   0   5 -15   99.67   12.04   1 
   2   1   3   35.37    4.64   1 
   3   7  -9   16.89    8.10   1 
   4   1   5  992.79    9.20   1 
   4   2   4  102.83    5.14   1 
   5   5   0    7.28    5.61   1 
   7  -1   7   39.91    6.04   1 
  -1  -5  -8   99.69    6.21   1 
  -1   2  -6 1099.71   15.38   1 
   0   3  -4   50.52    9.90   1 
   0   5 -12   40.53   11.93   1 
   2  -8  -2   72.90    9.28   1 
   2   6  -7    4.26    6.67   1 
   3   1   4   73.98    4.80   1 
   3   2   3  726.69    8.41   1 
   3   5  -2   92.44    5.33   1 
   4  -1   6  558.98    7.89   1 
   4   4   1   99.04    5.32   1 
   4   7  -7    8.07    6.93   1 
   5   0   6  190.03    6.24   1 
   6  -2   7   11.67    4.92   1 
   6   4   2    0.42    5.50   1 
  -2  -1 -13   28.58    5.55   1 
  -2  -1 -12   15.99    3.71   1 
  -2  -1 -11  127.52    4.90   1 
  -2  -1 -10  601.71    8.61   1 
  -1  -5  -7   71.90    5.76   1 
  -1  -3  -3   42.06    4.80   1 
   1  -7  -2   29.42    7.28   1 
   3   4   0   77.34    5.10   1 
   3   6  -5  132.84    6.68   1 
   4   5  -1  329.54    7.41   1 
   5   3   3    1.16    4.71   1 
   6  -3   7   51.95    6.18   1 
   6   5   0    3.25    4.32   1 
   7  -3   7   17.86    6.20   1 
  -2  -2 -14    0.74    5.57   1 
  -2  -2 -13   18.45    5.43   1 
  -2  -2 -12    8.88    3.81   1 
  -2  -2 -10   24.34    3.58   1 
  -2  -2  -9   16.49    4.85   1 
  -2  -1 -15   84.64    6.56   1 
  -2  -1 -14   12.04    3.99   1 
  -2  -1  -9    2.94    4.35   1 
  -1  -5  -6   45.74    5.64   1 
  -1   0  -3  580.01   10.70   1 
   0  -7  -7   -0.46    6.08   1 
   0  -6  -3   48.55    5.77   1 
   2  -1   4   83.93    5.10   1 
   2   5  -4   61.71    6.24   1 
   4   6  -4  117.43    7.29   1 
   5   1   5    3.70    4.85   1 
   5   6  -3   62.59    6.48   1 
   6   0   6    4.66    5.09   1 
   6   3   3  202.62    6.54   1 
   7   3   3   51.45    6.20   1 
  -2  -2 -15    4.89    6.02   1 
  -2  -1 -16   76.93    7.46   1 
  -2  -1  -8   17.50    4.76   1 
  -2   1 -13   52.50    6.71   1 
   0  -7  -6    0.71    5.93   1 
   1   0   2  312.91    8.91   1 
   1   2   0  469.19    9.07   1 
   3  -4   5   22.80    6.71   1 
   3   7 -10    5.77    7.85   1 
   5   4   1  209.98    6.55   1 
   7   1   5   14.23    5.56   1 
   7   2   4   -6.00    5.43   1 
  -2  -3 -10    8.64    3.76   1 
  -2   1 -14    3.27    5.21   1 
  -2   1 -12  134.96    6.09   1 
  -2   1 -11  224.14    6.68   1 
  -1  -5  -5   10.76    5.00   1 
   2   3   0  475.72    8.05   1 
   4   0   5  189.91    5.66   1 
   4   3   2    2.73    4.58   1 
   5  -1   6   25.11    4.78   1 
   5   5  -1  211.10    7.19   1 
   6   2   4    4.10    3.40   1 
  -2  -2  -7   -3.73    4.50   1 
  -2  -1  -7    1.54    4.64   1 
  -2   1 -16   36.64    7.67   1 
  -2   1 -15   13.38    5.66   1 
  -2   1 -10  137.58    5.91   1 
  -1  -6  -8   -0.28    5.89   1 
  -1  -4  -3   28.16    5.14   1 
  -1  -2  -2   81.57    5.71   1 
   0  -7  -5   14.45    6.12   1 
   2  -8  -1   18.26    7.88   1 
   2   6  -8    7.79    7.67   1 
   6  -5   6   56.07    7.70   1 
   6   4   1   74.40    4.68   1 
   6   5  -1   16.15    5.54   1 
   7  -1   6   78.67    6.17   1 
  -2  -4 -12    1.01    5.71   1 
  -2  -4 -11   14.18    5.58   1 
  -1  -6  -7  123.81    7.24   1 
  -1  -3  -2  200.92    6.37   1 
   0  -6  -2    2.57    5.42   1 
   1  -7  -1   12.96    5.78   1 
   2   4  -2   75.94    4.92   1 
   3  -8   1  119.93   11.93   1 
   3  -2   5   87.37    5.35   1 
   3   3   1    2.08    3.07   1 
   3   5  -3  488.84    8.23   1 
   3   6  -6    3.56    5.29   1 
   4   1   4  541.71    7.44   1 
   4   2   3   -1.26    4.10   1 
   4   4   0    9.52    4.68   1 
   4   5  -2  373.87    7.77   1 
   5   6  -4    4.88    5.79   1 
  -2  -4 -10    2.65    4.04   1 
  -2  -4  -9   93.74    6.01   1 
  -2  -3  -7   30.96    3.68   1 
  -2  -2  -6  109.33    5.46   1 
  -2   1  -9   18.61    4.66   1 
  -1  -5  -4    4.50    3.39   1 
   0  -7  -4   22.77    6.13   1 
   1   4  -4  335.36    9.00   1 
   1   5  -7   20.07    7.21   1 
   3   4  -1   28.53    4.54   1 
   4   6  -5  201.06    7.34   1 
   5  -6   5   36.55    9.05   1 
   5  -2   6   49.93    5.12   1 
   5   3   2   -1.93    4.58   1 
   6   3   2   20.55    5.19   1 
   7   3   2  111.87    6.59   1 
  -2  -4  -8  106.47    5.93   1 
  -2  -1  -6  313.67    6.87   1 
  -1   4 -15    3.00    7.14   1 
  -1   4 -14    8.84    7.12   1 
   1  -8  -3   -1.60    8.17   1 
   2  -3   4  166.65    9.20   1 
   3   0   4  151.30    5.32   1 
   5   5  -2  168.05    6.76   1 
   6  -2   6    6.12    5.04   1 
   6   0   5   47.86    5.22   1 
   7   2   3    1.21    5.32   1 
  -2  -4  -7   21.32    5.11   1 
  -2  -3  -6  175.15    4.83   1 
  -1   4 -16    2.43    7.40   1 
  -1   4 -13   26.07    7.04   1 
   0  -3   1  616.10   11.96   1 
   1  -5   2    7.29    6.33   1 
   1   3  -2  447.45    8.91   1 
   2   5  -5  134.06    7.69   1 
   3   1   3    1.82    4.22   1 
   3   2   2 1235.43    9.87   1 
   4  -1   5  529.52    7.55   1 
   5   1   4   11.93    4.69   1 
   5   2   3   47.12    3.79   1 
   5   4   0  264.78    6.45   1 
   6  -3   6   39.61    5.59   1 
   6   2   3   11.05    5.19   1 
   6   4   0  157.18    6.23   1 
   6   5  -2    3.01    5.65   1 
   7   1   4   41.74    5.62   1 
   7   4   0    2.80    4.08   1 
  -2   1  -8   85.52    5.20   1 
  -1  -5  -3   -0.80    4.73   1 
  -1  -4  -2   20.43    4.36   1 
   0  -5   0    1.17    4.39   1 
   0  -2   1  249.44   10.02   1 
   4  -5   5  126.64    9.46   1 
   5   6  -5    3.23    5.76   1 
  -2  -4  -6    5.76    4.92   1 
  -1   4 -12    1.34    7.46   1 
   0  -6  -1   36.23    5.20   1 
   0   1  -1   17.03    8.35   1 
   2  -8   0    5.23    7.61   1 
   2   1   2    3.76    3.42   1 
   2   6  -9   20.67    8.22   1 
   3   6  -7   30.00    5.87   1 
   4   5  -3   89.04    5.67   1 
   4   6  -6  179.44    8.50   1 
   7  -1   5  138.67    6.67   1 
  -2  -1  -5   41.51    4.80   1 
  -1   2  -5  284.51   10.52   1 
   1  -8  -2   -1.50    6.26   1 
   1  -7   0   33.60    7.05   1 
   3   5  -4   41.43    4.91   1 
   4   4  -1    5.66    4.61   1 
   5  -1   5   44.39    4.78   1 
   5   3   1   40.15    4.69   1 
   7   3   1   31.54    4.17   1 
   3   3   0  921.32    9.41   1 
   4   0   4  266.27    6.29   1 
   4   2   2   66.94    4.62   1 
   5   5  -3  209.81    6.83   1 
   6   3   1    5.18    4.92   1 
   6   5  -3   -2.78    5.64   1 
   7   4  -1   12.15    5.67   1 
  -3  -1 -14   22.91    5.94   1 
  -3  -1 -13   66.07    6.36   1 
  -3  -1 -12  122.30    6.34   1 
  -2  -4  -5  134.54    5.71   1 
  -2   1  -7  711.84    9.71   1 
  -1  -7  -6    6.30    6.29   1 
  -1  -5  -2  138.73    6.15   1 
  -1  -3  -1  181.56    6.32   1 
  -1  -2  -1  361.22    9.01   1 
   0  -4   1    7.66    4.38   1 
   2   3  -1 1141.93   11.20   1 
   2   4  -3  221.77    6.32   1 
   3   4  -2  273.24    6.39   1 
   4   1   3  136.41    5.10   1 
   5   4  -1   53.70    5.15   1 
   5   6  -6   16.82    6.00   1 
   6   4  -1  163.26    6.51   1 
   7   1   3   55.76    5.61   1 
   7   2   2   22.15    3.93   1 
  -3  -2 -11    2.03    3.88   1 
  -3  -1 -15    1.21    4.29   1 
  -5   1  -1   32.54    3.59   2 
  -5   4  -6   19.87    5.37   2 
  -5   6  -8    0.71    4.58   2 
  -3   0   0  140.80    6.02   2 
   2  -1   7  579.85    9.56   2 
   4   0  10   10.32    5.29   2 
   4   0  11   18.60    4.29   2 
   4   0  12    4.85    5.49   2 
   4   0  13    7.51    6.12   2 
   4   1   3   92.79    5.72   2 
   4   2   0  146.82    6.44   2 
   4   3  -2   36.17    4.79   2 
   5   1   9   37.04    6.16   2 
   5   1  10    6.45    5.79   2 
   5   1  11    7.96    6.00   2 
   5   1  12    5.59    6.27   2 
   6   3   5  145.10    7.61   2 
   6   4   2   -2.77    6.16   2 
  -8   2   2    5.37    6.16   2 
  -6   5  -6   24.03    6.34   2 
  -5  -1   6   -1.68    5.94   2 
  -3   6  -9    7.52    5.62   2 
   0  -2  16   93.35    7.48   2 
   2   1  -1   13.71    4.58   2 
   3   0   4  117.09    5.69   2 
   4   0  14   22.00    6.93   2 
   5   1   8   10.68    5.35   2 
   5   2   3   28.50    3.91   2 
   5   5  -3  131.08    8.25   2 
   6   5   0    1.08    5.62   2 
  -4  -2  12  135.42   14.06   2 
  -3   4  -7    3.84    4.85   2 
   0   6  -9   12.96    7.36   2 
   1   1  -2 2367.77   45.11   2 
   3   2  -2 1584.85   15.29   2 
   4   5  -5  113.82    8.40   2 
   5   1   7   38.12    5.93   2 
   5   3   0   -2.39    4.65   2 
   5   6  -4    6.85    7.27   2 
   6   2   9    2.64    6.37   2 
   6   3   4  119.01    7.65   2 
  -8   1   6    3.35    7.71   2 
  -7   1   3   15.98    5.58   2 
  -7   4  -3    1.25    5.79   2 
  -6   0   4   45.68    5.39   2 
  -6   3  -3   25.14    5.24   2 
  -4   3  -5   16.77    4.48   2 
  -2   3  -6   73.88    4.89   2 
  -2   6  -9   -2.23    6.00   2 
   0   3  -6  154.93    7.65   2 
   2  -1   6  544.64    9.09   2 
   4   0   7   11.84    5.01   2 
   5   1   6   68.33    5.86   2 
   5   4  -2   86.00    5.92   2 
   6   2   8    7.48    6.25   2 
   6   4   1   54.25    6.45   2 
  -8   2   3   -1.35    6.66   2 
  -6   2  -1    9.59    4.94   2 
  -3   1  -2  776.43    9.16   2 
  -3   2  -4    3.79    4.39   2 
  -1   6  -9   23.72    6.44   2 
   1  -2  12   57.01    6.23   2 
   1  -2  13   54.20    5.78   2 
   1  -2  14    8.93    5.14   2 
   3   3  -4   13.79    6.05   2 
   4   4  -4    0.56    4.73   2 
   4   6  -6   88.97    9.87   2 
   5   2   2  105.61    5.83   2 
   6   2   7   32.43    6.40   2 
   6   3   3   94.41    6.84   2 
  -6  -1  10   70.31    8.14   2 
  -5   1   0    5.16    4.56   2 
  -5   6  -7   26.63    6.15   2 
  -4  -1   5   32.74    5.81   2 
  -3   7  -9   13.79    5.87   2 
  -2   0   0  120.79    5.52   2 
   1  -2  11  135.19    7.04   2 
   1  -2  15   -4.03    4.91   2 
   2   3  -5  282.75   16.36   2 
   3   1   0  354.78    7.86   2 
   4   0   6    4.87    4.62   2 
   4   1   2   39.70    3.84   2 
   5   1   5    5.78    5.01   2 
   6   2   6    1.96    5.78   2 
   6   5  -1    7.69    5.93   2 
  -6   5  -5   11.80    4.14   2 
  -5   2  -2  368.53    7.25   2 
  -5   4  -5   71.17    5.47   2 
  -4   1  -1  747.93    8.79   2 
  -4   5  -7   -1.09    3.60   2 
  -2   5  -8  126.62    6.12   2 
  -1  -2   8   40.96    7.07   2 
   1  -2  16    6.55    5.45   2 
   1   7  -9   13.03    9.11   2 
   3   0   3   39.64    3.70   2 
   6   2   5   11.42    5.82   2 
   6   4   0   70.23    6.64   2 
  -8   2   4   -5.80    5.89   2 
  -7   0   8   27.05    6.28   2 
  -7   1   4   -2.42    5.74   2 
  -7   4  -2    0.80    5.79   2 
  -6   0   5    8.38    4.98   2 
  -4  -2  13    0.20   10.93   2 
   0   5  -8    5.93    6.23   2 
   1  -2  10   48.10    4.96   2 
   1  -2  17    4.45    6.08   2 
   4   2  -1   88.69    5.13   2 
   5   0  12   38.98    6.63   2 
   5   3  -1  214.52    6.80   2 
  -6  -1  11   77.46    8.41   2 
  -6   3  -2    0.89    5.11   2 
  -3   6  -8   56.41    5.66   2 
  -2   7  -9    0.50    5.57   2 
  -1   4  -7  343.24    7.86   2 
   0   4  -7   86.84    6.70   2 
   2  -1   5  284.68    6.38   2 
   4   3  -3   10.92    5.64   2 
   5   0  11   15.67    4.48   2 
   5   1   4    7.79    5.01   2 
   5   2   1    3.27    4.90   2 
   6   2   4    1.00    5.31   2 
  -7   0   9   27.71    7.72   2 
  -4   0   2  224.97    6.08   2 
  -3   0   1  588.85    9.20   2 
  -1   0   0  123.24    7.78   2 
   4  -1  13    3.56    5.65   2 
   5   5  -4  221.07    9.12   2 
   6   1   9   24.92    6.35   2 
   6   5  -2   -0.67    6.78   2 
  -7   1   5   11.94    5.68   2 
  -6  -1  12   14.46    7.47   2 
  -6   5  -4   -0.40    5.62   2 
  -4   3  -4   80.65    4.83   2 
  -3   4  -6   20.99    4.52   2 
  -2   1  -2  136.07    6.41   2 
  -1   7  -9   74.93    7.94   2 
   0   7  -9   47.68    7.37   2 
   1  -2   9   74.82    5.42   2 
   4  -1  11   10.31    5.47   2 
   4  -1  12    3.91    4.11   2 
   4  -1  14    1.75    6.19   2 
   4   1   1  388.69    7.74   2 
   6   1   8   -1.40    4.11   2 
  -7   4  -1    9.52    5.81   2 
  -6   0   6   71.19    5.97   2 
  -5   6  -6   32.04    5.77   2 
  -4  -2  16    9.33   17.00   2 
   3   0   2   30.78    4.75   2 
   4  -1  10    1.83    5.19   2 
   5   1   3  153.37    6.06   2 
   5   6  -5    3.86    7.24   2 
   6   1   7    1.94    6.00   2 
   6   2   3   17.18    5.22   2 
   6   4  -1   96.61    6.42   2 
  -7   0  10   10.11    6.31   2 
  -6  -1  13    2.11    7.46   2 
  -5   2  -1   92.60    4.21   2 
  -5   4  -4   78.07    5.71   2 
  -4  -2  14   36.42   12.51   2 
  -4   5  -6   18.22    5.29   2 
  -3   2  -3   43.71    4.64   2 
  -1   2  -4    2.79    4.58   2 
   0  -1   3  250.31   11.88   2 
   4  -1   9   -2.79    5.18   2 
   5   2   0   59.40    5.26   2 
   7   3   4    8.66    6.57   2 
  -7   1   6   37.32    6.01   2 
  -7   3   1   24.44    5.71   2 
  -6   3  -1   46.91    4.57   2 
  -4   1   0 1170.61   10.84   2 
  -3  -2  10    7.07   10.17   2 
  -3   1  -1 1031.27   10.94   2 
   1  -2   8   87.56    5.67   2 
   2  -1   4   61.33    5.42   2 
   4  -1   8    4.71    4.94   2 
   5   3  -2  104.71    5.62   2 
  -7   0  11    7.06    6.76   2 
  -6   2   1   69.71    4.25   2 
  -4  -2  15    0.40   12.44   2 
  -4   7  -7    3.49    5.61   2 
  -2   3  -5    1.19    4.01   2 
   6   2   2   63.80    5.91   2 
   7   2   6   85.95    7.90   2 
   7   3   3   24.47    6.91   2 
  -7   4   0   10.68    6.01   2 
  -6   0   7  102.77    6.36   2 
  -6   4  -2   29.21    4.07   2 
  -6   5  -3    3.54    5.56   2 
  -5  -1   9   94.47    7.36   2 
  -5   3  -2  395.16    7.33   2 
  -2   5  -7    0.67    4.41   2 
   3  -2  13   52.37    6.04   2 
   3  -2  14   28.02    6.08   2 
   3  -2  15   15.50    6.03   2 
   3   1  -1  100.02    5.32   2 
   3   2  -3 1371.48   15.78   2 
   4   0   3  188.31    6.46   2 
   4   2  -2  256.82    7.54   2 
   4   7  -7    5.16   12.41   2 
   5   1   2   59.49    3.95   2 
   6   5  -3    0.60    7.20   2 
  -7   1   7   41.67    6.35   2 
  -5   6  -5   23.73    5.92   2 
  -4   0   3   76.24    5.03   2 
  -3   6  -7  184.39    7.07   2 
  -1   6  -8   10.34    5.03   2 
   3  -2  11    4.85    4.72   2 
   3  -2  12   36.88    5.49   2 
   4  -1   7   57.06    4.31   2 
   4   1   0  725.07    9.18   2 
   5  -1  12   21.48    6.44   2 
   5  -1  13   12.67    6.29   2 
   5   0   5    8.34    5.03   2 
   6   0   9    9.22    6.05   2 
   6   0  10    5.86    4.58   2 
   6   4  -2   10.92    5.69   2 
   7   2   5   32.68    6.99   2 
   7   3   2   53.92    6.75   2 
  -7   3   2    6.67    4.20   2 
  -6   3   0   26.07    5.30   2 
  -5   1   2   60.39    3.95   2 
  -5   4  -3   31.16    5.22   2 
  -4   3  -3  102.06    5.04   2 
   4   4  -5   26.21    7.08   2 
   5  -1  11   23.15    6.00   2 
   6   1   4  191.57    7.40   2 
   7   4   0    2.79    7.41   2 
  -6   0   8  164.58    7.14   2 
  -4   5  -5   63.32    5.60   2 
  -3   4  -5    8.25    4.35   2 
   0   6  -8   52.97    6.82   2 
   1  -2   7  268.58    7.50   2 
   1   6  -8  145.27    9.04   2 
   3  -2  10    8.88    5.00   2 
   4  -1   6  324.81    7.11   2 
   4   5  -6  137.35   10.63   2 
   5  -1  10    2.68    3.74   2 
   5   2  -1   22.82    4.92   2 
   6   0   8    4.05    3.97   2 
   6   2   1   73.45    5.86   2 
   7   2   4    0.09    6.04   2 
  -7   1   8   17.98    6.29   2 
  -7   4   1   12.34    5.88   2 
  -3   0   2  697.66   10.08   2 
  -1   5  -7   27.59    6.04   2 
   1   0   0  105.17    7.55   2 
   3   0   1    3.68    4.77   2 
   5  -1   9   65.58    6.08   2 
   5   0   4    6.38    4.80   2 
   5   1   1  103.37    5.62   2 
   5   4  -4  256.81    8.26   2 
   5   5  -5    3.28    6.60   2 
   6   0   7   16.97    5.60   2 
   7   1   7    4.85    6.31   2 
  -7   3   3  115.46    6.88   2 
  -6   5  -2   17.21    4.05   2 
  -5  -1  10  171.10    8.02   2 
  -4   1   1  560.42    8.35   2 
  -4   7  -6    3.71    5.85   2 
  -1   7  -8   49.20    7.11   2 
   2   1  -2  171.15    7.82   2 
   3  -2   9   29.07    4.86   2 
   4   3  -4  104.54    6.91   2 
   5  -1   8   30.23    5.59   2 
   6   1   3  114.24    4.99   2 
   7   3   1   19.01    6.05   2 
  -6   0   9   60.18    7.53   2 
  -5   6  -4    1.62    5.47   2 
  -3   2  -2  929.72    9.96   2 
  -2  -1   4  487.98   13.14   2 
  -2   6  -7   21.36    4.95   2 
  -1   4  -6  218.24    6.72   2 
   2  -1   3   12.90    4.94   2 
   4  -1   5  369.99    7.31   2 
   5   3  -3    3.89    4.57   2 
   6   0   6    4.87    5.40   2 
   7   1   6    0.85    4.22   2 
  -7   1   9    4.74    6.04   2 
  -7   4   2   22.88    6.16   2 
  -6   2   3  118.12    6.25   2 
  -6   3   1   44.65    5.60   2 
  -5   1   3  108.20    5.53   2 
  -1  -2   7    0.90    6.97   2 
  -1   8  -8   85.31    8.64   2 
   3  -2   8  383.35    7.88   2 
   5  -1   7  126.46    6.18   2 
   6   2   0   64.27    5.97   2 
   6   4  -3   14.35    6.83   2 
   7   1   5    4.35    5.92   2 
   7   4  -1    1.04    5.90   2 
  -7   3   4  109.94    7.21   2 
  -5  -1  11  140.11    8.85   2 
  -5   2   1    0.39    4.56   2 
  -5   4  -2    2.08    3.44   2 
  -3   6  -6   56.33    5.78   2 
  -2   1  -1 2470.96   17.77   2 
   0  -3  15   17.29    7.08   2 
   0  -3  16    1.71    7.03   2 
   0   5  -7    3.38    5.90   2 
   2   0   0  130.31    7.53   2 
   2   7  -8    4.38    9.42   2 
   6  -1  11    1.56    6.32   2 
   6   0   5   25.65    5.37   2 
   6   1   2    3.31    5.50   2 
   6   5  -4    4.02    5.78   2 
   7   3   0    6.10    6.83   2 
  -7   1  10    0.52    6.34   2 
  -6   0  10    6.82    7.39   2 
  -6   4   0   -2.74    3.58   2 
  -6   5  -1   11.07    5.86   2 
  -4   3  -2  134.67    5.35   2 
  -2   3  -4  106.94    5.23   2 
  -2   5  -6   88.49    5.61   2 
   0  -3  14   19.17    6.68   2 
   0  -3  17   -0.66    7.13   2 
   0   7  -8    0.93    5.36   2 
   4   1  -1  338.64    7.17   2 
   5   1   0  113.06    5.49   2 
   5   6  -6    9.20    8.83   2 
   6  -1  10   19.46    6.39   2 
  -4   5  -4   97.69    5.75   2 
  -4   7  -5   -3.21    5.35   2 
   0  -3  13   17.57    6.48   2 
   0   3  -5  107.37    6.98   2 
   1  -2   6  774.57   11.49   2 
   1   7  -8   18.20    8.09   2 
   3  -2   7  182.66    6.32   2 
   5  -1   6    9.20    3.57   2 
   5   2  -2  350.90    7.27   2 
   7   1   4   19.39    6.11   2 
  -7   4   3    3.97    4.15   2 
  -6   2   4    2.51    5.18   2 
  -6   3   2   43.49    5.61   2 
  -5   6  -3   11.49    5.50   2 
  -3   4  -4   44.01    4.79   2 
  -3   7  -6   -5.70    5.57   2 
  -1  -3  16    8.49    8.66   2 
  -1   6  -7    8.30    6.09   2 
   0   4  -6  192.51    7.74   2 
   0   8  -8   -0.94    6.01   2 
   1   5  -7   11.30    6.52   2 
   2  -3  14   52.13    5.91   2 
   2  -3  15   13.25    5.92   2 
   2  -3  16    7.65    6.19   2 
   3   4  -6    3.04    8.55   2 
   4   0   1   48.32    3.84   2 
   4   2  -3   51.71    4.94   2 
   5  -2  12   16.91    6.08   2 
   5  -2  13   29.12    6.46   2 
   6   0   4   86.14    5.97   2 
  -7   3   5   86.53    7.16   2 
  -6   0  11   21.47    7.27   2 
  -5  -1  12   21.47    7.15   2 
  -5   1   4  107.66    5.50   2 
  -4   1   2   37.03    4.83   2 
  -1  -3  15   64.32    8.37   2 
  -1  -3  17    3.38    7.36   2 
   0   1  -2  201.96   11.63   2 
   2  -3  13    5.62    5.18   2 
   3   1  -2    5.94    4.84   2 
   5  -2  11   -0.04    5.61   2 
   5  -1   5   21.86    5.10   2 
   5   0   2  118.04    5.48   2 
   6  -1   8    5.83    4.08   2 
   6   1   1   65.20    5.75   2 
   6   2  -1   32.58    5.40   2 
   7   2   1    3.69    5.58   2 
   7   4  -2   -3.59    5.72   2 
  -6   5   0   70.13    6.33   2 
  -5   2   2  170.34    5.85   2 
  -5   4  -1    8.80    4.91   2 
   0  -3  12    7.93    5.94   2 
   1   8  -8    0.01    7.52   2 
   2  -3  12   15.31    4.78   2 
   3   0   0  135.82    6.05   2 
   3   3  -5    0.63    6.16   2 
   5  -2  10    7.73    5.59   2 
   7   1   3   36.44    4.36   2 
   7   3  -1    4.12    5.60   2 
  -7   4   4    6.20    6.24   2 
  -3  -1   6  272.01    9.42   2 
  -1   2  -3  540.10   10.06   2 
   3  -2   6   43.43    5.20   2 
   6   0   3   75.16    5.66   2 
  -7   3   6    5.17    4.16   2 
  -6   0  12    5.61    6.28   2 
  -6   2   5   72.92    6.11   2 
  -6   3   3   -2.62    5.34   2 
  -5  -1  13    5.00    7.43   2 
  -4   3  -1   48.15    4.69   2 
  -3  -2  11    2.72    9.30   2 
  -3   0   3  495.09    8.51   2 
  -3   2  -1  633.04    8.27   2 
  -3   6  -5   23.35    5.48   2 
  -2   6  -6   17.15    5.31   2 
  -1   7  -7   10.32    5.39   2 
   2  -3  11   11.62    5.12   2 
   2  -1   2  134.09    6.36   2 
   4  -1   3   -2.80    4.46   2 
   5  -2   9   50.99    6.11   2 
   5   4  -5  111.30    7.64   2 
   6   4  -4   13.61    6.75   2 
  -7   2   9   38.05    7.42   2 
  -5   6  -2   49.79    6.26   2 
  -4   5  -3   41.63    5.15   2 
  -4   7  -4   -2.00    5.82   2 
  -1   5  -6    3.85    4.46   2 
  -1   8  -7   54.21    8.11   2 
   4   6  -7   21.08   13.75   2 
   5  -1   4   -1.31    4.71   2 
   5   1  -1   -1.93    4.54   2 
   5   3  -4   13.19    5.07   2 
   6  -1   6    1.29    3.75   2 
   7   1   2   49.11    6.25   2 
   7   2   0   66.10    5.99   2 
  -7   3   7    8.25    6.39   2 
  -7   4   5    2.60    6.07   2 
  -6   5   1   35.17    5.90   2 
  -5  -1  14    5.77    7.42   2 
  -5   1   5   70.27    5.47   2 
  -5   3   1    5.46    3.55   2 
  -3   1   1   41.90    5.04   2 
  -2   7  -6   59.67    5.60   2 
   0  -3  11    5.68    5.06   2 
   0   6  -7   65.93    6.15   2 
   2  -3  10  189.50    6.55   2 
   2   2  -4   51.95    8.49   2 
   4  -3  14    7.29    6.15   2 
   5  -2   8  172.73    6.00   2 
   5   0   1  122.12    5.56   2 
   6   1   0  159.41    6.32   2 
   6   5  -5   29.75    7.59   2 
  -5   2   3  271.25    6.55   2 
  -5   4   0   65.13    5.24   2 
  -2   5  -5  218.40    6.72   2 
  -2   8  -6    6.16    5.77   2 
   1  -2   5  170.32    6.53   2 
   1   4  -6  123.49    8.17   2 
   4  -3  12    6.32    5.43   2 
   4  -3  13   -0.11    5.75   2 
   4   1  -2   99.23    5.06   2 
   6  -2  10    3.09    6.01   2 
   6   0   2   28.00    5.25   2 
   6   2  -2   35.81    5.92   2 
   7  -1   8   10.85    6.29   2 
   7   0   4    1.46    5.48   2 
   7   3  -2   17.16    5.56   2 
   7   4  -3   23.39    6.41   2 
  -7   4   6   12.34    6.58   2 
  -6   3   4   -2.72    5.39   2 
  -5  -1  15   49.05    9.13   2 
  -4   1   3   82.56    5.16   2 
  -3   4  -3   81.65    5.04   2 
  -1   4  -5   44.47    4.73   2 
   1   3  -5   56.13    8.14   2 
   3  -2   5   58.52    5.13   2 
   5  -2   7   99.81    5.93   2 
   5   2  -3  366.65    7.99   2 
   5   5  -6   17.95    7.86   2 
   7  -1   7   12.83    6.16   2 
   7   1   1   14.28    5.75   2 
  -7   3   8   -0.33    6.24   2 
  -5   6  -1   86.03    6.45   2 
  -2   3  -3  267.34    6.68   2 
   2  -3   9   94.40    5.73   2 
   3   2  -4  102.81    6.86   2 
   4  -3  11   28.86    5.98   2 
   5  -1   3   59.17    5.31   2 
   6  -2   9    7.89    5.94   2 
   7   2  -1   25.07    5.55   2 
  -6   5   2   -1.72    4.05   2 
  -4   7  -3   -1.32    5.81   2 
  -2   0   2 1171.37   14.30   2 
  -2   1   0  204.19    7.18   2 
   0   7  -7   55.73    6.23   2 
   0   8  -7    6.57    7.41   2 
   4  -3  10   26.13    5.45   2 
   4  -1   2  213.80    6.25   2 
   4   3  -5  214.03    9.43   2 
   6  -2   8   24.82    6.07   2 
   7  -1   6   30.16    6.30   2 
   7   0   3   53.82    6.24   2 
  -6   2   7  173.51    7.31   2 
  -5   1   6   20.78    5.25   2 
  -5   3   2  329.80    6.34   2 
  -4   3   0   73.45    4.95   2 
  -4   5  -2   -0.61    3.46   2 
  -3   6  -4    2.84    3.64   2 
  -1   6  -6    2.07    4.78   2 
   0  -3  10    4.12    4.80   2 
   5  -2   6   23.85    3.88   2 
   6   0   1   29.99    5.14   2 
  -6   3   5   -0.85    3.76   2 
  -5   4   1   64.56    4.31   2 
  -4   0   6   30.90    4.74   2 
  -2   6  -5   -2.23    4.58   2 
   4  -3   9   64.96    5.80   2 
   4   4  -6    5.82    7.28   2 
   5   0   0   45.57    3.76   2 
   5   1  -2   42.61    5.86   2 
   6  -2   7    5.58    5.58   2 
   8   1   2    6.73    6.39   2 
  -6   5   3    0.34    5.71   2 
  -3   2   0   23.39    4.71   2 
  -1   7  -6    7.57    5.33   2 
  -1   8  -6    7.64    7.25   2 
   0   5  -6   22.00    5.01   2 
   2  -3   8   38.82    5.04   2 
   3  -2   4    1.57    4.48   2 
   3   0  -1  547.62    8.92   2 
   4   2  -4   13.72    5.43   2 
   6   3  -4   11.30    5.25   2 
   7  -1   5   58.63    6.66   2 
   7   1   0    5.11    5.50   2 
   7   3  -3   14.81    7.08   2 
  -6   1  11  163.55    8.65   2 
  -5   6   0   36.66    4.62   2 
  -4   2   2  541.84    8.23   2 
  -3   0   4  219.32    6.79   2 
  -2   8  -5   32.08    6.08   2 
   2   0  -1 2789.99   21.11   2 
   5  -2   5    2.22    4.83   2 
   5  -1   2    5.44    3.42   2 
   6  -1   3    9.11    4.96   2 
   6   4  -5   29.32    7.00   2 
   7   4  -4   47.03    6.61   2 
  -6   2   8  150.86    7.35   2 
  -6   3   6    4.60    5.42   2 
  -4   1   4  393.20    7.38   2 
  -4   7  -2    8.01    5.73   2 
  -3  -1   7    5.92    5.82   2 
   1   7  -7   28.31    6.87   2 
   1   8  -7    1.01    7.15   2 
   3  -1   1  832.07   10.36   2 
   4  -3   8   50.48    5.61   2 
   4   0  -1   19.46    4.14   2 
   6  -2   6    5.45    5.27   2 
   6   2  -3   30.27    5.30   2 
   7   2  -2   28.61    5.63   2 
   8   1   1    4.18    6.14   2 
  -6   1  12   -5.71    6.48   2 
  -6   5   4    7.44    5.93   2 
  -5   1   7   54.36    5.52   2 
  -5   4   2   39.02    5.24   2 
  -4   5  -1    1.93    4.93   2 
  -3   4  -2   75.94    3.96   2 
  -2  -3  17    4.43   14.38   2 
  -2   5  -4  271.69    7.06   2 
  -1   0   1  512.62   13.40   2 
  -1   5  -5   49.98    4.85   2 
   2  -1   1 2301.19   17.51   2 
   4  -1   1  682.78    8.87   2 
   6   0   0   19.35    5.16   2 
   7  -1   4   15.34    4.09   2 
   8   0   3   11.73    6.26   2 
  -6   1  13    4.19    7.94   2 
  -6   2   9   17.93    6.11   2 
  -5   2   5   62.00    5.27   2 
  -4   3   1   -0.54    4.33   2 
  -3  -2  12    2.21    9.05   2 
  -3   6  -3    7.20    5.29   2 
   0  -3   9   16.05    5.65   2 
   2   6  -7    2.11    8.03   2 
   3  -4  14    7.98    7.17   2 
   3   1  -3  301.68    8.11   2 
   5   3  -5   29.57    6.10   2 
   6  -3  10   16.70    6.19   2 
   7  -2   7   21.11    6.00   2 
   8   2  -1    0.55    5.92   2 
  -6   3   7    7.03    5.63   2 
  -5   6   1   23.57    4.23   2 
  -4   0   7    6.70    4.61   2 
  -3   8  -3   39.23    6.83   2 
  -2  -1   5  162.40    9.58   2 
   0   4  -5  213.52    8.03   2 
   1  -4  16   10.79    7.34   2 
   1  -2   4    2.86    4.63   2 
   2  -3   7  356.79    7.80   2 
   2   4  -6    4.56    9.08   2 
   4  -3   7    4.65    4.93   2 
   4   1  -3   -1.19    4.10   2 
   5  -2   4   78.88    4.50   2 
   5   0  -1    5.86    4.63   2 
   5   2  -4  307.54    7.89   2 
   6  -2   5   -0.51    5.33   2 
   6  -1   2    2.15    4.88   2 
   6   1  -2  368.86    7.68   2 
   7   1  -1   85.11    6.09   2 
  -6   5   5   52.91    6.74   2 
  -4   7  -1    2.70    5.57   2 
   0   6  -6   36.22    5.30   2 
   1  -4  15    3.00    7.12   2 
   3  -4  13   -2.15    5.55   2 
   3  -2   3   35.57    4.80   2 
   5  -1   1   30.99    4.84   2 
   6  -3   9   83.22    6.73   2 
   6   5  -6   36.02    8.06   2 
   7  -2   6    7.12    5.79   2 
   7  -1   3    6.10    5.48   2 
   8   0   2    0.58    5.98   2 
   8   1   0    4.33    5.89   2 
  -6   2  10   14.35    6.42   2 
  -5   0  12   73.16    8.06   2 
  -5   1   8  130.65    6.64   2 
  -5   3   4   21.99    3.82   2 
  -5   4   3   19.01    5.14   2 
  -2   3  -2  139.71    5.65   2 
  -2   7  -4   55.78    6.00   2 
  -2   8  -4   43.32    6.95   2 
  -1   4  -4   46.76    4.85   2 
  -1   6  -5   -1.15    4.84   2 
   0   7  -6  174.37    8.57   2 
   0   8  -6    9.88    5.99   2 
   1  -4  14    8.53    6.98   2 
   3  -4  12    4.99    5.14   2 
   5   4  -6   17.27    6.39   2 
   7   3  -4   11.83    7.07   2 
  -6   3   8   13.36    6.24   2 
  -5   6   2   -0.28    5.77   2 
  -4   1   5  505.94    8.23   2 
  -4   2   3    6.90    3.46   2 
  -4   5   0   85.11    5.44   2 
  -1   2  -2  412.93    9.01   2 
  -1   8  -5   -2.80    5.56   2 
   0   2  -3   15.08    4.67   2 
   2   7  -7   16.00    8.06   2 
   5   1  -3   57.26    5.00   2 
   6  -3   8    3.67    5.70   2 
   6  -2   4   26.98    5.48   2 
   7   2  -3    0.11    5.27   2 
  -6   2  11   85.21    7.52   2 
  -6   5   6   25.42    6.50   2 
  -3   2   1  619.46    7.89   2 
  -1   7  -5    8.09    5.23   2 
   0   3  -4   38.08    5.71   2 
   1  -4  13   20.60    6.69   2 
   3  -4  11   77.36    6.10   2 
   4  -3   6    1.72    3.54   2 
   5  -2   3  196.10    6.40   2 
   6   0  -1  121.81    5.93   2 
   7  -2   5   -5.21    5.77   2 
   7  -1   2   13.23    5.48   2 
   7   4  -5   57.02    8.09   2 
   8   2  -2   -1.87    6.03   2 
  -6   3   9   20.67    6.66   2 
  -5   0  13   46.65    7.05   2 
  -5   1   9  206.42    8.28   2 
  -4  -1  12    2.44    6.92   2 
  -4   3   2  122.65    5.41   2 
  -3   4  -1   96.96    5.24   2 
  -3   6  -2  105.24    5.66   2 
  -3   8  -2   75.35    6.79   2 
   1   5  -6  199.43    8.77   2 
   2  -3   6   62.69    5.09   2 
   2   1  -3  671.05   13.79   2 
   4  -1   0 1041.70   10.67   2 
   5   6  -7    0.58   12.50   2 
   6  -3   7   24.44    5.90   2 
   6   2  -4   53.49    5.51   2 
   6   3  -5   11.15    5.30   2 
   7   1  -2   77.11    6.12   2 
   8   0   1    3.40    6.26   2 
  -6   2  12   93.65    8.09   2 
  -5   4   4   -0.13    5.27   2 
  -4   0   8    5.59    4.85   2 
  -4   7   0    1.36    4.39   2 
  -3   0   5   21.38    5.59   2 
  -2   1   1    3.99    5.18   2 
  -2   5  -3  188.82    6.06   2 
   3  -4  10   81.91    5.74   2 
   3   6  -7   16.67   10.45   2 
   4   0  -2  195.68    5.90   2 
   5  -4  11    5.72    6.25   2 
   8  -1   3   27.15    6.60   2 
   8   1  -1    5.42    5.77   2 
  -6   3  10    9.49    6.66   2 
  -5   6   3   53.23    6.35   2 
  -3  -1   8    8.80    6.33   2 
   0  -4  16   82.10    9.75   2 
   0  -1   2  211.74   12.30   2 
   1  -4  12    2.25    5.47   2 
   6  -2   3    7.81    3.65   2 
   6   1  -3   11.41    4.97   2 
   7  -2   4    4.25    5.68   2 
  -4   5   1  206.47    6.38   2 
  -3  -2  13   15.13    9.52   2 
  -2   8  -3   22.46    6.11   2 
   0  -4  15   25.32    7.65   2 
   0  -3   8    9.21    5.72   2 
   1   8  -6   -0.08    7.05   2 
   3   0  -2  618.29    9.56   2 
   4  -3   5    9.58    3.52   2 
   5  -4  10    8.46    5.64   2 
   5   0  -2    0.59    4.36   2 
   6  -3   6   12.53    5.64   2 
   6   4  -6   70.74    7.54   2 
   7  -1   1   41.99    5.82   2 
  -6   3  11    6.49    6.55   2 
  -5   1  10  125.37    6.79   2 
  -4  -1  13    0.97    6.87   2 
  -4   1   6  256.18    6.79   2 
  -4   7   1   12.45    5.90   2 
  -3   8  -1   70.76    6.92   2 
  -2   0   3  201.72    7.63   2 
  -2   7  -3    6.32    5.24   2 
  -1   5  -4    1.20    4.34   2 
   0   5  -5   85.91    5.54   2 
   3  -4   9   12.88    5.13   2 
   3  -2   2  741.97    8.89   2 
   3   7  -7   65.55    9.86   2 
   5  -2   2  268.49    5.94   2 
   7  -3   7    6.52    4.42   2 
   8   0   0   34.34    4.74   2 
   8   2  -3   32.09    6.07   2 
  -5   2   8   23.04    5.39   2 
  -5   4   5    4.25    5.28   2 
  -5   6   4   50.09    6.53   2 
  -4   3   3  120.11    5.61   2 
  -3   6  -1  135.56    6.34   2 
  -1   8  -4   10.13    5.60   2 
   0  -4  14    6.53    7.97   2 
   0   8  -5   61.21    7.56   2 
   1  -4  11    9.31    6.25   2 
   1   0  -1  487.05   13.11   2 
   1   6  -6   24.99    6.39   2 
   1   7  -6   93.54    7.79   2 
   5  -4   9   10.29    5.64   2 
   6   0  -2  341.97    7.35   2 
   7   2  -4    3.10    5.29   2 
   8   1  -2   19.86    6.08   2 
  -5   1  11   24.13    6.18   2 
  -4   0   9    5.69    5.89   2 
  -3   4   0   53.89    4.79   2 
  -1   6  -4   14.80    4.87   2 
  -1   7  -4   43.43    5.59   2 
   2  -1   0  195.83    6.96   2 
   6  -3   5   86.19    4.82   2 
   7  -3   6   28.90    6.50   2 
   7   1  -3   13.77    5.28   2 
   7   3  -5    4.12    5.68   2 
  -4  -1  14   47.40    7.91   2 
  -4   5   2   64.21    5.49   2 
  -3   2   2    1.77    3.10   2 
  -2   3  -1  910.87    9.98   2 
   0   6  -5    8.37    4.74   2 
   0   7  -5  135.17    7.03   2 
   1  -2   3  509.15   10.34   2 
   2  -3   5   -3.92    4.24   2 
   3  -4   8   34.17    5.12   2 
   4  -3   4   66.18    5.00   2 
   4   2  -5  176.38    6.69   2 
   5  -4   8    9.22    5.96   2 
   5   2  -5  214.69    7.49   2 
  -5   2   9   35.70    6.04   2 
  -5   4   6   15.07    5.68   2 
  -5   6   5   34.23    4.73   2 
  -4   7   2   -0.14    5.84   2 
  -2   8  -2    0.23    6.17   2 
   0  -4  13   46.97    8.29   2 
   4  -1  -1  512.18    8.22   2 
   4   1  -4   20.39    4.60   2 
   4   7  -7    6.68   12.45   2 
   5  -1  -1   13.57    4.89   2 
   5   1  -4  263.70    6.69   2 
   7  -3   5   27.43    6.23   2 
   7  -1   0   48.40    4.35   2 
   8   0  -1   21.39    6.49   2 
  -5   1  12   25.75    6.52   2 
  -4  -1  15   38.22    8.29   2 
  -2   5  -2  133.61    5.57   2 
  -1   4  -3  625.60    8.95   2 
   1  -4  10    1.13    6.19   2 
   5  -2   1   92.68    5.42   2 
   5   3  -6   40.92    6.41   2 
   5   5  -7  100.92   12.13   2 
   6  -3   4   68.02    5.79   2 
   6   2  -5   44.10    6.40   2 
   7  -2   2   44.06    4.32   2 
   7   0  -2   35.41    5.56   2 
   7   4  -6   28.42    7.77   2 
  -5   1  13   54.38    8.80   2 
  -5   6   6   16.34    6.60   2 
  -4  -1  16   38.66    8.76   2 
  -4   3   4  187.14    5.99   2 
  -3  -2  14    0.87    8.73   2 
  -3   0   6  453.97    9.74   2 
  -3   1   4  921.88   10.67   2 
  -3   6   0    8.61    5.01   2 
  -3   7   0    1.16    5.34   2 
  -2   6  -2   91.86    5.57   2 
  -2   7  -2   -0.74    5.53   2 
   2   8  -6    1.26    7.31   2 
   5  -4   7   -1.00    5.48   2 
   6  -1  -1   44.28    5.38   2 
   6   1  -4   38.87    5.23   2 
   8   2  -4   13.56    6.59   2 
  -5   2  10    1.12    5.76   2 
  -5   4   7   35.34    6.01   2 
  -4   0  10    6.07    5.42   2 
  -4   7   3    4.68    5.75   2 
  -1  -2   6   33.19   12.06   2 
  -1   8  -3   42.79    6.77   2 
   2   0  -2 1072.51   13.90   2 
   3  -4   7    3.46    4.92   2 
   3  -2   1  557.03    8.38   2 
   5   0  -3    4.15    4.47   2 
   6   3  -6   22.36    6.79   2 
   8   1  -3   34.67    6.27   2 
  -5   1  14   96.37    8.44   2 
  -4   5   3   19.98    3.80   2 
  -3  -1   9   89.33    7.26   2 
  -3   4   1    0.25    4.42   2 
   0   4  -4  474.98    9.32   2 
   1   4  -5   11.35    5.19   2 
   3  -1  -1   28.53    3.70   2 
   4  -5  12   10.94    6.19   2 
   4  -3   3   91.00    5.21   2 
   4   0  -3   73.53    5.07   2 
   6   0  -3  202.44    6.43   2 
   7  -1  -1  104.24    6.08   2 
   8  -2   2    7.37    6.04   2 
  -5   2  11   11.41    6.17   2 
  -5   4   8   28.76    6.02   2 
  -2  -2   9    7.19    9.66   2 
  -2   8  -1   12.30    6.22   2 
  -1   5  -3   22.04    4.63   2 
  -1   7  -3   48.91    5.84   2 
   0   8  -4   51.94    6.43   2 
   1   8  -5    6.71    7.25   2 
   2  -5  14   26.63    7.82   2 
   3   1  -4  297.12    8.53   2 
   3   2  -5   74.60    7.10   2 
   4  -5  11    5.44    5.70   2 
   4   6  -7   22.91   13.97   2 
   5  -4   6   25.48    5.43   2 
   6  -3   3   15.40    3.71   2 
   6   5  -7   18.16    9.98   2 
   7   1  -4  111.33    6.33   2 
   7   2  -5    2.67    5.21   2 
   8   0  -2    0.10    5.80   2 
  -4   0  11  186.38    8.93   2 
  -4   3   5   62.12    5.36   2 
  -4   7   4    8.24    6.13   2 
  -3  -2  15    1.17    7.99   2 
  -3   2   3  491.42    7.84   2 
  -2   1   2 1435.84   14.25   2 
  -1   6  -3   18.42    4.89   2 
   0  -3   7   98.29    7.33   2 
   1  -4   9   74.29    7.21   2 
   2  -3   4  117.86    5.49   2 
   2   7  -6   21.24    6.67   2 
   5  -2   0    3.91    4.58   2 
   7  -3   3   44.57    6.08   2 
  -5   2  12    8.48    6.37   2 
  -5   4   9   15.57    6.11   2 
  -4   5   4   -3.62    5.27   2 
  -3   6   1   -2.49    5.01   2 
  -2   7  -1   61.36    6.06   2 
  -1   2  -1  278.18    7.89   2 
   2  -5  13    1.03    5.80   2 
   4  -5  10   11.16    5.98   2 
   5  -1  -2   58.10    5.14   2 
   7   0  -3  126.14    6.71   2 
   7   3  -6   -1.65    7.11   2 
  -5   2  13    2.98    6.36   2 
  -3  -2  16   -0.11    8.64   2 
  -2  -3  16   13.04   16.68   2 
  -2   3   0  201.29    6.05   2 
  -2   5  -1   67.48    5.13   2 
  -2   6  -1   54.50    5.60   2 
  -1   8  -2   42.12    6.41   2 
   3  -4   6   18.85    3.60   2 
   5  -4   5   64.85    5.65   2 
   6  -3   2    1.61    5.07   2 
   6  -1  -2   22.93    5.14   2 
   8  -2   1   19.90    4.62   2 
   8  -1  -1   38.61    4.99   2 
  -5   4  10    8.99    6.24   2 
  -4   0  12  193.71    8.99   2 
  -3  -2  17    6.24    9.37   2 
  -2  -1   6   18.24    5.96   2 
  -2   8   0   11.72    6.00   2 
   0   6  -4   38.62    6.01   2 
   1   7  -5    1.78    5.44   2 
   2  -5  12    6.96    7.09   2 
   2   6  -6   62.22    7.31   2 
   3   0  -3  446.91    8.29   2 
   4  -3   2  114.11    5.44   2 
   4  -1  -2   41.04    4.92   2 
   7  -2   0    2.76    5.42   2 
   8   1  -4   12.24    5.78   2 
  -4   1   9   12.63    5.07   2 
  -4   3   6   12.84    5.19   2 
  -4   5   5   35.64    5.96   2 
  -3   0   7  675.82   11.54   2 
  -3   4   2   98.06    5.26   2 
  -3   7   2   63.28    5.15   2 
   1   5  -5   75.05    6.99   2 
   4  -5   9    8.70    5.55   2 
   7  -4   5   -2.10    6.22   2 
   7  -3   2   53.06    6.45   2 
   7  -1  -2   19.96    4.00   2 
   8   0  -3   28.55    6.42   2 
  -5   4  11   -2.72    6.75   2 
  -3  -1  10   16.69    6.37   2 
  -3   6   2   -9.94    5.38   2 
  -1   7  -2  106.34    6.49   2 
   0   8  -3   21.56    7.04   2 
   1  -5  15   28.38    8.09   2 
   1   6  -5   13.86    5.18   2 
   5   1  -5  230.05    6.95   2 
   5   4  -7   18.54    8.28   2 
   6   4  -7   25.72    8.57   2 
   8  -2   0    5.99    6.04   2 
  -4   0  13    1.44    6.12   2 
  -2  -3  17    2.57   14.86   2 
  -1   4  -2 1268.15   11.96   2 
   0   3  -3    4.61    4.26   2 
   1  -4   8  189.65    7.51   2 
   2  -5  11   60.17    6.49   2 
   3  -4   5   11.13    4.72   2 
   3  -2   0   25.20    4.40   2 
   5  -4   4   54.16    5.71   2 
   5   0  -4   24.87    4.62   2 
   6   0  -4   43.06    5.02   2 
   6   2  -6   54.78    5.42   2 
   7   1  -5    8.57    6.31   2 
  -4   0  14    4.87    7.50   2 
  -4   1  10   43.23    5.97   2 
  -4   5   6   70.26    6.07   2 
  -3   2   4   66.00    4.19   2 
  -2   8   1    9.39    5.81   2 
  -1   6  -2   72.20    5.30   2 
  -1   8  -1    3.16    5.79   2 
   1  -5  14   54.19    8.40   2 
   1  -2   2  375.18    9.02   2 
   2  -3   3  234.52    6.72   2 
   2  -1  -1    5.14    5.06   2 
   2   8  -5    7.44    7.34   2 
   4  -5   8    4.00    3.85   2 
   5  -2  -1   -2.33    3.22   2 
   6  -3   1   44.60    5.57   2 
   7  -4   4   -0.41    5.58   2 
  -4   0  15   19.40    8.42   2 
  -4   3   7   15.44    5.25   2 
  -2   5   0  234.85    6.40   2 
  -1   5  -2    8.94    4.37   2 
   6  -5   7    2.70    6.05   2 
   7  -3   1   78.24    6.32   2 
   7   2  -6    1.39    5.59   2 
  -3   4   3  188.76    6.08   2 
  -3   6   3   13.08    5.57   2 
   0   7  -3    6.17    5.33   2 
   1  -5  13   38.52    7.58   2 
   2  -5  10  124.00    6.89   2 
   4  -3   1   39.75    4.73   2 
   4   0  -4  146.33    6.50   2 
   4   1  -5   26.09    4.62   2 
   5  -1  -3  105.05    5.29   2 
   7  -1  -3   13.03    5.33   2 
   8  -2  -1    1.41    6.05   2 
   8   1  -5   12.63    5.96   2 
  -4   1  11   48.94    5.87   2 
  -4   5   7   87.92    6.64   2 
  -2   3   1   30.08    4.81   2 
  -2   7   1   60.35    6.42   2 
  -2   8   2   40.84    6.77   2 
   3   7  -6    7.11    8.09   2 
   4  -5   7   -3.02    3.78   2 
   5  -4   3   18.50    5.20   2 
   6  -5   6   26.37    6.27   2 
   7  -4   3    1.30    5.79   2 
   8   0  -4    5.56    5.85   2 
  -4   3   8   61.08    6.03   2 
  -3  -1  11   71.18    7.96   2 
  -3   0   8  594.11   10.46   2 
  -1  -3   9  605.66   22.02   2 
  -1   7  -1   35.24    5.68   2 
   0   8  -2    4.42    5.44   2 
   3  -4   4   36.54    5.03   2 
   6   3  -7    7.75    6.40   2 
  -4   1  12   12.69    5.94   2 
  -4   5   8   28.18    6.21   2 
  -3   2   5  250.53    6.77   2 
  -3   6   4    3.54    5.26   2 
  -2   1   3    4.58    4.91   2 
  -1  -4  16    8.88   14.97   2 
  -1   3  -1   30.43    3.86   2 
  -1   8   0    8.44    6.06   2 
   0  -3   6  148.31    7.88   2 
   0   4  -3   71.55    6.08   2 
   0   6  -3   24.39    4.83   2 
   1  -5  12    5.29    6.90   2 
   1  -4   7  337.69    8.07   2 
   1   3  -4  649.46   14.31   2 
   1   7  -4   13.36    5.70   2 
   2  -5   9  201.90    8.14   2 
   4   2  -6  242.95    8.66   2 
   7   3  -7    8.67    7.12   2 
  -4   1  13   12.18    7.60   2 
  -4   3   9   43.90    6.08   2 
  -3   4   4  259.07    6.96   2 
   0   2  -2   88.89    7.13   2 
   4  -5   6   25.37    5.68   2 
   4  -1  -3   61.78    4.04   2 
   5  -2  -2  154.18    5.69   2 
   6  -5   5    5.65    5.97   2 
   7  -4   2    3.94    5.71   2 
  -4   5   9    4.53    4.24   2 
  -2   5   1   37.52    3.80   2 
  -2   7   2   17.10    4.05   2 
   5  -4   2   -2.06    4.97   2 
   5   3  -7  221.15   10.01   2 
   6   0  -5    8.95    4.97   2 
   7   1  -6    9.67    6.22   2 
   8  -2  -2    4.75    5.94   2 
  -4   1  14    4.29    6.64   2 
  -4   1  15    7.20    6.63   2 
  -4   3  10   31.32    6.23   2 
  -4   5  10    3.77    6.61   2 
  -3  -1  12   77.95    7.93   2 
  -3   6   5    5.83    5.53   2 
  -3   7   6    1.09    4.48   2 
  -1   4  -1 1040.08   11.02   2 
  -1   5  -1   56.27    5.21   2 
   1  -5  11   79.20    7.81   2 
   3  -6  12   61.63    7.31   2 
   3  -2  -1  683.68    8.76   2 
   3   3  -6   89.04   14.89   2 
   4  -6  10   57.45    7.14   2 
   4  -3   0   63.56    4.93   2 
   7  -1  -4    3.29    5.39   2 
  -3   0   9  195.18    8.22   2 
  -1  -4  15    1.25   14.41   2 
  -1   2   0 1895.40   16.14   2 
  -1   7   0   19.62    5.53   2 
  -1   8   1   -3.11    5.75   2 
   0   7  -2    5.34    5.47   2 
   0   8  -1   12.32    5.86   2 
   2  -5   8  113.04    6.31   2 
   2  -3   2  126.90    5.82   2 
   2   8  -4    2.29    6.08   2 
   5   0  -5    2.74    4.52   2 
   6  -5   4    7.49    5.86   2 
   7  -3  -1   24.56    5.71   2 
   8   0  -5   23.91    6.25   2 
   8   1  -6   61.89    7.18   2 
  -4   3  11    9.52    5.92   2 
  -3   2   6  216.34    6.78   2 
  -3   4   5  132.04    6.40   2 
  -3   6   6    1.66    5.68   2 
  -2   7   3    6.14    5.51   2 
   0  -4   9    0.52    6.91   2 
   3  -6  11   32.51    6.66   2 
   3  -4   3   75.96    5.26   2 
   4  -5   5   60.85    4.58   2 
   5  -6   8   10.40    6.36   2 
   5  -1  -4  106.90    5.33   2 
   5   1  -6   -0.66    4.46   2 
   7  -4   1    6.26    5.90   2 
   7   2  -7    2.07    6.60   2 
  -4   3  12    5.15    6.51   2 
  -3  -1  13   13.03    7.09   2 
  -2   3   2   26.42    3.49   2 
  -2   5   2  190.89    6.50   2 
   2   6  -5  221.41    9.15   2 
   6   2  -7   15.10    6.31   2 
   7  -2  -3   88.23    5.19   2 
  -4   3  13   -4.05    7.09   2 
  -4   3  14    6.51    7.32   2 
  -3   6   7    6.11    5.91   2 
  -2  -2  10  108.71   11.45   2 
  -2  -1   7   59.24    6.71   2 
   1  -5  10   94.03    7.42   2 
   1  -4   6  208.52    7.17   2 
   1   4  -4  235.61    8.38   2 
   1   5  -4  110.62    7.14   2 
   2   0  -3  188.81    7.33   2 
   3  -6  10   10.72    5.94   2 
   3   0  -4  179.54    6.08   2 
   5  -4   1    9.17    3.51   2 
   8  -2  -3    4.32    4.37   2 
  -3  -1  14   -1.95    7.30   2 
  -3   4   6    9.17    5.22   2 
  -2   7   4   46.01    6.19   2 
  -1   7   1    6.44    5.41   2 
   0   6  -2   94.33    5.55   2 
   1   7  -3   68.95    6.05   2 
   2  -6  13    2.21    6.19   2 
   2   3  -5  309.43   16.38   2 
   3  -1  -3  978.53   10.76   2 
   4  -6   8   10.53    5.96   2 
   5  -6   7   12.29    6.38   2 
   5  -2  -3  224.23    6.11   2 
   6  -5   3   -0.03    3.97   2 
  -3  -1  15    9.06    7.39   2 
  -3  -1  16    6.00    7.76   2 
  -3  -1  17   -0.27    7.84   2 
  -3   0  10   50.43    5.58   2 
  -3   2   7  122.20    6.35   2 
  -3   6   8   17.45    6.39   2 
   0   1  -1   10.77    5.98   2 
   0   8   0   -1.41    5.83   2 
   2  -5   7    0.92    4.83   2 
   2   1  -4  576.95   13.89   2 
   3   1  -5   15.27    4.36   2 
   4  -5   4   82.97    4.50   2 
   4   0  -5   36.29    5.53   2 
   4   7  -6    2.25    8.70   2 
   7  -4   0   15.22    5.98   2 
   7  -1  -5   16.32    5.59   2 
  -3   6   9   10.58    6.36   2 
  -2   1   4  145.69    6.30   2 
  -2   7   5   75.13    6.80   2 
  -1   5   0  122.08    5.71   2 
   1  -2   1  270.67    8.12   2 
   2  -6  12    0.60    6.10   2 
   2  -1  -2 1372.93   13.72   2 
   3  -6   9   10.83    5.92   2 
   4  -3  -1   -2.12    4.47   2 
   4  -1  -4  352.70    7.03   2 
   6  -3  -2   36.23    4.07   2 
   6   0  -6   55.32    5.41   2 
   8   0  -6    2.12    5.88   2 
  -3   4   7   24.79    5.44   2 
  -2   5   3   52.46    5.49   2 
  -1   4   0  204.10    6.46   2 
   0   3  -2   26.27    4.47   2 
   2   7  -4    1.65    5.71   2 
   2   8  -3    1.42    6.22   2 
   3  -4   2   75.91    4.09   2 
   5  -6   6   28.26    5.91   2 
   5  -4   0   41.19    5.19   2 
   5   6  -7    2.34   12.00   2 
   6  -5   2   20.41    5.78   2 
   7   1  -7   39.17    6.07   2 
  -3   0  11   44.13    5.63   2 
  -2   3   3   63.50    4.96   2 
  -2   7   6   66.78    6.90   2 
  -1   7   2   16.98    5.68   2 
   1  -5   9  141.16    7.40   2 
   2  -6  11    5.72    5.98   2 
   2  -3   1  920.66   10.37   2 
   3  -2  -2    5.06    4.50   2 
   3   5  -6    1.62    6.90   2 
   3   7  -5    0.22    6.78   2 
   4   1  -6   23.49    5.41   2 
   6  -2  -4    4.44    4.97   2 
   8  -2  -4    3.14    4.24   2 
  -3   2   8    8.09    4.96   2 
  -3   4   8  112.77    6.59   2 
   0  -4   8    9.65    7.07   2 
   0  -3   5  117.43    7.44   2 
   0   4  -2   88.14    5.21   2 
   0   8   1   32.73    6.45   2 
   2  -5   6   95.71    6.01   2 
   3  -6   8   65.20    6.24   2 
   4  -5   3   25.02    5.38   2 
   7  -4  -1   14.25    5.76   2 
   7   3  -8    3.95    7.39   2 
  -3   0  12  264.14   10.22   2 
  -2   5   4   17.88    5.08   2 
  -2   7   7   14.23    6.41   2 
   0   6  -1  222.68    6.92   2 
   1  -4   5   38.32    4.96   2 
   2   4  -5   78.87    7.72   2 
   5  -6   5   13.45    4.53   2 
   5  -1  -5   55.60    5.18   2 
   5   0  -6   26.86    4.69   2 
   6   4  -8   -2.60    9.30   2 
  -3   4   9   76.70    6.62   2 
  -1   7   3   85.01    6.44   2 
   1   7  -2   67.76    6.04   2 
   2  -6  10   48.80    6.42   2 
   5  -2  -4   37.48    4.83   2 
   6  -5   1   18.07    5.99   2 
   6  -3  -3    6.02    4.81   2 
  -3   0  13   41.34    6.58   2 
  -3   2   9   49.34    4.34   2 
  -1   5   1   74.54    4.35   2 
  -1   6   2  140.04    6.60   2 
   0   8   2   -4.00    5.73   2 
   1  -5   8   -0.52    6.16   2 
   3  -6   7  167.99    7.54   2 
   6   3  -8    5.81    6.58   2 
   7  -1  -6   26.46    5.66   2 
   7   2  -8    3.09    7.08   2 
  -3   0  14   60.89    7.18   2 
  -3   0  15   29.93    6.48   2 
  -3   0  16   -0.00    6.52   2 
  -3   4  10   92.74    5.36   2 
  -2  -2  11   44.06    8.88   2 
  -2   3   4  295.54    6.95   2 
  -2   5   5    9.28    5.00   2 
  -1   2   1    8.54    5.42   2 
   2   8  -2   -0.35    5.83   2 
   3  -4   1   83.04    4.09   2 
   4  -5   2   -1.54    5.02   2 
   4  -3  -2   97.27    4.12   2 
   5  -6   4    3.17    5.65   2 
   5  -4  -1   60.14    4.21   2 
   7  -4  -2    8.50    5.97   2 
   8  -2  -5    5.19    6.15   2 
   8   0  -7    9.80    6.23   2 
  -3   2  10    9.16    5.42   2 
  -3   4  11   26.39    6.25   2 
  -3   4  12   18.66    6.78   2 
  -2  -1   8  177.40    8.62   2 
  -2   1   5   42.24    5.30   2 
  -1   4   1   17.05    4.90   2 
  -1   7   4   58.94    6.29   2 
   1  -6  14   13.78    7.92   2 
   2  -6   9   -2.83    5.42   2 
   2  -5   5  241.13    7.35   2 
   2   6  -4   74.62    7.03   2 
   5   1  -7   10.67    5.17   2 
   6  -1  -6   94.35    5.79   2 
  -3   2  11   45.67    6.34   2 
  -3   4  13    8.69    7.11   2 
   1   0  -2  907.82   17.28   2 
   1   5  -3  130.00    5.87   2 
   2   7  -3   14.33    5.89   2 
   6  -5   0   88.73    6.54   2 
   6  -4  -2   -0.62    3.84   2 
   6   0  -7   81.90    5.85   2 
   6   2  -8   36.04    6.93   2 
  -3   2  12   76.82    6.66   2 
  -2   5   6   26.42    5.26   2 
  -1   5   2   90.09    5.51   2 
  -1   6   3  262.43    7.47   2 
  -1   7   5   29.30    6.26   2 
   0  -5  12   24.17    7.17   2 
   0   6   0   74.65    5.69   2 
   1   7  -1   50.98    5.80   2 
   3  -6   6   44.55    6.25   2 
   3  -1  -4  862.33   10.18   2 
   4  -1  -5  476.00    7.64   2 
   5  -6   3    8.98    5.72   2 
  -3   2  13   10.41    6.63   2 
  -3   2  14   -0.58    6.64   2 
  -3   2  15   -7.39    6.48   2 
   1  -5   7   25.22    6.47   2 
   1  -4   4   58.24    6.00   2 
   1   8   1   52.66    6.85   2 
   2  -6   8   11.01    5.70   2 
   2  -3   0  155.39    4.93   2 
   3   6  -5   68.87    7.58   2 
   4   6  -6  110.13   10.98   2 
   6  -3  -4    2.96    3.60   2 
   7   1  -8   22.47    5.97   2 
  -2   3   5  122.74    4.92   2 
  -2   5   7   12.54    5.45   2 
  -1   7   6    2.51    5.93   2 
   0   4  -1    8.77    4.28   2 
   1  -6  12   41.24    7.89   2 
   2   8  -1    8.73    6.23   2 
   3  -2  -3  382.90    6.41   2 
   3   0  -5   20.89    4.45   2 
   3   2  -6   81.21    8.25   2 
   3   7  -4   -0.56    5.51   2 
   4  -5   1    9.14    5.08   2 
   4   0  -6   26.78    4.60   2 
   4   7  -5    3.56    8.37   2 
   5  -4  -2   34.38    5.07   2 
   5  -2  -5   50.99    5.06   2 
   5  -1  -6   22.00    4.97   2 
   7  -4  -3    3.33    5.55   2 
  -2  -2  12    7.98    7.73   2 
  -1   6   4  138.62    6.54   2 
  -1   7   7    2.04    6.02   2 
   0  -1   1   13.72    7.53   2 
   2  -5   4  274.00    7.26   2 
   3  -6   5   36.48    5.78   2 
   3  -4   0   41.68    3.65   2 
   4  -7   7   -3.01    6.54   2 
   4  -3  -3  119.12    5.38   2 
   4   2  -7  109.89    7.59   2 
   6  -5  -1   44.80    6.03   2 
   7  -1  -7   39.87    5.91   2 
  -2   1   6  268.18    7.28   2 
  -2   5   8    2.42    4.00   2 
  -1  -1   4   62.27    9.91   2 
  -1   4   2  432.71    8.05   2 
   0   2  -1  168.60    7.28   2 
   0   6   1   22.98    5.07   2 
   1  -2   0 1808.92   16.24   2 
   1   8   2   33.13    6.46   2 
   3  -7   9   17.17    6.40   2 
   5  -6   2   48.30    6.15   2 
   7  -3  -5   78.38    6.64   2 
  -2  -2  17    1.11    9.01   2 
  -2  -1   9  496.01   12.53   2 
  -2   3   6  141.57    6.09   2 
  -2   5   9   -1.62    5.67   2 
   0   3  -1  487.89    9.11   2 
   1   7   0   94.99    6.50   2 
   2  -6   7   21.02    5.38   2 
   2  -1  -3    2.25    3.62   2 
   2   7  -2   -2.16    6.27   2 
   6  -2  -6  205.90    6.88   2 
  -2  -2  13   31.31    8.59   2 
  -2   5  10   11.84    5.88   2 
  -2   5  11    4.81    6.23   2 
  -2   5  12    2.77    6.73   2 
  -1  -3   8  472.07   24.50   2 
   0  -3   4   40.18    6.16   2 
   4  -7   6   -2.58    6.18   2 
   5   3  -8   75.12    9.57   2 
   6  -1  -7   65.43    5.98   2 
   7  -4  -4    7.04    5.85   2 
  -2  -2  14    0.87    8.09   2 
  -2  -2  15    1.17    8.45   2 
  -2  -2  16    1.89    7.62   2 
  -1   2   2   81.53    5.94   2 
  -1   6   6   18.63    5.61   2 
   1  -5   6    3.38    4.87   2 
   1   2  -3  165.51   11.28   2 
   1   3  -3  782.29   13.51   2 
   2   6  -3   10.23    6.33   2 
   3  -7   8   34.82    6.80   2 
   3  -6   4   -2.77    5.39   2 
   4  -5   0   73.35    4.29   2 
   5  -6   1   87.23    6.59   2 
   5  -4  -3   29.73    5.08   2 
   6  -5  -2    1.94    5.64   2 
  -2   3   7   70.04    5.64   2 
  -1   5   4   88.29    4.61   2 
   0   6   2    6.20    5.01   2 
   1  -6  10    6.31    5.70   2 
   1   5  -2    4.82    4.27   2 
   2  -5   3  180.34    6.26   2 
   2   0  -4  271.57    7.95   2 
   6   0  -8  158.44    7.59   2 
   7   2  -9   29.22    7.66   2 
   7   3  -9    4.85    8.66   2 
  -2   1   7  252.14    7.28   2 
  -1  -4  16    7.06   14.62   2 
  -1   4   3  622.69    8.45   2 
  -1   6   7   88.97    5.36   2 
   1  -4   3  655.16   10.02   2 
   1   7   1   10.26    5.30   2 
   2  -7  11   19.54    6.70   2 
   2  -6   6   10.43    4.96   2 
   2  -3  -1   36.32    4.68   2 
   3  -7   7   15.01    6.33   2 
   3  -4  -1   -2.02    4.47   2 
   3   7  -3   13.67    7.17   2 
   4  -7   5   -2.57    5.71   2 
   4   1  -7   28.46    4.76   2 
  -2  -1  10  350.85   10.99   2 
  -2   3   8   35.45    5.28   2 
  -1   6   8   76.21    7.10   2 
   0   4   0  216.80    6.29   2 
   3   1  -6  263.20    8.61   2 
   4  -3  -4  171.22    5.79   2 
   4  -1  -6  247.39    6.30   2 
   5  -2  -6    9.18    4.74   2 
   7  -3  -6    4.53    4.01   2 
   7  -1  -8   23.27    5.67   2 
   7   1  -9   11.48    7.10   2 
  -1   6   9   37.43    5.38   2 
  -1   6  10    3.23    6.30   2 
   0  -2   2   86.33    6.54   2 
   0   6   3   34.83    5.09   2 
   1  -6   9   16.05    7.14   2 
   2  -7  10    6.42    6.37   2 
   2   7  -1    7.42    5.44   2 
   3  -6   3    6.73    4.91   2 
   3  -2  -4   76.37    5.14   2 
   4  -5  -1  186.81    6.45   2 
   5  -6   0   47.64    6.07   2 
   5  -1  -7   62.31    5.12   2 
   5   1  -8   19.96    5.08   2 
   7  -4  -5    8.81    5.98   2 
  -2   1   8  670.01   10.50   2 
  -2   3   9    0.25    3.81   2 
  -1   4   4  418.12    7.71   2 
   1   7   2   26.13    5.84   2 
   2  -6   5    2.70    4.82   2 
   3  -7   6    1.05    5.79   2 
   4  -7   4    0.50    6.05   2 
   4   7  -4   -0.51    7.26   2 
   5  -4  -4    1.86    5.04   2 
   6  -5  -3   -3.11    5.61   2 
   6  -3  -6   10.88    5.18   2 
   6  -2  -7  180.04    6.89   2 
  -2  -1  11  107.48    9.09   2 
  -2   3  10   61.15    5.97   2 
  -2   3  11  103.08    6.62   2 
  -2   3  14    3.89    6.66   2 
  -2   3  15   -0.18    4.62   2 
  -1  -4  15    1.60   13.62   2 
   2  -7   9    5.77    7.45   2 
   3   5  -5   23.27    6.51   2 
   3   6  -4  144.80    7.47   2 
  -2   3  12   68.31    6.71   2 
  -2   3  13   19.59    4.77   2 
   0   6   4   63.36    5.57   2 
   1   7   3   30.27    6.13   2 
   2  -5   2  130.96    6.08   2 
   2   6  -2   23.76    6.26   2 
   4   0  -7    8.05    4.41   2 
   6  -1  -8   -1.68    5.19   2 
   6   2  -9   10.98    6.70   2 
   7   0  -9   22.05    6.06   2 
  -2   1   9   58.73    5.58   2 
  -1   2   3   82.94    5.71   2 
  -1   4   5  134.38    5.79   2 
   0   3   0  694.08   10.42   2 
   1  -6   8    7.18    5.59   2 
   1   5  -1   59.07    5.04   2 
   2   7   0   24.28    5.80   2 
   3  -7   5   33.99    6.34   2 
   3  -6   2  108.63    6.24   2 
   3  -4  -2  105.75    5.33   2 
   3   7  -2    0.11    6.93   2 
   4  -7   3    1.31    5.94   2 
   5  -6  -1    4.88    6.07   2 
   6   1  -9    8.00    6.42   2 
   7  -3  -7    2.84    5.82   2 
  -2   1  10   48.29    6.93   2 
  -2   1  16   -4.25    6.28   2 
   0   6   5  129.76    6.77   2 
   1  -4   2 1256.55   12.79   2 
   1   7   4   29.05    6.23   2 
   2  -7   8   49.50    6.57   2 
   2   4  -4   99.95    6.84   2 
   4  -5  -2   64.62    5.59   2 
   4   6  -5  104.37    8.71   2 
   6  -5  -4    9.58    5.83   2 
   6   3  -9    1.74    7.56   2 
   7  -4  -6    9.91    6.40   2 
  -2   1  11   10.95    6.90   2 
  -2   1  14   12.04    7.54   2 
  -2   1  15   18.14    6.31   2 
  -1   5  12   15.36    5.13   2 
   0   4   1   84.22    5.37   2 
   0   6   6   38.48    6.07   2 
   1  -2  -1    6.77    3.80   2 
   1   6   1  434.28    8.96   2 
   2  -6   4   19.48    5.40   2 
   2  -3  -2   31.43    4.77   2 
   3   0  -6  383.99    8.32   2 
   4  -3  -5   75.45    5.32   2 
   5  -2  -7   10.80    4.86   2 
   5   6  -6    4.97    8.83   2 
  -2   1  12  120.87    7.47   2 
  -2   1  13  205.68    8.50   2 
  -1   4   6    5.68    3.47   2 
   0  -4   5  237.21    8.89   2 
   0  -3   3    4.07    5.73   2 
   1  -6   7    7.22    6.84   2 
   1   7   5   10.42    5.96   2 
   2  -1  -4  131.20    6.15   2 
   2   7   1   -3.96    5.60   2 
   4   5  -6  137.97   10.81   2 
   5  -4  -5    1.20    5.28   2 
   6  -3  -7    6.66    5.66   2 
   6   0  -9   45.36    5.81   2 
   7  -1  -9   -5.18    5.49   2 
  -1   4   7   47.76    5.66   2 
   0  -5   8   11.87    6.99   2 
   0   6   7    7.57    4.22   2 
   0   6   8   -0.65    5.80   2 
   1   7   6    0.92    5.89   2 
   2  -5   1   69.91    5.42   2 
   3  -7   4   55.33    6.80   2 
   3  -6   1  145.27    6.56   2 
   4  -7   2   -0.07    4.28   2 
   4   7  -3   19.54    6.37   2 
   5  -6  -2    5.32    5.93   2 
   5   5  -7  107.21   13.59   2 
   6  -2  -8  153.94    6.68   2 
  -1   4  14    5.79    6.81   2 
   0   6   9    9.76    6.03   2 
   0   6  10   12.07    6.43   2 
   1   6   2  148.07    6.91   2 
   2   6  -1   21.19    4.96   2 
   3  -2  -5  192.45    5.09   2 
   3   7  -1    0.50    5.73   2 
   4  -1  -7   66.05    4.96   2 
   5  -1  -8  119.14    6.08   2 
  -1   2   4   86.19    4.84   2 
  -1   4   8   86.71    4.87   2 
  -1   4   9   69.08    6.04   2 
  -1   4  13    2.81    6.35   2 
   0   2   0 2238.99   18.96   2 
   1   5   0  112.52    5.83   2 
   2   7   2   27.73    6.10   2 
   3  -4  -3  193.60    6.00   2 
   3   6  -3  109.74    6.63   2 
   4  -5  -3   29.91    5.31   2 
   6  -5  -5   38.03    6.45   2 
   7   1 -10   33.46    6.57   2 
   7   2 -10   37.54    8.23   2 
  -1   4  10    0.71    5.64   2 
  -1   4  11    5.16    5.88   2 
  -1   4  12   -1.94    4.24   2 
   0   4   2   50.16    4.01   2 
   1  -6   6   -0.25    6.54   2 
   3  -7   3   84.56    6.68   2 
   4  -7   1   -1.86    5.59   2 
   7   0 -10    6.71    7.27   2 
   0   3   1  738.63   10.55   2 
   1  -4   1 1045.92   11.55   2 
   2   7   3    9.50    6.12   2 
  -1   0   4  145.16    7.41   2 
   0  -5   7   -1.01    6.81   2 
   1  -7  11    3.92    6.46   2 
   1   3  -2  358.44    9.30   2 
   2  -5   0  233.55    6.62   2 
   2   6   0  114.90    6.37   2 
   3  -6   0    5.15    5.30   2 
   3   7   0    4.38    5.67   2 
   4  -3  -6    7.52    4.97   2 
   4   7  -2   37.34    8.09   2 
   5  -6  -3   39.87    4.86   2 
   5  -4  -6   13.46    3.94   2 
   5  -2  -8   26.43    5.10   2 
   5   1  -9   81.11    7.24   2 
   6  -3  -8   14.58    5.85   2 
  -1   2   5  204.91    6.70   2 
   0   4   3   85.30    5.53   2 
   1  -7  10   41.45    8.25   2 
   1   5   1   95.34    5.74   2 
   2  -7   5   71.06    6.78   2 
   2  -3  -3   65.23    5.17   2 
   2   1  -5  147.17    8.60   2 
   2   5  -2   69.86    5.61   2 
   2   7   4   12.65    6.47   2 
   7  -1 -10   -5.24    5.82   2 
   0  -4   4  579.01   11.13   2 
   0   1   0  387.42   11.40   2 
   2   0  -5 1054.77   13.39   2 
   2   7   5    6.78    6.91   2 
   3  -7   2   52.09    5.17   2 
   3   3  -6  110.33   15.69   2 
   3   5  -4   27.79    6.54   2 
   4  -7   0    6.37    4.36   2 
   4  -5  -4    5.35    5.23   2 
   4   0  -8    6.13    4.44   2 
   4   6  -4   50.84    7.81   2 
   5   2  -9  397.86   13.02   2 
   6  -5  -6   16.24    4.56   2 
   6  -2  -9   19.26    5.68   2 
  -1  -3  17   -0.60    9.56   2 
  -1   2  16    9.18    6.60   2 
   0  -6  13   44.52   10.40   2 
   0  -6  14    5.57   10.47   2 
   0   5   9   47.88    5.14   2 
   0   5  10   55.26    5.26   2 
   1  -7   9   80.89    8.79   2 
   3  -4  -4  267.52    6.72   2 
   3   6  -2   58.88    5.88   2 
   3   7   1   -5.06    5.52   2 
   4   2  -8  149.60    9.95   2 
   6   0 -10    7.47    6.25   2 
   6   1 -10   54.68    6.63   2 
  -1   2   6  232.90    6.84   2 
  -1   2  15    1.40    6.59   2 
   0  -6  12    3.63    7.65   2 
   0  -2   1  202.31    8.05   2 
   0   4   4   34.67    5.14   2 
   1  -2  -2   85.51    6.01   2 
   1   6   7   96.30    6.92   2 
   2   6   1  115.41    6.33   2 
   3  -6  -1   -4.95    5.30   2 
   3  -2  -6  221.39    6.32   2 
   4   7  -1   19.73    6.56   2 
   5  -6  -4   42.33    6.38   2 
   5  -1  -9  188.08    6.74   2 
  -1   2  14   61.78    7.23   2 
   0  -6  11    3.80    8.53   2 
   0  -3   2   30.46    5.09   2 
   0   3   2  410.02    8.06   2 
   1   5   2  101.49    5.72   2 
   2  -6   1   46.52    6.04   2 
   2  -5  -1   44.40    5.26   2 
   2   4  -3  168.67    7.50   2 
   3  -8   4   10.71    6.60   2 
   3  -7   1    8.01    5.90   2 
   3   7   2   -1.06    5.97   2 
   4  -7  -1   14.16    6.04   2 
   4  -1  -8    2.06    4.61   2 
   5  -4  -7   29.45    5.71   2 
   5   6  -5    3.32    7.46   2 
   6   2 -10   19.75    8.44   2 
  -1   2   7  145.33    6.48   2 
   0   4  14    9.51    7.12   2 
   1  -7   8   44.81    6.80   2 
   1  -4   0  176.63    5.40   2 
   2  -1  -5   42.97    5.25   2 
   2   6   2   15.42    5.38   2 
   4  -3  -7   13.76    4.87   2 
   6  -5  -7   12.62    6.26   2 
  -1   0  17   -0.69    6.41   2 
  -1   2   8   50.41    5.64   2 
  -1   2  12   19.94    6.20   2 
  -1   2  13   58.61    6.87   2 
   0  -6  10   51.60    8.44   2 
   0   2   1 1091.42   13.91   2 
   0   4  13    3.49    6.55   2 
   1   0  -3  743.01   14.11   2 
   1   5   3    6.70    4.53   2 
   2  -7   3    6.52    5.67   2 
   2   5  -1  272.60    7.68   2 
   3   0  -7  553.05    9.62   2 
   3   1  -7    7.76    5.65   2 
   3   6  -1   12.84    6.54   2 
   3   7   3    5.14    4.31   2 
   4  -5  -5   47.93    5.76   2 
   4   7   0    4.87    6.26   2 
   7   0 -11    6.87    7.58   2 
   7   1 -11    9.02    7.62   2 
  -1  -3  16   13.42    8.12   2 
  -1  -2  17   35.42    9.14   2 
  -1   2   9  136.99    6.52   2 
  -1   2  10    7.37    5.29   2 
  -1   2  11   44.44    6.08   2 
   0   4   6   -2.79    4.95   2 
   0   4  12   -2.34    6.15   2 
   1  -7   7   12.40    7.91   2 
   2  -3  -4  298.84    6.95   2 
   2   6   3   -0.16    5.45   2 
   3  -8   3   19.49    7.27   2 
   3  -6  -2    6.80    5.60   2 
   4   6  -3    1.86    6.77   2 
   5  -6  -5   13.31    6.54   2 
   5  -2  -9   35.02    5.53   2 
  -1  -1   5   58.95    8.47   2 
  -1   0   5   11.02    5.42   2 
  -1   0  16   30.31    6.44   2 
   0  -6   9   12.57    8.55   2 
   0  -4   3   69.59    5.91   2 
   0   3   3   -3.22    4.91   2 
   1   5   4    2.41    5.11   2 
   2  -8   6    6.40    7.79   2 
   2  -6   0  126.06    7.04   2 
   3  -7   0    0.37    5.73   2 
   3  -4  -5  147.13    6.17   2 
   4  -7  -2   13.79    6.33   2 
   6  -2 -10   20.92    5.70   2 
   0   3  15    1.92    6.64   2 
   2   6   4   28.76    5.87   2 
   3   5  -3  325.13    9.55   2 
   4   5  -5  118.14    8.56   2 
  -1  -3   7  159.16   18.82   2 
  -1  -2  16   42.83    8.37   2 
  -1   0  15   24.37    6.16   2 
   1  -7   6    5.05    6.14   2 
   1   3  -1  120.83    6.76   2 
   1   5   5    8.01    3.61   2 
   1   5   6   28.51    5.54   2 
   1   5  10   -3.10    6.01   2 
   1   5  11    1.88    6.17   2 
   2  -5  -2  164.79    5.29   2 
   2   6   5   31.57    6.31   2 
   2   6   6   44.94    6.27   2 
   3   6   0   22.22    5.62   2 
   5  -4  -8   28.15    4.30   2 
  -1  -3  15   81.36    9.29   2 
   0  -6   8   56.12    7.99   2 
   0  -1   0  448.40   13.23   2 
   0   3   4  296.46    7.20   2 
   0   3  14    5.49    6.28   2 
   1  -4  -1   17.32    5.08   2 
   1   5   7   54.59    5.97   2 
   1   5   8   60.12    6.16   2 
   1   5   9   -0.12    5.81   2 
   2  -8   5   19.15    6.90   2 
   2   6   7    4.86    6.16   2 
   2   6   8   -1.76    6.02   2 
   3  -7  -1   60.88    6.82   2 
   3  -2  -7  124.99    6.07   2 
   4  -5  -6   77.57    6.09   2 
   5  -6  -6   11.72    6.28   2 
   5   6  -4    4.24    7.64   2 
  -1   0  14   58.01    6.36   2 
   0   3  13   29.99    5.96   2 
   3  -6  -3   14.70    4.11   2 
   4  -7  -3   -5.83    6.18   2 
   4  -3  -8   51.21    5.90   2 
   4   0  -9    4.96    6.08   2 
   4   6  -2   -3.71    7.24   2 
   5  -1 -10  120.67    6.48   2 
   5   1 -10  198.90    8.76   2 
   6   0 -11   17.13    5.82   2 
  -1  -2  15    2.80    7.51   2 
  -1   0   6  343.82    9.01   2 
   0  -3   1  507.10    9.76   2 
   0   3   5  603.68    9.30   2 
   0   3  12   92.39    7.25   2 
   1  -7   5    7.96    5.99   2 
   1  -2  -3   82.23    5.68   2 
   2  -8   4   43.00    8.60   2 
   2  -7   1   70.66    6.54   2 
   2   4  -2   46.12    6.44   2 
   3  -8   1   63.16    7.41   2 
   3   6   1    1.56    5.52   2 
   4  -1  -9   16.20    5.05   2 
   6   1 -11   54.59    8.14   2 
  -1  -3  14   94.59    9.97   2 
  -1   0  13   63.66    6.53   2 
   0  -6   7   81.91    8.06   2 
   0   2   2  199.88    6.30   2 
   0   3  11  129.61    6.98   2 
   2  -3  -5  154.56    5.79   2 
   2   5   1   68.20    5.65   2 
   3  -4  -6    7.09    5.09   2 
   5  -2 -10    7.44    5.52   2 
   5   5  -6    9.60    8.32   2 
   6  -2 -11   63.87    7.93   2 
  -1   0  12    1.15    6.33   2 
   0   3   6  771.68    9.96   2 
   0   3  10  164.31    7.17   2 
   1   2  -2   24.99    6.22   2 
   1   4  13   44.13    7.14   2 
   2  -5  -3   55.67    4.23   2 
   3  -7  -2   66.41    7.15   2 
   3   5  -2   57.74    6.67   2 
   3   6   2   13.72    5.66   2 
   4  -7  -4    8.49    6.27   2 
   5  -4  -9   15.87    5.75   2 
  -1  -2  14   12.86    7.17   2 
  -1   0   7  255.15    8.16   2 
   0  -2   0 2713.28   21.75   2 
   0   3   7  508.74    7.95   2 
   0   3   8   73.28    5.72   2 
   0   3   9   62.55    4.74   2 
   1  -7   4   47.07    6.34   2 
   1   4  12   52.65    6.70   2 
   2  -8   3   23.17    6.82   2 
   2  -1  -6  252.05    6.85   2 
   3  -6  -4    1.59    5.60   2 
   3   6   3   11.71    5.87   2 
   4  -5  -7  104.43    6.59   2 
   4   6  -1   18.70    6.02   2 
   6   5  -7   15.75    9.35   2 
  -1   0   8  309.43    8.86   2 
  -1   0  10   21.56    6.53   2 
  -1   0  11    2.34    5.04   2 
   0  -6   6   51.51    7.75   2 
   1  -8   8   64.04    9.53   2 
   2   0  -6  843.37   11.90   2 
   3  -1  -8  717.33    9.79   2 
   3   6   4    9.44    5.92   2 
   5   3  -9    1.32   13.59   2 
   5   6  -3   27.58    6.64   2 
   6   3 -10    9.33   11.78   2 
  -1  -3  13  100.88   10.37   2 
  -1   0   9  403.00    9.81   2 
   0   1  16    7.70    6.41   2 
   1  -3  -3  744.90    9.13   2 
   1   3   0   10.84    4.78   2 
   2   5   3   37.79    5.52   2 
   3   0  -8  578.99    9.77   2 
   3   6   6    0.14    6.17   2 
   3   6   7   26.19    5.11   2 
   4  -3  -9   51.10    5.61   2 
   4   5  -4   62.48    6.49   2 
  -1  -2   6   42.57   14.00   2 
  -1  -2  13   93.81    8.54   2 
   0   1   1  793.95   14.55   2 
   1  -8   7   39.36    9.06   2 
   1  -7   3   47.70    6.49   2 
   2  -8   2    2.34    6.50   2 
   2  -5  -4   11.60    5.13   2 
   2   4  -1  363.57    8.80   2 
   2   5   4  329.83    8.44   2 
   3  -4  -7   24.45    5.23   2 
   3  -2  -8   10.48    4.65   2 
   3   4  -4    6.76    6.03   2 
   4   6   0   31.03    6.20   2 
   0  -6   5   11.11    6.98   2 
   0  -4   1    7.62    4.66   2 
   0   1  15    5.94    6.01   2 
   1   3  14    6.63    6.49   2 
   1   4   6    6.83    3.80   2 
   1   4   7    8.78    5.32   2 
   2   5   5  347.50    8.21   2 
   2   5   6  266.38    7.83   2 
   2   5   7   -3.32    5.40   2 
   2   5   8   58.26    5.14   2 
   3  -6  -5   -0.28    5.58   2 
   3   5  -1    2.30    4.60   2 
   4   4  -6    3.64    7.10   2 
   5  -4 -10    5.00    6.01   2 
   5  -1 -11   32.91    5.79   2 
   5   2 -10  146.32   10.68   2 
   6   2 -11   17.97    8.48   2 
  -1  -3  12    4.86    7.88   2 
   1  -8   6    4.38    6.89   2 
   1  -6   0   15.65    5.55   2 
   2  -3  -6  147.94    5.93   2 
   4  -5  -8   30.19    6.11   2 
   4   6   1   25.45    6.08   2 
   5  -2 -11   12.58    5.57   2 
   5   6  -2    8.70    6.15   2 
   6  -2 -12   71.79    7.30   2 
   6   0 -12    5.57    7.41   2 
  -1  -2  12   60.28    8.33   2 
   1  -7   2  124.39    7.39   2 
   1  -4  -3  765.06    9.84   2 
   1  -2  -4   99.39    5.54   2 
   1   3  13    1.73    5.83   2 
   2  -8   1   15.86    6.54   2 
   3  -7  -4    3.77    6.22   2 
   4   6   2    6.39    5.84   2 
   0  -7  10  129.40   11.05   2 
   0  -7  11  120.76   12.18   2 
   0  -5   2   19.82    5.04   2 
   0  -1  17   15.47    7.88   2 
   0   1  14    6.72    4.13   2 
   1  -8   5   -1.55    6.45   2 
   1  -5  -2   97.28    5.62   2 
   1   3   1  148.85    6.45   2 
   3   5   0   78.15    6.00   2 
   4   0 -10    2.51    4.72   2 
   4   6   3    0.30    6.24   2 
   4   6   4   -6.78    5.88   2 
  -1  -2  11   93.06    8.95   2 
   0  -7   9   47.90    8.71   2 
   0  -7  12   19.33   10.99   2 
   0  -6   4   35.33    5.91   2 
   1   2  15   13.61    6.46   2 
   2  -7  -2   14.63    6.03   2 
   2  -5  -5    2.73    5.21   2 
   2   4   0   10.61    4.60   2 
   2   4  12   -2.81    6.29   2 
   3   1  -8    5.32    5.65   2 
   4  -3 -10   33.96    5.74   2 
   4   5  -3   54.94    6.12   2 
   4   6   5   -4.51    4.34   2 
   5   5  -5    0.31    6.77   2 
   5   6  -1   13.22    6.16   2 
  -1  -3  11    2.74    8.40   2 
   0  -7   8    4.59    7.74   2 
   0   1  13   19.03    5.37   2 
   1  -8   4    7.13    8.10   2 
   1  -7   1   26.74    5.98   2 
   1  -6  -1   43.38    6.13   2 
   1   3  11    5.42    5.95   2 
   2  -8   0    6.23    6.62   2 
   2   4  11    2.13    5.99   2 
   3  -6  -6   -2.39    4.11   2 
   3  -4  -8  132.94    6.25   2 
   3   5   1   43.09    5.73   2 
   5   1 -11  137.67    8.74   2 
   6   1 -12    8.66    7.41   2 
  -1  -3   6   59.76   12.60   2 
   0  -7   7   82.67    8.67   2 
   0  -4   0  220.43    6.89   2 
   0  -2  -1 1054.83   13.82   2 
   1   0  -4  160.01    8.23   2 
   1   3   2  148.41    6.30   2 
   2  -1  -7  258.18    6.77   2 
   2   1  -6   24.57    7.14   2 
   3  -7  -5   -0.72    6.27   2 
   3  -2  -9   60.07    5.27   2 
   3  -1  -9  460.75    8.43   2 
   3   5   9   16.35    5.07   2 
   4  -5  -9    7.39    5.86   2 
   5  -4 -11    0.75    6.39   2 
   5   6   0   11.60    6.37   2 
   0  -6   3   19.77    5.71   2 
   0  -3  -1  754.45   11.01   2 
   0  -1  16   19.29    6.72   2 
   0   1  12   10.53    5.50   2 
   1   2  14   98.26    7.50   2 
   2  -7  -3   -1.95    5.82   2 
   2  -3  -7   78.65    5.36   2 
   2   4   1   39.71    4.98   2 
   2   4  10    7.06    5.81   2 
   3   5   2  134.93    6.78   2 
   3   5   7   42.38    6.29   2 
   3   5   8   25.10    4.68   2 
   4   2  -9    8.52    7.90   2 
   5   6   1   25.72    6.91   2 
   6   5  -6   24.85    9.59   2 
  -1  -4   8  711.93   29.09   2 
  -1  -3  10  354.73   17.82   2 
  -1  -2   7    0.70    9.28   2 
   0  -7   6  162.16    8.75   2 
   0   1   2  811.29   13.29   2 
   1  -8   3   25.16    6.79   2 
   1  -7   0    7.87    6.22   2 
   1   3   3   24.95    5.06   2 
   2  -8  -1   -1.87    6.78   2 
   2   4   9   59.11    6.37   2 
   3   4  -3   18.76    4.90   2 
   3   5   3  156.96    7.02   2 
   3   5   4  103.07    6.53   2 
   3   5   5    6.68    5.56   2 
   3   5   6    4.78    5.51   2 
   4   5  -2  235.23    8.05   2 
   5  -2 -12    6.02    5.65   2 
   5  -1 -12   16.74    5.60   2 
   5   6   2    5.40    6.47   2 
   6  -1 -13   -1.91    6.04   2 
  -1  -2   8   53.71    8.55   2 
   0  -3  17    4.56    7.75   2 
   0  -1  -1  872.86   15.93   2 
   0   1  11    3.41    5.34   2 
   1   2  13   74.01    7.01   2 
   2  -5  -6   32.81    5.38   2 
   2   4   2  116.22    6.15   2 
   2   4   8   65.31    6.15   2 
   3  -6  -7   -1.95    6.08   2 
   3   0  -9  165.49    6.61   2 
   0  -6   2   38.37    6.32   2 
   1  -8   2   22.42    6.89   2 
   1  -2  -5  174.43    5.34   2 
   1   2  -1 1429.93   17.51   2 
   1   3   5   31.11    5.05   2 
   2   0  -7 1201.92   13.71   2 
   2   4   3  206.62    6.64   2 
   2   4   4   86.78    5.75   2 
   2   4   6    1.31    5.25   2 
   2   4   7    1.00    5.28   2 
   3  -7  -6   -6.63    6.39   2 
   3  -4  -9   35.30    6.12   2 
   4  -3 -11    1.31    5.48   2 
   5   5  -4  148.00    9.43   2 
   6   0 -13    7.21    7.60   2 
   0  -5   0    3.27    4.92   2 
   0  -4  -1   76.02    5.60   2 
   0  -1  15   14.26    5.96   2 
   0   1  10    2.70    5.16   2 
   1  -7  -1    9.12    6.05   2 
   1  -3  -5    3.03    3.23   2 
   1   0  17    0.85    6.33   2 
   1   2  12   36.36    5.96   2 
   2  -8  -2   25.33    7.07   2 
   2  -7  -4   24.82    6.59   2 
   2   4   5   82.74    4.83   2 
   4  -5 -10   -5.81    4.29   2 
   4   5  -1  190.38    7.78   2 
   5   4  -7   16.88    8.82   2 
   0  -7   4   89.54    7.17   2 
   0   1   3  389.97    9.65   2 
   0   1   9   27.48    5.68   2 
   1  -5  -4  113.58    6.26   2 
  -1  -4   6  146.23   10.84   2 
  -1  -3   9  695.70   26.18   2 
   0  -6   1  246.67    8.03   2 
   1  -8   1   -2.56    6.61   2 
   1   2  11   58.21    6.10   2 
   2  -5  -7    4.08    5.44   2 
   2  -3  -8   37.78    5.02   2 
   2   2  15    0.85    4.44   2 
   3  -6  -8   15.60    6.28   2 
   3  -2 -10    7.30    5.00   2 
   3   4  -2  187.75    6.71   2 
   4   0 -11  152.45    7.07   2 
   4   4  -5   26.36    6.41   2 
   4   5   0   66.61    5.72   2 
  -1  -3   5   75.33   10.74   2 
   0  -7   3   10.10    6.16   2 
   0  -3  -2  354.09    7.22   2 
   0  -3  16   -1.86    7.31   2 
   0  -2  -2  217.18    7.61   2 
   0  -1  14    8.57    6.62   2 
   0   1   4    5.83    5.47   2 
   0   1   8  187.70    6.91   2 
   1   0  16    4.01    6.32   2 
   2  -1  -8  665.40    9.09   2 
   3  -1 -10  182.74    6.23   2 
   3   4  10    9.27    4.39   2 
   4   5   1   17.56    5.67   2 
   4   5   6    0.37    6.05   2 
   5  -2 -13    0.53    5.60   2 
   5   5  -3   96.25    8.42   2 
   6   5  -5   29.59    7.95   2 
   0   1   5  193.15    7.48   2 
   0   1   6  518.02    9.42   2 
   0   1   7  383.55    8.26   2 
   1  -8   0   14.95    6.73   2 
   1  -7  -2   10.20    4.45   2 
   1   2  10   35.07    5.58   2 
   2   2  14    1.64    5.89   2 
   3  -4 -10   86.97    6.13   2 
   4  -5 -11   23.94    6.48   2 
   4   5   2    5.23    5.44   2 
   4   5   3   53.02    6.24   2 
   4   5   4   75.29    6.79   2 
   4   5   5   37.71    6.37   2 
   5  -1 -13   59.80    6.70   2 
   0  -8   8    8.01    8.40   2 
   0  -6   0   93.01    6.49   2 
   0  -4  -2   57.54    4.22   2 
   0  -4  16   84.29   10.20   2 
   1  -2  -6  222.89    6.54   2 
   2   3  10    6.02    5.76   2 
   3   3  13    0.93    6.50   2 
   3   4  -1   21.98    5.75   2 
   4  -3 -12    2.10    5.74   2 
   0  -8   6   16.13    8.62   2 
   0  -8   7    3.04    6.75   2 
   0  -7   2   11.82    6.22   2 
   1   2   0  364.18    9.38   2 
   3  -6  -9    6.49    6.33   2 
   3   4   8   74.03    5.18   2 
   5   1 -12   13.91    6.98   2 
   5   5  -2   91.44    6.78   2 
   6   1 -13    2.86    7.46   2 
   6   2 -12   27.27   10.14   2 
   6   4  -8    0.27    8.87   2 
   0  -1  13    2.22    5.17   2 
   1  -8  -1    3.76    6.98   2 
   1  -7  -3   72.47    6.86   2 
   1  -4  -6    4.53    4.88   2 
   1   0  15   20.05    6.09   2 
   2  -7  -6   80.11    7.06   2 
   2  -5  -8    7.69    5.62   2 
   2   2  13    9.82    5.95   2 
   2   3   9   15.26    3.87   2 
   3   3  -5   -0.28    6.29   2 
   3   4   7  282.58    8.51   2 
   6   5  -4    3.90    7.48   2 
  -1  -5   6  234.41   12.53   2 
  -1  -5   7   11.07    7.22   2 
  -1  -5   8    4.38    8.57   2 
  -1  -4   4  252.31   10.18   2 
  -1  -3   4  799.77   18.25   2 
  -1  -3   8  491.71   25.96   2 
   0  -8   5   57.35    7.89   2 
   0  -6  -1   28.38    5.66   2 
   0  -3  -3   -0.70    5.16   2 
   1   2   8  347.32    7.55   2 
   2  -3  -9    4.58    4.99   2 
   3  -2 -11   42.39    5.69   2 
   3   0 -10   49.55    5.44   2 
   3   1  -9   93.97    7.20   2 
   3   3  12    0.28    4.38   2 
   3   4   0   54.84    5.30   2 
   3   4   6  195.80    7.08   2 
   4   4  10   26.01    6.58   2 
   5   2 -11    6.32    8.67   2 
   5   5  -1  125.78    7.27   2 
   5   5   5    1.26    6.11   2 
   5   5   6    5.52    4.81   2 
   0  -8   4   58.38    7.29   2 
   0  -4  -3  100.29    5.64   2 
   0  -3  15   16.51    7.38   2 
   0  -1  -2  912.94   14.50   2 
   1  -8  -2    0.10    6.63   2 
   1  -6  -5   22.27    5.85   2 
   1   0  -5   11.34    6.00   2 
   2   0  -8  122.59    7.12   2 
   2   1  15   28.47    6.73   2 
   2   2  12    8.80    5.68   2 
   3  -4 -11   22.15    5.66   2 
   3   4   1  262.31    7.39   2 
   3   4   5   31.91    5.69   2 
   4   4  -4    3.71    6.24   2 
   5   5   0    3.99    5.45   2 
   5   5   4    2.36    6.28   2 
  -1  -5   5   82.96    8.85   2 
   0  -2  -3  529.82    9.34   2 
   1  -7  -4   48.97    6.59   2 
   1  -2  17    3.75    6.16   2 
   1   0  14   26.46    5.95   2 
   1   2   1  266.70    8.33   2 
   1   2   7  416.62    7.29   2 
   2   3   7   21.44    5.40   2 
   3   3  11   38.76    6.45   2 
   3   4   3  122.51    6.02   2 
   4   4   9    1.62    4.73   2 
   5  -2 -14    1.19    6.33   2 
   5   5   1   46.50    6.13   2 
   5   5   2  140.73    7.71   2 
   5   5   3   42.14    6.64   2 
   6   5  -3    5.47    6.18   2 
  -1  -5   4  122.47    9.09   2 
  -1  -5   9  125.04   15.82   2 
  -1  -4   3  872.59   15.47   2 
   0  -8   3   14.38    6.85   2 
   0  -6  -2    4.32    5.54   2 
   0  -1  12   39.04    5.45   2 
   1  -4  -7   46.20    5.55   2 
   1   2   6  153.95    6.29   2 
   2  -7  -7    5.80    4.72   2 
   2  -5  -9    1.68    5.50   2 
   2  -1  -9   45.97    4.93   2 
   2   3   6  148.47    6.08   2 
   3   2  14    3.84    6.22   2 
   4  -3 -13   -2.97    6.05   2 
   4   0 -12  164.81    7.20   2 
   4   4   8    8.20    5.80   2 
  -1  -3   3  872.63   16.41   2 
   0  -8   2    5.96    6.87   2 
   0  -4  15   25.67    9.25   2 
   1  -8  -3   -0.38    6.71   2 
   1  -2  -7  136.62    5.87   2 
   1   2   2   64.32    5.95   2 
   1   2   5   -1.84    4.63   2 
   2   1  14   11.88    5.81   2 
   2   2  11   37.21    5.95   2 
   2   3   1  830.23   10.66   2 
   2   3   5  426.61    7.94   2 
   3   3  10   29.49    5.89   2 
   5  -1 -14   77.29    7.50   2 
   5   4  -6   14.96    6.74   2 
   6   5  -2    2.92    5.88   2 
  -1  -5   3  131.94    8.24   2 
   0  -4  -4   31.79    5.24   2 
   0  -3  -4  276.97    7.20   2 
   1  -7  -5   24.04    6.23   2 
   1  -6  -6   11.21    4.21   2 
   2  -3 -10   58.94    5.83   2 
   2   3   2   86.56    5.94   2 
   2   3   3   69.89    5.60   2 
   2   3   4  246.02    6.96   2 
   4  -1 -13    5.82    6.55   2 
   4   4  -3   24.42    6.36   2 
   4   4   7   40.55    6.05   2 
   6   5  -1    4.27    6.06   2 
  -1  -6   6   29.24    7.71   2 
  -1  -6   7  177.38   11.64   2 
  -1  -4   2  574.56   11.52   2 
   0  -8   1   18.48    7.13   2 
   0  -5  15   72.20   11.43   2 
   1   0  13    9.79    5.82   2 
   3  -4 -12   25.17    6.22   2 
   3  -2 -12   65.64    6.31   2 
   3   2  13   10.97    4.44   2 
   3   3   9    5.39    5.47   2 
   4   4   6   18.34    6.00   2 
   6   5   0   -4.51    6.11   2 
   6   5   1   -4.21    6.24   2 
   6   5   2    4.27    6.53   2 
  -1  -6   5   21.84    6.27   2 
   0  -6  -3   20.69    5.98   2 
   0  -3  14   16.09    6.90   2 
   0  -1  11   65.36    5.94   2 
   1  -2  16    3.16    5.91   2 
   2   1  13   10.69    5.86   2 
   2   2  10   13.99    4.16   2 
   3   1  15    3.32    6.29   2 
  -1  -6   4  425.48   11.36   2 
  -1  -6   8  183.82   10.94   2 
  -1  -5   2    2.75    5.09   2 
  -1  -3   2  368.07    9.92   2 
   0  -8   0    6.19    6.52   2 
   0  -2  -4  888.57    9.98   2 
   1  -7  -6    0.31    6.53   2 
   1  -6  -7  121.94    7.04   2 
   1  -4  -8  114.99    6.04   2 
   2  -5 -10    4.62    4.07   2 
   3   3   8    5.44    5.28   2 
   4  -3 -14    3.30    6.23   2 
   4   4  -2  630.44   10.53   2 
   4   4   5   31.27    4.42   2 
   5   3  -9    0.13   13.07   2 
   0  -4  -5   33.22    5.11   2 
   0  -1  -3  378.66    9.33   2 
   1   0  12   12.08    5.31   2 
   3   3  -4    9.42    6.42   2 
   4   4  -1    3.39    4.84   2 
   4   4   4  137.55    6.86   2 
   5   0 -14   43.04    7.07   2 
   5   1 -13   -0.26    6.87   2 
   6   4  -7   23.45    8.83   2 
  -1  -5   1   66.03    5.84   2 
   0  -8  -1   38.09    7.24   2 
   0  -6  -4   40.38    6.12   2 
   1  -2  -8   34.25    3.99   2 
   2  -3 -11  102.39    6.36   2 
   2  -1 -10   45.67    5.22   2 
   2   1  12   14.17    5.43   2 
   3   3   7   12.67    5.35   2 
   4   2  13   -3.49    6.39   2 
   4   4   0    4.36    4.90   2 
   4   4   1   46.46    5.64   2 
   4   4   2   12.12    5.49   2 
   4   4   3   23.19    4.18   2 
   5   4  -5  103.41    8.23   2 
  -1  -6   9   95.28   11.46   2 
  -1  -3   1  121.66    6.49   2 
   0  -1  10   82.07    5.92   2 
   1   0  -6  331.81    8.83   2 
   2  -1  16    3.93    6.33   2 
   3  -4 -13    9.39    6.18   2 
   3   1  14    5.63    5.86   2 
   4   0 -13    1.08    6.83   2 
   4   2 -10    1.00    9.03   2 
   4   3  -7   82.26   10.55   2 
   5   4   6   40.66    6.55   2 
  -1  -7   5    8.64    8.24   2 
  -1  -7   6  102.25    9.48   2 
  -1  -5   0  119.34    6.72   2 
   0  -4  14    0.85    8.17   2 
   1  -7  -7   -2.89    4.43   2 
   1  -4  -9   71.43    6.04   2 
   1  -2  15    1.31    5.51   2 
   2  -5 -11   10.81    5.98   2 
   3  -2 -13    7.62    5.25   2 
   3   1 -10   18.99    6.47   2 
   3   3   6  199.43    7.00   2 
   4  -1 -14    4.53    6.94   2 
   4   3   9   54.18    6.60   2 
  -1  -7   4   15.61    6.56   2 
  -1  -7   7   32.73    8.12   2 
   0  -8  -2    5.80    6.95   2 
   0  -6  -5  109.77    7.02   2 
   0  -4  -6   -0.70    5.10   2 
   0  -3  13   17.44    6.74   2 
   0  -2  -5  841.93   10.22   2 
   1   0  11    3.60    4.76   2 
   4   1 -12    1.39    7.60   2 
   4   2  12   18.78    6.62   2 
   5   3  10   -1.67    6.45   2 
   5   4  -4  274.09    9.84   2 
  -1  -7   3   74.00    7.76   2 
  -1  -3   0   12.24    5.22   2 
   0  -3  -6  759.46    9.64   2 
   2   1  11   96.78    6.53   2 
   3   1  13   33.07    6.12   2 
   3   3  -3  539.02   11.45   2 
   3   3   5   73.83    5.52   2 
   5   4   4    3.15    5.68   2 
   6   4  -6   62.53    8.85   2 
  -1  -7   2   61.12    7.19   2 
  -1  -7   8   20.63    8.09   2 
  -1  -5  -1   95.45    6.17   2 
   0  -8  -3   -3.73    6.94   2 
   1  -6  -9   34.67    6.90   2 
   1  -2  -9  133.44    5.92   2 
   2  -3 -12   71.56    6.20   2 
   2  -1  15    8.35    5.92   2 
   3   0  15    5.48    6.13   2 
   3   3   4  104.07    5.67   2 
   5   3   9    6.26    6.09   2 
   5   4  -3  302.01    9.63   2 
   5   4   3   62.07    6.38   2 
   6   4   5   45.75    7.33   2 
  -1  -7   1   49.65    6.86   2 
   0  -6  -6   44.02    6.26   2 
   0  -1  -4   -0.40    5.44   2 
   0  -1   9   94.07    6.11   2 
   1  -4 -10   10.14    5.59   2 
   2  -5 -12    2.13    6.37   2 
   2  -1 -11    3.85    5.10   2 
   2   2  -4   66.39    9.41   2 
   3  -1 -13   57.41    5.97   2 
   3   0 -12  254.59    8.92   2 
   4   2  11   27.07    6.40   2 
   5   4  -2   77.52    7.07   2 
   5   4   2  163.00    7.21   2 
  -1  -5  -2  108.89    6.33   2 
  -1  -3  -1  155.12    6.89   2 
   0  -4  -7   25.49    5.43   2 
   1  -2  14    9.05    6.73   2 
   1   0  10   86.15    5.90   2 
   2   1  10  414.32    8.56   2 
   3   2   9   29.48    5.58   2 
   3   3  -2   85.46    7.11   2 
   3   3   3  187.15    5.55   2 
   5   0 -15    7.13    6.43   2 
   5   4  -1   26.92    5.83   2 
   5   4   0  162.12    6.92   2 
   6   2 -13    7.10   11.09   2 
   6   4   4   26.94    6.83   2 
  -1  -8   4    8.15    8.63   2 
  -1  -8   5    5.88    8.50   2 
  -1  -7   0   75.78    7.61   2 
  -1  -7   9   14.97   10.22   2 
   0  -6  14    4.98   11.36   2 
   0  -3  -7  557.88    8.38   2 
   0  -2  -6  728.87    8.96   2 
   2   0 -10  551.95    9.77   2 
   3  -2 -14    6.33    5.75   2 
   3   1  12   46.86    4.73   2 
   3   2  -8  390.11   21.39   2 
   3   3  -1   81.22    6.62   2 
   3   3   1    1.06    4.42   2 
   3   3   2   14.88    5.17   2 
   5   3   8   25.55    6.32   2 
   6   4  -5   22.39    7.47   2 
   6   4   3   27.01    6.63   2 
  -1  -8   2   22.80    9.02   2 
  -1  -8   3   10.99    7.12   2 
  -1  -8   6    3.29    6.58   2 
  -1  -7  -1   -1.15    6.37   2 
   0  -6  -7    7.07    6.10   2 
   1  -6 -10   11.23    6.32   2 
   1   0  -7  243.00    7.89   2 
   2   1  -8  160.99    8.18   2 
   3   0  14   14.89    6.06   2 
   3   3   0  610.01    9.27   2 
   4  -1 -15    3.01    5.73   2 
   4   0 -14    1.50    5.74   2 
   4   2  10    1.94    5.48   2 
   5   2 -12   40.42   11.27   2 
   6   4   2   -1.63    6.18   2 
   7   4  -6   20.06    8.27   2 
  -1  -8   7    2.82    8.14   2 
  -1  -5  -3   -2.00    3.62   2 
  -1  -3  -2  154.13    6.36   2 
   1  -4 -11    1.64    5.68   2 
   1  -2 -10    1.02    4.86   2 
   2  -3 -13   34.31    5.80   2 
   2  -1  14    1.12    5.50   2 
   2   2   4  399.63    8.22   2 
   3   2   8  307.78    7.68   2 
   5   1 -14    2.82    7.49   2 
   5   3   7   28.29    6.11   2 
   6   4  -4    6.89    5.81   2 
   6   4   1   42.29    6.64   2 
  -1  -8   1    9.32    7.08   2 
  -1  -7  -2   25.47    6.60   2 
  -1  -6  10   25.50   14.19   2 
  -1  -2   2   23.61    6.93   2 
  -1  -2   3  190.23   13.00   2 
   0  -5  -8    3.35    5.63   2 
   0  -4  -8    2.92    3.67   2 
   0  -4  13   49.10    8.57   2 
   0  -3  12   11.13    6.50   2 
   0  -1  -5  191.13    6.94   2 
   0  -1   8   22.65    4.98   2 
   1  -5 -11   21.25    6.19   2 
   1   0   9  299.90    7.90   2 
   6   4  -3   11.13    5.98   2 
   6   4  -2   10.69    7.45   2 
   6   4  -1   88.71    6.88   2 
   6   4   0   85.43    6.81   2 
  -1  -5  -4    0.78    5.38   2 
  -1  -3   7  154.24   18.16   2 
  -1  -2   1 1479.82   19.09   2 
   0  -6  -8    3.67    5.96   2 
   0  -3  -8   78.46    5.45   2 
   2  -1 -12  112.04    6.27   2 
   2   2   3  254.72    7.28   2 
   3  -1 -14   58.82    5.92   2 
   3   1 -11   71.50    7.42   2 
   4   2   9   13.06    5.75   2 
   4   3  -6  166.44   10.06   2 
   5   3   6   16.24    5.79   2 
   6   3 -10    7.40   12.03   2 
   6   3   7    3.38    6.77   2 
   7   4  -5   40.77    7.24   2 
  -1  -8  -1   35.74    7.80   2 
  -1  -7  -3   39.30    6.88   2 
  -1  -3  -3   28.26    5.30   2 
  -1  -2   0  370.87    9.88   2 
   1  -2  13   55.34    6.07   2 
   3  -2 -15    1.85    5.64   2 
   3   0  13   10.62    5.90   2 
   3   2   7  150.99    5.33   2 
   4   0  14   25.80    7.24   2 
   4   1 -13    2.76    7.62   2 
   7   4  -4   45.60    7.13   2 
   7   4  -3   24.63    7.99   2 
   7   4  -2    3.08    7.68   2 
   7   4  -1    1.76    6.24   2 
   7   4   0    6.85    6.54   2 
   1  -4 -12    5.85    5.61   2 
   2  -3  16    5.26    6.51   2 
   2   1   8   14.08    4.94   2 
   3   0 -13   32.78    5.83   2 
   4   3   3   10.51    5.05   2 
  -1  -7  -4   29.38    6.82   2 
  -1  -5  -5    5.08    5.60   2 
  -1  -2  -1  286.99    8.88   2 
   0  -6  -9    7.91    6.19   2 
   1  -2 -11   40.06    4.02   2 
   1   0   8   33.89    5.09   2 
   2  -3 -14    6.10    6.01   2 
   2  -1  13   32.03    5.81   2 
   2   0 -11  550.12   10.50   2 
   2   2  -3  243.05   10.34   2 
   3   1  10    3.68    3.72   2 
   4   2   8   31.54    5.77   2 
   5   1  12    4.81    6.34   2 
   5   3   5   35.85    5.94   2 
  -1  -7  10    4.13   11.05   2 
   0  -3  -9   71.34    5.91   2 
   0  -1  -6  486.43    8.79   2 
   0  -1   7    3.28    5.60   2 
   1   0  -8  285.08    7.64   2 
   2   2   1   84.98    6.15   2 
   4   0 -15   13.98    7.61   2 
   4   3   2   -0.87    4.95   2 
  -1  -7  -5    0.67    6.72   2 
  -1  -5  -6   24.69    5.79   2 
   0  -5 -10   58.67    6.84   2 
   2   2  -2  811.21   14.25   2 
   2   2   0  762.92   12.03   2 
   3   0  12    5.02    5.36   2 
   4   0  13   16.42    6.00   2 
   4   3  -5  184.80    9.34   2 
   4   3   1   -1.13    5.03   2 
   5   3   4    7.26    5.59   2 
   6   2   9   -9.30    6.42   2 
  -1  -3  -5   32.79    5.20   2 
  -1  -2  -2   57.94    4.72   2 
   0  -6 -10    4.22    6.55   2 
   0  -4 -10   52.53    4.62   2 
   1  -4 -13    5.04    6.16   2 
   2  -1 -13  203.97    7.50   2 
   2   1  -9  441.97   10.90   2 
   2   1   7   -0.10    3.36   2 
   2   2  -1 3596.54   25.53   2 
   3  -1 -15   20.09    6.19   2 
   3   1   9   -4.97    5.16   2 
   3   2   5    2.59    4.75   2 
   4   2   7  120.45    6.04   2 
   0  -3  11    4.52    6.66   2 
   1  -2 -12   18.37    5.76   2 
   1  -2  12   44.29    5.42   2 
   2  -3 -15    2.57    6.14   2 
   4   3  -4   97.60    7.28   2 
   4   3   0    5.79    4.83   2 
   5   1  11  -10.41    6.16   2 
   5   2   8    4.73    4.00   2 
   5   3  -8   66.40    9.09   2 
   5   3   3    2.04    5.45   2 
  -1  -7  -6    3.20    4.61   2 
  -1  -5  -7   49.13    6.12   2 
  -1  -2  -3  859.49   10.87   2 
   0  -5 -11   50.64    7.10   2 
   0  -3 -10  128.94    5.33   2 
   0  -1  -7  373.66    7.66   2 
   1   0   7   35.60    5.30   2 
   1   1  -4   62.04   10.05   2 
   2  -3  15   18.39    6.36   2 
   2  -1  12   96.40    6.31   2 
   3  -2  15   25.75    6.16   2 
   3   0 -14   53.75    7.57   2 
   4   1  10  112.85    5.76   2 
   4   3  -3    9.58    5.85   2 
   4   3  -2   47.41    6.10   2 
   4   3  -1   11.01    4.67   2 
   5   1 -15   20.24    8.76   2 
   6   2   8    5.38    6.21   2 
   7   3   4    5.50    6.89   2 
  -1  -3  -6    2.35    4.83   2 
   0  -4  12   25.97    7.00   2 
   1  -5  15   21.18    8.14   2 
   2   0 -12   98.48    6.03   2 
   2   1   6  239.21    6.63   2 
   3   0  11   41.72    5.72   2 
   3   1 -12   68.97    7.09   2 
   3   2   4  215.30    6.66   2 
   4  -1  14   -0.50    6.47   2 
   4   0  12    5.25    5.75   2 
   4   2 -11  249.16   15.66   2 
   4   2   6   91.77    6.10   2 
   5   3   2   -4.89    5.38   2 
  -2  -6   0  117.17    8.88   2 
  -2  -6   1   23.47    6.45   2 
  -2  -6   2   14.13    6.34   2 
  -2  -6   3   10.65    7.49   2 
  -1  -5  -8   59.59    6.53   2 
  -1  -2  -4  187.25    6.33   2 
   1  -4 -14    4.32    6.41   2 
   1   0  -9  360.60    7.96   2 
   1   1   1 2148.06   21.40   2 
   4   1 -14   43.24    8.58   2 
   5   1  10   -6.99    5.89   2 
   5   2   7   30.96    4.37   2 
   7   3   3   18.07    6.85   2 
  -2  -7   3   14.99    8.20   2 
  -2  -6  -1  106.35    7.59   2 
  -2  -5   1  282.70    8.88   2 
  -2  -5   2   62.38    6.96   2 
   0  -3 -11  130.53    6.47   2 
   1  -2 -13   56.16    6.06   2 
   2  -1 -14   13.48    5.55   2 
   4   0 -16   23.95    8.56   2 
   5   3   1   23.27    5.44   2 
   6   2   7   13.13    6.42   2 
  -2  -7   0   18.41    7.17   2 
  -2  -7   4    4.08    7.87   2 
  -2  -6  -2   19.62    6.53   2 
  -2  -6   4   55.86    7.11   2 
  -2  -5  -1   66.21    6.53   2 
  -2  -5   3   17.66    6.20   2 
  -1  -3  -7   15.81    4.97   2 
   0  -5 -12   18.43    6.76   2 
   0  -1  -8  177.28    6.28   2 
   3   2   3  497.97    8.84   2 
   4   2   5   18.05    5.28   2 
   5   3  -7  208.20   10.75   2 
   5   3   0   -1.44    5.11   2 
   6   3  -9    2.47    8.24   2 
   7   3   2   52.94    7.29   2 
  -2  -6  -3    0.60    6.00   2 
  -2  -5  -2    4.66    5.64   2 
  -1  -5  -9   -0.26    5.76   2 
  -1  -2  -5   -1.94    3.26   2 
   1  -2  11  151.80    7.24   2 
   1   0   6    0.06    4.91   2 
   1   1   0   28.36    6.28   2 
   2  -1  11  144.17    6.55   2 
   2   1   5   33.59    5.14   2 
   3  -2  14   29.50    6.18   2 
   5   2   6   -3.60    3.90   2 
  -2  -8   0   13.00    7.64   2 
  -2  -8   1   18.30    7.69   2 
  -2  -8   2    4.33    7.32   2 
  -2  -8   3   -1.91    8.92   2 
  -2  -7   5   19.57    8.11   2 
  -2  -6   5  217.55   10.47   2 
  -2  -5   4   41.08    7.57   2 
  -2  -4   0   10.38    4.98   2 
   0  -6  13   49.66    9.81   2 
   2  -3  14   44.73    6.54   2 
   3   0  10    0.66    3.63   2 
   4  -1  13    0.47    5.81   2 
   4   0  11   27.55    4.36   2 
   5   1   9   58.00    6.22   2 
   5   3  -1  218.45    7.28   2 
   6   2   6    3.78    5.89   2 
   7   2   6   60.81    7.76   2 
   7   3   1   15.20    6.42   2 
  -2  -8   4    0.06    8.45   2 
  -2  -6  -4   15.33    6.57   2 
  -2  -4  -2  125.79    6.86   2 
  -2  -4  -1   31.86    5.51   2 
  -2  -4   1  361.90    9.04   2 
  -1  -2  -6  154.56    6.17   2 
   0  -3 -12   97.83    6.29   2 
   1   0 -10   18.37    4.82   2 
   3   0 -15   21.46    6.21   2 
   3   2   2  974.73   10.52   2 
   4   1   8   49.88    5.52   2 
   4   2   4   69.98    5.43   2 
   5   3  -6   41.98    6.90   2 
   5   3  -2  112.49    6.29   2 
   6   3   0   28.15    6.15   2 
   7   3   0   -0.59    6.05   2 
  -2  -6  -5   28.96    6.64   2 
  -2  -4  -3  191.59    7.30   2 
  -2  -4   2   50.46    6.11   2 
  -1  -5 -10    0.09    6.11   2 
   0  -4 -13   -3.15    6.26   2 
   0  -1  -9   23.35    3.74   2 
   1  -2 -14   47.67    6.19   2 
   1   1  -5   59.00    8.68   2 
   2  -1 -15   10.47    5.70   2 
   5  -1  13    4.96    6.35   2 
   5   2 -13  115.82   16.29   2 
   5   2   5    7.14    3.73   2 
   5   3  -5   20.56    6.54   2 
   5   3  -4   11.03    6.50   2 
   5   3  -3   -0.58    4.77   2 
   6   3  -8    3.33    8.30   2 
   6   3  -1  350.19    9.09   2 
   7   3  -9    5.53    7.89   2 
  -2  -8   5   13.81    8.38   2 
  -1  -4 -10    3.87    5.57   2 
  -1  -2  -7  429.49    8.04   2 
   0  -3  10    4.68    6.01   2 
   1   1  -1   54.13    7.70   2 
   2   1   4   17.90    4.62   2 
   3   1 -13   11.26    6.66   2 
   3   2   1  240.64    6.88   2 
   6   2   5   13.97    5.79   2 
   7   2   5   28.86    6.74   2 
   7   3  -1    7.96    5.98   2 
  -2  -7   6   17.08    7.54   2 
  -2  -6  -6   38.36    7.05   2 
  -2  -6   6   62.41    9.24   2 
  -2  -5   5   89.19    7.98   2 
  -2  -4  -4   95.94    6.07   2 
  -2  -4   3  173.31    8.59   2 
   0  -3 -13   17.40    5.96   2 
   1  -5  14   48.52    8.32   2 
   2  -1  10   99.31    5.74   2 
   3  -2  13   42.94    6.15   2 
   3   0   9   30.10    5.35   2 
   4  -1  12   -1.69    5.48   2 
   4   0  10    6.25    5.41   2 
   4   2   3    0.96    4.93   2 
   5   1   8    7.73    3.86   2 
   6   3  -2   95.34    6.73   2 
   7   3  -2   19.52    5.89   2 
  -2  -5  -6  213.19    7.22   2 
  -2  -4  -5  104.88    6.46   2 
  -1  -5 -11    4.80    4.42   2 
   0  -1 -10   -2.19    4.69   2 
   1   0 -11    1.02    4.58   2 
   1   0   5  240.01    7.54   2 
   4   1 -15   28.59    7.92   2 
   4   1   7   63.40    5.66   2 
   5   2   4    5.17    3.88   2 
   6   3  -7    7.79    6.90   2 
   6   3  -3    1.48    5.28   2 
   7   3  -8    1.34    7.78   2 
   7   3  -3   13.35    6.32   2 
  -2  -8   6    2.44    8.30   2 
  -2  -6  -7   11.19    6.83   2 
  -1  -3 -10  142.69    6.53   2 
  -1  -2  -8  315.07    7.16   2 
   0  -5  12   23.98    7.85   2 
   1  -2 -15   10.22    6.14   2 
   1  -2  10   63.42    6.14   2 
   2   0 -14   11.80    5.41   2 
   2   1 -11   89.84    7.59   2 
   3   2   0    5.16    4.79   2 
   5  -1  12   29.56    6.59   2 
   6   2   4   -3.00    5.73   2 
   6   3  -6   24.16    7.13   2 
   6   3  -5   13.27    6.79   2 
   6   3  -4    7.44    5.59   2 
   7   2   4    2.85    4.51   2 
   7   3  -7    6.41    7.86   2 
   7   3  -5    7.78    7.54   2 
   7   3  -4   11.01    6.38   2 
  -2  -4  -6    9.55    5.44   2 
  -2  -3  -1  880.12   11.73   2 
  -1  -5 -12    5.82    6.60   2 
   1   1  -6    5.40    6.03   2 
   2  -3  13    3.74    5.43   2 
   2  -1 -16    1.16    5.69   2 
   3   0 -16   -3.58    5.86   2 
   3   2  -9  161.12   16.79   2 
   4   2   2   38.94    5.51   2 
   5   1   7   41.64    5.72   2 
   6   0  10   10.64    6.31   2 
   7   1   7    1.18    6.44   2 
   7   3  -6    1.73    6.02   2 
  -2  -6  -8   -2.92    6.81   2 
  -2  -4  -7   11.97    5.51   2 
  -2  -3  -3   66.06    5.89   2 
  -2  -3   0  383.38    9.14   2 
  -1  -2  -9  399.90    7.72   2 
   0  -3 -14    3.73    4.26   2 
   0  -1 -11    8.15    5.01   2 
   2   1   3   28.71    5.30   2 
   4   0   9  118.82    6.27   2 
   5   2   3   26.95    4.27   2 
   7   2   3   -0.06    6.04   2 
  -2  -7   7   10.69    9.14   2 
  -2  -4   4  101.21    7.68   2 
  -2  -3  -4  238.83    6.10   2 
  -1  -4 -12   29.00    4.83   2 
  -1  -3 -11   17.11    5.85   2 
  -1  -1  -3   81.78    5.16   2 
   1   0 -12   -0.46    5.68   2 
   3   0   8    0.15    4.63   2 
   3   2  -1   15.40    4.75   2 
   4  -1  11    9.60    5.63   2 
   4   1   6  433.50    7.39   2 
   6   2   3    9.95    4.19   2 
  -2  -4  -8   58.16    6.46   2 
  -2  -3  -5  399.96    8.07   2 
  -2  -3   1  876.83   12.99   2 
   1  -2 -16    4.49    6.27   2 
   1   1  -2 2307.82   42.16   2 
   2  -1   9   11.21    4.79   2 
   3  -2  12   44.78    5.79   2 
   3   1 -14    0.15    6.70   2 
   4  -3  14    3.04    6.03   2 
   4   2   1   57.39    5.69   2 
   5  -2  13   12.36    6.42   2 
  -2  -5   6   86.78    8.80   2 
  -1  -4 -13   30.88    6.94   2 
  -1  -2 -10   37.86    5.34   2 
  -1  -1  -1 2125.66   21.31   2 
   0  -3 -15    9.27    6.30   2 
   2  -1 -17    2.09    7.37   2 
   2   0 -15   47.04    6.44   2 
   4   2 -12  127.46   14.25   2 
   5  -1  11   23.92    6.18   2 
   5   1   6   69.01    5.78   2 
   6   0   9   -5.39    4.20   2 
   6   2   2   58.34    6.18   2 
   7   1   6    3.11    4.27   2 
   7   2   2    6.07    6.28   2 
  -2  -6   7    2.22    7.60   2 
  -2  -4  -9   50.66    6.37   2 
  -1  -3 -12   -1.76    4.00   2 
   0  -1 -12   20.65    5.25   2 
   1   0   4  340.40    8.74   2 
   2   1 -12   -0.52    6.58   2 
   3   0 -17   -1.03    7.63   2 
   3   1   4   47.94    5.13   2 
   3   2  -2 1669.82   17.88   2 
   4   1 -16   21.94    9.74   2 
  -3  -7  -2    0.83    8.67   2 
  -3  -7  -1    2.29    7.11   2 
  -2  -5 -10   53.04    5.44   2 
   2  -3  12   13.58    6.38   2 
   2   1   2    6.10    5.50   2 
   3  -4  14    0.51    7.18   2 
   4   1   5  574.34    7.99   2 
   7   2   1   16.83    6.09   2 
  -3  -7  -3    8.58    7.45   2 
  -3  -7   0    9.07    6.72   2 
  -3  -7   1    0.40    8.19   2 
  -3  -6  -3   10.07    6.75   2 
  -3  -6  -2    7.47    6.49   2 
  -3  -6  -1   -1.01    6.32   2 
  -3  -6   0   16.72    6.38   2 
  -2  -4 -10    5.42    5.82   2 
  -2  -3   2  583.60   11.91   2 
  -1  -2 -11   58.82    5.87   2 
   0  -3   9   22.62    5.70   2 
   1  -5  13   27.28    6.30   2 
   1  -2   9   93.03    6.30   2 
   1   0 -13   66.00    5.96   2 
   2  -5  14   25.69    7.84   2 
   3   0   7   17.13    4.83   2 
   4  -1  10    6.28    5.05   2 
   4   2   0  125.98    5.87   2 
   5  -2  12   13.97    6.27   2 
   5   2   1    4.80    3.83   2 
   6   0   8   -1.40    5.72   2 
   6   2   1   72.58    6.44   2 
   7   1   5    5.03    6.10   2 
  -3  -7  -4    3.47    5.41   2 
  -3  -6  -4    2.01    4.88   2 
  -3  -6   1   15.39    6.16   2 
   0  -1 -13   10.97    5.51   2 
   3   2  -3 1324.97   16.63   2 
   4  -3  13    8.38    5.86   2 
   5  -1  10    1.58    5.51   2 
   5   1   5    3.92    3.48   2 
   6  -1  10   16.08    6.45   2 
  -3  -7   2    6.99    6.65   2 
  -3  -5  -4   85.00    6.90   2 
  -3  -5  -3  154.57    8.26   2 
  -3  -5  -2  115.59    7.39   2 
  -3  -5  -1   54.87    6.42   2 
  -1  -2 -12   42.80    5.70   2 
   0  -6  12    7.18    8.08   2 
   2  -1   8   57.52    5.31   2 
   3  -2  11    4.14    5.20   2 
   3   1 -15    4.43    6.84   2 
   7   2   0   64.75    6.57   2 
  -3  -6   2   50.69    6.30   2 
  -3  -5  -5    9.50    6.28   2 
  -3  -5   0   78.67    6.59   2 
  -2  -4 -11    5.62    4.33   2 
  -2  -4   5   85.34    8.30   2 
  -1  -6  10   25.88   14.34   2 
   2   1 -13   50.15    6.86   2 
   4   1   4  354.20    7.46   2 
   4   2  -1   78.20    5.46   2 
   5   2   0   56.02    5.45   2 
   6   2   0   55.18    6.26   2 
   7   1   4   16.28    6.28   2 
   8   2  -2    2.30    6.41   2 
  -3  -7   3   12.14    6.97   2 
  -3  -6  -7   13.21    5.45   2 
  -3  -5  -6    1.70    6.05   2 
  -3  -5   1   -2.61    6.38   2 
  -2  -7   8    4.71   10.22   2 
  -2  -2  -5  963.02   10.19   2 
   0  -1 -14    6.12    5.58   2 
   1   0 -14   62.65    5.72   2 
   6   0   7   11.49    5.64   2 
   7   2  -1   19.54    5.99   2 
  -3  -5  -7   38.52    6.63   2 
  -2  -4 -12   -0.74    6.30   2 
  -1  -4   8  659.57   22.48   2 
  -1  -2 -13  118.72    6.54   2 
   2   1   1  570.48   10.29   2 
   3   0   6   38.52    4.94   2 
   3   2  -4   98.10    7.41   2 
   4  -1   9    2.97    5.14   2 
   5  -2  11    0.62    5.58   2 
   5   0   7  302.84    7.47   2 
   5   1   4    5.12    3.67   2 
   8   2  -3   28.27    6.77   2 
  -3  -5  -8   15.58    6.83   2 
  -3  -4  -5   36.74    5.91   2 
  -3  -4  -4   31.57    4.18   2 
  -3  -4  -2  140.17    6.72   2 
  -2  -3   3  710.46   13.98   2 
   0  -5  11  118.96    9.25   2 
   3  -4  13   -2.58    5.60   2 
   3   2 -10    6.73   11.07   2 
   4   2  -2  225.84    7.18   2 
   5   2  -1   11.06    5.37   2 
   6   2  -1   22.57    5.47   2 
   7   1   3   38.01    6.37   2 
   7   2  -2   21.50    5.98   2 
   8   1   2    5.24    6.75   2 
  -3  -7   4   -1.21    6.09   2 
  -3  -5   2   55.95    6.00   2 
  -3  -4  -6  167.53    6.16   2 
  -3  -4  -1  269.38    7.75   2 
   1  -6  13   13.09    7.77   2 
   1   0 -15   33.73    6.94   2 
   1   0   3  379.43    8.57   2 
   2  -3  11   11.25    5.07   2 
   4  -3  12    6.64    5.61   2 
   4   1   3   90.86    5.76   2 
   8   2  -4   11.81    7.05   2 
  -3  -5  -9   17.03    5.19   2 
  -3  -4  -7  203.93    7.01   2 
  -3  -4   0   50.61    5.61   2 
  -2  -2  -9    4.92    5.36   2 
  -1  -2 -14   72.41    6.96   2 
   0  -1 -15    7.21    5.79   2 
   2   1 -14   44.32    5.96   2 
   3  -2  10   15.08    4.97   2 
   3   1 -16    2.43    7.25   2 
   3   2  -5   79.15    7.76   2 
   5   1   3  161.70    6.14   2 
   6   0   6    1.33    5.44   2 
   6   2  -2   35.16    5.71   2 
   7  -1   8    4.10    6.34   2 
   7   2  -3   -1.39    6.98   2 
  -3  -5 -10   -2.96    7.15   2 
  -3  -4  -8   62.95    6.80   2 
   1  -2   8   86.09    5.42   2 
   2  -5  13   -2.34    5.77   2 
   2  -1   7  533.13    8.52   2 
   5   2  -2  347.80    7.77   2 
   6  -2  10    0.87    6.06   2 
   7   1   2   43.03    6.36   2 
   8   1   1   -4.78    6.13   2 
  -3  -5   3  304.05   10.19   2 
  -2  -3 -13   -2.49    6.08   2 
  -2  -2 -10   11.99    3.91   2 
   0  -7  12   14.60   10.23   2 
   1  -5  12    2.90    5.26   2 
   4  -1   8    2.04    4.98   2 
   4   2 -13    1.27   11.98   2 
   4   2  -3   44.22    5.29   2 
   5  -2  10    8.06    5.53   2 
  -3  -7   5   -0.73    7.26   2 
  -3  -4   1   24.25    4.96   2 
  -3  -3  -5   71.98    5.68   2 
  -3  -3  -4   94.94    6.06   2 
  -1  -2 -15    7.34    4.27   2 
   0  -1 -16    7.26    5.70   2 
   1   0 -16   17.37    6.00   2 
   3   0   5  120.31    5.62   2 
   6   2  -3   25.45    5.14   2 
   7   2  -4    2.34    5.33   2 
  -3  -3  -7    4.27    5.25   2 
  -3  -3  -6  168.04    5.86   2 
  -3  -3  -3  210.46    6.90   2 
  -1  -5   9  123.50   13.73   2 
   2   1 -15   76.75    8.30   2 
   2   1   0   91.38    6.20   2 
   3   2  -6   76.37    8.73   2 
   4   1   2   43.92    5.20   2 
   5   2  -3  350.83    8.15   2 
   6   0   5    5.94    5.61   2 
   7  -1   7   13.82    6.18   2 
   7   1   1    9.45    5.83   2 
   7   2  -5    4.13    7.21   2 
   8   1   0   -0.15    6.58   2 
  -3  -3  -8   -1.22    5.26   2 
  -3  -3  -2   15.90    5.59   2 
  -2  -3 -14   -2.55    4.47   2 
   3  -4  12    2.79    5.24   2 
   3   1 -17   -1.36    7.32   2 
   4  -3  11   14.47    5.68   2 
   4   2  -4    7.85    5.83   2 
   5   1   2   67.96    4.14   2 
   6   2  -4   49.31    6.94   2 
  -4  -6  -5    6.21    6.94   2 
  -4  -6  -4    5.87    6.93   2 
  -4  -6  -3   -1.17    6.74   2 
  -4  -6  -2    7.44    6.46   2 
  -3  -3  -9   10.59    5.58   2 
   0  -3   8    8.55    5.43   2 
   0  -1 -17    1.35    6.17   2 
   3  -2   9   28.18    4.85   2 
   3   2 -11    1.96    9.24   2 
   5   0   5   -0.57    3.56   2 
   6  -2   9    1.65    5.77   2 
   7   2  -6    2.99    7.32   2 
   8   0   3   11.76    6.32   2 
   8   1  -1    3.93    6.24   2 
  -4  -7   0    8.38    6.90   2 
  -4  -6  -1   10.65    6.73   2 
  -3  -6   5   73.37    8.00   2 
  -3  -4   2  182.76    6.87   2 
  -3  -3 -10   25.12    5.77   2 
  -3  -3  -1   -1.05    4.54   2 
  -2  -5   7   37.68   10.22   2 
  -2  -2 -13    7.12    5.72   2 
  -2  -2   1 3953.86   26.89   2 
  -2  -1  -7    2.26    4.84   2 
  -2  -1  -6  224.28    6.56   2 
  -1   0  -8   41.70    4.90   2 
  -1   0  -7   29.39    5.03   2 
  -1   0  -6    2.29    4.75   2 
   1   0 -17    2.53    5.91   2 
   2  -6  13   -2.83    6.18   2 
   2  -3  10  208.03    6.73   2 
   5  -2   9   50.14    5.97   2 
   5   2  -4  306.15    8.64   2 
  -4  -5  -6   -1.22    6.58   2 
  -4  -5  -5   22.48    6.79   2 
  -4  -5  -4   97.39    7.11   2 
  -4  -5  -3   69.61    6.79   2 
  -3  -5   4   27.13    6.60   2 
  -2  -1  -8   11.91    4.89   2 
  -2  -1  -5   31.72    5.03   2 
  -1   0  -9  287.74    7.43   2 
  -1   0  -5  229.40    7.59   2 
   3   2  -7  245.78   14.52   2 
   4  -1   7   68.74    5.46   2 
   6   0   4  103.91    6.25   2 
   6   2  -5   38.58    5.80   2 
   7  -1   6   10.92    6.29   2 
   7   1   0    2.78    4.12   2 
   7   2  -7    5.25    6.08   2 
  -4  -7   1    8.38    7.01   2 
  -4  -6   0   33.29    6.55   2 
  -4  -5  -7    0.64    6.57   2 
  -4  -5  -2    1.41    5.78   2 
  -3  -3 -11   13.56    6.30   2 
  -2  -6   8    7.17   12.75   2 
  -2  -2 -14    4.83    5.84   2 
  -2  -1  -9   -2.07    3.39   2 
  -2  -1  -4   18.93    4.78   2 
  -1   0 -10   85.26    5.40   2 
   2  -5  12    2.74    5.63   2 
   2  -1   6  556.40    8.49   2 
   2   1 -16   23.45    6.31   2 
   3   0   4  119.34    5.68   2 
   4   1   1  416.59    8.18   2 
   4   2  -5  214.61    8.48   2 
   5   1   1  106.47    5.72   2 
   6  -3  10   28.85    6.48   2 
   7   2  -9   34.80    8.02   2 
   7   2  -8    7.36    6.15   2 
   8   0   2    3.92    6.36   2 
   8   1  -2   20.93    6.49   2 
  -3  -7   6    3.41    8.54   2 
  -3  -3 -12    2.91    5.98   2 
  -3  -3   0  650.37    9.54   2 
  -2  -1 -10  380.74    8.11   2 
  -1   0 -11    4.58    4.76   2 
  -1   0  -4  323.15    8.60   2 
   1  -6  12   31.33    7.28   2 
   1   0   2  239.90    9.05   2 
   5   2  -5  222.75    8.11   2 
   6   2  -6   52.30    5.97   2 
   7   2 -10   29.61    8.32   2 
  -4  -7   2   31.61    8.69   2 
  -4  -6   1   16.07    6.64   2 
  -4  -4  -6   21.99    5.83   2 
  -2  -3   4  444.83   12.86   2 
  -2  -1 -11  100.02    6.26   2 
  -2  -1  -3   27.82    5.32   2 
   0  -6  11   -1.98    6.64   2 
   1  -2   7  330.32    8.32   2 
   4  -3  10   44.05    5.69   2 
   7   1  -1   98.25    6.69   2 
   8   1  -3   22.93    6.69   2 
  -4  -5   0   58.05    6.05   2 
  -4  -4  -8    2.81    6.19   2 
  -4  -4  -7   20.63    6.21   2 
  -4  -4  -5   32.92    4.76   2 
  -4  -4  -4  159.50    6.99   2 
  -3  -4   3   19.52    6.05   2 
  -3  -3 -13   11.80    6.44   2 
  -2  -2 -15   -0.91    4.23   2 
  -1   0 -12    6.31    5.02   2 
   1  -4  10    2.78    6.16   2 
   3  -4  11   72.84    6.00   2 
   3   2 -12    4.17    8.92   2 
   5  -4  11    5.32    6.22   2 
   6   2 -13    5.61   11.14   2 
   6   2  -7   10.72    7.13   2 
   7  -2   7    5.44    6.03   2 
   7  -1   5   72.47    6.50   2 
   8   0   1    6.72    6.16   2 
  -4  -4  -9   11.95    6.53   2 
  -4  -4  -3   28.60    5.80   2 
  -2  -1 -12    1.57    3.97   2 
   0   1  -9   93.04    6.58   2 
   0   1  -8   20.34    5.64   2 
   2   1 -17    5.94    6.06   2 
   2   1  -1   18.59    4.68   2 
   3  -2   8  402.62    7.45   2 
   4  -5  12    4.29    6.01   2 
   4   2 -14   35.57   14.01   2 
   4   2  -6  225.19    9.19   2 
   5  -2   8  143.99    5.59   2 
   5   1   0  118.87    5.73   2 
   5   2  -6   -2.15    5.43   2 
   6   0   3   65.36    4.50   2 
  -4  -6   2    2.41    5.94   2 
  -4  -4 -10    6.20    6.71   2 
  -4  -4  -2   23.25    5.79   2 
  -3  -3   1   86.81    6.63   2 
  -3  -2  -3  515.85    8.69   2 
  -2  -1 -13   12.71    5.81   2 
  -1   0 -13    6.22    4.84   2 
   0  -5  10  195.68    9.15   2 
   0   1 -10   80.17    5.47   2 
   0   1  -7    0.92    5.56   2 
   4  -2   8  193.01    5.81   2 
   4  -1   6  342.12    6.99   2 
   4   1   0  688.46    9.34   2 
   6  -3   9   55.06    5.14   2 
   6   2  -8   28.66    7.19   2 
   7   1  -2   67.43    6.60   2 
   8   1  -4    9.66    6.50   2 
  -4  -7   3   33.25    6.81   2 
  -4  -5   1  206.41    7.73   2 
  -3  -2 -12   21.86    5.64   2 
  -2  -1  -2    8.73    3.77   2 
  -1   0  -3  443.42    9.87   2 
   0   1 -11   61.59    5.32   2 
   2  -3   9  115.77    5.56   2 
   5   2  -7  169.97    8.62   2 
   6  -2   7    7.84    5.19   2 
   6   2 -12   22.35   10.31   2 
   6   2  -9    9.54    6.93   2 
   8   0   0   50.33    6.95   2 
  -4  -4  -1   48.48    5.86   2 
  -3  -2  -2 1060.53   11.46   2 
  -2  -1 -14    7.57    5.66   2 
  -1   0 -14   28.69    5.70   2 
   0   1 -12   35.98    6.17   2 
   2  -6  12    1.06    5.67   2 
   3   0   3   51.04    4.86   2 
   3   2  -8  354.86   19.91   2 
   6   2 -11   14.24    8.75   2 
   6   2 -10   18.82    7.65   2 
   7  -2   6    7.99    5.69   2 
   7  -1   4   30.46    5.68   2 
   8   1  -5    4.92    6.40   2 
  -4  -3  -8    8.99    5.83   2 
  -4  -3  -7   -4.38    4.28   2 
  -4  -3  -6   45.25    4.49   2 
  -4  -3  -5   95.73    6.39   2 
  -3  -6   6    0.09    7.40   2 
  -3  -5   5   19.69    6.66   2 
  -3  -2 -13   17.46    6.14   2 
  -2  -4   6    5.12    9.91   2 
   0   1  -6   34.54    5.10   2 
   3   2 -13   11.38    8.62   2 
   4  -3   9   65.42    5.67   2 
   4   2  -7   96.21    7.85   2 
   5   1  -1   -1.67    4.62   2 
   6   0   2   30.39    5.35   2 
   7   1  -3   15.06    5.75   2 
  -4  -6   3    0.78    5.64   2 
  -4  -3  -4   19.10    5.37   2 
  -2  -1 -15   30.50    6.37   2 
  -1   0 -15    7.88    5.68   2 
   0   1 -13    4.74    4.88   2 
   2  -5  11   51.60    6.06   2 
   2  -1   5  287.33    6.12   2 
   3  -6  12   26.56    7.10   2 
   5  -4  10    7.27    4.21   2 
   5  -2   7  129.96    6.04   2 
   5   2  -8  343.26   11.09   2 
   8   0  -1   40.77    6.97   2 
   8   1  -6   61.33    7.80   2 
  -4  -7   4    2.51    7.50   2 
  -4  -5   2  219.73    8.01   2 
  -4  -4   0    6.60    5.03   2 
  -4  -3  -3    7.22    5.20   2 
  -3  -2 -14    3.95    4.40   2 
  -1  -7  10    4.58   10.75   2 
   3  -4  10   84.16    5.78   2 
   3   1  -1   96.78    5.88   2 
   4  -5  11    9.32    5.45   2 
   4   1  -1  349.45    7.79   2 
   6  -3   8    6.38    3.96   2 
   7  -3   7    8.91    6.30   2 
   8  -1   2   -1.29    4.24   2 
  -5  -6  -2   -0.38    6.47   2 
  -5  -5  -6    6.49    7.01   2 
  -5  -5  -5    3.77    6.71   2 
  -3  -2  -1  252.36    6.73   2 
  -2  -1 -16    5.49    6.83   2 
  -2  -1  -1  544.97    9.88   2 
  -1   0 -16    5.67    5.55   2 
   0  -7  11  111.74   10.89   2 
   0   1 -14    5.20    5.10   2 
   3  -2   7  181.30    6.20   2 
   4  -1   5  315.65    5.95   2 
   5   2  -9  398.90   13.27   2 
   6  -2   6   -0.52    5.27   2 
   7  -1   3    2.40    5.52   2 
   7   1  -4  106.93    6.64   2 
  -5  -5  -4   10.22    6.41   2 
  -4  -3  -2    5.61    4.95   2 
  -3  -4   4    6.93    5.88   2 
  -3  -3   2   76.82    5.93   2 
  -3  -1 -10   -1.42    5.21   2 
   1  -6  11   19.29    6.97   2 
   3   2 -14    1.88    8.54   2 
   4   2  -8  125.84    9.34   2 
   6   0   1   29.96    5.29   2 
   8   0  -2    0.44    6.19   2 
  -5  -6  -1   15.27    6.71   2 
  -5  -5  -3   24.11    6.84   2 
  -4  -4   1   -0.28    5.84   2 
  -3  -7   7   74.12   11.02   2 
  -3  -1 -11   52.15    4.62   2 
  -1   0  -2  247.70    9.21   2 
   0   1 -15   10.24    5.60   2 
   0   1  -5  191.08    8.32   2 
   4   0   2  604.65    8.88   2 
   5   1  -2   37.54    5.22   2 
   5   2 -13  125.57   15.80   2 
   5   2 -10  144.12   11.14   2 
   7   1  -5    4.35    6.79   2 
   8  -1   1   10.35    6.18   2 
  -5  -5  -2  140.55    7.76   2 
  -5  -4  -8   -3.73    6.62   2 
  -5  -4  -7   15.67    7.18   2 
  -4  -2  -9    4.21    5.64   2 
  -4  -2  -8   44.20    5.73   2 
  -4  -2  -7  117.59    6.13   2 
  -1   0 -17    3.73    6.01   2 
   0  -3   7   90.38    6.60   2 
   1  -4   9   72.33    6.61   2 
   1  -2   6  671.59   10.21   2 
   3   0   2   28.14    4.75   2 
   4   2 -15    0.73   14.06   2 
   5  -4   9    7.14    5.61   2 
   5  -2   6   31.69    5.11   2 
   5  -1   4    1.60    4.92   2 
   6  -3   7    7.74    6.15   2 
  -5  -6   0    8.89    6.35   2 
  -5  -4  -5   30.46    6.60   2 
  -4  -6   4   47.88    6.61   2 
  -4  -5   3   53.69    7.11   2 
  -4  -3  -1    0.17    5.02   2 
  -4  -2 -11   14.22    6.39   2 
  -4  -2 -10    0.90    3.88   2 
  -4  -2  -6   90.01    6.14   2 
  -3  -1 -13   21.94    4.81   2 
   2  -3   8   40.82    4.77   2 
   2   1  -2  174.83    8.13   2 
   2   2 -12    7.32    7.24   2 
   2   2 -11   30.67    7.36   2 
   4  -3   8   35.97    3.98   2 
   5   2 -12   40.79   11.13   2 
   5   2 -11    6.57    8.66   2 
   7  -1   2   14.49    5.52   2 
   8   0  -3   40.92    6.73   2 
  -5  -5  -1   53.13    6.23   2 
  -5  -4  -4    2.02    6.29   2 
  -4  -2 -12   22.37    6.63   2 
  -4  -2  -5   18.99    5.28   2 
  -3  -2   0    6.40    4.29   2 
  -3  -1 -14    5.01    5.74   2 
   0   1 -16   14.26    6.11   2 
   2  -6  11    2.90    5.58   2 
   2   2 -10   79.38    9.54   2 
   4   1  -2   99.00    5.40   2 
   6   0   0   23.15    5.18   2 
   7   1  -6    8.17    5.72   2 
  -5  -4  -3   62.28    6.44   2 
  -4  -7   5   -1.43    7.20   2 
  -4  -2 -13    8.41    6.17   2 
  -4  -2  -4   60.39    5.43   2 
  -3  -1 -15   -0.57    6.29   2 
   1   0   1   49.73    7.01   2 
   2   2 -13   21.70    6.62   2 
   3  -6  11   31.34    6.28   2 
   3   2 -15    0.92    7.85   2 
   4  -5  10    9.20    5.50   2 
   4  -1   4  150.26    5.67   2 
   4   2  -9   10.02    7.75   2 
  -5  -6   1    7.54    6.24   2 
  -4  -4   2  681.00   11.21   2 
   0  -6  10   44.20    7.06   2 
   0   1 -17   12.08    6.03   2 
   2  -5  10  107.16    6.12   2 
   2  -1   4   60.81    5.41   2 
   3  -4   9   12.58    4.87   2 
   3   1  -2    9.16    4.22   2 
   5   1  -3   56.02    5.26   2 
   8  -2   2    8.41    6.35   2 
   8   0  -4   10.22    5.95   2 
  -5  -5   0    4.27    5.25   2 
  -5  -4  -2  162.52    7.19   2 
  -5  -3 -10   -2.21    6.39   2 
  -5  -3  -9    1.18    4.40   2 
  -5  -3  -8    8.99    4.65   2 
  -5  -3  -7   36.23    6.30   2 
  -5  -3  -6    4.80    5.90   2 
  -4  -3   0    5.49    4.72   2 
  -3  -1  -3   -0.28    4.73   2 
  -2  -1   0   86.33    6.00   2 
   1  -7  11   -1.40    7.05   2 
   2   2 -14    1.04    6.29   2 
   3  -2   6   33.58    3.58   2 
   3  -1   4  212.12    5.31   2 
   5  -1   3   57.36    5.21   2 
   6  -3   6   22.32    5.58   2 
   7  -3   5   31.98    6.25   2 
   7  -1   1   48.07    6.01   2 
   7   1  -7   41.16    6.65   2 
  -5  -3  -5   38.33    5.97   2 
  -4  -2  -3    1.63    4.91   2 
   4   0   1   52.56    3.78   2 
   5  -4   8   14.28    5.57   2 
   5  -2   5    5.26    4.76   2 
   8  -1  -1   38.78    6.36   2 
  -5  -6   2    0.39    7.41   2 
  -3  -3   3  526.19   10.85   2 
   0  -5   9  134.22    7.65   2 
   2  -7  11   10.30    6.18   2 
   2   2 -15   -0.09    7.75   2 
   3   2 -16   -2.34    9.28   2 
   4  -3   7    1.93    4.79   2 
   6   0  -1  120.03    6.05   2 
   7   1  -8   22.53    6.62   2 
   8   0  -5   23.47    6.41   2 
  -5  -5   1  121.32    6.72   2 
  -5  -3  -4    7.67    3.89   2 
  -4  -5   4   61.56    7.28   2 
  -3   0 -12    3.65    5.17   2 
  -3   0 -11   55.05    5.62   2 
  -3   0 -10    0.90    5.10   2 
  -3   0  -9   32.73    5.10   2 
   3   0   1    6.59    4.80   2 
   4   1  -3    5.21    5.40   2 
   4   2 -10   -0.14    8.25   2 
   5   1  -4  264.65    8.04   2 
   8  -2   1   28.48    4.93   2 
  -5  -3  -3    2.82    5.18   2 
  -4  -6   5  104.85    8.62   2 
  -4  -2  -2   36.80    3.84   2 
  -4  -1 -13    5.05    5.77   2 
  -4  -1 -12   11.31    4.26   2 
  -3  -5   6   -0.74    7.69   2 
  -3  -2   1   13.92    4.46   2 
  -3  -1  -2  482.45    8.53   2 
  -3   0 -13    8.94    5.62   2 
  -3   0  -8   -1.55    4.55   2 
   0   1  -4  222.41    9.70   2 
   1   2 -12   62.65    7.06   2 
   4  -5   9    6.94    5.18   2 
   4  -1   3    1.43    4.42   2 
   7  -3   4    9.86    5.71   2 
   7  -1   0   63.40    6.17   2 
   7   1  -9   16.50    7.64   2 
   8   0  -6    7.41    6.38   2 
  -4  -3   1   13.31    4.83   2 
  -3   0 -14   12.70    5.78   2 
  -3   0  -7   15.30    4.86   2 
   1   2 -13   70.34    6.26   2 
   1   2 -11   73.89    7.45   2 
   2  -3   7  313.22    6.88   2 
   2   2 -16    2.98    7.05   2 
   3  -6  10    0.80    5.55   2 
   4  -2   5  387.00    6.47   2 
   5  -3   6  209.63    5.69   2 
   6  -3   5  101.67    6.14   2 
  -5  -4   0  147.98    6.74   2 
  -5  -2 -11    3.81    4.48   2 
  -5  -2  -7   32.15    5.99   2 
  -4  -4   3   30.35    6.38   2 
  -3   0 -15    0.12    6.06   2 
   1   2 -14    5.42    5.13   2 
   2  -6  10   34.29    6.01   2 
   6   0  -2  349.21    7.72   2 
   7  -4   5    5.42    5.93   2 
   7   1 -10   25.00    8.06   2 
   8  -2   0   -0.41    5.93   2 
   8   0  -7   18.00    7.81   2 
  -6  -4  -5   51.60    7.57   2 
  -5  -6   3   40.01    7.74   2 
  -5  -3  -2   -1.30    5.25   2 
  -5  -2  -6   -4.22    5.44   2 
  -4  -2  -1   60.74    5.14   2 
  -4  -1  -5  665.75    8.70   2 
  -3   0  -6   37.70    4.82   2 
  -2   1 -13   24.52    5.21   2 
  -2   1 -12  107.83    6.28   2 
  -2   1 -11  144.67    6.10   2 
  -2   1 -10   88.45    5.45   2 
   1  -4   8  213.31    7.75   2 
   1   2 -15    5.48    6.79   2 
   1   2 -10   73.60    6.99   2 
   3  -4   8   40.34    4.96   2 
   5  -4   7    0.84    3.66   2 
   5  -2   4   90.74    4.28   2 
   6  -2   3    9.66    3.63   2 
   7  -1  -1  117.60    6.62   2 
   8  -1  -3    6.31    6.50   2 
  -6  -5  -2    2.57    6.48   2 
  -6  -4  -4   23.86    6.97   2 
  -5  -5   2   83.08    6.73   2 
  -2   1 -14   -4.62    5.14   2 
  -2   1  -9   14.13    4.77   2 
  -1   0  -1   48.82    7.12   2 
   2  -5   9  155.76    6.40   2 
   3  -2   5   49.58    3.78   2 
   3  -1   3  147.91    4.58   2 
   5   0  -1    9.93    3.46   2 
   5   1  -5  234.93    7.61   2 
   6  -5   7    8.50    5.91   2 
   7   1 -11    6.58    6.47   2 
  -5  -1  -5    1.60    7.57   2 
  -3  -6   5   55.99    4.27   2 
  -3   2 -12   51.35    7.23   2 
  -1  -5   6  232.03    6.63   2 
   1  -6   7    6.21    4.92   2 
   3   2  -6   72.56    5.57   2 
   3   3 -11   60.88    5.51   2 
   4   2  -7   83.13    4.29   2 
   5  -4   4   56.72    8.27   2 
   5   0  -2   -0.06    4.49   2 
   6   2 -11   12.74    5.87   2 
   8  -1  -5    3.13    6.04   2 
  -5  -5   1  153.98    6.69   2 
  -5  -3  -1   24.37    5.17   2 
  -4  -5   3   44.58    3.91   2 
  -4  -3   1   19.61    4.38   2 
  -4   1  -9    0.51    8.03   2 
  -3  -7   5    2.34    5.40   2 
  -2  -8   6    1.08    3.91   2 
  -2  -7   6   20.97    3.93   2 
  -1  -2   3  111.88    5.05   2 
   0  -8   7   -0.85    5.64   2 
   0   3 -11    5.99    4.61   2 
   1   3 -10  414.90    7.65   2 
   2   3 -10  301.61    7.65   2 
  -6  -5  -2   10.17    6.24   2 
  -5  -4   0  181.41    7.02   2 
  -4  -4   2  690.00    9.51   2 
  -3  -5   4   29.86    4.92   2 
  -3   2 -11    9.77    6.36   2 
  -1  -4   5   14.36    4.37   2 
   1  -8   7   30.75    6.59   2 
   1  -7   7    4.90    5.53   2 
   3   3 -10  100.74    5.74   2 
   5   3 -14    1.19    6.05   2 
   6   2 -10   18.94    5.88   2 
   7   1  -8   33.01    6.29   2 
  -6  -4  -3   34.10    6.57   2 
  -5  -6   1   12.93    5.86   2 
  -4  -7   3   27.20    6.27   2 
  -4  -6   3    1.26    4.97   2 
  -3  -2   1   17.20    4.34   2 
  -2   1  -4   64.39    7.91   2 
  -1  -3   4  755.43    9.70   2 
   0  -5   6   20.51    4.74   2 
   0   3 -10    4.86    4.51   2 
   1   2  -5   -0.25    3.12   2 
   2   2  -5  359.88    7.26   2 
   5   3 -13   53.27    6.32   2 
   6   0  -3  156.98    7.43   2 
   8   0  -7    8.09    6.74   2 
  -6  -2  -7   37.70    9.43   2 
  -5  -2  -3   45.73    5.66   2 
  -3  -4   3   20.33    4.60   2 
  -2  -2   2  846.05   10.94   2 
  -1  -8   6    4.74    5.43   2 
  -1  -7   6  115.79    6.32   2 
  -1   2  -6  999.83   12.16   2 
   2  -5   6   91.39    5.67   2 
   2   1  -2  177.17    6.88   2 
   2   3  -9  383.08    6.51   2 
   4  -7   6    0.74    5.61   2 
   4   1  -3    1.08    4.21   2 
   4   2  -6  263.70    6.96   2 
   5  -6   5   20.79    7.33   2 
   5   1  -4  284.17    7.16   2 
   6   2  -9   13.71    5.63   2 
  -6  -3  -5  192.46   10.35   2 
  -3  -7   4   -6.48    5.57   2 
  -3  -6   4  160.63    6.63   2 
  -3  -3   2   95.78    5.11   2 
  -2  -8   5   13.49    5.90   2 
  -2  -6   5  241.54    6.73   2 
  -2  -4   4   80.46    3.91   2 
   3  -4   5   10.60    4.65   2 
   3  -2   3   34.71    6.89   2 
   3   2  -5  100.57    5.46   2 
   3   3  -9  129.38    5.90   2 
   5   3 -12   11.69    5.83   2 
  -5  -5   0    3.89    5.40   2 
  -4  -5   2  243.43    7.23   2 
  -4  -2  -1   66.51    6.10   2 
  -3   2 -10   17.03    6.32   2 
  -2  -7   5   18.55    3.99   2 
  -2  -3   3  541.40    7.58   2 
  -2   3 -16   15.75    6.12   2 
  -2   3 -15   23.81    5.83   2 
   0  -8   6   10.77    5.48   2 
   0  -6   6   44.64    5.17   2 
   0  -4   5  230.91    6.57   2 
   0   3  -9   25.43    4.78   2 
   3  -6   6   55.93    5.80   2 
   7   1  -7   41.99    6.02   2 
   8  -1  -4   10.01    7.69   2 
  -6  -4  -4   44.40    6.76   2 
  -5  -6   0   21.29    5.89   2 
  -5  -4  -1  125.55    6.31   2 
  -5  -3  -2    5.02    6.12   2 
  -4  -7   2   44.39    6.26   2 
  -4  -6   2    3.85    5.35   2 
  -2   3 -14   46.84    6.47   2 
  -1  -5   5   81.58    5.10   2 
   1  -6   6    2.26    4.60   2 
   1   3  -8  566.63    8.32   2 
   1   4 -16   18.72    6.18   2 
   2   3  -8   21.42    4.58   2 
   2   4 -16   10.35    4.25   2 
   2   4 -15   36.80    5.98   2 
   3  -7   6    6.78    5.47   2 
   3   0   0  141.18    7.66   2 
   4  -5   5   69.01    6.88   2 
   5   3 -11   17.80    4.18   2 
   6   2  -8   37.21    5.79   2 
  -4  -4   1   -1.38    4.59   2 
  -3  -5   3  322.60    7.12   2 
  -3   0  -3   49.25    9.04   2 
  -2   3 -13    8.38    5.11   2 
   0  -3   4   40.14    4.88   2 
   1  -8   6    7.33    5.57   2 
   1  -7   6    0.21    5.30   2 
   1  -4   5   41.52    4.52   2 
   2  -8   6    2.04    5.70   2 
   2  -6   6   12.66    4.55   2 
   2   4 -14    6.55    5.39   2 
   3   1  -2    8.16    4.07   2 
   3   3  -8  103.12    5.48   2 
   7  -1  -2   27.08    7.04   2 
   7   2 -10   31.88    6.98   2 
   8   0  -6    4.52    6.39   2 
  -4  -3   0   11.48    4.29   2 
  -1  -8   5   10.67    5.43   2 
   0   1  -2  227.71    8.82   2 
   0   4 -16  102.89    7.23   2 
   2   4 -13   -2.83    5.03   2 
   3   4 -14   74.80    5.01   2 
   4   2  -5  227.88    6.79   2 
   4   4 -15   19.42    6.33   2 
   5   3 -10    3.49    5.43   2 
   6   3 -12   -5.49    6.30   2 
   8  -2  -2    2.87    8.74   2 
  -6  -3  -6    5.17    7.42   2 
  -6  -2  -8    8.76    8.04   2 
  -5  -5  -1   57.13    5.84   2 
  -4  -1  -3  105.75    6.92   2 
  -3  -7   3   21.13    5.45   2 
  -3  -6   3  115.10    5.94   2 
  -2  -8   4   -0.80    4.03   2 
  -2   3 -12   10.94    5.11   2 
  -1  -7   5    6.83    5.07   2 
   0   3  -8   12.72    4.30   2 
   0   4 -15   38.19    6.00   2 
   1   4 -13  313.93    8.13   2 
   2   2  -4   74.27    5.19   2 
   4   4 -14   10.96    5.91   2 
   7   1  -6    3.69    5.10   2 
  -6  -4  -5   77.59    7.61   2 
  -5  -6  -1   47.60    6.28   2 
  -5  -2  -4    9.62    5.99   2 
  -4  -7   1   26.17    6.15   2 
  -4  -5   1  224.15    7.32   2 
  -3  -4   2  191.52    5.84   2 
  -3   2  -9   30.62    6.32   2 
  -2  -7   4    5.06    3.53   2 
  -2  -6   4   50.12    3.92   2 
  -1  -4   4  171.47    4.97   2 
  -1  -1   1   41.79    4.34   2 
   0  -5   5  101.63    5.38   2 
   0   4 -14    1.14    5.55   2 
   1   2  -4  145.42    5.95   2 
   2  -3   4  116.43    6.72   2 
   2   3  -7  129.46    5.70   2 
   2   4 -12   43.61    5.55   2 
   6   2  -7   16.68    5.37   2 
   6   3 -11   -1.86    6.17   2 
   7   2  -9   29.55    6.57   2 
  -5  -4  -2  177.08    8.05   2 
  -5  -1  -6   79.69    8.96   2 
  -4  -6   1   28.74    5.63   2 
  -2  -4   3  165.32    5.80   2 
  -2   3 -11   16.09    5.09   2 
   0  -8   5   53.89    6.00   2 
   0   4 -13   66.09    5.77   2 
   1  -2   3  594.23   10.73   2 
   3   2  -4  119.04    5.56   2 
   3   3  -7   61.69    4.97   2 
   3   4 -12   21.25    3.92   2 
   4  -7   5   -0.05    5.57   2 
   4   4 -13    6.51    4.22   2 
   5   0  -1   10.16    5.47   2 
   5   1  -3   61.83    5.09   2 
   5   3  -9    3.60    3.79   2 
  -5  -3  -3    2.30    5.97   2 
  -4   1  -8    1.93    8.04   2 
  -3  -3   1   89.30    4.88   2 
  -3  -2   0    5.23    4.01   2 
  -2  -1   0   88.14    5.92   2 
  -1  -3   3  786.87    9.55   2 
  -1   4 -16    3.25    6.00   2 
   0  -6   5    9.63    4.65   2 
   1  -8   5    4.96    5.42   2 
   1  -5   5   57.06    4.97   2 
   2   4 -11  129.45    5.95   2 
   4   4 -12    3.61    5.57   2 
   6   0  -2  328.35    9.13   2 
   8   0  -5   22.48    7.82   2 
  -6  -3  -7   19.56    8.10   2 
  -5  -6  -2    3.90    6.12   2 
  -5  -5  -2  150.91    7.31   2 
  -4  -4   0   10.79    4.63   2 
  -3  -7   2   10.04    5.30   2 
  -3  -5   2   63.48    5.08   2 
  -2  -8   3   -2.19    5.37   2 
  -1  -8   4    4.78    4.09   2 
  -1  -5   4  105.67    5.06   2 
  -1   2  -5  199.22    6.37   2 
  -1   4 -15    1.95    5.37   2 
   0   4 -12   36.37    5.17   2 
   1   4 -11   38.71    5.41   2 
   2  -8   5   16.08    5.93   2 
   2  -5   5  218.14    6.80   2 
   3  -6   5   32.99    6.11   2 
   3   4 -11    5.85    3.60   2 
   4   1  -2   98.74    5.61   2 
   5   4 -13   17.69    6.09   2 
   6  -5   3    1.88    7.75   2 
   6   3 -10    8.79    4.17   2 
   7   2  -8    9.11    5.80   2 
  -6  -2  -9    1.03    9.28   2 
  -4  -7   0   16.00    6.00   2 
  -3  -6   2   70.41    5.63   2 
  -2  -7   3   19.94    5.22   2 
  -2  -3   2  637.36    8.58   2 
  -1  -7   4   21.29    5.07   2 
  -1  -2   2   19.18    3.68   2 
  -1   4 -14    6.09    5.28   2 
   0   3  -7  128.53    5.74   2 
   1  -7   5   11.11    5.04   2 
   2  -7   5   87.54    5.99   2 
   3  -7   5   42.49    5.71   2 
   4   4 -11   26.00    5.70   2 
   5  -6   4    2.61    6.53   2 
   5   3  -8   82.22    5.97   2 
   8  -1  -3    3.03    7.19   2 
  -4  -6   0   37.10    5.71   2 
  -4  -5   0   81.99    5.94   2 
  -4  -3  -1    2.13    4.36   2 
  -4  -2  -2   43.19    4.84   2 
  -2  -6   3    7.84    4.50   2 
  -2  -2   1 3890.27   21.49   2 
  -2   3 -10  192.22    7.03   2 
   0  -4   4  386.14    6.87   2 
   2  -6   5   -0.81    4.72   2 
   2   3  -6  555.63    8.03   2 
   2   4 -10   32.05    3.84   2 
   4   2  -4    8.39    4.54   2 
   5   4 -12    7.10    5.68   2 
   6   2  -6   52.95    5.68   2 
   6   3  -9    7.56    5.71   2 
   7   1  -5    3.38    5.59   2 
  -5  -4  -3   69.62    6.95   2 
  -1   4 -13   21.34    5.30   2 
   0  -8   4   53.21    5.81   2 
   0   4 -11  140.49    5.06   2 
   1   4 -10    8.25    3.37   2 
   3   3  -6  126.41    5.40   2 
  -5  -5  -3   59.59    7.51   2 
  -3  -7   1   -1.30    5.22   2 
  -3  -4   1   24.36    4.48   2 
  -3   2  -8  471.66   12.28   2 
  -2  -8   2    3.08    5.62   2 
  -1  -8   3   25.48    5.78   2 
   4   4 -10   20.63    5.41   2 
   5   4 -11   21.49    5.46   2 
   7   2  -7   -0.49    5.55   2 
  -5  -3  -4    8.63    6.21   2 
  -5  -2  -5    3.01    6.14   2 
  -5   1 -13   13.88   12.89   2 
  -1  -4   3  820.03    9.27   2 
  -1   4 -12   -1.43    4.55   2 
   0  -6   4   35.09    4.93   2 
   1  -8   4   16.04    5.65   2 
   1  -4   4   53.46    4.73   2 
   2   2  -3  258.06    6.92   2 
   2   4  -9   84.63    5.47   2 
   3  -4   4   38.91    4.80   2 
   3   4  -9   65.45    5.43   2 
   4  -5   4  101.86    7.07   2 
   4   0   0  170.99    7.93   2 
   5   3  -7  245.43    6.85   2 
  -4  -6  -1   24.63    5.68   2 
  -4  -4  -1   59.06    5.13   2 
  -3  -6   1   15.66    5.09   2 
  -3  -5   1   -0.18    4.63   2 
  -2  -7   2    5.19    5.00   2 
  -2  -4   2   55.18    4.83   2 
  -2   3  -9  123.34    6.15   2 
  -1  -7   3   68.58    5.52   2 
   0  -3   3    7.41    4.49   2 
   1   4  -9  480.79    8.20   2 
   1   5 -15    9.48    5.50   2 
   2  -8   4   58.07    6.76   2 
   2   1  -1   18.76    5.35   2 
   3  -8   4    9.24    5.98   2 
   3   5 -14    0.16    5.86   2 
   4  -7   4    4.63    5.36   2 
   6   3  -8    0.29    5.41   2 
   8   1  -6   57.08    8.69   2 
  -4  -5  -1   15.83    5.14   2 
  -1  -5   3  140.11    5.32   2 
  -1   4 -11   11.65    4.79   2 
   0   3  -6  169.56    5.84   2 
   1  -7   4   49.28    5.43   2 
   1   2  -3  176.14    6.51   2 
   1   5 -14    1.78    5.43   2 
   3   2  -3 1287.77   12.01   2 
   4  -3   3   73.83    6.99   2 
   4   4  -9   49.25    5.48   2 
   5  -4   3   24.31    6.55   2 
   5   4 -10   37.42    6.17   2 
   6   2  -5   41.43    5.22   2 
   8   0  -4    4.61    7.57   2 
  -5  -5  -4   10.96    5.95   2 
  -5  -4  -4    4.86    5.51   2 
  -3  -7   0    4.55    5.49   2 
  -3  -3   0  669.22    8.89   2 
  -2  -8   1   15.50    5.86   2 
  -2  -6   2   16.73    3.46   2 
  -1  -8   2   33.10    5.71   2 
   0  -8   3   16.61    3.95   2 
   1  -5   4    7.16    4.33   2 
   2   3  -5  405.55    7.20   2 
   2   4  -8   34.90    4.98   2 
   2   5 -13    0.61    3.84   2 
   3  -7   4   71.30    6.02   2 
   3   1  -1  112.95    6.34   2 
   3   5 -13   -0.49    4.02   2 
   5   1  -2   32.92    4.92   2 
   6   4 -11    3.61    6.19   2 
   7  -2   0    2.31   12.01   2 
   7   3  -9    2.89    6.15   2 
  -5  -1  -7   45.31    8.24   2 
  -4  -3  -2    2.62    4.16   2 
   1   5 -13    4.08    5.38   2 
   2  -6   4   26.08    4.99   2 
   2  -5   4  250.28    7.00   2 
   2   5 -12    0.66    5.28   2 
   3  -6   4    0.57    4.37   2 
   3   3  -5   -2.19    4.40   2 
   3   5 -12   54.06    6.11   2 
   4   5 -13   17.12    6.08   2 
   7  -1  -1  106.77    9.73   2 
   7   1  -4  104.42    7.07   2 
   7   2  -6    0.11    5.40   2 
  -4  -6  -2   -2.26    5.44   2 
  -4  -1  -4  398.96   10.74   2 
  -3  -6   0   30.83    5.10   2 
  -3  -2  -1  248.93    6.87   2 
  -1  -3   2  333.05    6.62   2 
   0   5 -14   39.46    6.41   2 
   1  -8   3   31.91    6.14   2 
   1   1  -1   52.33    5.79   2 
   1   3  -5   78.72    5.10   2 
   1   4  -8  858.72    9.61   2 
   4   2  -3   51.33    4.63   2 
   4   4  -8  175.90    6.27   2 
   5   3  -6   45.88    5.17   2 
   5   4  -9  124.10    6.55   2 
   6   3  -7    7.53    5.32   2 
  -5  -3  -5   45.84    5.79   2 
  -4  -4  -2   23.32    5.83   2 
  -3  -5   0   78.06    5.36   2 
  -2  -7   1   -0.44    3.62   2 
  -2  -3   1  896.06    9.90   2 
  -1  -7   2   78.93    5.66   2 
  -1   4 -10    3.12    4.60   2 
   0  -4   3   72.68    4.92   2 
   0  -2   2   89.96    5.98   2 
   1   5 -12   94.43    6.08   2 
   2  -8   3   24.64    6.03   2 
   3  -8   3   44.48    6.07   2 
   4   3  -5  207.80    6.18   2 
   4   5 -12   53.08    4.84   2 
   5  -6   3   10.00    6.60   2 
   6   4 -10    2.03    5.94   2 
  -5  -5  -5    6.40    5.80   2 
  -5  -4  -5   55.51    7.60   2 
  -5  -2  -6    1.73    6.33   2 
  -4  -5  -2   -1.20    4.95   2 
  -3  -7  -1   -2.70    5.52   2 
  -2   3  -8   40.78    4.92   2 
  -1   2  -4    3.00    4.34   2 
   0  -8   2    0.48    5.42   2 
   0  -6   3   15.19    4.88   2 
   0  -5   3   40.11    4.50   2 
   3   5 -11   47.65    5.65   2 
   6   0  -1  120.61    7.66   2 
   7   3  -8    6.74    6.05   2 
   8   1  -5   16.29    7.71   2 
  -2  -6   1   21.42    4.86   2 
  -1  -8   1   11.27    3.84   2 
  -1   5 -15   28.07    6.24   2 
   0   4  -8   11.37    4.46   2 
   1  -7   3   56.88    5.46   2 
   1   5 -11    2.49    5.30   2 
   2   4  -7   47.97    4.86   2 
   4  -7   3    3.47    5.09   2 
   4   1  -1  381.26    9.17   2 
   4   5 -11  102.29    6.68   2 
   5   4  -8  143.06    6.56   2 
  -4  -6  -3   -4.94    5.33   2 
  -2  -4   1  378.18    7.09   2 
  -1  -5   2    2.04    4.06   2 
  -1  -4   2  624.96    8.27   2 
   0   5 -12   31.65    5.57   2 
   2  -3   3  229.66    6.77   2 
   6   2  -4   57.55    5.49   2 
   6   4  -9    5.73    5.68   2 
   7  -4   1    9.89    9.13   2 
  -5  -5  -6    9.29    5.95   2 
  -3  -6  -1    0.31    4.96   2 
  -3   2  -7  211.83    9.42   2 
  -2  -7   0   24.88    5.17   2 
  -2  -2   0  780.59   10.47   2 
  -1   4  -9   79.71    5.53   2 
  -1   5 -14   50.09    6.36   2 
   0  -1   1   13.05    5.43   2 
   0   3  -5  138.89    5.50   2 
   1   4  -7  303.87    5.83   2 
   2   5 -10   -1.33    3.68   2 
   3  -7   3   90.58    6.29   2 
   3   5 -10   22.03    3.89   2 
   4   4  -7   10.54    3.55   2 
   5   3  -5   28.15    4.96   2 
   5   5 -11   -3.77    5.85   2 
   6  -5   2   11.30    8.14   2 
   6   3  -6   27.58    5.60   2 
   7   2  -5    2.09    5.40   2 
  -5  -4  -6   57.28    7.66   2 
  -5  -3  -6    7.37    6.45   2 
  -4  -5  -3   81.47    6.12   2 
  -4  -3  -3    6.31    4.21   2 
  -3  -7  -2    1.30    5.63   2 
  -3  -3  -1    1.80    3.87   2 
  -1  -7   1   75.88    5.56   2 
  -1  -2   1 1484.76   13.91   2 
  -1   5 -13   32.38    5.89   2 
   0   5 -11  136.00    6.22   2 
   1  -5   3   21.06    4.47   2 
   1  -4   3  616.92    8.98   2 
   1   5 -10   57.93    5.25   2 
   2  -8   2   14.65    5.94   2 
   2   3  -4  498.51    7.77   2 
   3   3  -4   17.01    4.62   2 
   4   5 -10   56.96    4.61   2 
   7   3  -7    3.35    5.76   2 
   8   0  -3   56.03    9.12   2 
  -4  -6  -4    6.90    5.70   2 
  -4  -4  -3   29.53    5.22   2 
  -3  -5  -1   54.32    5.26   2 
  -3  -4  -1  256.66    6.68   2 
  -1  -8   0   11.09    4.00   2 
   0  -8   1   17.04    4.08   2 
   2  -6   3   27.73    4.83   2 
   2   2  -2  832.34   10.56   2 
   3  -8   2  103.38    7.01   2 
   3  -6   3    2.75    4.51   2 
   3   2  -2 1757.12   13.87   2 
   4  -5   3   32.25    5.11   2 
   5   0   0   47.27    7.07   2 
   5   4  -7   29.30    5.25   2 
   6   4  -8    1.33    5.68   2 
   7   1  -3   20.50    7.00   2 
  -4   3 -14    9.11    8.12   2 
  -3   4 -14    7.12    7.41   2 
  -2  -6   0  152.24    5.92   2 
   0  -6   2  102.04    5.39   2 
   0   4  -7   89.10    5.48   2 
   2  -5   3  156.41    5.89   2 
   2   4  -6    6.42    4.20   2 
   3  -4   3   79.47    5.80   2 
   3   5  -9   88.35    4.79   2 
   3   6 -13  107.73    6.91   2 
   5   5 -10   16.05    6.12   2 
   8  -2  -1    0.90   13.03   2 
  -5  -2  -7   43.63    7.10   2 
  -5  -1  -8    9.92    7.59   2 
  -3  -7  -3   10.01    5.98   2 
  -3  -6  -2   20.61    5.30   2 
  -2  -7  -1    2.66    5.19   2 
  -2   3  -7  350.08    8.09   2 
  -1   5 -12    3.55    5.30   2 
   0  -3   2   30.55    4.61   2 
   1  -7   2   86.77    4.64   2 
   2   6 -13   -0.61    5.86   2 
   4   4  -6    8.61    4.80   2 
   4   5  -9   -1.00    5.27   2 
   5  -1   1   29.92   10.28   2 
  -5  -4  -7   51.44    7.83   2 
  -4  -5  -4   92.59    6.35   2 
  -2  -3   0  385.68    7.03   2 
  -1  -8  -1   49.94    6.24   2 
  -1   4  -8  232.05    6.47   2 
   0  -5   2   23.41    4.38   2 
   0   5 -10  172.67    5.46   2 
   1  -8   1   -4.42    3.90   2 
   1  -2   2  394.64    8.91   2 
   1   2  -2   24.10    4.99   2 
   1   4  -6  170.11    5.80   2 
   1   5  -9  109.39    4.76   2 
   1   6 -13    5.40    5.78   2 
   4  -7   2    4.23    5.67   2 
   4   2  -2  241.08    6.43   2 
   5   1  -1   -0.93    5.47   2 
   6   3  -5   13.16    5.27   2 
   8   1  -4    4.91    5.74   2 
  -5  -3  -7   39.84    5.91   2 
  -4  -6  -5   -2.17    5.80   2 
  -4   3 -13    6.83    8.56   2 
  -3  -2  -2 1090.36   12.54   2 
  -3   4 -13    0.05    5.79   2 
  -2  -4   0    8.98    4.25   2 
  -2   5 -14   29.62    7.61   2 
  -1  -7   0   66.17    4.34   2 
  -1  -5   1   67.89    4.75   2 
  -1  -3   1  108.58    5.22   2 
   0  -8   0    7.15    5.34   2 
   0  -4   2   93.08    4.92   2 
   2  -8   1   23.28    5.49   2 
   2   6 -12   16.89    5.72   2 
   3  -7   2   75.61    5.95   2 
   3   5  -8    4.60    4.90   2 
   3   6 -12   15.79    4.37   2 
   4  -2   2   85.10    9.23   2 
   5  -6   2   55.77    6.29   2 
   5  -3   2  307.21   11.45   2 
   5   5  -9   19.76    5.87   2 
   6   4  -7   36.56    5.71   2 
   7   3  -6    0.55    5.63   2 
  -4  -4  -4  183.96    7.15   2 
  -3  -5  -2  138.51    6.04   2 
  -1  -4   1  127.73    5.12   2 
  -1   5 -11   87.78    5.93   2 
   0   6 -14    2.82    5.94   2 
   2   5  -8    0.53    3.33   2 
   3  -8   1   72.70    7.02   2 
   4   5  -8   58.41    5.63   2 
   5   3  -4   14.56    4.73   2 
   5   4  -6   17.72    5.27   2 
   6   2  -3   29.43    4.95   2 
   7   2  -4    3.64    5.24   2 
  -5  -4  -8    6.46    7.57   2 
  -3  -6  -3    6.39    5.13   2 
  -2  -7  -2   28.22    5.52   2 
  -2  -6  -1   93.39    4.37   2 
  -2   0  -2   69.96    9.34   2 
  -1  -1   0   27.62    5.27   2 
   0   5  -9  187.39    6.30   2 
   2   6 -11   38.57    5.90   2 
   3   4  -5   10.46    4.40   2 
   3   6 -11   11.23    5.77   2 
  -4  -5  -5   26.63    5.87   2 
  -4  -1  -5  675.88   13.65   2 
  -3  -3  -2   19.91    4.17   2 
  -3   4 -12    3.37    5.49   2 
  -2   5 -13    7.79    5.54   2 
  -1  -8  -2   45.35    6.28   2 
   0  -6   1  284.31    6.47   2 
   0   3  -4   41.00    4.86   2 
   0   6 -13   50.88    6.61   2 
   1  -8   0    9.59    5.59   2 
   1  -7   1   46.61    5.29   2 
   1  -5   2   10.37    4.24   2 
   1   5  -8   -0.35    3.36   2 
   2  -6   2   93.66    5.35   2 
   2   3  -3  730.11    8.78   2 
   2   4  -5   94.00    5.00   2 
   3   3  -3  556.82    8.32   2 
   4   6 -11   73.68    5.29   2 
  -5  -3  -8   30.45    7.43   2 
  -5  -2  -8   -0.31    6.41   2 
  -1  -7  -1   -0.30    5.09   2 
  -1   4  -7  353.07    7.31   2 
   0  -8  -1    9.01    4.32   2 
   0   1  -1   13.62    5.79   2 
   1   6 -11   18.55    5.65   2 
   3  -6   2   99.28    5.79   2 
   3   5  -7    8.12    4.86   2 
   4   3  -3    8.52    4.40   2 
   4   4  -5   25.44    5.09   2 
   5  -4   2    0.20    5.60   2 
   5   5  -8   45.41    4.66   2 
  -4   3 -12    6.34    8.23   2 
  -2  -7  -3   12.64    5.37   2 
  -2   5 -12    9.67    6.55   2 
   0   6 -12    7.36    5.64   2 
   1  -4   2 1283.23   11.45   2 
   1  -3   2 1140.67   11.85   2 
   1   4  -5   17.64    4.43   2 
   2  -8   0   11.23    5.49   2 
   2   5  -7   49.62    5.17   2 
   2   6 -10   45.30    5.59   2 
   3   6 -10   76.40    6.39   2 
   4   5  -7  206.51    6.73   2 
   4   6 -10   82.64    6.71   2 
   6   4  -6   62.02    6.09   2 
   7   3  -5    8.97    6.43   2 
  -5   0 -10    0.26    9.65   2 
  -4  -5  -6    7.69    5.42   2 
  -4  -4  -5   46.88    5.24   2 
  -3  -6  -4    6.19    5.22   2 
  -3  -5  -3  130.47    5.25   2 
  -2  -6  -2   22.15    4.99   2 
   0  -5   1   11.21    4.15   2 
   0   5  -8    9.03    4.73   2 
   2  -5   2  128.21    5.26   2 
   3  -7   1    8.25    5.19   2 
   3   1   0  346.22    8.20   2 
   4  -7   1    5.02    5.23   2 
   4  -5   2    0.98    5.81   2 
   5   4  -5  109.60    5.85   2 
   6   3  -4    8.50    4.90   2 
  -5  -1  -9   55.77    7.78   2 
  -3   4 -11   72.36    6.54   2 
  -2  -4  -1   38.68    4.71   2 
  -2  -2  -1   81.94    5.22   2 
  -2   1  -3   12.75    7.28   2 
  -2   3  -6   72.22    5.38   2 
  -1  -5   0  120.81    5.18   2 
  -1   2  -3  624.49   10.52   2 
   0  -8  -2    2.16    5.53   2 
   1  -8  -1    2.34    5.42   2 
   1   5  -7   14.24    4.78   2 
   1   6 -10   33.81    5.50   2 
   2   1   0   91.21    6.18   2 
   3  -2   2  834.97   15.30   2 
   6  -5   1   24.76    7.26   2 
   6   5  -8    1.41    6.02   2 
   7   1  -2   70.47    6.51   2 
  -5  -3  -9   -0.59    5.90   2 
  -3  -4  -3  114.12    5.47   2 
  -1  -7  -2   31.61    5.41   2 
   0  -2   1  205.33    6.99   2 
   0   6 -11   -2.41    5.24   2 
   1  -7   0   28.56    5.09   2 
   3   2  -1   18.98    4.17   2 
   3   6  -9  187.54    7.15   2 
   4   6  -9   24.10    5.86   2 
   5  -6   1  108.59    8.05   2 
   5   3  -3    2.28    4.55   2 
   5   5  -7   85.71    5.03   2 
   8   0  -2    1.04    8.05   2 
   8   1  -3   32.81    7.74   2 
  -5  -2  -9    2.13    6.72   2 
  -3  -6  -5    8.33    5.35   2 
  -2  -7  -4   10.95    4.16   2 
  -2  -3  -1  648.73    8.20   2 
  -2   5 -11   67.83    6.04   2 
  -1  -4   0    5.82    4.19   2 
   0  -6   0   86.86    5.20   2 
   0  -4   1    5.24    4.17   2 
   2  -8  -1   19.37    6.09   2 
   2  -4   2  183.10    5.65   2 
   2  -3   2  129.25    6.12   2 
   2   2  -1 3722.92   20.83   2 
   2   4  -4  112.55    4.99   2 
   2   6  -9   10.12    3.72   2 
   3   4  -4    5.92    3.06   2 
   3   5  -6   -0.56    4.59   2 
   4  -3   2  121.42    6.81   2 
   4   1   0  743.30   12.05   2 
   7   2  -3    2.45    5.18   2 
  -4  -5  -7   -0.50    5.35   2 
  -4  -4  -6   31.23    5.38   2 
  -3  -5  -4  111.90    5.88   2 
  -3   2  -6   45.11    6.85   2 
  -2  -6  -3    1.27    4.89   2 
  -1   6 -12   33.47    6.18   2 
   0  -3   1  489.30    7.60   2 
   2  -6   1   57.33    5.13   2 
   3  -4   2   78.65    4.86   2 
   3   0   1    3.30    5.96   2 
   4   2  -1   86.23    4.94   2 
   4   4  -4    2.74    4.45   2 
   4   5  -6  148.15    6.37   2 
   6   2  -2   34.34    5.21   2 
   6   4  -5   25.45    5.51   2 
   7   4  -6   26.85    6.48   2 
   8   2  -4   12.45    6.45   2 
  -5  -3 -10   -1.34    7.54   2 
  -4   3 -11   32.58    7.43   2 
  -3  -3  -3  215.11    6.29   2 
  -3  -2  -3  499.46    9.00   2 
  -1  -3   0    8.38    4.26   2 
  -1  -2   0  262.52    6.37   2 
  -1   4  -6  244.87    6.17   2 
   0  -8  -3    9.69    4.15   2 
   0   5  -7    8.58    4.47   2 
   0   6 -10   55.87    5.76   2 
   1  -8  -2   -3.91    5.42   2 
   1  -5   1   67.83    4.84   2 
   1   6  -9   84.73    4.54   2 
   3  -6   1  136.40    6.37   2 
   3   6  -8  172.84    6.74   2 
   6   0   0   19.97    6.58   2 
   6   5  -7   12.78    6.29   2 
  -4  -5  -8   -3.48    5.84   2 
  -3  -6  -6    3.35    5.80   2 
  -3   4 -10   90.55    6.39   2 
  -2  -7  -5   11.03    4.26   2 
  -2   5 -10  146.31    7.53   2 
  -1  -7  -3   35.93    4.32   2 
   1   4  -4  250.91    6.14   2 
   1   5  -6  260.55    6.30   2 
   1   7 -12   28.37    6.19   2 
   2   6  -8   11.68    4.95   2 
   3  -7   0   10.29    5.12   2 
   3   3  -2   63.12    3.93   2 
   4  -7   0   12.47    5.41   2 
   4   6  -8   15.99    5.50   2 
   5   4  -4  294.33    7.33   2 
   5   5  -6   19.43    5.28   2 
   6  -3   1   57.55    8.74   2 
   7   3  -4    5.52    5.35   2 
  -5  -2 -10    0.77    7.05   2 
  -5  -1 -10    4.49    8.13   2 
  -4  -3  -6   54.99    5.40   2 
  -1  -5  -1  109.97    5.15   2 
  -1   6 -11   16.86    5.38   2 
   0  -5   0    0.08    4.18   2 
   0   3  -3    3.81    4.52   2 
   1  -7  -1   12.50    5.07   2 
   2  -8  -2   51.64    6.41   2 
   2   3  -2  451.62    6.71   2 
   2   7 -11   52.62    6.50   2 
   6   3  -3    1.26    4.87   2 
  -4  -4  -7   39.62    5.70   2 
  -4  -1  -6  546.77   13.25   2 
  -3  -5  -5   14.46    5.00   2 
  -2  -6  -4   30.29    5.11   2 
  -2  -4  -2  132.35    5.44   2 
   0  -6  -1   23.00    4.72   2 
   0   6  -9    9.36    5.32   2 
   1  -8  -3    9.33    5.58   2 
   1   6  -8  227.43    6.91   2 
   3   5  -5   28.72    4.94   2 
   4   0   1   57.36    7.30   2 
   5   6  -8    3.00    5.60   2 
   7  -4   0   11.15    8.06   2 
  -3  -6  -7   31.71    6.42   2 
  -2   6 -13   -3.26    5.87   2 
  -1  -7  -4   49.72    5.78   2 
   1  -4   1 1021.81   10.04   2 
   1   2  -1 1014.49   11.07   2 
   1   7 -11   -0.62    5.49   2 
   2  -5   1   65.86    4.79   2 
   2   5  -5   94.54    5.33   2 
   3   6  -7   24.77    5.28   2 
   3   7 -10    5.55    5.78   2 
   4   5  -5  143.84    6.14   2 
   5   1   0  127.44    7.21   2 
   6   5  -6   40.00    6.32   2 
  -3   0  -4  118.11    9.37   2 
  -1   6 -10   13.41    5.26   2 
   0   7 -12   14.70    6.45   2 
   2  -6   0  169.37    6.24   2 
   2   0   1   50.45    8.32   2 
   2   6  -7    5.05    4.90   2 
   2   7 -10    9.91    5.79   2 
   3   4  -3   15.81    3.29   2 
   4  -5   1    2.64    4.40   2 
   4   4  -3   32.07    4.49   2 
   4   6  -7   28.63    5.56   2 
   5  -6   0   55.16    6.07   2 
   5   3  -2  122.21    5.56   2 
   6   4  -4   10.24    5.10   2 
   7   4  -5   46.69    6.48   2 
  -5  -2 -11    9.87    7.94   2 
  -5   0 -11   32.48   10.45   2 
  -4  -4  -8    4.76    5.44   2 
  -3  -5  -6   -2.56    5.37   2 
  -3  -3  -4  112.44    5.99   2 
  -3   4  -9    9.20    6.12   2 
  -2  -6  -5   35.26    5.33   2 
  -2  -3  -2   85.59    5.08   2 
  -2   3  -5   -0.00    4.94   2 
  -2   5  -9  194.86    6.92   2 
  -1  -4  -1   87.86    4.91   2 
   0   5  -6   18.34    3.28   2 
   1  -7  -2   14.94    5.13   2 
   1   1   0   25.72    5.26   2 
   1   3  -2  247.61    5.30   2 
   2   4  -3  127.20    4.13   2 
   3  -7  -1   47.98    6.21   2 
   4  -7  -1   11.32    5.60   2 
   5   5  -5   -0.73    5.13   2 
   5   6  -7   -1.27    5.86   2 
  -4  -3  -7    2.08    4.90   2 
  -2   6 -12   -2.80    5.52   2 
  -1  -7  -5   13.89    5.40   2 
  -1  -5  -2   92.15    5.06   2 
  -1   4  -5   41.25    4.71   2 
   0  -4   0  174.70    4.74   2 
   0   4  -4  434.38    6.84   2 
   0   6  -8   58.04    5.43   2 
   1   5  -5   78.85    5.02   2 
   1   6  -7  196.41    6.17   2 
   1   7 -10   -1.22    5.54   2 
   3  -6   0   14.37    4.78   2 
   3   7  -9    7.34    5.68   2 
   5  -4   1   13.02    5.67   2 
   6  -5   0   83.40    7.72   2 
   7   2  -2   33.86    6.73   2 
   8   2  -3   23.84    7.64   2 
  -5  -1 -11    1.99    7.30   2 
  -4   3 -10   35.59    8.00   2 
   0  -6  -2    7.98    4.55   2 
   0   7 -11   83.96    5.75   2 
   1  -5   0   79.01    3.96   2 
   2   7  -9    7.05    5.72   2 
   5   4  -3  298.67    7.63   2 
   7  -3   0  121.77   11.15   2 
   7  -1   0   62.94   15.39   2 
   7   3  -3    6.72    5.32   2 
   8   1  -2   26.59    8.46   2 
  -4  -4  -9   14.78    5.91   2 
  -3  -2  -4  234.63    7.47   2 
  -2  -6  -6   57.50    5.87   2 
  -2  -4  -3  204.84    5.95   2 
  -2  -2  -2  179.86    5.91   2 
  -1   6  -9   19.77    5.24   2 
   0  -5  -1   32.11    3.27   2 
   1   4  -3  887.55    9.31   2 
   2  -4   1  580.48    8.39   2 
   3   5  -4   38.68    4.82   2 
   3   6  -6    1.59    3.43   2 
   4   5  -4   77.28    5.50   2 
   4   6  -6   97.31    6.23   2 
   6   2  -1   30.90    6.07   2 
   6   5  -5   31.87    6.08   2 
   7   1  -1   93.91    7.80   2 
  -3  -5  -7   68.45    6.18   2 
  -2   6 -11    2.61    5.49   2 
  -1  -7  -6    3.48    3.95   2 
  -1  -3  -1  155.06    5.60   2 
   0   7 -10  133.66    7.11   2 
   1  -7  -3   97.40    5.85   2 
   1  -2   1  248.81    7.50   2 
   1   7  -9   15.12    5.65   2 
   2   6  -6   59.46    4.19   2 
   3   3  -1   86.96    4.49   2 
   3   7  -8   40.35    5.87   2 
   6   3  -2  102.51    6.23   2 
   7   4  -4   49.44    7.50   2 
  -4  -4 -10   18.93    6.34   2 
  -4  -3  -8   18.67    5.63   2 
  -2   5  -8  132.80    6.28   2 
   0  -3   0  808.29    9.10   2 
   0   5  -5  116.04    5.04   2 
   2  -6  -1   35.17    5.16   2 
   2  -5   0  201.67    5.79   2 
   2   7  -8    5.47    5.53   2 
   3  -7  -2   85.18    6.03   2 
   3  -4   1   87.34    5.06   2 
   3   2   0    4.56    3.98   2 
   4  -7  -2    1.80    5.62   2 
   5   5  -4  233.03    7.01   2 
   5   6  -6    6.04    5.60   2 
  -5  -1 -12   18.39    8.30   2 
  -3  -5  -8   39.81    5.83   2 
  -2  -6  -7    7.69    5.47   2 
  -1  -5  -3    4.39    4.51   2 
   0  -7  -5   15.75    5.38   2 
   0  -6  -3   36.66    4.84   2 
   0   6  -7   53.96    4.09   2 
   1   6  -6   33.57    4.87   2 
   2   3  -1  908.04    9.54   2 
   4   2   0  129.92    5.60   2 
   5  -6  -1   18.15    5.40   2 
   6   4  -3    8.25    5.01   2 
   7  -2   0    3.74   11.54   2 
  -5   0 -12   82.66   12.25   2 
  -4  -1  -7   73.89    7.05   2 
  -4   0  -7   16.97    7.31   2 
  -3  -3  -5   82.93    5.22   2 
  -3   4  -8   33.93    5.23   2 
  -2   6 -10   46.63    5.71   2 
  -1  -4  -2   18.48    4.32   2 
  -1   6  -8    6.65    4.95   2 
  -1   7 -11   -5.91    6.13   2 
   0   3  -2   36.36    4.81   2 
   1  -7  -4   56.22    5.76   2 
   1  -4   0  186.86    5.66   2 
   1   5  -4  117.19    5.16   2 
   2   2   0  757.41   10.15   2 
   2   4  -2   49.94    4.53   2 
   3  -6  -1   -2.95    4.99   2 
   3   6  -5   87.09    5.75   2 
   4   4  -2  663.26    8.81   2 
   5  -3   1  178.89    8.11   2 
  -2  -6  -8    6.14    5.71   2 
  -2  -4  -4   87.19    4.95   2 
  -2  -3  -3   61.40    4.76   2 
  -1  -2  -1  254.84    7.10   2 
  -1   0  -1   46.92   10.52   2 
  -1   2  -2  359.21    8.35   2 
   0  -5  -2    4.66    4.17   2 
   1  -5  -1  105.69    5.12   2 
   1   7  -8   16.21    3.94   2 
   2  -3   1  846.92   10.21   2 
   2   6  -5  273.50    6.52   2 
   3  -5   0   11.00    4.41   2 
   3   7  -7   76.93    6.36   2 
   4  -5   0   85.24    5.48   2 
   4   6  -5   97.38    4.81   2 
   4   7  -7    0.80    5.81   2 
   5   0   1  128.56    9.43   2 
   5   3  -1  228.92    6.50   2 
   6   5  -4   -0.06    5.45   2 
  -3  -5  -9   53.39    6.29   2 
  -1   4  -4   57.72    4.76   2 
   0  -7  -6   -1.27    5.33   2 
   0  -4  -1   59.93    3.54   2 
   0  -2   0 2739.23   19.23   2 
   0   2  -1  142.19    5.43   2 
   0   4  -3   62.76    4.92   2 
   2   7  -7   18.91    5.41   2 
   3   5  -3  335.22    7.20   2 
   4   5  -3   62.94    5.59   2 
   5   4  -2  101.69    5.39   2 
   5   6  -5    5.79    5.45   2 
  -2   5  -7    2.59    4.35   2 
  -1   7 -10   32.24    6.21   2 
   0  -6  -4   42.25    5.25   2 
   0   6  -6   57.44    5.15   2 
   4  -7  -3    0.33    3.61   2 
   7   3  -2   24.18    6.89   2 
   8  -2  -1    0.43   12.96   2 
   8   0  -1   42.28   10.90   2 
  -4   3  -9   71.80    8.82   2 
  -3   6 -12   70.42    7.30   2 
  -2   6  -9    1.52    5.23   2 
  -1  -5  -4    4.40    4.47   2 
   0  -7  -7    5.39    5.61   2 
   0   7  -8   -1.63    5.06   2 
   1  -7  -5   32.85    4.10   2 
   1   3  -1   88.80    3.84   2 
   1   4  -2  618.13    8.11   2 
   1   7  -7   34.62    5.43   2 
   3   1   1  958.83   13.30   2 
   4  -3   1   44.37    5.70   2 
   5   5  -3  123.51    6.32   2 
   6  -5  -1   33.18    6.00   2 
   7   4  -3   14.54    5.90   2 
   8   2  -2   -1.62    7.15   2 
  -3  -3  -6  208.51    6.35   2 
  -3  -2  -5    7.09    4.21   2 
  -2   3  -4  104.11    5.50   2 
  -1  -1  -1 1982.33   19.91   2 
  -1   6  -7    3.25    3.32   2 
   0   5  -4   82.37    3.97   2 
   2  -5  -1   46.18    4.65   2 
   3  -6  -2    3.01    4.73   2 
   3   6  -4  172.45    6.45   2 
   3   7  -6    3.48    5.52   2 
   4   1   1  424.83    9.97   2 
   4   7  -6    5.72    5.81   2 
   5  -6  -2    1.81    5.13   2 
   7  -4  -1   11.65    6.86   2 
   7   2  -1   19.72    5.68   2 
  -5   1 -13   10.32   12.82   2 
  -2  -4  -5   98.33    5.23   2 
  -1  -4  -3   19.88    4.45   2 
  -1  -3  -2  133.70    5.58   2 
  -1   7  -9   84.21    6.49   2 
   0  -1   0  374.13   10.76   2 
   1  -7  -6    7.72    5.32   2 
   1   5  -3  145.60    5.30   2 
   2   6  -4   64.91    5.11   2 
   2   7  -6   28.48    5.55   2 
   3  -7  -4   10.49    5.36   2 
   4  -7  -4   17.36    6.03   2 
   4   6  -4   46.38    4.16   2 
   6   3  -1  356.18    8.47   2 
   6   4  -2   19.47    5.42   2 
  -4  -3 -11   30.35    6.63   2 
  -4  -2  -9   12.48    6.41   2 
  -3   2  -5   57.24    6.87   2 
  -3   4  -7    4.45    5.55   2 
  -3   6 -11   39.35    7.94   2 
  -2  -2  -3  245.63    6.53   2 
  -2   7 -11   18.35    6.28   2 
   0  -6  -5  149.34    5.95   2 
   0  -5  -3   35.24    3.43   2 
   1   2   0  362.94    7.92   2 
   2  -7  -5   89.86    6.47   2 
   4   4  -1   -0.13    4.49   2 
   5  -4   0   47.97    5.43   2 
   5  -2   1   91.30    8.82   2 
   5   6  -4    2.09    5.39   2 
   6   5  -3   -2.83    5.75   2 
  -4  -1  -8   54.13    6.65   2 
  -2  -3  -4  259.73    6.30   2 
  -2   6  -8    8.68    5.10   2 
  -1  -5  -5    4.28    4.60   2 
   0   6  -5    9.24    4.59   2 
   0   7  -7   83.00    5.99   2 
   1   7  -6  114.18    6.12   2 
   2  -6  -3   85.41    5.51   2 
   3  -4   0   41.48    4.41   2 
   3   3   0  643.09    8.39   2 
   3   5  -2   63.36    5.00   2 
   4  -5  -1  177.74    6.55   2 
   6   2   0   59.68    6.55   2 
  -2   5  -6   98.81    5.31   2 
  -1   6  -6   -3.76    4.89   2 
   0  -4  -2   59.09    4.77   2 
   0  -3  -1  535.41    7.23   2 
   1  -7  -7    6.24    5.67   2 
   1  -4  -1   11.71    3.20   2 
   1   6  -4  446.45    7.58   2 
   2   1   1  538.61   10.74   2 
   2   4  -1  383.70    6.79   2 
   3   7  -5    0.83    5.40   2 
   4   5  -2  181.28    5.49   2 
   4   7  -5    0.89    5.61   2 
   5   4  -1   40.98    6.10   2 
  -4   5 -12    4.25    7.55   2 
  -3  -3  -7   10.43    4.69   2 
  -2  -4  -6    4.95    4.56   2 
  -2   7 -10    4.90    6.05   2 
  -1   7  -8   49.36    5.87   2 
   0  -6  -6   50.61    5.45   2 
   2  -7  -6   99.09    6.62   2 
   2   3   0  405.26    7.15   2 
   2   7  -5   22.65    5.34   2 
   3  -6  -3   23.76    4.87   2 
   5  -6  -3   61.56    6.13   2 
   5   1   1  109.31    7.35   2 
   5   5  -2  117.68    6.26   2 
   6  -3   0   26.68    7.26   2 
   8   1  -1    4.47    8.18   2 
  -4  -2 -10   -1.45    5.32   2 
  -3  -4 -10    6.27    5.53   2 
  -3   6 -10    2.76    5.63   2 
  -1  -6  -9    4.36    5.25   2 
  -1   4  -3  671.03    8.78   2 
   0   5  -3   47.77    4.45   2 
   2  -5  -2  185.24    5.72   2 
   3   6  -3   85.96    4.33   2 
   4   6  -3    2.67    4.92   2 
   5   3   0    0.65    4.40   2 
   6  -5  -2    4.02    5.48   2 
   7   4  -2    4.32    5.62   2 
  -3  -2  -6  146.34    5.78   2 
  -1  -5  -6   22.78    3.55   2 
   0   3  -1  483.78    7.92   2 
   0   7  -6  180.66    6.70   2 
   2   6  -3   12.93    4.67   2 
   3  -7  -6   -4.49    5.32   2 
   5   6  -3   38.61    6.12   2 
   7   1   0    4.28    6.09   2 
   7   3  -1    2.62    6.70   2 
  -3  -4 -11   68.62    6.93   2 
  -3  -3  -8    1.54    4.55   2 
  -2   6  -7   20.00    4.96   2 
   0  -6  -7    8.46    3.74   2 
   0   8  -8    6.83    5.69   2 
   1   4  -1   96.20    3.91   2 
   1   5  -2    3.49    4.08   2 
   1   7  -5    0.52    4.99   2 
   1   8  -7    2.60    5.63   2 
   3  -2   1  538.51   11.04   2 
   3   2   1  227.98    6.48   2 
   4   2   1   52.95    4.84   2 
   6  -4  -1   43.31    5.59   2 
   6   4  -1  102.79    6.27   2 
   6   5  -2   -4.28    5.25   2 
  -4  -2 -11   43.00    6.28   2 
  -4  -1  -9  206.48    8.85   2 
  -4   5 -11    9.12    7.51   2 
  -2  -5 -11   59.14    6.72   2 
  -2  -4  -7    7.66    4.72   2 
  -2  -3  -5  416.63    7.17   2 
  -1  -2  -2   61.81    5.22   2 
  -1   7  -7   12.30    5.35   2 
   0   6  -4   27.55    3.48   2 
   2  -3   0  179.76    5.66   2 
   2   8  -6    2.19    5.58   2 
   3  -6  -4   -0.59    4.79   2 
   3   7  -4   -0.83    3.85   2 
   4  -2   1  117.51    7.85   2 
   4   7  -4   -2.76    5.40   2 
  -3   4  -6   19.35    5.19   2 
  -3   6  -9   14.98    6.67   2 
  -1  -5  -7   41.51    3.69   2 
  -1   6  -5   -2.60    3.16   2 
   0  -6  -8   -7.89    5.40   2 
   0  -4  -3   90.99    4.83   2 
   0   1   0  440.97   11.52   2 
   1   3   0   11.03    4.54   2 
   1   6  -3  439.45    6.45   2 
   2   7  -4    7.03    4.98   2 
   3   4   0   52.23    4.77   2 
   3   5  -1    4.49    4.56   2 
   4  -5  -2   62.13    5.10   2 
   4   5  -1  233.19    6.89   2 
   5  -6  -4   48.81    6.37   2 
   6   3   0   33.68    6.42   2 
   7  -3  -1   28.26    8.01   2 
  -4  -2 -12   42.81    6.57   2 
  -4   3  -8   51.89    8.69   2 
  -3  -3  -9    0.53    5.92   2 
  -2   5  -5  255.30    6.77   2 
  -1  -4  -5   19.37    4.21   2 
   1  -4  -2  461.97    7.34   2 
   1  -2   0 1620.11   15.07   2 
   2   2   1   81.49    5.22   2 
   3   6  -2   64.38    5.54   2 
   4   4   0    4.97    4.52   2 
   4   6  -2    2.20    5.07   2 
   7  -4  -2   16.95    5.85   2 
  -4  -2 -13    4.91    7.75   2 
  -2  -4  -8   67.00    5.89   2 
  -2   3  -3  278.59    7.59   2 
  -2   7  -8   39.82    5.88   2 
  -1  -5  -8   79.05    5.66   2 
   0  -6  -9    7.23    5.45   2 
   0   8  -7    1.94    5.59   2 
   1   7  -4   21.39    5.18   2 
   1   8  -6    6.34    5.59   2 
   2   4   0   11.51    4.43   2 
   2   5  -1  227.53    5.30   2 
   3  -4  -1    2.85    3.98   2 
   5  -4  -1   71.36    5.61   2 
   5   5  -1  134.37    6.17   2 
   7   2   0   89.54    7.60   2 
  -3  -2  -7  170.84    6.45   2 
  -1   7  -6    8.04    5.36   2 
  -1   8  -8   88.74    7.07   2 
   0  -6 -10   22.06    5.67   2 
   0  -3  -2  397.80    6.96   2 
   0  -2  -1 1076.36   12.53   2 
   0   5  -2   22.81    4.31   2 
   2   6  -2   15.35    3.49   2 
   2   8  -5   13.28    5.80   2 
   3  -6  -5    1.18    4.82   2 
   3   7  -3   16.91    5.38   2 
   4   7  -3   25.46    5.97   2 
   5   4   0  157.23    6.61   2 
   5   6  -2   12.73    5.89   2 
   6  -5  -3    4.08    5.34   2 
   6   0   1   26.30    9.04   2 
  -4  -1 -10  144.77    7.40   2 
  -4   5 -10   15.84    7.18   2 
  -3  -3 -10   37.79    5.56   2 
  -3   0  -5  109.56    7.89   2 
  -2  -3  -6  137.71    5.56   2 
  -1  -5  -9   -0.31    4.84   2 
   0   2   0 2526.08   20.76   2 
   0   4  -1    7.62    4.12   2 
   0   6  -3   24.65    4.72   2 
   2  -1   1 2154.53   29.03   2 
   3   3   1   -2.24    3.73   2 
   4  -3   0   64.71    5.77   2 
   5  -6  -5   30.89    6.26   2 
   7   4  -1    2.71    5.62   2 
  -3   6  -8   53.17    6.17   2 
  -2  -4  -9   48.20    4.05   2 
  -1   2  -1  224.62    7.22   2 
  -1   4  -2  909.19    9.40   2 
  -1   6  -4   20.08    4.69   2 
   0   8  -6    9.69    5.72   2 
   1   5  -1   62.17    4.68   2 
   1   6  -2  303.57    6.72   2 
   2   7  -3   11.36    3.80   2 
   6   5  -1    4.65    5.29   2 
  -3  -3 -11   47.46    5.93   2 
  -2  -4 -10    0.84    5.17   2 
  -2   7  -7    5.21    5.39   2 
  -1  -5 -10    0.28    5.29   2 
   0   7  -4   98.31    5.82   2 
   1   4   0   10.41    4.10   2 
   1   8  -5   -0.10    4.04   2 
   2  -5  -4   17.21    4.57   2 
   2   3   1  810.15    9.20   2 
   3  -6  -6   -3.45    5.04   2 
   4  -5  -3   28.14    5.13   2 
   5   3   1   23.41    4.85   2 
   6   4   0   91.73    6.30   2 
  -3  -3 -12    2.25    5.51   2 
  -3  -2  -8  286.62    7.29   2 
  -2   5  -4  270.92    6.78   2 
  -1  -5 -11    2.39    5.58   2 
  -1   7  -5   17.65    5.12   2 
   1  -4  -3  737.58    8.64   2 
   1   1   1 2065.76   20.43   2 
   1   7  -3   68.55    5.59   2 
   2   8  -4    1.79    5.67   2 
   3   5   0   88.89    5.34   2 
   3   6  -1   12.24    5.25   2 
   4   5   0   76.14    5.59   2 
   4   6  -1   28.68    5.48   2 
   5  -6  -6   16.05    5.63   2 
   6   2   1   70.84    5.90   2 
   7   3   0    5.10    5.57   2 
  -4   0  -9  113.91    8.51   2 
  -4   1  -8    1.43    8.59   2 
  -3  -3 -13    3.17    6.19   2 
  -3   7  -9   12.33    7.41   2 
  -2  -4 -11   10.89    5.45   2 
  -2  -3  -7   20.43    4.72   2 
   1  -6 -10    9.00    5.58   2 
   2  -6  -8   27.55    5.48   2 
   2   6  -1   24.72    4.90   2 
   3   7  -2   12.33    5.38   2 
   4   7  -2   54.37    6.35   2 
   5   6  -1   17.77    5.73   2 
   6  -5  -4   13.04    5.41   2 
  -4   5  -9    4.73    6.84   2 
  -3   4  -5   11.95    4.52   2 
  -2  -4 -12    0.70    5.62   2 
   0   3   0  559.09    7.43   2 
   0   8  -5   68.17    6.11   2 
   1   2   1  179.09    5.54   2 
   2   5   0  610.17    7.52   2 
   3  -6  -7    6.16    5.20   2 
   4   4   1   51.84    4.95   2 
   5   5   0    2.85    5.13   2 
   7  -4  -3    3.34    7.02   2 
  -2   7  -6   66.02    5.81   2 
  -1  -2  -3  830.87   10.50   2 
  -1   8  -6    9.17    5.99   2 
   0   5  -1   13.00    4.27   2 
   0   6  -2  100.89    5.33   2 
   1   8  -4    3.51    5.56   2 
   2  -6  -9   34.81    5.96   2 
   2  -5  -5   11.54    4.58   2 
   2  -3  -1   29.72    4.25   2 
   2   7  -2   -4.95    3.49   2 
   3  -4  -2   99.98    5.23   2 
   5  -4  -2   31.12    5.02   2 
   6  -3  -1   38.47    6.54   2 
   6  -2   0   46.72    7.64   2 
   6   3   1    0.73    6.17   2 
   7  -1   0   66.17   15.31   2 
  -3  -2  -9   27.16    5.04   2 
  -1   6  -3   17.95    3.52   2 
   0  -3  -3    2.61    3.00   2 
   2   4   1   39.58    4.65   2 
   3  -6  -8   21.79    5.43   2 
   4  -5  -4   -1.05    3.50   2 
   5   4   1  130.88    6.03   2 
  -3   7  -8   55.70    6.51   2 
  -1  -3  -5   21.93    3.13   2 
  -1  -1  -2   59.61    5.42   2 
  -1   7  -4   54.63    5.56   2 
   1  -4  -4  360.00    6.66   2 
   1   3   1  110.28    4.15   2 
   1   5   0  120.87    5.13   2 
   1   7  -2   80.19    5.72   2 
   2  -6 -10   32.51    6.11   2 
   2   8  -3    1.67    4.03   2 
   4   1   2   41.35    5.48   2 
   4   2   2   41.61    5.49   2 
   6   5   0   -3.26    5.34   2 
   7   4   0    0.76    6.12   2 
  -4   0 -10    7.43    7.24   2 
  -2  -1  -4   16.57    4.22   2 
  -1   4  -1  944.17    9.73   2 
   0   4   0  234.49    5.97   2 
   0   8  -4   36.50    5.64   2 
   3  -6  -9    5.39    5.71   2 
   3   1   2  508.96   10.43   2 
   3   2   2  899.67   10.89   2 
   3   6   0   26.44    5.05   2 
   3   7  -1    2.21    5.23   2 
   4   6   0   36.01    5.52   2 
   4   7  -1   26.24    5.74   2 
   6  -5  -5   66.27    6.30   2 
   7  -3  -2    1.79    6.46   2 
  -3   6  -6   59.66    5.72   2 
  -2   5  -3  182.21    5.92   2 
  -1   8  -5   -0.87    5.82   2 
   1   8  -3   17.81    5.72   2 
   2  -5  -6   21.37    3.47   2 
   2   6   0  147.07    5.75   2 
   3   5   1   65.00    5.07   2 
   4   5   1   18.91    5.07   2 
   5   6   0   22.29    5.66   2 
   8   1   0    6.76    9.22   2 
  -4   3  -7    1.48    7.14   2 
  -4   5  -8    0.44    5.08   2 
  -2   3  -2  114.99    5.39   2 
  -2   7  -5   96.80    6.29   2 
   1   4   1   86.49    4.78   2 
   2   7  -1    1.76    3.54   2 
   3   3   2   17.90    4.19   2 
   4  -5  -5   57.99    5.20   2 
   5  -3  -1    3.44    4.62   2 
   6   4   1   57.44    5.80   2 
  -3   7  -7   17.22    5.66   2 
  -1  -3  -6    2.87    4.33   2 
  -1   6  -2  102.82    5.46   2 
   0  -2  -2  156.90    5.51   2 
   0   6  -1  257.20    6.39   2 
   1  -5  -9    1.48    5.01   2 
   2  -5  -7    4.94    4.80   2 
   2   2   2  155.11    5.52   2 
   2   8  -2    6.06    5.55   2 
   3  -4  -3  185.70    5.65   2 
   4  -3  -1   -0.56    4.95   2 
   5  -1   1   32.47   10.26   2 
   5   1   2   75.29    7.02   2 
   5   5   1   52.69    5.56   2 
   6  -5  -6   29.25    5.96   2 
   7  -4  -4    5.53    5.60   2 
   7   2   1   10.94    6.54   2 
  -4   0 -11   39.23    7.06   2 
  -3  -2 -12   28.44    5.76   2 
  -3   2  -4    2.70    6.23   2 
  -3   4  -4   42.99    5.78   2 
  -2   8  -6   11.37    5.55   2 
  -1   7  -3   42.04    5.46   2 
   0  -3  -4  301.88    6.43   2 
   0   5   0    6.04    4.01   2 
   1  -4  -5  146.75    5.19   2 
   1  -2  -1    7.96    4.77   2 
   1   7  -1   54.36    5.36   2 
   2   3   2   83.07    4.79   2 
   5  -4  -3   17.42    5.02   2 
   5   3   2    2.80    4.66   2 
   7   1   1   13.43    7.64   2 
   7   3   1   19.36    7.01   2 
   8  -2  -2    5.44    8.14   2 
  -3  -2 -14    4.48    5.79   2 
  -3  -2 -13   18.31    5.74   2 
  -1  -4 -13   71.26    6.53   2 
  -1  -2  -4  152.16    5.56   2 
  -1   5  -1   71.68    4.76   2 
  -1   8  -4    7.94    5.64   2 
   0   8  -3   16.86    4.30   2 
   1  -5 -10   33.80    5.57   2 
   1   8  -2   36.09    5.88   2 
   4  -5  -6   86.41    5.70   2 
   4   4   2   22.31    4.63   2 
  -3   6  -5   23.39    6.28   2 
  -2  -3 -13   -3.03    5.96   2 
  -2   7  -4   54.90    5.74   2 
   0  -4  -8    1.16    4.60   2 
   1  -5 -11   22.96    5.69   2 
   1   5   1   93.31    5.00   2 
   2  -5  -8    5.20    3.54   2 
   2  -3  -2   29.69    4.46   2 
   3  -2   0   25.33    5.41   2 
   3   6   1    5.15    4.78   2 
   3   7   0    2.40    5.39   2 
   4   6   1   35.89    5.55   2 
   4   7   0   12.41    5.65   2 
   5  -2   0    4.32    5.17   2 
   6  -5  -7   25.26    5.93   2 
   6   5   1   -0.12    5.54   2 
  -4   0 -12   17.13    6.83   2 
  -4   5  -7    0.50    6.31   2 
  -3   0  -6   38.37    5.57   2 
  -3   7  -6   -1.58    5.37   2 
  -2  -3 -14    5.79    5.98   2 
   0   3   1  724.76    8.74   2 
   1  -5 -12   32.95    4.32   2 
   1  -4  -6    3.54    4.22   2 
   2  -5  -9    7.44    4.97   2 
   2   1   2    7.11    4.27   2 
   2   4   2  122.40    5.28   2 
   2   6   1  121.34    5.62   2 
   2   7   0   29.20    5.17   2 
   5   4   2  154.24    6.50   2 
  -4   0 -13   31.07    7.69   2 
  -2   5  -2  136.27    5.64   2 
  -2   8  -5   18.09    6.38   2 
   0  -1  -1  610.93   11.90   2 
   0   2   1  997.95   12.25   2 
   2   8  -1   14.30    4.31   2 
   3  -4  -4  280.09    6.21   2 
   3   5   2  129.19    5.47   2 
   4  -5  -7  102.60    6.18   2 
   4  -2   0  469.90   10.32   2 
   4   5   2    3.53    4.59   2 
   5   6   1   28.94    5.87   2 
   6  -3  -2   44.39    5.32   2 
   6   2   2   65.78    6.96   2 
   6   3   2   10.17    6.13   2 
   7  -4  -5    9.19    5.76   2 
  -4   0 -14   74.70    9.01   2 
  -4   1  -9    0.05    7.71   2 
  -3  -1  -9   -2.07    5.74   2 
  -1   4   0  200.50    5.84   2 
  -1   6  -1  286.50    6.46   2 
  -1   7  -2   94.67    4.60   2 
  -1   8  -3   48.64    6.08   2 
   0  -3  -5  615.75    8.03   2 
   0   4   1   59.42    3.53   2 
   0   6   0   84.71    5.15   2 
   0   8  -2    3.06    5.46   2 
   1   7   0   97.24    5.68   2 
   2  -5 -10   16.81    5.35   2 
   3  -1   1  883.73   20.05   2 
   5  -4  -4    4.96    4.45   2 
   7  -3  -3   87.17    7.95   2 
  -2  -1  -5   27.94    4.35   2 
  -1  -3  -8   12.56    4.48   2 
  -1   2   0 1780.00   15.92   2 
   0  -4 -10   80.56    5.83   2 
   1  -4  -7   56.13    4.97   2 
   1   3   2  138.22    5.60   2 
   1   8  -1   11.94    5.63   2 
   2  -5 -12    8.63    5.71   2 
   2  -5 -11   15.07    5.53   2 
   4  -5  -8   40.09    5.49   2 
   5   5   2  167.95    6.89   2 
   6   4   2    4.74    6.48   2 
  -2   7  -3    9.86    5.01   2 
   0  -4 -11   20.55    5.23   2 
   0   5   1   42.88    4.45   2 
   1   2   2   65.84    5.35   2 
   1   4   2   16.93    4.28   2 
   3   7   1   -0.05    5.14   2 
  -3  -1 -10   -4.94    5.84   2 
  -3   6  -4    1.87    4.75   2 
  -2   8  -4   54.61    6.61   2 
  -1  -2  -5    0.89    3.94   2 
  -1   5   0  112.23    5.06   2 
   0  -4 -14   29.51    6.38   2 
   0  -4 -13   26.42    5.64   2 
   0  -4 -12    1.38    3.65   2 
   2   7   1   -3.48    5.28   2 
   2   8   0   15.12    6.26   2 
   3  -4  -5  134.24    5.24   2 
   3   6   2   18.48    5.19   2 
   4  -5  -9    3.92    5.19   2 
   4  -3  -2  106.08    5.08   2 
   4   0   2  563.22   18.59   2 
   4   6   2    8.15    5.32   2 
   7  -4  -6   11.83    6.51   2 
  -3   4  -3   69.62    5.14   2 
  -2  -2  -9    5.27    4.69   2 
  -2   3  -1  933.16   11.23   2 
  -1  -3 -10  133.32    5.98   2 
   0  -3  -6  769.20    9.02   2 
   0   8  -1   11.75    5.58   2 
   1  -4  -8   90.75    4.03   2 
   1   5   2  105.90    5.04   2 
   2  -3  -3   56.97    4.56   2 
   3   3   3  183.55    5.83   2 
   4  -5 -10    3.86    5.70   2 
   4   4   3   33.20    6.01   2 
   6   5   2    6.75    5.76   2 
  -4   5  -6   21.04    5.27   2 
  -3  -1 -11   76.08    5.93   2 
  -1   7  -1   25.09    3.91   2 
   1  -4  -9   85.54    5.19   2 
   1   8   0   15.64    5.60   2 
   2   6   2   12.47    4.92   2 
   3   2   3  461.36    8.25   2 
   4  -1   1  631.66   17.30   2 
   4   2   3    4.99    4.24   2 
   5  -4  -5    5.81    4.87   2 
   5   3   3    3.08    5.85   2 
   5   6   2    2.18    5.77   2 
  -4   1 -10    4.38    7.17   2 
  -3  -1 -15    4.20    6.20   2 
  -3  -1 -12   77.36    6.23   2 
  -2  -2 -10   20.51    4.85   2 
  -2   5  -1   60.37    4.84   2 
  -1  -3 -14   -5.39    5.47   2 
  -1  -3 -13   -0.42    5.39   2 
  -1  -3 -12    4.52    5.19   2 
  -1  -3 -11   15.28    3.74   2 
  -1   6   0   23.93    5.02   2 
   0   6   1   27.98    4.62   2 
   1   7   1    4.49    3.58   2 
   2   3   3   66.47    4.61   2 
   2   4   3  197.99    5.76   2 
   5   4   3   66.65    5.58   2 
   6  -3  -3    2.70    5.94   2 
   6  -2  -1   70.42    6.79   2 
   7   3   2   76.20    8.39   2 
  -4   7  -7    2.50    6.20   2 
  -3  -1 -14   22.53    6.03   2 
  -3  -1 -13   59.51    6.56   2 
  -3   0  -7   13.05    5.31   2 
  -2  -2 -15   -3.35    7.22   2 
  -2  -2 -11   60.73    5.57   2 
  -2   8  -3   25.09    6.12   2 
   0  -3  -7  564.91    7.66   2 
   1  -4 -11    0.64    4.99   2 
   1  -4 -10    2.36    3.67   2 
   1  -2  -2   79.83    5.47   2 
   3  -4  -6    6.57    3.20   2 
   3   5   3  179.86    6.61   2 
   3   7   2   -0.54    5.38   2 
   4   5   3   68.00    5.79   2 
   7  -3  -4  139.88    8.36   2 
   8  -2  -3    7.04    8.29   2 
  -4   3  -6    1.76    7.14   2 
  -3   6  -3    3.22    5.20   2 
  -2  -2 -14    1.93    5.41   2 
  -2  -2 -13   13.95    5.44   2 
  -2  -2 -12    4.33    5.07   2 
  -2  -1  -6  189.58    6.20   2 
  -1  -2  -6  148.36    5.57   2 
   0   4   2   64.27    4.87   2 
   1  -4 -14    1.40    5.84   2 
   1  -4 -13    1.86    5.49   2 
   1  -4 -12    6.14    5.22   2 
   1   0   1   44.90    9.76   2 
   3   0   2   24.17    7.66   2 
   5  -4  -6   25.20    5.16   2 
   5   5   3   48.56    5.86   2 
   7   2   2   15.43    7.95   2 
  -1   4   1   14.87    3.23   2 
   0   1   1  594.61   11.95   2 
   0   3   2  390.47    6.92   2 
   0   5   2    4.44    4.38   2 
   0   8   0    0.81    5.39   2 
   2   2   3  236.47    6.18   2 
   2   7   2   22.45    3.94   2 
   3  -4  -7   26.32    4.87   2 
  -4   1 -11   11.70    6.42   2 
  -1   5   1   70.84    3.68   2 
  -1   7   0   22.30    3.73   2 
   0  -3  -8   55.01    3.72   2 
   1   4   3   19.60    4.49   2 
   1   8   1   42.51    6.34   2 
   2  -3  -4  283.68    6.49   2 
   3   6   3    8.90    3.72   2 
   4  -3  -3  105.43    5.21   2 
   4   6   3   -1.42    5.19   2 
   6   3   3  123.74    7.91   2 
   6   4   3   33.13    5.98   2 
  -4   1 -12    5.50    8.15   2 
  -4   5  -5   63.01    6.01   2 
  -4   7  -6    1.02    5.87   2 
  -3   8  -4    5.79    5.96   2 
  -2   8  -2    9.52    5.69   2 
   0  -3  -9   77.24    5.10   2 
   1   1   2   59.81    5.48   2 
   1   3   3   28.21    4.35   2 
   1   5   3    3.76    4.51   2 
   1   7   2   32.78    5.29   2 
   2   6   3   -1.25    5.05   2 
   3  -4  -8  138.28    5.78   2 
   5  -4  -7   40.43    5.41   2 
  -5   5 -10    7.65   10.39   2 
  -4   1 -14    0.33    7.44   2 
  -4   1 -13   -0.00    7.43   2 
  -3   4  -2   87.83    5.09   2 
  -2   1  -2  129.07   12.66   2 
  -2   5   0  223.53    6.22   2 
  -2   7  -1   58.54    4.21   2 
  -1  -2  -7  451.55    7.97   2 
   0   6   2    5.77    3.21   2 
   3  -2  -1  637.21    9.78   2 
   4   1   3   93.53    7.29   2 
   5  -2  -1    2.63    5.59   2 
   6  -3  -4   -3.05    4.86   2 
   7  -3  -5   92.55    8.07   2 
  -3   0  -8    0.76    5.38   2 
  -3   6  -2  109.20    5.57   2 
  -2  -1  -7   -1.56    4.11   2 
   0  -3 -15   15.78    6.06   2 
   0  -3 -14   -1.11    5.57   2 
   0  -3 -11  136.30    5.78   2 
   0  -3 -10  148.80    4.70   2 
   0   8   1   50.18    6.04   2 
   3  -4  -9   92.24    5.89   2 
   3   1   3    3.22    5.08   2 
   3   7   3    6.21    5.83   2 
   4   4   4  172.41    6.44   2 
   5  -4  -8   34.54    5.80   2 
  -1  -2  -8  290.41    6.42   2 
  -1   8   0    8.96    3.96   2 
   0  -3 -13   34.53    5.59   2 
   0  -3 -12  135.59    6.04   2 
   0   2   2  151.55    5.22   2 
   2  -3  -5  139.54    5.41   2 
   2   7   3   10.66    5.48   2 
   3  -4 -11   11.61    5.51   2 
   3  -4 -10  114.96    5.94   2 
   3   3   4  109.94    5.24   2 
   3   5   4  102.10    5.60   2 
   4  -2  -1 1482.44   14.74   2 
   4   5   4   93.39    6.24   2 
   5  -4  -9   16.00    5.52   2 
   6   2   3    8.05    6.20   2 
  -4   7  -5    0.33    5.78   2 
  -2   3   0  182.29    5.93   2 
  -2   8  -1   20.27    5.44   2 
  -1   7   1    8.89    3.58   2 
   0   7   2    5.83    3.51   2 
   1  -2  -3   71.61    5.07   2 
   1   8   2   36.73    6.24   2 
   2   4   4  103.13    4.98   2 
   3  -4 -13   10.83    5.73   2 
   3  -4 -12   35.90    5.88   2 
   4  -3  -4  131.97    5.63   2 
   5  -4 -10    2.19    5.68   2 
   5   4   4    1.25    4.98   2 
   8  -2  -4    0.80    7.15   2 
  -2  -1  -8   16.52    5.23   2 
  -2   7   0  260.63    7.48   2 
  -1  -2  -9  442.07    7.58   2 
  -1   2   1    9.37    4.58   2 
  -1   4   2  398.91    7.05   2 
   0   4   3   87.30    4.84   2 
   0   5   3   35.44    4.72   2 
   1   2   3  809.19   10.36   2 
   1   7   3   63.40    5.60   2 
   2   3   4  236.06    6.02   2 
   3   6   4    5.62    5.04   2 
   4   6   4   -0.76    5.38   2 
   5  -4 -11    1.58    5.81   2 
   5   3   4    8.53    5.97   2 
   5   5   4    7.19    5.40   2 
   7  -3  -6    7.97    5.41   2 
  -4   5  -4   87.52    6.08   2 
  -2  -1 -16   66.17    7.08   2 
  -1  -2 -15   19.81    6.23   2 
  -1  -2 -14  123.21    6.71   2 
  -1  -2 -10   35.87    5.01   2 
  -1   6   2  155.85    5.84   2 
   0  -1  -2  840.10   12.70   2 
   0   6   3   25.10    4.81   2 
   2  -3  -6  116.73    5.14   2 
   2   6   4   24.64    5.16   2 
   5   1   3  141.31    7.80   2 
   6  -3  -5    1.38    4.87   2 
   6  -2  -2  283.72    8.86   2 
  -3   0 -15    8.36    6.40   2 
  -3   2  -3   40.63    7.29   2 
  -3   6  -1  136.47    6.03   2 
  -1  -2 -13  144.82    6.56   2 
  -1  -2 -12   63.94    5.41   2 
  -1  -2 -11   64.82    5.39   2 
   0   8   2   -2.28    5.47   2 
   1   4   4   26.13    4.32   2 
   1   5   4    0.82    4.60   2 
   3   7   4    2.83    5.74   2 
   4   2   4   65.92    6.32   2 
   7   3   3   27.48    6.10   2 
  -4   7  -4    4.05    5.48   2 
  -3   0 -14   25.05    6.38   2 
  -3   0 -13   14.72    6.59   2 
  -2  -1 -15   76.99    6.75   2 
  -2  -1  -9    3.99    4.27   2 
  -2   5   1   36.58    3.49   2 
   0   3   3    2.53    2.63   2 
   2   7   4   19.39    5.48   2 
   3   2   4  188.20    6.30   2 
   4  -3  -5   64.26    4.72   2 
   6   4   4   38.27    6.08   2 
   7  -3  -7    1.99    5.58   2 
  -5   6  -8    1.21    8.06   2 
  -3   0 -12    4.74    5.22   2 
  -3   4  -1   99.11    5.29   2 
  -3   7  -1    8.91    5.39   2 
  -2  -1 -14   14.96    5.67   2 
  -2  -1 -13   20.70    5.24   2 
  -2  -1 -11  125.48    6.85   2 
  -2  -1 -10  423.07    7.94   2 
  -2   8   0   -2.62    4.06   2 
  -1   3   2  902.52   10.28   2 
  -1   7   2   13.26    3.66   2 
   2  -3  -7   81.75    4.81   2 
   2   1   3   25.31    4.51   2 
   6  -3  -6    2.79    5.06   2 
  -4   3  -5    9.53    7.26   2 
  -2  -1 -12   10.47    4.95   2 
   1  -2  -4   77.99    4.75   2 
   1   3   4  442.23    7.51   2 
   1   7   4   37.59    5.73   2 
   2  -1   0  178.42    8.17   2 
   3   5   5   10.69    4.79   2 
   4   4   5   36.31    5.09   2 
   4   5   5   27.94    5.54   2 
   6   3   4  169.75    8.91   2 
   7  -3  -8   -0.45    5.87   2 
   7  -1  -1  113.17    9.19   2 
   7   1   2   59.19   12.18   2 
   8  -2  -5    7.61    6.06   2 
  -4   5  -3   34.07    6.28   2 
   2  -3 -15    6.06    5.79   2 
   2  -3  -8   23.16    3.43   2 
   2   2   4  363.88    7.13   2 
   3  -2  -2    3.97    3.99   2 
   3   6   5    6.59    5.24   2 
   4  -3  -6   13.14    4.63   2 
   4   6   5    2.06    5.77   2 
   5  -2  -2  149.74    6.55   2 
   6  -3  -7    2.78    6.30   2 
  -5   6  -7   26.27    7.86   2 
  -4   7  -3    1.47    5.51   2 
  -1   5   3   18.02    3.08   2 
   0   5   4   40.62    3.59   2 
   0   6   4   61.72    5.25   2 
   0   8   3    7.09    3.90   2 
   2  -3 -14    4.66    5.60   2 
   2  -3 -13   27.46    5.33   2 
   2  -3 -10   57.94    4.87   2 
   2  -3  -9    1.10    4.49   2 
   2   4   5   94.18    5.29   2 
   2   6   5   37.15    5.35   2 
   5   4   5   45.87    7.11   2 
   5   5   5   10.09    5.54   2 
  -2   8   1   11.94    6.20   2 
  -1   4   3  720.00    8.67   2 
  -1   7   3   85.48    5.83   2 
   0   4   4   29.67    4.38   2 
   2  -3 -12   96.51    5.90   2 
   2  -3 -11  126.70    5.99   2 
   3   3   5   77.60    4.80   2 
   6  -3  -8   14.33    5.39   2 
   6  -2  -3  117.95    7.05   2 
   7   2   3    0.52    7.71   2 
  -2   3   1   29.94    4.37   2 
  -2   5   2  203.78    5.90   2 
  -2   6   2   21.03    3.47   2 
   1   5   5   14.62    4.40   2 
   1   6   5    1.19    4.77   2 
   2   7   5   10.30    5.54   2 
   4  -3  -7   12.43    4.45   2 
   1  -2  -5  201.44    5.72   2 
   1   4   5   20.16    4.33   2 
   2   3   5  356.97    7.77   2 
   4  -3  -8   65.19    5.23   2 
   5   3   5   41.63    6.49   2 
   6  -3 -10   10.84    5.86   2 
   6  -3  -9   18.67    5.68   2 
  -5   6  -6   28.23    7.74   2 
  -4   7  -2    4.99    5.55   2 
  -3   4   0   46.37    4.53   2 
  -1   8   3   -1.08    5.50   2 
   1   7   5   15.19    5.38   2 
   4  -3 -14    8.60    6.01   2 
   4  -3  -9   42.76    5.08   2 
   6  -3 -11    5.45    6.00   2 
  -4   5  -2   -0.30    4.78   2 
  -2   8   2   43.00    6.38   2 
  -1   6   4  158.83    5.99   2 
   0  -1  -3  318.56    8.16   2 
   0   3   4  273.15    6.23   2 
   1  -2 -16   -5.82    5.49   2 
   1   2   4  177.95    5.86   2 
   3  -2  -3  377.78    7.36   2 
   3   5   6   -2.17    5.08   2 
   3   6   6    2.46    5.26   2 
   4  -3 -13   -1.28    3.98   2 
   4  -3 -12    3.83    5.17   2 
   4  -3 -11    5.32    5.21   2 
   4  -3 -10   32.88    5.16   2 
   4   5   6   -4.56    5.23   2 
   5  -2  -3  246.40    7.65   2 
   6   2   4    2.00    6.90   2 
   6   4   5   47.33    6.66   2 
   7  -2  -5    2.50    5.29   2 
  -4   2  -9   21.69    8.71   2 
  -3   6   1   -0.49    5.10   2 
  -1   2   2   81.35    5.56   2 
  -1   3   3  606.69    8.43   2 
  -1   5   4  103.30    5.48   2 
  -1   7   4   39.15    5.76   2 
   0   6   5   46.88    5.86   2 
   1  -2 -15   17.86    5.79   2 
   1  -2  -6  211.99    5.85   2 
   2   6   6    3.28    5.56   2 
   4   4   6   26.34    5.91   2 
   5  -1   0    1.89    5.91   2 
   7   3   4    5.24    7.24   2 
  -4   2 -12    2.77    6.92   2 
  -2   7   3    4.72    5.22   2 
   0   1   2  814.22   12.87   2 
   1  -2 -14   68.43    5.71   2 
   1   3   5   24.29    4.38   2 
   2   4   6    3.85    4.40   2 
   5   5   6    1.56    5.51   2 
   6  -2  -4    1.84    4.91   2 
  -5   6  -5   20.94    7.58   2 
  -4   2 -10   26.51    7.83   2 
  -4   7  -1    2.13    5.69   2 
  -2   5   3   50.95    4.95   2 
  -1   4   4  406.29    6.96   2 
   0   4   5   34.86    4.39   2 
   1  -2 -13   60.38    5.64   2 
   1  -2  -7  147.11    5.33   2 
   1   1   3   69.75    5.42   2 
   1   5   6   33.67    4.85   2 
   2   0   2   66.74    8.98   2 
   3   2   5    6.32    4.12   2 
   4   2   5   24.26    5.81   2 
   7  -2  -6    8.07    5.59   2 
  -4   3  -4   66.34    7.59   2 
   0  -1 -17    9.21    6.23   2 
   1  -2 -12   28.63    5.03   2 
   1  -2  -8   49.49    4.57   2 
   1   7   6    3.66    5.63   2 
   3  -1   0  129.30    7.26   2 
   3   1   4   54.21    5.95   2 
   5   4   6   39.90    6.00   2 
   6   3   5  154.38    9.41   2 
   7  -1  -2   25.14    6.70   2 
  -4   5  -1    2.35    4.65   2 
  -3   4   1    0.66    5.10   2 
  -3   6   2    4.45    5.03   2 
  -2   3   2   34.51    4.54   2 
   1  -2 -11   60.16    5.22   2 
   1  -2 -10    3.69    4.45   2 
   1  -2  -9  142.35    5.35   2 
   1   4   6    8.90    4.31   2 
   2   2   5  981.47   10.83   2 
   3  -2  -4   71.41    4.73   2 
   3   3   6  192.46    5.93   2 
   5  -2  -4   30.64    4.59   2 
   6  -2  -5   65.95    5.54   2 
   8  -1  -4    6.51    7.34   2 
   8   0  -1   29.18    9.86   2 
  -1   6   5   19.80    3.72   2 
  -1   7   5   35.09    5.63   2 
   0  -1 -16    9.58    5.94   2 
   0   6   6   57.98    5.34   2 
   2   3   6  119.29    5.32   2 
   3   5   7   57.84    5.72   2 
   3   6   7   35.12    6.27   2 
   4  -1   0  972.93   14.98   2 
  -5   6  -4    3.87    5.70   2 
  -4   7   0    8.26    5.80   2 
  -3   2  -2  864.78   15.42   2 
  -1   5   5   62.21    3.80   2 
   0  -1  -4    6.75    4.66   2 
   2   5   7    4.77    4.98   2 
   2   6   7    6.58    5.32   2 
   4   5   7    1.64    5.26   2 
   5   2   5    5.49    5.80   2 
  -2   5   4   15.44    4.59   2 
  -1   0 -17    4.17    6.21   2 
   0  -1 -15   10.80    4.03   2 
   0   3   5  588.55    7.95   2 
   3  -2 -15   -2.46    5.68   2 
   3  -2  -5  218.68    6.33   2 
   5  -2  -5   43.78    4.70   2 
   5   3   6   15.11    6.25   2 
   6  -2  -6  184.88    6.90   2 
  -2   0 -10  122.20    6.04   2 
   0  -1 -14   11.94    5.26   2 
   0   2   4  919.91   10.89   2 
   1   5   7   60.24    5.14   2 
   2   1   4   16.02    4.15   2 
   2   4   7    8.91    4.65   2 
   3  -2 -14    4.25    5.42   2 
   4   4   7   31.43    5.32   2 
   6  -2  -7  154.83    6.72   2 
   8  -1  -5    6.18    7.33   2 
  -5   4  -8   10.39   16.04   2 
  -4   5   0   91.67    5.74   2 
  -3   1 -10   58.90    6.46   2 
  -3   6   3   21.45    4.93   2 
  -1   0 -16    2.58    5.88   2 
  -1   4   5   99.97    3.97   2 
   0   4   6   -0.81    4.37   2 
   1   2   5    1.09    3.97   2 
   1   3   6    0.82    4.38   2 
   3  -2 -13    9.35    5.20   2 
   3  -2  -6  187.86    5.95   2 
   5  -2  -6    6.66    4.46   2 
   5   1   4    5.38    6.27   2 
   6  -2  -8  133.04    6.79   2 
  -5   6  -3    9.22    5.91   2 
  -4   7   1   10.93    5.40   2 
  -1   2   3   70.80    5.22   2 
  -1   7   6   -3.11    5.39   2 
   0  -1 -13   24.07    5.60   2 
   0  -1  -5  176.11    6.39   2 
   2  -1  -1    2.50    4.46   2 
   3  -2 -12   94.37    5.68   2 
   5  -2 -13    1.61    5.71   2 
   6  -2 -12   57.62    5.44   2 
   6  -2 -11   93.03    7.03   2 
   6  -2 -10   17.66    5.62   2 
   6  -2  -9   19.23    5.34   2 
   7  -1  -3   15.21    5.41   2 
  -3   4   2   81.85    5.11   2 
  -2   3   3   49.39    4.50   2 
  -2   7   5   51.96    4.92   2 
   0  -1 -12   17.46    4.90   2 
   0   6   7    9.00    3.57   2 
   2   6   8    6.49    5.49   2 
   3  -2 -11   57.11    5.13   2 
   3  -2 -10    9.56    4.63   2 
   3  -2  -9   50.95    5.08   2 
   3  -2  -8    6.04    4.51   2 
   3  -2  -7   91.22    4.00   2 
   5  -2 -12    8.10    5.43   2 
   5  -2  -7   14.64    4.81   2 
   5   4   7   34.47    6.08   2 
   8  -1  -6    1.83    5.80   2 
  -4   3  -3   83.62    7.13   2 
  -2   1 -16   11.65    6.01   2 
  -1   0 -15   19.43    5.85   2 
   0  -1 -11    6.19    4.29   2 
   0  -1  -6  430.08    7.94   2 
   2  -1 -17    8.98    6.27   2 
   3   3   7    5.19    5.48   2 
   3   5   8   39.77    5.74   2 
   5  -2 -11    4.86    4.00   2 
   5  -2 -10    5.42    5.30   2 
   5  -2  -9   45.86    5.41   2 
   5  -2  -8   25.50    5.32   2 
   5  -1  -1   18.54    6.57   2 
   7   2   4    0.50    8.86   2 
  -5   6  -2   60.70    7.79   2 
  -2   5   5    2.98    3.30   2 
   0  -1 -10    2.44    4.30   2 
   0  -1  -7  301.01    6.58   2 
   2   3   7   20.79    4.71   2 
   4   2   6   95.25    6.77   2 
   4   5   8    0.69    5.42   2 
   6   2   5   16.68    7.58   2 
   6   3   6    7.75    6.74   2 
  -5   4  -7    1.55   11.10   2 
  -4   3 -14    9.11    9.65   2 
  -4   5   1  201.02    6.63   2 
  -4   7   2    7.68    5.73   2 
  -3   6   4   -0.68    4.81   2 
  -1   0 -14   34.32    5.63   2 
  -1   7   7    0.95    5.45   2 
   0  -1  -9   32.77    4.84   2 
   0  -1  -8  196.26    6.06   2 
   0   3   6  699.52    8.60   2 
   1   5   8   73.22    5.65   2 
   2  -1 -16   -0.50    5.74   2 
   2   2   6   74.19    5.00   2 
   7  -1  -4   -0.87    5.26   2 
  -3   2 -15   27.22    8.04   2 
  -2   1 -15   11.17    6.02   2 
  -1   4   6    4.30    3.06   2 
   0   4   7   29.29    4.84   2 
   2   4   8   64.75    5.48   2 
   3   4   8   77.72    6.27   2 
   8   0  -2    1.23    8.04   2 
  -3   4   3  169.24    5.86   2 
  -2   6   6   73.65    4.49   2 
  -1   0 -13    9.44    4.64   2 
   0   1   3  350.38    8.44   2 
   0   6   8    8.84    5.34   2 
   2  -1 -15   17.11    5.42   2 
   4   4   8    1.05    5.13   2 
  -5   6  -1   87.87    7.17   2 
  -4   7   3   -2.29    5.34   2 
  -3   2  -1  569.10   11.46   2 
  -1   5   7   94.65    4.43   2 
   0   5   8    1.32    4.93   2 
   1   4   8  122.21    5.71   2 
   4  -1  -1  500.86   10.71   2 
   5   3   7   35.15    5.56   2 
   7  -1  -5   14.44    5.51   2 
  -5   4  -6   21.81    8.82   2 
  -4   3  -2  125.04    7.90   2 
  -4   5   2   66.07    5.34   2 
  -3   6   5    6.38    5.04   2 
  -2   1 -14    2.27    5.33   2 
  -2   3   4  271.88    6.38   2 
  -1   0 -12   12.31    4.72   2 
  -1   1 -17   16.16    6.18   2 
   1   2   6  129.04    5.26   2 
   1   6   9    1.66    5.37   2 
   2  -1 -14   14.43    3.90   2 
   2   5   9    5.29    5.70   2 
   3   1   5  172.69    7.28   2 
   3   5   9   41.28    6.09   2 
   5   2   6   -1.71    6.13   2 
   7  -1  -6   26.01    6.86   2 
  -4   3 -13    7.90    7.74   2 
  -1   2   4   68.11    3.74   2 
   1   0 -17    8.88    6.04   2 
   2  -1 -13  206.09    6.52   2 
   2  -1  -2 1353.72   14.90   2 
   4  -1 -15   -6.51    5.73   2 
   5  -1  -2   59.49    6.18   2 
   5   4   8    8.29    5.82   2 
   7  -1  -7   37.62    7.09   2 
  -5   6   0   57.26    6.39   2 
  -2   1 -13   37.56    6.80   2 
  -2   1  -1 2205.71   29.67   2 
  -1   0 -11    6.10    4.75   2 
  -1   4   7   48.44    5.00   2 
  -1   6   8   81.48    4.98   2 
   1   5   9    7.88    5.20   2 
   3   3   8    1.76    4.66   2 
   5  -1 -14   78.47    6.44   2 
   6  -1 -13   -0.46    5.94   2 
   7  -1 -10    5.83    5.79   2 
   7  -1  -9    3.11    5.65   2 
   7  -1  -8   15.23    5.70   2 
  -5   4  -5   58.86    9.39   2 
  -4   7   4    6.50    5.90   2 
  -3   4   4  255.01    6.33   2 
   0   3   7  545.56    7.73   2 
   0   6   9    9.51    5.39   2 
   2  -1 -12  131.28    5.65   2 
   2   1   5   26.24    4.32   2 
   3   4   9   11.71    5.14   2 
   4  -1 -14    2.28    5.45   2 
   6  -1 -12    3.44    5.91   2 
   6   0   1   26.84    9.16   2 
   8   0  -3   40.00    7.95   2 
  -4   5   3   26.96    4.96   2 
  -3   6   6    0.62    5.05   2 
  -1   0 -10   94.12    5.30   2 
  -1   5   8   36.69    5.54   2 
   1   0 -16   24.06    4.28   2 
   2   4   9   59.61    5.55   2 
   4  -1 -13   10.87    5.33   2 
   4   3   8   13.24    5.49   2 
   5  -1 -13   62.01    6.18   2 
   6  -1 -11  114.72    7.05   2 
  -4   3 -12    7.35    8.44   2 
  -2   1 -12  121.69    7.32   2 
  -2   5   7    9.13    3.52   2 
  -1   0  -9  245.00    6.41   2 
   1   4   9   24.64    5.01   2 
   2  -1 -11    5.85    3.44   2 
   2  -1  -3    0.84    4.58   2 
   2   2   7    2.25    4.07   2 
   4  -1  -2   34.24    6.02   2 
   4   4   9   16.43    5.47   2 
   5  -1 -12   20.91    5.63   2 
   5  -1  -3   97.72    6.52   2 
   6  -1 -10  127.72    6.87   2 
   6   3   7   14.30    7.42   2 
  -5   4  -4   63.68    8.41   2 
  -5   6   1   21.68    5.62   2 
  -4   3  -1   45.99    5.81   2 
  -2   3   5  131.13    5.37   2 
  -1   0  -4  233.54    7.61   2 
   1   0 -15   35.11    5.64   2 
   2  -1 -10   50.26    4.87   2 
   2   5  10   86.63    6.75   2 
   3   5  10    2.50    5.98   2 
   4  -1 -12   16.64    5.27   2 
   4   2   7  100.53    6.05   2 
   6  -1  -8    0.46    5.03   2 
   6  -1  -7   49.01    5.68   2 
   7   0  -1    3.85    7.35   2 
   8   0  -4    6.91    7.20   2 
  -3   2   0   25.30    5.53   2 
  -2   6   8   15.50    4.03   2 
  -1   0  -8   36.56    4.87   2 
   0   1 -17   18.51    6.26   2 
   1   5  10    6.64    5.26   2 
   2  -1  -9   46.59    4.73   2 
   5  -1 -11   28.54    5.54   2 
   5   3   8   15.80    7.01   2 
  -3   4   5  130.69    5.37   2 
  -2   1 -11  119.82    6.12   2 
  -1   0  -7   29.07    4.40   2 
  -1   0  -6    0.52    4.05   2 
  -1   0  -5  191.22    6.80   2 
  -1   2   5  183.75    5.65   2 
  -1   4   8  110.33    5.29   2 
   0   6  10   11.05    4.10   2 
   1   2   7  409.04    7.74   2 
   2  -1  -8  584.33    8.03   2 
   2  -1  -4  131.80    6.01   2 
   4  -1 -11   35.24    3.96   2 
   5  -1 -10  136.72    6.26   2 
   5  -1  -4   96.55    5.39   2 
   8   0  -5   21.42    7.64   2 
  -5   4  -3   31.70    6.77   2 
  -5   6   2    3.08    5.57   2 
  -4   5   4   -1.85    5.13   2 
  -3   6   7    2.60    3.74   2 
  -2   5   8    7.08    4.91   2 
  -1   5   9    0.22    3.54   2 
   0   1   4    2.12    4.85   2 
   0   3   8   68.07    5.06   2 
   0   4   9   99.26    4.41   2 
   1   0 -14   78.85    5.57   2 
   2  -1  -7  248.57    6.09   2 
   2  -1  -6  222.66    6.12   2 
   2  -1  -5   36.39    4.92   2 
   3   0 -16    1.98    5.69   2 
   3   3   9    3.22    5.78   2 
   4  -1 -10   43.57    5.27   2 
   4  -1  -3   71.79    5.22   2 
   5  -1  -9  208.70    6.79   2 
   5  -1  -8   97.03    5.58   2 
   5  -1  -5   67.91    4.94   2 
   6   2   6    8.57    6.72   2 
   8   0  -6    7.14    7.56   2 
  -4   3 -11   45.22    8.51   2 
   0   1 -16   32.17    5.90   2 
   2   4  10    4.62    5.02   2 
   3   4  10    1.31    5.35   2 
   4  -1  -9   19.14    4.87   2 
   4   0 -16   12.95    4.62   2 
   5  -1  -7   57.48    5.12   2 
   5  -1  -6   19.33    4.87   2 
   5   1   5    3.37    6.56   2 
   8   0  -7   13.26    6.26   2 
  -4   3   0   58.41    5.10   2 
  -2   1 -10   83.64    5.66   2 
  -2   3   6  134.77    5.38   2 
   1   0 -13   66.00    5.53   2 
   3   0 -15   17.33    5.69   2 
   4  -1  -8    1.45    4.48   2 
   4   3   9   60.20    7.27   2 
   4   4  10   19.62    7.16   2 
   5   0 -15    0.95    5.99   2 
   5   2   7   30.47    5.67   2 
  -5   4  -2    3.06    6.00   2 
  -5   6   3   59.85    6.27   2 
  -4   5   5   46.85    5.42   2 
  -1   2 -17    5.22    6.42   2 
   1   3   9    4.43    3.27   2 
   2   5  11   40.40    4.81   2 
   3   0   3   44.04    9.53   2 
   3   1   6  541.05   10.38   2 
   4  -1  -7   56.45    3.88   2 
   4  -1  -6  235.85    6.31   2 
   4  -1  -5  445.30    7.89   2 
   4   0 -15    7.40    6.02   2 
   7   0  -2   31.06    6.84   2 
   7   2   5   37.40   10.78   2 
  -3   2   1  642.90   10.73   2 
  -3   4   6    1.74    3.30   2 
  -3   6   8   16.47    4.12   2 
  -1   4   9   80.20    5.38   2 
   1   5  11   -1.81    3.91   2 
   2   1   6  217.45    7.29   2 
   2   2   8   27.49    4.51   2 
   7   0 -11   13.45    6.18   2 
   8   1   0    4.60    9.80   2 
  -2   1  -9   12.42    4.72   2 
  -1   2   6  203.89    5.93   2 
   0   1 -15   19.26    5.45   2 
   1   0 -12    1.18    4.90   2 
   3   0 -14   81.53    5.98   2 
   4   0 -14    7.01    5.45   2 
   5   0 -14   61.41    5.05   2 
   6   0 -13   -2.79    4.27   2 
   7   0 -10    8.79    6.08   2 
  -5   4  -1    7.39    6.21   2 
  -5   6   4   54.88    6.46   2 
  -4   3   1    0.71    4.29   2 
  -2   1   0  185.31    8.66   2 
  -2   6  10   15.48    6.22   2 
   0   3   9   82.25    5.22   2 
   1   2   8  295.39    6.85   2 
   2   1 -17   26.04    5.94   2 
   4   2   8   26.38    5.33   2 
   5   3   9    1.20    7.12   2 
   6   0 -12    3.50    5.82   2 
   7   0  -3  169.72    8.61   2 
  -5   4  -8    9.50   16.10   2 
  -4   3 -10   45.96    8.36   2 
  -4   5   6   77.25    5.71   2 
  -3   2 -10   16.43    6.04   2 
  -2   3   7   77.32    4.77   2 
  -1   2 -16    6.09    5.92   2 
   1   0   2  209.45   11.34   2 
   2   4  11    5.03    3.75   2 
   3   1 -17    1.56    6.01   2 
   3   3  10   31.07    5.31   2 
   3   4  11   63.90    6.71   2 
   6   0   0   19.17    7.18   2 
   7   0  -4  142.98    8.48   2 
  -5   4   0   49.32    6.58   2 
  -3   4   7   21.93    4.96   2 
  -3   6   9    9.87    4.10   2 
   0   1 -14    3.87    5.44   2 
   0   1   5  173.45    6.39   2 
   1   0 -11    1.00    3.37   2 
   1   4  11    0.85    3.53   2 
   3   0 -13   39.05    4.35   2 
   4   0 -13   -4.00    5.38   2 
   6   0 -11   16.58    5.76   2 
   7   0  -7    1.51    5.43   2 
   7   0  -6    0.68    6.56   2 
   7   0  -5    8.83    6.47   2 
  -5   6   5   31.38    6.17   2 
  -3   2   2    2.69    4.85   2 
  -2   5  10    9.63    5.40   2 
  -1   5  11   11.06    5.67   2 
   1   5  12    3.84    3.99   2 
   2   1 -16   43.38    5.89   2 
   4   3  10   95.39    7.99   2 
  -4   3   2  108.80    5.33   2 
  -2   3 -16    8.20    6.36   2 
   0   4  11   19.06    5.16   2 
   1   0 -10   14.59    4.53   2 
   3   0 -12  261.02    6.85   2 
   4   0 -12  186.23    6.65   2 
   6   0 -10   11.10    5.44   2 
   8   1  -1   -0.65    8.66   2 
  -5   4   1   77.99    6.95   2 
  -4   4 -13    5.86    7.84   2 
  -4   5   7   98.33    6.23   2 
  -1   2 -15    1.66    5.35   2 
  -1   2   7   98.93    4.01   2 
   0   1 -13    3.97    5.13   2 
   0   3  10  179.76    6.19   2 
   3   1 -16    1.19    4.04   2 
   5   0 -11   21.05    5.26   2 
   5   2   8    0.48    6.35   2 
   6   0  -9   49.11    5.93   2 
  -3   2  -9   25.57    6.48   2 
  -3   4   8  136.09    5.84   2 
  -2   3   8   26.44    4.79   2 
   1   2   9  422.94    7.31   2 
   2   1 -15   89.86    6.17   2 
   2   4  12    2.61    5.50   2 
   4   0 -11  149.34    6.12   2 
   6   0  -1  120.24    7.51   2 
   6   2   7   33.37    7.61   2 
  -5   6   6   13.80    6.00   2 
  -4   3  -9   80.01    9.85   2 
  -4   3   3  119.97    5.51   2 
  -2   1   1    4.35    5.75   2 
  -2   5  11   12.17    5.66   2 
  -1   4  11    0.41    5.01   2 
  -1   5  12   25.42    5.87   2 
   1   0  -9  417.02    7.55   2 
   1   2 -17   48.05    6.26   2 
   2   1   7    0.85    4.16   2 
   3   0 -11   36.93    3.85   2 
   3   1   7  403.79    8.83   2 
   5   0 -10   86.99    5.68   2 
   5   1 -15   30.71    4.89   2 
   6   0  -8  158.50    6.87   2 
  -5   4   2   41.35    5.32   2 
  -4   5   8   30.54    5.71   2 
  -3   2   3  406.64    7.62   2 
  -2   2 -12   19.61    5.41   2 
   0   1   6  408.25    7.65   2 
   1   3  11   16.84    5.16   2 
   3   1 -15   10.01    5.57   2 
   3   3  11   36.12    5.62   2 
   4   2   9   10.79    5.29   2 
   5   3  10    5.78    7.37   2 
   6   0  -7   94.57    5.96   2 
   8   1  -2   21.26    7.87   2 
  -6   5  -4    3.46   10.07   2 
  -6   5  -3    4.68    8.46   2 
  -6   5  -2   16.56    7.90   2 
  -2   3 -15   10.29    6.23   2 
  -1   2 -14   12.98    5.32   2 
   0   1 -12   44.47    4.94   2 
   0   4  12    5.26    5.14   2 
   3   0 -10   50.98    5.18   2 
   4   0 -10    1.95    5.03   2 
   5   0  -9   92.46    5.88   2 
   5   1 -14    9.83    5.89   2 
   6   0  -6   55.54    5.79   2 
   6   0  -2  327.01    8.57   2 
   6   1 -13    0.15    6.18   2 
   7   1   2   52.96   11.98   2 
   8   1  -3   32.29    8.24   2 
  -6   5  -1   21.40    7.56   2 
  -5   4   3   16.35    6.32   2 
  -4   3   4  134.08    5.90   2 
  -3   4   9   87.50    5.86   2 
  -2   3   9    2.63    4.50   2 
  -1   2   8   31.70    3.37   2 
   0   3  11  135.99    5.71   2 
   1   0  -8  211.48    5.22   2 
   2   1 -14   41.56    4.29   2 
   2   2 -17    4.00    5.82   2 
   4   3  11   21.35    6.01   2 
   5   1   6   67.02    8.47   2 
   6   0  -5    9.46    4.77   2 
   6   0  -4   40.91    5.36   2 
   6   0  -3  180.91    6.96   2 
   7   1 -11    6.13    6.32   2 
   8   1  -6   50.04    6.86   2 
   8   1  -5   12.85    7.66   2 
   8   1  -4    4.08    7.66   2 
  -6   5   0   70.53    8.41   2 
  -3   2  -8  413.66   11.69   2 
  -2   5  12   11.78    5.86   2 
   1   2 -16   46.16    5.99   2 
   2   2  10   20.71    4.73   2 
   3   1 -14    6.12    5.14   2 
   3   2 -17   11.05    6.06   2 
   4   0  -9    9.00    4.79   2 
  -6   5  -5   15.49   10.75   2 
  -4   4 -12   -0.40    7.27   2 
  -4   5   9   -0.39    5.45   2 
  -3   2   4   65.15    3.71   2 
  -2   1   2 1170.91   14.36   2 
   1   0  -7  188.53    6.11   2 
   1   2  10   32.86    5.01   2 
   3   0  -9  129.29    4.39   2 
   5   0  -7   58.29    5.32   2 
   5   1 -13   -0.48    5.43   2 
   6   1 -12    9.42    6.05   2 
   7   1 -10   32.19    6.16   2 
  -6   5   1   31.79    6.30   2 
  -5   4   4    2.53    5.22   2 
  -4   3   5   61.59    5.05   2 
  -1   2 -13   48.52    5.56   2 
   0   1 -11   75.30    5.36   2 
   0   3 -17    1.35    5.84   2 
   0   4  13   16.92    5.81   2 
   1   3  12   -2.29    5.13   2 
   2   1 -13   56.29    5.17   2 
   3   3  12    1.85    6.58   2 
   4   0  -8    3.70    4.64   2 
  -3   4  10   74.34    4.53   2 
  -2   3 -14   50.83    6.41   2 
  -2   3  10   62.76    4.99   2 
  -1   2   9  119.56    5.14   2 
   0   1   7  330.16    6.78   2 
   2   1   8   15.83    4.55   2 
   2   2 -16    5.09    3.97   2 
   3   0  -8  528.46    7.74   2 
   3   1 -13   12.62    5.21   2 
   4   2 -16    8.33    6.02   2 
   5   0  -6   22.76    5.02   2 
   5   2   9   -0.87    6.57   2 
   6   1 -11   59.02    6.39   2 
   7   1  -9   13.97    6.12   2 
  -6   5   2    0.95    5.79   2 
  -4   5  10    8.81    5.69   2 
  -3   2   5  201.80    6.18   2 
  -2   1  -5  310.19   10.22   2 
   1   0  -6  264.70    6.79   2 
   1   0   3  335.34   10.49   2 
   1   2 -15    6.04    5.43   2 
   3   1   8  147.63    6.74   2 
   3   2 -16    3.75    4.05   2 
   4   2  10    0.95    5.20   2 
   5   1 -12   16.51    5.61   2 
   7   1  -8   30.98    6.05   2 
   7   2   6   86.25   15.51   2 
  -6   5   3   -0.08    6.98   2 
  -5   4   5    3.25    5.12   2 
  -4   3  -8   49.05    9.08   2 
  -4   3   6   11.11    4.62   2 
  -3   4 -14    7.14    7.50   2 
  -2   1   3    1.23    4.80   2 
   4   0  -7   10.82    3.40   2 
   5   0   0   41.72    6.53   2 
   5   2 -15   24.90    6.26   2 
   6   2   8   10.42    8.36   2 
  -3   4  11   22.82    5.41   2 
   0   1 -10   84.22    5.34   2 
   1   2  11   71.16    5.31   2 
   1   3 -17    4.23    6.03   2 
   2   1 -12   -1.13    3.44   2 
   2   2 -15    1.70    5.27   2 
   3   0  -7  582.22    8.67   2 
   3   1 -12   63.51    5.31   2 
   4   1 -12    6.13    5.14   2 
   5   0  -4   19.45    4.68   2 
   7   1  -7   36.53    6.16   2 
  -6   5   4    8.72    5.69   2 
  -5   4   6   24.52    5.34   2 
  -4   5  11   25.50    6.22   2 
  -3   2  -7  176.31    9.12   2 
  -3   2   6  189.45    6.04   2 
  -2   3  11  109.12    5.85   2 
  -1   2 -12   43.54    5.32   2 
   0   3 -16    7.62    5.83   2 
   0   4  14   18.11    6.19   2 
   1   0  -5    9.69    5.15   2 
   1   3  13    8.14    5.33   2 
   3   2 -15   -0.54    5.35   2 
   4   0  -6   26.36    4.80   2 
   4   2 -15   -7.08    5.74   2 
   5   0  -3    0.91    4.32   2 
   5   1 -11  138.68    6.39   2 
   7   1   1   10.66    8.30   2 
  -4   3   7    9.86    4.98   2 
  -2   1   4  111.37    5.87   2 
  -2   3 -13   14.80    6.45   2 
  -1   2  10    4.15    3.29   2 
   0   1   8  166.49    5.86   2 
   0   3  13   26.26    5.41   2 
   1   2 -14   12.81    5.23   2 
   2   3 -17    6.91    5.68   2 
   3   0  -6  318.62    7.01   2 
   3   0   4   98.90    9.44   2 
   3   3  13    9.62    5.82   2 
   5   2 -14   52.53    6.58   2 
   6   1  -9    9.64    5.40   2 
   6   2 -13    7.05    6.05   2 
   7   1  -6    7.94    5.78   2 
  -6   5   5   47.75    6.61   2 
  -1   4  14    0.50    5.55   2 
   2   1 -11   94.69    5.48   2 
   4   0  -5   26.06    4.68   2 
   4   1 -11   43.58    5.41   2 
   7   1  -5   12.71    5.55   2 
  -5   4   7   22.42    5.70   2 
  -3   2   7  105.43    5.27   2 
  -3   4  12   19.05    5.64   2 
   0   1  -9   64.60    5.09   2 
   1   3 -16   18.20    5.80   2 
   2   2 -14    1.42    5.27   2 
   3   1 -11   70.95    5.44   2 
   4   2 -14   36.94    5.92   2 
   4   2  11   41.98    7.32   2 
   5   1 -10  155.57    5.47   2 
   5   1   7   39.26    7.72   2 
   5   2  10    1.43    6.88   2 
   6   1  -8   27.22    5.52   2 
   7   1  -4  109.19    8.08   2 
   7   1   0    1.07    7.63   2 
  -6   5   6   22.21    6.48   2 
  -4   3   8   62.40    5.38   2 
  -2   1  -4   50.24    7.86   2 
  -2   1   5   35.89    4.82   2 
  -2   3  12   79.21    5.64   2 
   1   0  -4  136.23    6.88   2 
   1   0   4  251.24    8.09   2 
   1   3  14   -1.44    5.32   2 
   2   2  12    2.02    5.08   2 
   3   0  -5   16.02    4.76   2 
   3   2 -14    2.68    5.29   2 
   4   0  -4  133.44    5.81   2 
   6   2 -12   25.84    6.01   2 
   7   1  -3   17.68    7.10   2 
   7   1  -2   70.69    7.46   2 
   7   1  -1   93.28    7.95   2 
  -5   4   8   23.86    5.88   2 
  -3   4 -13   -2.33    5.94   2 
  -1   2 -11  106.16    5.51   2 
  -1   2  11   38.39    3.80   2 
  -1   4 -16    5.25    5.96   2 
   0   1   9   25.65    4.68   2 
   0   3 -15   18.91    5.54   2 
   2   3 -16   10.38    5.84   2 
   4   1 -10   53.34    5.37   2 
   5   1  -9   68.23    5.59   2 
   7   2 -10   31.03    6.80   2 
  -6   5   7    8.26    6.21   2 
  -5   5 -10    4.33    9.20   2 
  -3   2   8    0.75    4.50   2 
  -3   4  13   12.42    5.97   2 
   0   3  14    4.15    3.99   2 
   1   2 -13   99.09    5.66   2 
   2   1 -10  293.13    6.45   2 
   3   3 -16   32.39    6.12   2 
   4   0  -3   65.74    5.19   2 
   6   1  -7  155.33    6.73   2 
  -6   4   0    0.76    6.71   2 
  -4   3   9   42.76    5.14   2 
  -2   1   6  214.57    6.01   2 
  -2   3 -12   16.82    6.44   2 
   2   1  10  383.89    7.43   2 
   3   0  -4  187.77    6.46   2 
   3   1 -10   17.22    3.58   2 
   4   2 -13    0.83    5.27   2 
   6   2 -11   20.18    5.88   2 
  -5   4   9   17.48    5.59   2 
  -2   3  13   19.36    3.76   2 
  -1   2  12   27.07    4.94   2 
   0   1  -8   19.97    4.60   2 
   1   0  -3  793.04   12.61   2 
   1   2  13  104.69    6.21   2 
   1   3 -15   95.27    6.42   2 
   2   2 -13   23.46    3.66   2 
   2   2  13   21.75    6.38   2 
   3   2 -13   16.26    5.29   2 
   4   0  -2  182.24    6.68   2 
   5   1  -8   22.71    5.17   2 
   5   2 -12   60.55    5.94   2 
   6   1  -6  275.46    8.11   2 
   6   2   9   -1.94    7.88   2 
   7   2  -9   36.13    6.52   2 
  -6   4  -1   -0.81    6.96   2 
  -5   4  -7    0.36   11.52   2 
  -3   2   9   61.37    5.02   2 
   0   1  10    3.79    4.37   2 
   1   0   5  183.03    7.22   2 
   4   1  -9    5.77    3.60   2 
   4   2  12   33.67    7.53   2 
   8   2  -4   12.24    6.70   2 
  -5   4  10    6.54    5.73   2 
  -4   3  -7    0.23    7.77   2 
  -4   3  10   34.70    5.27   2 
  -3   2  -6   34.88    7.17   2 
  -2   1   7  214.55    6.10   2 
  -1   4 -15    1.27    5.45   2 
   0   3 -14   23.60    5.48   2 
   0   3  15    6.95    5.87   2 
   0   4 -16   96.80    6.96   2 
   1   2 -12   67.85    5.33   2 
   2   1  -9  378.89    7.02   2 
   2   3 -15   11.73    4.12   2 
   3   0  -3  378.93    8.01   2 
   3   0   5   97.40    7.98   2 
   3   1  -9   81.72    5.18   2 
   3   2  13   15.10    7.27   2 
   3   3 -15   46.79    6.05   2 
   4   0  -1   19.46    4.84   2 
   5   2  11   12.27    7.69   2 
   6   2 -10   22.48    6.06   2 
   7   2  -8    7.00    5.73   2 
   8   2  -3   24.45    6.97   2 
  -2   3  14    1.89    5.49   2 
  -1   2 -10   48.89    5.03   2 
   4   2 -12  122.00    4.82   2 
   5   1  -7    6.90    4.88   2 
   5   2 -11   11.60    5.34   2 
   5   3 -14    6.53    4.30   2 
   6   1  -5  260.28    7.81   2 
   8   2  -2   -6.47    6.43   2 
   8   2  -1   -0.48    7.71   2 
  -6   4  -2   21.38    8.74   2 
  -5   3  -3  144.46   13.41   2 
  -4   3  11    1.66    5.35   2 
  -4   5 -12    0.50    7.65   2 
  -3   2  10    8.21    4.83   2 
  -3   4 -12    2.32    5.74   2 
  -1   2  13   67.68    5.86   2 
   2   1  11   95.87    5.84   2 
   2   2 -12   12.70    4.96   2 
   3   2 -12    7.14    4.71   2 
   4   1  -8   50.32    5.02   2 
   5   1   8    9.22    7.53   2 
  -5   4  11   -1.55    6.08   2 
  -2   1   8  462.34    6.78   2 
   0   1  11    4.48    4.46   2 
   1   0   6    4.07    4.41   2 
   1   2  14   65.17    5.01   2 
   1   3 -14   91.78    5.89   2 
   1   4 -16    7.01    5.97   2 
   2   2  14   -2.66    5.18   2 
   6   1  -4   34.35    5.50   2 
   7   2  -7    6.11    5.79   2 
  -2   3 -11   11.99    5.05   2 
   0   1  -7    2.75    4.56   2 
   1   0  -2  625.40   11.96   2 
   2   3 -14   51.69    5.66   2 
   2   4 -16    5.85    5.99   2 
   3   0  -2  599.84   10.40   2 
   3   1  -8    4.57    4.55   2 
   3   3 -14   59.45    5.95   2 
   4   1  10  119.49    8.40   2 
   4   2 -11  247.27    6.53   2 
   5   3 -13   39.76    6.37   2 
   6   2  -9    7.04    5.69   2 
   6   3 -12    5.12    6.19   2 
  -4   3  12    4.76    5.61   2 
  -3   2  11   26.27    3.75   2 
  -2   1   9   39.58    4.76   2 
  -2   3  15    3.51    4.14   2 
  -1   2  14   52.05    5.68   2 
   0   3 -13   17.18    5.35   2 
   0   4 -15   25.69    5.89   2 
   1   2 -11   78.66    5.17   2 
   2   1  -8  166.04    5.87   2 
   3   2  14    3.93    7.20   2 
   4   2  13    2.64    6.08   2 
   5   1  -6   -1.98    4.93   2 
   5   2 -10  159.95    6.47   2 
   6   1  -3   19.76    6.50   2 
   7   2  -6    4.35    5.80   2 
  -1   4 -14    7.72    5.49   2 
   1   0   7   28.14    4.62   2 
   2   1  12    9.49    5.17   2 
   3   0   6   37.94    6.46   2 
   3   2 -11    2.13    4.83   2 
   4   1  -7   30.05    5.09   2 
  -6   4   9    4.73    6.09   2 
  -3   2  12   79.15    5.57   2 
  -1   2  -9   80.46    6.07   2 
   0   1  12   13.43    3.40   2 
   1   2  15    5.54    6.01   2 
   2   2 -11   30.12    3.93   2 
   2   2  15   -4.74    7.09   2 
   4   4 -15   29.22    6.12   2 
   6   1  -2  402.72    9.90   2 
   6   2  -8   34.63    5.98   2 
   6   3 -11    9.26    6.20   2 
  -4   3  13    3.06    5.72   2 
  -2   1  10   40.94    4.85   2 
   1   3 -13  104.11    5.84   2 
   1   4 -15    1.02    3.99   2 
   3   0  -1  483.30   10.24   2 
   3   3 -13   21.96    5.39   2 
   3   4 -15   23.80    5.94   2 
   4   2 -10    4.09    4.98   2 
   5   1  -5  222.22    6.74   2 
   5   3 -12   17.41    5.71   2 
   7   2  -5   -2.81    5.29   2 
   7   3  -9   13.35    5.98   2 
  -6   4  -3   19.74   10.97   2 
  -1   2  15   15.31    5.69   2 
   1   0   8   28.67    4.62   2 
   2   3 -13    4.99    5.00   2 
   2   4 -15   21.61    4.31   2 
   3   1  -7    8.08    4.65   2 
   3   1  12   62.65    6.13   2 
   5   1   9   51.83    8.54   2 
   6   1  -1  750.09   12.55   2 
  -4   3  14   16.08    6.05   2 
  -3   2  13    4.36    5.21   2 
  -2   1  11    0.88    4.73   2 
  -2   5 -14   27.30    6.19   2 
  -1   5 -15   17.69    6.50   2 
   0   1  13   19.36    5.44   2 
   0   3 -12    9.17    4.90   2 
   0   4 -14    9.86    5.34   2 
   2   1  -7   57.90    5.02   2 
   2   1  13   24.13    5.14   2 
   4   1  -6   24.35    4.83   2 
   4   1  11   83.73    7.90   2 
   6   2  -7   13.93    5.30   2 
   7   2  -4    7.05    5.95   2 
  -4   5 -11   10.24    7.61   2 
  -2   1  -3   12.12    8.11   2 
  -2   3 -10  161.20    6.87   2 
  -1   0   4  108.32    6.62   2 
   0   1  -6   34.16    5.37   2 
   1   2 -10   68.27    3.97   2 
   2   2 -10   88.86    5.22   2 
   3   0   7   10.47    5.69   2 
   3   2 -10   12.30    4.92   2 
   4   3 -12  122.37    6.31   2 
   4   4 -14   10.21    5.88   2 
   5   1  -4  216.47    6.61   2 
   6   1   0  163.04    9.41   2 
   6   3 -10    7.39    5.96   2 
   7   3  -8   15.01    6.42   2 
  -6   3   3    8.40    6.33   2 
  -6   3   4    0.24    5.35   2 
  -6   3   5    6.21    5.45   2 
  -6   3   6    4.60    5.33   2 
  -5   2   4   29.89    6.26   2 
  -5   2   5   45.62    5.23   2 
  -1   0   3  668.13   11.84   2 
  -1   0   5    6.40    3.79   2 
  -1   0   6  236.72    6.62   2 
  -1   2  16    5.58    5.85   2 
  -1   4 -13   12.35    5.42   2 
   1   0  -1  384.43   11.93   2 
   1   0   9  248.55    6.56   2 
   5   2  -8  343.96    7.59   2 
   5   3 -11   15.71    5.95   2 
   5   4 -13   15.14    6.18   2 
  -6   3   2   48.87    7.56   2 
  -6   3   7    5.34    5.42   2 
  -5   2   3  222.22    8.17   2 
  -5   2   6    7.03    4.79   2 
  -5   2   7   18.24    5.09   2 
  -3   2  14    3.09    5.45   2 
  -2   1  12  127.69    5.64   2 
   0   1  14   15.02    5.19   2 
   0   5 -15   62.99    6.64   2 
   1   3 -12    2.70    4.99   2 
   1   4 -14   76.06    6.17   2 
   2   4 -14    4.30    5.32   2 
   3   0   0  123.13    8.23   2 
   3   1  13   47.06    7.30   2 
   3   3 -12   27.40    5.39   2 
   4   2  -9    6.87    3.50   2 
   6   1   1   76.96    8.66   2 
   6   2  -6   58.35    5.72   2 
   7   2  -3    5.63    5.68   2 
  -7   4   5    3.11    7.94   2 
  -6   3   8   12.22    5.81   2 
  -5   2   8   19.37    5.66   2 
  -1   0   7  152.19    4.89   2 
   2   1  14   18.20    5.66   2 
   2   3 -12  161.64    6.20   2 
   3   0   8    0.66    5.96   2 
   3   1  -6  185.16    5.43   2 
   4   1  -5   23.00    4.58   2 
   6   1   4  215.88   17.10   2 
   6   3  -9    1.04    5.90   2 
   7   3  -7    3.44    6.41   2 
  -7   4   3    1.73    8.16   2 
  -7   4   4    1.26    6.63   2 
  -7   4   6   12.01    6.35   2 
  -6   3   9   14.35    6.06   2 
  -5   2   2  144.72    8.16   2 
  -3   2  15   -5.22    5.70   2 
  -2   1  13  193.98    6.41   2 
  -1   0   8  265.41    6.59   2 
  -1   2  -8   91.06    5.28   2 
   1   0  10   81.18    5.27   2 
   1   5 -15    3.62    5.64   2 
   3   2  -9  172.51    5.81   2 
   4   1  12   10.72    7.23   2 
   4   3 -11  261.47    6.88   2 
   4   4 -13   18.67    5.72   2 
   5   1  -3   56.05    5.20   2 
   6   1   2    2.50    7.53   2 
   6   4 -11    7.32    6.22   2 
   7   2  -2   25.05    6.37   2 
  -6   3   1   33.83    7.55   2 
  -6   3  10   20.40    6.25   2 
  -5   2   9   27.98    4.16   2 
  -3   2  -5   47.75    7.31   2 
  -1   0   2  881.77   15.17   2 
  -1   5 -14   50.13    6.37   2 
   0   3 -11    6.73    4.73   2 
   0   4 -13   39.08    5.54   2 
   1   2  -9   79.45    5.17   2 
   2   1  -6   16.58    3.55   2 
   5   1  10    4.44    7.26   2 
   5   2  -7  172.28    6.29   2 
   5   3 -10    5.60    5.60   2 
   5   4 -12    9.41    5.97   2 
   6   1   3  139.16   11.50   2 
  -7   4   2   10.89    8.49   2 
  -5   2  10    2.89    5.38   2 
  -4   3  -6   -2.09    7.77   2 
  -2   5 -13   -1.92    5.73   2 
  -1   0   9  266.03    5.64   2 
   0   1  15    9.98    3.96   2 
   2   2  -9    9.07    4.57   2 
   3   4 -13   55.88    5.90   2 
   4   2  -8  143.73    5.83   2 
   6   2  -5   27.27    5.97   2 
   7   2  -1   18.71    7.58   2 
   7   3  -6   -3.28    5.88   2 
  -6   3  11    6.97    6.08   2 
  -5   2   1   -0.27    6.34   2 
  -5   2  11    9.87    5.39   2 
  -4   1   5  420.79    7.92   2 
  -4   1   6  187.97    6.25   2 
  -4   1   7   58.56    4.97   2 
  -4   1   8    3.18    4.43   2 
  -2   1  14   13.43    5.15   2 
  -1   0  10   15.28    4.35   2 
  -1   4 -12   -0.05    5.06   2 
   1   0  11    5.74    4.75   2 
   1   4 -13  244.73    6.89   2 
   2   1  15   42.78    6.09   2 
   2   4 -13    1.29    5.17   2 
   3   0   9   25.44    6.49   2 
   3   1  14    9.28    5.82   2 
   3   3 -11   45.99    5.25   2 
   6   3  -8   -0.56    5.81   2 
  -4   1   4  319.78    7.62   2 
  -4   1   9   15.89    4.86   2 
  -2   3  -9  115.31    6.85   2 
   0   1  -5  131.41    6.56   2 
   0   5 -14   17.71    6.00   2 
   1   3 -11    1.89    4.93   2 
   2   3 -11   18.07    5.14   2 
   3   1  -5   14.05    4.76   2 
   4   1  -4   18.80    4.35   2 
   4   1  13   -0.44    7.38   2 
   5   1  -2   28.63    5.26   2 
   6   4 -10    2.17    6.23   2 
  -7   4   1    8.29    8.13   2 
  -5   2  12    6.45    5.74   2 
  -4   1  10   35.50    5.15   2 
  -4   5 -10   15.27    7.25   2 
  -2   1  15   10.92    5.47   2 
  -1   0  11   -0.26    4.48   2 
   0   1  16   18.36    5.84   2 
   1   0  12    7.66    4.85   2 
   3   5 -14    9.35    5.90   2 
   4   4 -12    1.46    5.36   2 
   5   3  -9   -5.30    4.97   2 
   5   4 -11   15.69    6.09   2 
   6   2  -4   51.03    5.87   2 
   7   2   0   96.96    8.66   2 
   7   3  -5    1.18    6.03   2 
  -6   3   0   19.17    7.30   2 
  -4   1   3   68.51    5.59   2 
   1   5 -14   -0.76    5.50   2 
   3   0   1    4.26    6.93   2 
   3   0  10    1.27    5.97   2 
   3   2  -8  353.71    5.92   2 
   5   1  11   -1.84    8.29   2 
   5   2  -6    0.25    4.93   2 
  -5   2  13   -1.52    3.93   2 
  -4   1  11   47.94    5.43   2 
  -1   0  12    2.64    4.79   2 
   2   1  -5  153.86    6.17   2 
   2   1  16   65.70    6.97   2 
   3   1  15    2.84    5.80   2 
   3   4 -12   37.98    5.47   2 
   4   2  -7  108.57    5.60   2 
   4   5 -13    8.36    5.85   2 
   6   3  -7    6.27    5.65   2 
   7   2   1   10.00    7.16   2 
  -5   2  14   -1.77    6.00   2 
  -4   1  12    9.44    5.29   2 
  -2   1  16    2.76    5.65   2 
  -1   6 -14    2.00    6.12   2 
   0   1  17    4.28    5.92   2 
   0   3 -10    6.27    4.72   2 
   1   0  13    8.31    4.98   2 
   1   2  -8   57.57    4.95   2 
   2   2  -8  105.22    4.50   2 
   3   3 -10   83.22    5.51   2 
   5   1  -1   -1.03    6.06   2 
   6   4  -9   10.59    5.89   2 
   7   3  -4    8.23    7.62   2 
  -5   2   0    4.07    7.05   2 
  -5   4  -6   21.68    9.82   2 
  -4   1   2   34.65    6.30   2 
  -2   5 -12   11.05    5.43   2 
  -1   0  13   66.19    5.34   2 
  -1   2  -7  282.33    7.32   2 
   1   4 -12   86.66    4.56   2 
   2   3 -10  216.46    6.33   2 
   2   4 -12   24.58    3.95   2 
   3   0  11   57.94    6.75   2 
   4   1  -3    3.42    4.43   2 
   4   3  -9   33.94    5.31   2 
   4   4 -11   20.97    5.51   2 
   5   3  -8   85.77    6.07   2 
   5   4 -10   29.65    5.88   2 
   6   2  -3   20.53    5.66   2 
   7   2   2   19.38    8.98   2 
  -7   3   6    5.67    7.45   2 
  -7   3   7   -1.18    6.27   2 
  -7   3   8    7.29    6.15   2 
  -7   4   0   11.81    8.17   2 
  -6   2   6  165.91    7.07   2 
  -6   2   7  144.38    7.04   2 
  -6   2   8  120.43    6.98   2 
  -6   2   9   15.53    5.52   2 
  -6   2  10   12.49    5.99   2 
  -4   1  13   10.61    5.35   2 
  -2   6 -13    5.55    5.85   2 
  -1   0   1  474.30   13.34   2 
  -1   4 -11    4.76    4.98   2 
   0   5 -13    1.77    5.46   2 
   1   3 -10  339.30    6.94   2 
   3   1  -4  252.31    6.92   2 
   3   5 -13   -0.88    4.02   2 
   5   2  -5  221.93    6.67   2 
   6   3  -6   31.91    6.90   2 
  -7   3   5   79.00    8.79   2 
  -6   2   5   60.54    5.91   2 
  -6   2  11   73.41    6.81   2 
  -4   1  14    8.29    5.56   2 
  -3   6 -12   58.14    7.23   2 
  -1   0  14   50.35    5.34   2 
   0   6 -14    3.68    6.03   2 
   1   0  14   27.72    5.61   2 
   1   5 -13   -1.94    5.14   2 
   3   2  -7  260.48    6.27   2 
   5   1  12   14.43    8.20   2 
   7   2   3    1.98    8.69   2 
   7   4  -6   23.62    6.92   2 
  -6   2  12   72.59    7.34   2 
  -5   1   8  104.91    5.95   2 
  -5   1   9  157.22    6.15   2 
  -3   0   7  552.30    8.64   2 
  -3   0   8  498.21    8.23   2 
  -3   0   9  152.86    5.94   2 
   3   0  12    2.07    5.13   2 
   3   4 -11    3.65    5.55   2 
   4   2  -6  235.06    6.57   2 
   4   5 -12   52.30    4.72   2 
   5   5 -11    2.01    5.88   2 
   6   4  -8    0.65    5.81   2 
   7   3  -3   15.68    5.94   2 
  -7   3   4  104.49    7.97   2 
  -6   2   4    0.92    5.48   2 
  -5   1   7   49.42    5.40   2 
  -5   1  10  123.00    6.25   2 
  -4   1  15    0.97    5.78   2 
  -3   0   6  362.80    7.55   2 
  -3   0  10   35.10    3.77   2 
  -3   0  11   40.02    5.31   2 
   1   0  15    8.25    5.70   2 
   3   3  -9  106.88    5.73   2 
   5   1   0  119.10    7.60   2 
   6   2  -2   33.27    5.63   2 
   7   2   4    1.34    8.75   2 
   7   2   6   79.74   16.33   2 
  -6   3  -1   54.07    9.52   2 
  -5   1   6   15.03    5.13   2 
  -5   1  11   27.90    4.08   2 
  -5   1  12   18.48    5.72   2 
  -3   0   5   17.40    4.80   2 
  -3   0  12  215.70    6.44   2 
  -2   3  -8   33.75    4.85   2 
  -1   0  15   22.30    4.05   2 
  -1   5 -12    3.67    5.14   2 
   2   2  -7  697.89    9.49   2 
   2   4 -11  110.12    5.73   2 
   3   5 -12   38.22    5.92   2 
   4   3  -8    1.31    5.04   2 
   4   4 -10   20.97    5.39   2 
   5   3  -7  161.96    5.32   2 
   5   4  -9  109.28    6.41   2 
   6   3  -5   20.84    6.61   2 
   7   2   5   32.18   11.70   2 
  -7   3   3   85.89    9.00   2 
  -5   1   5   59.86    5.44   2 
  -4   1   1  480.54   11.12   2 
  -1   6 -13   27.10    6.22   2 
   0   1  -4  168.92    7.50   2 
   0   3  -9   13.78    4.67   2 
   1   2  -7    0.59    4.43   2 
   1   4 -11   27.12    3.80   2 
   2   1  -4  540.08    9.34   2 
   2   3  -9  447.63    7.33   2 
   3   0  13   15.81    6.01   2 
   3   6 -13   79.46    6.88   2 
   4   1  -2   86.95    5.48   2 
   5   2  -4  309.73    7.43   2 
   7   3  -2   14.08    6.28   2 
   7   4  -5   58.67    6.93   2 
  -6   2   3   95.08    6.66   2 
  -5   1  13   32.84    4.67   2 
  -4   5  -9    9.24    7.06   2 
  -3   0  13   34.67    4.03   2 
  -2   5 -11   40.26    5.84   2 
  -1   0  16   22.16    5.86   2 
   0   5 -12   25.83    5.47   2 
   1   0  16    5.33    5.80   2 
   2   5 -12    4.24    5.29   2 
   4   5 -11   91.34    6.45   2 
   5   5 -10   18.19    6.07   2 
   6   4  -7   31.21    6.07   2 
  -5   1   4   79.28    6.66   2 
  -5   1  14   70.00    6.64   2 
  -3   0   4  180.53    6.55   2 
  -3   0  14   51.62    5.93   2 
  -2   6 -12   -0.37    5.66   2 
   0   6 -13   40.46    6.40   2 
   1   5 -12   92.18    5.91   2 
   1   6 -13    3.46    5.84   2 
   2   6 -13    8.85    5.81   2 
   3   1  -3  253.39    7.07   2 
   3   2  -6   78.60    5.16   2 
   3   4 -10   86.81    5.50   2 
   4   2  -5  182.03    5.94   2 
   6   2  -1   26.97    6.78   2 
  -7   4  -1   11.03   11.11   2 
  -1   0  17    6.29    5.94   2 
  -1   4 -10    4.58    4.77   2 
   3   0  14   14.92    6.10   2 
   4   0  11   16.25    8.22   2 
   5   3  -6   10.38    5.41   2 
   5   4  -8   45.32    6.11   2 
   7   3  -1    2.11    7.37   2 
   7   4  -4    0.03    6.64   2 
  -7   3   2    5.05    8.51   2 
  -4   0   8    2.51    4.71   2 
  -4   0   9   -1.25    3.51   2 
  -4   0  10   -0.10    3.65   2 
  -4   0  11   54.77    6.20   2 
  -4   0  12  130.59    6.29   2 
  -3   0  15   -2.81    4.15   2 
  -3   6 -11    3.11    6.16   2 
  -1   2  -6  579.63    9.52   2 
   1   0  17   -2.40    5.95   2 
   3   3  -8   66.11    3.95   2 
   3   5 -11   30.08    5.50   2 
   4   4  -9   25.01    5.53   2 
   5   1   1   90.31    7.82   2 
   6   3  -4    4.10    5.41   2 
   6   5  -8    0.19    4.37   2 
  -7   2   8   49.57    6.63   2 
  -7   2   9   27.28    6.99   2 
  -6   2   2  263.01    9.61   2 
  -4   0   7   15.52    4.73   2 
  -4   0  13    0.94    5.39   2 
  -3   0  16    6.28    5.72   2 
   0  -1   8   12.61    4.44   2 
   0  -1   9   80.01    4.93   2 
   0  -1  10   86.91    5.68   2 
   1   0   0  103.00   10.41   2 
   2   4 -10   44.86    5.12   2 
   3   6 -12   16.93    5.97   2 
   4   3  -7   77.29    4.15   2 
   5   2  -3  356.65    7.50   2 
   6   4  -6   64.36    6.27   2 
  -7   2   7   28.46    7.89   2 
  -5   1   3   95.15    6.81   2 
  -4   0  14   -3.16    5.37   2 
  -1   6 -12   30.15    6.04   2 
   0  -1  11   45.26    3.84   2 
   0  -1  12   35.02    5.11   2 
   1   4 -10    4.90    4.80   2 
   3   0  15    6.74    6.27   2 
   4   0  12   11.90    7.39   2 
   4   5 -10   63.71    5.94   2 
   4   6 -11   89.25    6.78   2 
   5   5  -9   17.16    4.32   2 
   6   2   0   51.67    7.44   2 
  -6   1  13   -0.69    6.07   2 
  -5   2  -1   81.50    9.46   2 
  -4   0   6   20.01    5.04   2 
  -4   0  15   26.90    5.76   2 
  -3   0   3  421.74    8.39   2 
  -3   0  17   -1.97    6.07   2 
   0  -1   7    0.46    4.67   2 
   2   3  -8   16.25    4.45   2 
   2   6 -12   12.69    5.65   2 
   4   1  -1  316.01    7.87   2 
   6   5  -7   17.98    6.03   2 
   7   3   0    6.94    6.15   2 
   7   4  -3   23.48    6.55   2 
   0  -1  13   -1.76    3.71   2 
   0   3  -8    7.87    4.54   2 
   0   5 -11   77.38    4.33   2 
   0   6 -12    4.78    5.43   2 
   1   2  -6   33.77    4.50   2 
   1   5 -11    4.70    4.73   2 
   3   0   2   23.15    8.75   2 
   4   2  -4    9.77    4.34   2 
   5   3  -5   18.39    5.11   2 
   5   4  -7   18.73    5.40   2 
   6   3  -3   -1.32    5.26   2 
  -4   0   5   22.02    4.48   2 
  -4   0  16   21.04    6.39   2 
  -2  -1   9  428.28    7.29   2 
  -2  -1  11   89.14    5.61   2 
  -2  -1  12   -4.55    4.89   2 
  -2   5 -10  108.03    6.01   2 
   0  -1   6   31.18    5.28   2 
   0  -1  14    4.61    5.27   2 
   2   1  -3  769.45   10.82   2 
   3   2  -5   79.85    5.07   2 
   4   0  13   20.98    7.48   2 
   4   4  -8  167.13    5.99   2 
   6   4  -5   24.24    5.56   2 
  -7   2   5   -5.49    7.62   2 
  -5   6  -8    7.03    8.89   2 
  -4   3  -5    8.86    6.81   2 
  -2  -1   8  152.61    5.75   2 
  -2  -1  13   53.78    5.24   2 
  -2   3  -7  319.67    7.60   2 
  -2   6 -11    5.65    5.53   2 
   0  -1  15    8.04    5.35   2 
   2  -1   9   13.65    5.58   2 
   2  -1  10   78.15    5.68   2 
   2  -1  11  142.91    7.26   2 
   3   1  -2    6.70    4.96   2 
   3   3  -7   38.86    3.45   2 
   3   5 -10   26.99    3.86   2 
   3   6 -11   15.13    5.72   2 
   4   3  -6  158.66    5.85   2 
   5   2  -2  311.28    7.10   2 
   5   5  -8   72.04    6.17   2 
   7   3   1   20.36    8.09   2 
   7   4  -2    2.05    6.34   2 
  -7   3   1   23.74    8.95   2 
  -3   2  -4    2.19    6.53   2 
  -2  -1  14   53.90    5.70   2 
  -1   4  -9   57.80    5.13   2 
   2  -1   8   60.03    6.29   2 
   2  -1  12  107.66    7.10   2 
   2   4  -9   75.98    5.50   2 
   4   0  14   41.85    8.64   2 
   4   5  -9    0.76    3.75   2 
   4   6 -10   74.65    6.40   2 
   5   1   2   66.81    7.81   2 
   6   2   1   77.75    7.48   2 
   6   5  -6   39.01    6.52   2 
  -6   2   1   64.44    7.31   2 
  -5   1   2   55.04    6.53   2 
  -4   1   0  905.67   15.10   2 
  -4   5  -8    2.68    6.38   2 
  -3  -1  11   65.53    5.27   2 
  -3  -1  12   58.58    5.42   2 
  -3   6 -10    8.54    5.77   2 
  -2  -1   7   56.38    5.09   2 
  -2  -1  15   94.83    6.22   2 
   0  -1  16   25.09    5.82   2 
   1   7 -12   17.90    6.19   2 
   2  -1  13   36.25    6.46   2 
   2   5 -10   -0.76    5.07   2 
   2   6 -11   40.86    5.76   2 
   5   4  -6   17.57    5.34   2 
   6   3  -2  113.10    7.44   2 
  -4   0   4  121.99    6.01   2 
  -3  -1   9   71.52    5.17   2 
  -3  -1  10   15.82    5.00   2 
  -3  -1  13   15.68    5.23   2 
  -3  -1  14    2.54    5.23   2 
  -2  -1  16   40.96    6.07   2 
  -1   5 -10   71.49    5.93   2 
  -1   6 -11   11.26    5.35   2 
   0  -1   5  170.23    6.98   2 
   1   4  -9  282.86    5.51   2 
   3   4  -8    5.42    4.86   2 
   5   3  -4    8.89    5.00   2 
   6   4  -4   15.55    5.62   2 
   7   3   2   68.83    9.20   2 
  -3  -1  15    9.00    5.20   2 
  -3   0   2  591.31   10.71   2 
  -2  -1  17   15.22    5.96   2 
  -1  -1  17   26.31    4.78   2 
   0  -1  17   12.45    6.16   2 
   0   5 -10  179.80    6.32   2 
   0   6 -11    1.37    5.43   2 
   1   5 -10   43.15    5.27   2 
   2  -1   7  421.55    9.45   2 
   2  -1  14    2.91    5.45   2 
   2   3  -7   82.83    4.03   2 
   4   4  -7   10.80    5.17   2 
   5   5  -7  120.98    6.44   2 
   7   4  -1    5.62    6.24   2 
  -7   1  10   -2.26    6.30   2 
  -6   5  -5   14.27   10.10   2 
  -3  -1   8    4.76    4.65   2 
  -3  -1  16    2.89    5.64   2 
  -2  -1   6   17.99    3.55   2 
  -2   7 -11   15.92    6.26   2 
   2  -1  15   11.10    6.90   2 
   3   5  -9   99.42    6.04   2 
   3   6 -10   66.40    6.21   2 
   4   1   0  663.74   11.40   2 
   4   2  -3   46.30    4.84   2 
   4   6  -9   21.70    5.81   2 
   5   6  -8   -2.84    5.84   2 
   6   5  -5   32.08    6.14   2 
  -7   1   9    1.02    6.00   2 
  -3  -1  17   -0.20    5.86   2 
   0   1  -3  248.40    8.27   2 
   2   7 -11   30.63    6.38   2 
   3   2  -4  100.92    5.21   2 
   3   3  -6   98.17    5.26   2 
   4   3  -5  190.16    5.95   2 
   4   5  -8   37.51    4.36   2 
   5   2  -1   14.35    4.63   2 
   6   2   2   55.31    7.64   2 
  -7   1   8   15.27    6.09   2 
  -6   0  11   13.49    5.78   2 
  -6   0  12    6.21    5.88   2 
  -6   0  13   -3.54    6.12   2 
  -3  -1   7    2.19    4.88   2 
  -1   2  -5  180.26    6.89   2 
  -1   7 -11    4.52    5.82   2 
   0   3  -7   94.95    5.37   2 
   2  -1  16   15.24    5.88   2 
   2   4  -8   26.09    4.61   2 
   5   4  -5   94.14    6.18   2 
   6   3  -1  389.08    8.60   2 
   6   4  -3    8.99    5.37   2 
   7   3   3   30.93    8.35   2 
   7   4   0    1.18    8.33   2 
  -6   0  10    3.55    5.53   2 
  -2  -1   5  130.89    5.94   2 
  -2   5  -9  164.56    6.50   2 
   1   2  -5    2.96    4.36   2 
   1   7 -11   -2.82    5.34   2 
   2  -1   6  479.08   10.86   2 
   2   6 -10   33.59    5.49   2 
   3   7 -10   -1.22    5.90   2 
   5   3  -3    2.37    5.70   2 
  -7   1   7   32.23    7.72   2 
  -6   0   9   39.77    5.92   2 
  -5   4  -5   46.70    8.20   2 
  -4   0   3   62.02    5.22   2 
   3   4  -7   -0.63    4.82   2 
   4   4  -6    5.15    5.09   2 
   5   1   3  142.28    9.13   2 
   5   5  -6   19.56    5.54   2 
   5   6  -7    4.14    6.08   2 
  -3  -1   6  231.98    6.66   2 
  -3   6  -9   11.89    6.68   2 
  -1   4  -8  185.37    5.89   2 
   0  -1   4  207.44    7.68   2 
   0   6 -10   45.94    5.51   2 
   1   4  -8  513.13    6.85   2 
   1   5  -9   96.65    5.37   2 
   1   6 -10   19.41    3.84   2 
   3   5  -8    5.85    4.84   2 
   3   6  -9  171.31    6.67   2 
   4   6  -8   13.09    5.51   2 
   6   5  -4    3.88    5.98   2 
   7   3   4    5.89    8.13   2 
  -6   0   8  132.81    6.84   2 
  -4  -1   8   35.82    3.68   2 
   0   4  -8    6.68    3.22   2 
   0   5  -9  125.17    5.67   2 
   2   1  -2  155.60    6.54   2 
   2   3  -6  444.25    7.24   2 
   2   7 -10   12.29    5.65   2 
   3   1  -1   85.96    5.46   2 
   4   5  -7  153.73    5.11   2 
  -7   1   6   25.88    5.94   2 
  -5  -1  11  109.85    6.15   2 
  -5  -1  12   14.17    5.68   2 
  -5  -1  13   -2.11    3.88   2 
  -5  -1  14    3.86    4.00   2 
  -5  -1  15   37.55    6.38   2 
  -5   1   1   17.22    6.07   2 
  -5   6  -7   17.54    7.44   2 
  -2   3  -6   67.18    6.16   2 
  -1  -2  13   72.46    5.45   2 
   4   2  -2  215.21    6.10   2 
   4   3  -4   90.44    5.23   2 
   5   2   0   51.25    6.54   2 
   5   4  -4  261.56    6.89   2 
   6   2   3   11.69    7.00   2 
   6   3   0   34.52    5.60   2 
   6   4  -2   13.75    5.12   2 
  -7   3   0  109.45   11.47   2 
  -6   0   7   72.07    5.92   2 
  -2  -2  14    4.56    5.33   2 
  -1  -2  11   75.17    5.11   2 
  -1  -2  12   62.32    5.39   2 
  -1  -2  14    7.41    5.24   2 
  -1  -2  15    7.87    5.49   2 
   1   7 -10    1.64    5.48   2 
   2   6  -9   11.22    5.00   2 
   3   3  -5    0.06    4.51   2 
   3   7  -9   13.38    5.82   2 
   5   6  -6   10.35    5.90   2 
  -5  -1  10  143.53    5.33   2 
  -4   5  -7   -1.80    5.00   2 
  -3  -1   5   13.93    4.61   2 
  -2  -2  11   31.42    5.08   2 
  -2  -2  12    8.59    4.95   2 
  -2  -2  15    4.87    5.41   2 
  -2  -2  16    4.18    5.63   2 
  -2  -1   4  492.46    8.82   2 
  -1  -2  10   81.64    5.25   2 
  -1  -2  16   38.35    5.82   2 
  -1   7 -10   29.66    5.65   2 
   2   4  -7   44.39    4.45   2 
   3   2  -3 1070.39   10.47   2 
   5   3  -2  105.02    5.61   2 
   5   5  -5    3.84    3.78   2 
   6   5  -3    0.98    5.81   2 
  -7   0  11   -0.27    6.42   2 
  -6   2   0   36.65    8.05   2 
  -5  -1   9   68.24    5.65   2 
  -3   7  -9   15.04    7.30   2 
  -2  -2  17    7.13    5.99   2 
  -2   6  -9    1.74    5.10   2 
  -1  -2  17   32.77    6.21   2 
   1   3  -6   50.01    4.63   2 
   3   6  -8  162.85    6.42   2 
   4   1   1  365.60    8.98   2 
   4   4  -5   23.40    4.94   2 
   4   6  -7   33.82    5.63   2 
   5   0  11   28.42   10.12   2 
   5   0  12   54.52   10.48   2 
  -8   2   5    3.37    6.64   2 
  -7   0  10    7.40    5.81   2 
  -7   1   5   10.71    5.67   2 
  -6   0   6   57.02    5.48   2 
  -4  -1   6   19.47    5.05   2 
  -3  -2  13   12.53    3.71   2 
  -3   0   1  458.28   10.16   2 
  -2   5  -8  123.23    6.70   2 
  -1  -2   9   92.51    5.29   2 
  -1   0   0   96.70    9.92   2 
   1  -2  12   52.59    5.21   2 
   1  -2  13   50.59    5.63   2 
   1  -2  14   10.47    5.19   2 
   1  -2  15   -0.28    5.16   2 
   2   7  -9    7.71    5.90   2 
   3   4  -6    3.75    3.32   2 
   3   5  -7    7.28    4.80   2 
   4   5  -6  117.80    6.22   2 
   5   0  10    1.01    9.89   2 
   6   4  -1   91.14    6.30   2 
  -5  -1   8   17.41    5.19   2 
  -2  -2   9    9.62    4.52   2 
   0   3  -6  136.74    5.42   2 
   0   6  -9   11.20    5.14   2 
   1  -2  11  128.28    5.87   2 
   1  -2  16   -5.44    5.33   2 
   1   4  -7  365.44    6.75   2 
   1   5  -8    1.76    4.62   2 
   2  -1   5  284.26    9.76   2 
   4   7  -7    9.95    5.89   2 
   5   4  -3  256.70    7.55   2 
   5   6  -5    4.21    5.69   2 
   6   2   4    1.52    7.73   2 
   6   3   1    2.54    5.69   2 
  -7   0   9   24.30    6.18   2 
  -6  -1  12   10.64    6.10   2 
  -4  -2  14   41.74    5.92   2 
  -4  -2  15    4.31    5.75   2 
  -3  -2  10    5.27    5.07   2 
   1  -2  10   46.69    4.98   2 
   1  -2  17    5.52    5.76   2 
   3   7  -8   24.04    4.28   2 
   4   3  -3   10.52    4.42   2 
   5   5  -4  206.40    6.85   2 
   6   5  -2    1.43    5.75   2 
  -6  -1  11   48.33    6.51   2 
  -4  -2  12  134.29    6.08   2 
  -4  -2  13    4.10    5.27   2 
  -4  -2  16    8.83    4.31   2 
  -3   6  -8   51.90    5.90   2 
  -1  -2   8   46.13    5.13   2 
  -1   4  -7  332.86    6.83   2 
  -1   5  -8    1.28    4.41   2 
   0   4  -7   84.95    5.27   2 
   1   2  -4  116.21    5.64   2 
   1   7  -9   12.33    3.94   2 
   2   3  -5  335.71    6.66   2 
   2   6  -8    6.07    5.02   2 
   5   1   4    7.17    7.57   2 
   5   2   1    7.04    5.67   2 
  -7   0   8   18.00    6.11   2 
  -6   0   5    8.29    6.06   2 
  -5  -1   7    5.47    4.75   2 
  -3  -2   9  199.55    5.84   2 
  -3  -1   4  252.05    6.70   2 
  -2  -2   8  137.98    5.83   2 
  -1   7  -9   69.13    6.07   2 
   1  -2   9   77.60    5.93   2 
   2   5  -7   40.16    4.86   2 
   3   3  -4   10.59    4.61   2 
   3   6  -7   17.26    5.14   2 
   4   2  -1   71.83    5.05   2 
   4   6  -6   77.87    4.40   2 
   5   3  -1  210.44    6.29   2 
  -8   2   4    4.29    7.74   2 
  -7   1   4    0.27    6.93   2 
  -5   0   3    2.25    4.35   2 
  -4  -2  11  184.13    5.30   2 
  -4  -1   5   27.65    4.49   2 
   0  -1   3  227.63    8.06   2 
   2   4  -6    5.03    4.23   2 
   2   7  -8    1.04    5.35   2 
   4   4  -4    2.12    4.63   2 
   4   5  -5  111.35    5.65   2 
   6   3   2    8.47    6.88   2 
   6   4   0   89.32    6.54   2 
  -4  -2  10    4.17    5.07   2 
  -1  -2   7    2.06    4.47   2 
   3   5  -6    0.32    4.49   2 
   3   7  -7   84.65    6.19   2 
   4  -1  12    6.54    6.96   2 
   4  -1  13   -0.04    7.41   2 
   4  -1  14    1.41    7.35   2 
   4   7  -6    5.91    5.77   2 
   5   6  -4   -3.65    5.69   2 
   6   5  -1    8.89    5.81   2 
  -2  -1   3  742.32   10.66   2 
  -2   6  -8   12.05    4.94   2 
   0   6  -8   45.63    5.19   2 
   3   1   0  299.04    8.43   2 
   3   2  -2 1270.46   11.47   2 
   4  -1  11   11.20    7.60   2 
   5   4  -2   84.58    5.58   2 
   5   5  -3  112.04    6.57   2 
   6   2   5   18.25    8.42   2 
  -5  -1   6   -1.30    4.99   2 
  -5   6  -6   23.72    7.41   2 
  -4  -2   9   12.52    4.85   2 
  -1   2  -4    2.60    4.22   2 
   1  -2   8   95.82    5.37   2 
   1   3  -5   62.99    4.75   2 
   1   5  -7   11.92    4.74   2 
   1   7  -8   18.13    5.40   2 
   2   6  -7    6.43    4.85   2 
   4   6  -5  120.92    6.10   2 
  -8   1   6    2.89    7.66   2 
   1   4  -6  128.16    5.34   2 
   2   1  -1   10.35    4.29   2 
   3   6  -6    3.79    4.96   2 
   4   3  -2   40.22    4.74   2 
   6   4   1   52.23    6.36   2 
  -7  -1  11    5.60    6.15   2 
  -6   0   4   40.19    5.44   2 
  -4   7  -7    1.04    7.44   2 
  -3  -2   7  251.54    6.31   2 
  -2  -3  14   40.88    5.79   2 
  -2   5  -7    2.77    4.48   2 
  -1  -3  14   87.42    5.70   2 
  -1  -3  15   91.30    6.46   2 
  -1  -3  16    8.23    5.71   2 
  -1  -3  17    3.46    6.07   2 
   0   5  -7    1.81    4.30   2 
   2   7  -7   11.52    5.42   2 
   4   5  -4   61.99    5.45   2 
   4   7  -5   -3.83    5.63   2 
   5   3   0   -2.61    4.69   2 
   5   6  -3   41.56    6.12   2 
   6   3   3  121.19    8.58   2 
   6   5   0   -2.52    5.45   2 
  -4  -2   8  124.54    5.78   2 
  -4  -1   4   13.11    4.42   2 
  -3  -3  15   36.87    6.07   2 
  -3  -3  16   20.39    6.04   2 
  -2   3  -5    0.67    4.14   2 
  -1  -3  13  103.31    5.80   2 
  -1  -2   6   39.42    4.87   2 
  -1   5  -7   27.67    4.70   2 
  -1   7  -8   41.35    5.69   2 
   0   3  -5  100.20    5.09   2 
   0   8  -8    8.07    5.70   2 
   3   5  -5   21.14    4.66   2 
   3   7  -6    2.33    5.44   2 
   4   4  -3   27.97    4.81   2 
   5   2   2   86.90    6.23   2 
  -3  -3  14   32.50    4.32   2 
  -1   8  -8   52.06    5.03   2 
   2   3  -4  313.25    5.72   2 
   5   5  -2   75.19    4.80   2 
   0  -7  -2    3.59    8.74  -1 
  -7   0   6    3.59    8.74   2 
   0  -5   1   16.62    6.20  -1 
  -5   0   2   16.62    6.20   2 
   4  -6   6  199.86    9.02  -1 
  -6   4  -5  199.86    9.02   2 
   3  -3   6   -2.16    6.34  -1 
  -3   3  -6   -2.16    6.34   2 
  -2   0 -14  104.79    9.98  -1 
   0  -2  15  104.79    9.98   2 
   0   2  -3   94.12    6.68  -1 
   2   0   2   94.12    6.68   2 
   1  -8  -1    5.30    8.62  -1 
  -8   1   5    5.30    8.62   2 
   2  -7   3    8.16    7.63  -1 
  -7   2   0    8.16    7.63   2 
   3  -8   3  121.01   10.22  -1 
  -8   3   0  121.01   10.22   2 
   5  -5   7  141.58    7.52  -1 
  -5   5  -7  141.58    7.52   2 
  -2   0  -9  419.59   10.60  -1 
   0  -2  10  419.59   10.60   2 
  -1   3 -14    2.52    6.49  -1 
   3  -1  13    2.52    6.49   2 
  -1   3 -13    7.41    7.45  -1 
   3  -1  12    7.41    7.45   2 
   1  -6   2  179.43    8.29  -1 
  -6   1   1  179.43    8.29   2 
   5  -3   7  917.67   12.36  -1 
  -3   5  -8  917.67   12.36   2 
   0  -4   1   32.22    6.03  -1 
  -4   0   1   32.22    6.03   2 
  -1   3 -15    4.56    8.27  -1 
   3  -1  14    4.56    8.27   2 
  -1   3 -12    5.37    6.75  -1 
   3  -1  11    5.37    6.75   2 
  -1   3 -11   60.45    7.36  -1 
   3  -1  10   60.45    7.36   2 
  -2   0 -16   69.39   10.49  -1 
   0  -2  17   69.39   10.49   2 
  -1   3 -16    6.24    8.18  -1 
   3  -1  15    6.24    8.18   2 
  -1   3 -10   32.75    6.58  -1 
   3  -1   9   32.75    6.58   2 
   0  -7  -3    4.11    7.14  -1 
  -7   0   7    4.11    7.14   2 
   3  -1   5  163.41    7.38  -1 
  -1   3  -6  163.41    7.38   2 
   6  -4   7   26.36    8.42  -1 
  -4   6  -8   26.36    8.42   2 
   3  -5   5  208.45    7.51  -1 
  -5   3  -4  208.45    7.51   2 
  -2   0  -8  167.86    9.01  -1 
   0  -2   9  167.86    9.01   2 
  -1   3 -17   12.67    7.93  -1 
   3  -1  16   12.67    7.93   2 
   0  -5   0    6.17    6.90  -1 
  -5   0   3    6.17    6.90   2 
   3   6  -7   40.73    8.58  -1 
   6   3   2   40.73    8.58   2 
   4  -2   6  263.24    8.25  -1 
  -2   4  -7  263.24    8.25   2 
   5  -1   6   27.78    8.77  -1 
  -1   5  -8   27.78    8.77   2 
   3  -7   3  249.00    9.38  -1 
  -7   3  -1  249.00    9.38   2 
   4  -6   5  130.83    7.82  -1 
  -6   4  -4  130.83    7.82   2 
   4  -4   6   18.09    6.86  -1 
  -4   4  -6   18.09    6.86   2 
  -1   1  -4  743.20   11.92  -1 
   1  -1   4  743.20   11.92   2 
  -1   3  -9  187.21    7.83  -1 
   3  -1   8  187.21    7.83   2 
   5  -5   6  343.14    9.42  -1 
  -5   5  -6  343.14    9.42   2 
   2  -4   4  417.84    7.94  -1 
  -4   2  -3  417.84    7.94   2 
   0   4  -7  259.21    7.77  -1 
   4   0   5  259.21    7.77   2 
   0   5 -13    3.82    7.67  -1 
   5   0  10    3.82    7.67   2 
   1  -6   1  393.05    8.99  -1 
  -6   1   2  393.05    8.99   2 
   1   6 -14   11.73    8.87  -1 
   6   1  10   11.73    8.87   2 
  -1   3  -8  919.31   11.53  -1 
   3  -1   7  919.31   11.53   2 
   0   5 -12   68.42    7.97  -1 
   5   0   9   68.42    7.97   2 
   3   6  -6   10.22    9.03  -1 
   6   3   1   10.22    9.03   2 
   4   5  -2  708.00   13.39  -1 
   5   4  -3  708.00   13.39   2 
   5  -7   4    9.26    8.20  -1 
  -7   5  -3    9.26    8.20   2 
   2  -2   4 1140.69   11.58  -1 
  -2   2  -4 1140.69   11.58   2 
   0   5 -11  305.18    9.24  -1 
   5   0   8  305.18    9.24   2 
   2  -7   1  120.45    8.27  -1 
  -7   2   2  120.45    8.27   2 
   3  -3   5  168.55    6.15  -1 
  -3   3  -5  168.55    6.15   2 
   3  -7   2  250.40    9.51  -1 
  -7   3   0  250.40    9.51   2 
   2  -6   2  202.11    7.95  -1 
  -6   2   0  202.11    7.95   2 
  -2   0  -7   16.37    7.17  -1 
   0  -2   8   16.37    7.17   2 
  -2   2 -14  187.94    9.00  -1 
   2  -2  14  187.94    9.00   2 
  -2   2 -13   49.14    6.52  -1 
   2  -2  13   49.14    6.52   2 
   0   5 -10  664.86   10.73  -1 
   5   0   7  664.86   10.73   2 
   5  -3   6  802.86   11.46  -1 
  -3   5  -7  802.86   11.46   2 
   6  -6   5  187.05    8.79  -1 
  -6   6  -5  187.05    8.79   2 
   6  -4   6    8.63    7.24  -1 
  -4   6  -7    8.63    7.24   2 
   6  -2   6   25.44    8.77  -1 
  -2   6  -8   25.44    8.77   2 
   4  -6   4   81.34    7.58  -1 
  -6   4  -3   81.34    7.58   2 
   3  -5   4  457.02    8.61  -1 
  -5   3  -3  457.02    8.61   2 
  -2   2 -12   63.83    6.99  -1 
   2  -2  12   63.83    6.99   2 
  -2   2 -15  425.03   11.71  -1 
   2  -2  15  425.03   11.71   2 
   0   2  -2  200.14    8.62  -1 
   2   0   1  200.14    8.62   2 
  -2   2 -16  152.73    9.88  -1 
   2  -2  16  152.73    9.88   2 
  -1   3  -7  535.62    9.56  -1 
   3  -1   6  535.62    9.56   2 
   0  -5  -1   83.10    6.90  -1 
  -5   0   4   83.10    6.90   2 
   0   4  -6  452.20    8.09  -1 
   4   0   4  452.20    8.09   2 
   1  -6   0   97.53    7.32  -1 
  -6   1   3   97.53    7.32   2 
   1   6 -10   57.21    7.86  -1 
   6   1   6   57.21    7.86   2 
   1  -5   1  106.94    7.07  -1 
  -5   1   1  106.94    7.07   2 
  -2   2 -11  434.24    9.22  -1 
   2  -2  11  434.24    9.22   2 
  -2   2 -17   17.74    9.91  -1 
   2  -2  17   17.74    9.91   2 
   0   5  -9  397.43    9.12  -1 
   5   0   6  397.43    9.12   2 
   2  -7   0  592.60   11.12  -1 
  -7   2   3  592.60   11.12   2 
   3   6  -5  160.57    9.82  -1 
   6   3   0  160.57    9.82   2 
   5  -5   5   95.88    7.13  -1 
  -5   5  -5   95.88    7.13   2 
   5  -7   3    6.88    8.42  -1 
  -7   5  -2    6.88    8.42   2 
   4  -4   5  203.92    6.60  -1 
  -4   4  -5  203.92    6.60   2 
  -2   2 -10 1385.38   12.90  -1 
   2  -2  10 1385.38   12.90   2 
   1   6  -9  346.28    9.27  -1 
   6   1   5  346.28    9.27   2 
   2   0   3    9.92    7.60  -1 
   0   2  -4    9.92    7.60   2 
   2  -4   3  299.41    7.49  -1 
  -4   2  -2  299.41    7.49   2 
   6  -6   4  160.91    8.28  -1 
  -6   6  -4  160.91    8.28   2 
  -2   2  -9 1598.40   13.05  -1 
   2  -2   9 1598.40   13.05   2 
  -1   3  -6  144.50    7.06  -1 
   3  -1   5  144.50    7.06   2 
   4  -2   5 1310.86   13.15  -1 
  -2   4  -6 1310.86   13.15   2 
   0  -5  -2   11.13    6.32  -1 
  -5   0   5   11.13    6.32   2 
   1  -6  -1  189.21    8.28  -1 
  -6   1   4  189.21    8.28   2 
   2  -7  -1  303.33    9.86  -1 
  -7   2   4  303.33    9.86   2 
   6  -4   5  221.83    9.63  -1 
  -4   6  -6  221.83    9.63   2 
   5  -7   2    5.16    8.39  -1 
  -7   5  -1    5.16    8.39   2 
   7  -2   5   61.21    9.68  -1 
  -2   7  -8   61.21    9.68   2 
   1  -1   2 1291.54   14.96  -1 
  -1   1  -2 1291.54   14.96   2 
  -2   0  -6   50.65    7.76  -1 
   0  -2   7   50.65    7.76   2 
  -1   1  -3 3885.53   25.96  -1 
   1  -1   3 3885.53   25.96   2 
   3  -3   4   27.87    5.03  -1 
  -3   3  -4   27.87    5.03   2 
   3   6  -4  590.81   11.58  -1 
   6   3  -1  590.81   11.58   2 
   5  -3   5  168.70    8.13  -1 
  -3   5  -6  168.70    8.13   2 
   5  -5   4  221.75    8.45  -1 
  -5   5  -4  221.75    8.45   2 
  -2   2  -8  271.37    6.76  -1 
   2  -2   8  271.37    6.76   2 
   3  -1   4  686.60   10.71  -1 
  -1   3  -5  686.60   10.71   2 
   2  -6   0  482.58    9.42  -1 
  -6   2   2  482.58    9.42   2 
   2  -7  -2   23.57    7.18  -1 
  -7   2   5   23.57    7.18   2 
   2   7  -8   12.11    8.26  -1 
   7   2   3   12.11    8.26   2 
   4  -4   4  114.03    6.16  -1 
  -4   4  -4  114.03    6.16   2 
   6  -6   3   37.21    6.84  -1 
  -6   6  -3   37.21    6.84   2 
   5  -7   1   33.60    8.39  -1 
  -7   5   0   33.60    8.39   2 
   4  -6   2   12.67    7.11  -1 
  -6   4  -1   12.67    7.11   2 
  -2   4 -16    3.55    8.47  -1 
   4  -2  15    3.55    8.47   2 
  -2   4 -15   43.80    8.47  -1 
   4  -2  14   43.80    8.47   2 
  -1   3  -5  722.50    9.83  -1 
   3  -1   4  722.50    9.83   2 
   1  -6  -2  524.29   10.51  -1 
  -6   1   5  524.29   10.51   2 
   2  -2   3 1017.83   10.72  -1 
  -2   2  -3 1017.83   10.72   2 
   2  -4   2  402.73    7.98  -1 
  -4   2  -1  402.73    7.98   2 
   0  -2   0 6295.76   31.17  -1 
  -2   0   1 6295.76   31.17   2 
  -2   4 -14    7.41    6.95  -1 
   4  -2  13    7.41    6.95   2 
  -2   4 -13   -0.06    8.02  -1 
   4  -2  12   -0.06    8.02   2 
   0  -5  -3   80.48    7.51  -1 
  -5   0   6   80.48    7.51   2 
   0   5  -6  107.47    6.94  -1 
   5   0   3  107.47    6.94   2 
   3  -5   2  618.71    9.11  -1 
  -5   3  -1  618.71    9.11   2 
  -2   2  -7   39.88    5.45  -1 
   2  -2   7   39.88    5.45   2 
  -2   4 -12  113.06    8.28  -1 
   4  -2  11  113.06    8.28   2 
   2  -7  -3    7.02    7.91  -1 
  -7   2   6    7.02    7.91   2 
   2   7  -7   35.05    8.53  -1 
   7   2   2   35.05    8.53   2 
   3   6  -3  294.79   10.71  -1 
   6   3  -2  294.79   10.71   2 
   6  -4   4  139.38    9.10  -1 
  -4   6  -5  139.38    9.10   2 
  -2   4 -11   80.22    7.27  -1 
   4  -2  10   80.22    7.27   2 
   5  -5   3  432.85    8.37  -1 
  -5   5  -3  432.85    8.37   2 
   6  -6   2   14.02    7.09  -1 
  -6   6  -2   14.02    7.09   2 
   7  -5   3   12.23    7.79  -1 
  -5   7  -4   12.23    7.79   2 
   5  -7   0    7.12    8.28  -1 
  -7   5   1    7.12    8.28   2 
   1  -3   1  203.08    7.44  -1 
  -3   1   0  203.08    7.44   2 
  -1  -4  -5   73.14    9.14  -1 
  -4  -1   8   73.14    9.14   2 
   0   7 -12   48.01    9.23  -1 
   7   0   8   48.01    9.23   2 
   1  -6  -3  539.29   10.09  -1 
  -6   1   6  539.29   10.09   2 
  -3   1 -13   -0.48    8.26  -1 
   1  -3  14   -0.48    8.26   2 
  -3   1 -14    0.89    8.69  -1 
   1  -3  15    0.89    8.69   2 
  -3   1 -15    2.24    8.90  -1 
   1  -3  16    2.24    8.90   2 
  -3   1 -16   33.42    9.91  -1 
   1  -3  17   33.42    9.91   2 
  -2   4 -10  119.03    7.79  -1 
   4  -2   9  119.03    7.79   2 
   0   7 -11  230.54   10.60  -1 
   7   0   7  230.54   10.60   2 
   2  -7  -4   86.34    8.73  -1 
  -7   2   7   86.34    8.73   2 
   4  -2   4 1147.39   12.07  -1 
  -2   4  -5 1147.39   12.07   2 
   5  -3   4  191.93    7.41  -1 
  -3   5  -5  191.93    7.41   2 
   4  -4   3    5.53    4.92  -1 
  -4   4  -3    5.53    4.92   2 
   3  -3   3   32.60    5.81  -1 
  -3   3  -3   32.60    5.81   2 
   7  -2   4   10.47    7.97  -1 
  -2   7  -7   10.47    7.97   2 
  -3   1 -12    3.90    7.68  -1 
   1  -3  13    3.90    7.68   2 
  -1   3  -4  454.85    7.95  -1 
   3  -1   3  454.85    7.95   2 
   0  -5  -4  164.42    8.51  -1 
  -5   0   7  164.42    8.51   2 
   5  -7  -1   21.31    8.80  -1 
  -7   5   2   21.31    8.80   2 
   3  -5   1  556.07    9.03  -1 
  -5   3   0  556.07    9.03   2 
  -2   2  -6 1733.97   13.67  -1 
   2  -2   6 1733.97   13.67   2 
  -2   4  -9  539.87   10.27  -1 
   4  -2   8  539.87   10.27   2 
  -1   6 -10   15.34    7.58  -1 
   6  -1   7   15.34    7.58   2 
   0   7 -10  286.56   10.41  -1 
   7   0   6  286.56   10.41   2 
   1  -6  -4  311.18    9.30  -1 
  -6   1   7  311.18    9.30   2 
   6  -6   1   18.98    6.89  -1 
  -6   6  -1   18.98    6.89   2 
   2  -4   1 1465.90   11.89  -1 
  -4   2   0 1465.90   11.89   2 
  -2   0  -5  264.43   10.53  -1 
   0  -2   6  264.43   10.53   2 
  -3   1 -11    7.11    6.77  -1 
   1  -3  12    7.11    6.77   2 
   5  -5   2  706.57    9.71  -1 
  -5   5  -2  706.57    9.71   2 
   6  -4   3   62.36    7.05  -1 
  -4   6  -4   62.36    7.05   2 
   7  -5   2    5.27    8.47  -1 
  -5   7  -3    5.27    8.47   2 
   4  -6   0   84.29    7.43  -1 
  -6   4   1   84.29    7.43   2 
  -3  -1 -12  177.88   13.46  -1 
  -1  -3  14  177.88   13.46   2 
  -3   3 -15    3.23    8.14  -1 
   3  -3  15    3.23    8.14   2 
  -3   3 -14  197.55    9.31  -1 
   3  -3  14  197.55    9.31   2 
   0   7  -9  123.28    8.93  -1 
   7   0   5  123.28    8.93   2 
   3   6  -2  104.69    9.07  -1 
   6   3  -3  104.69    9.07   2 
  -3   1 -10  110.60    8.04  -1 
   1  -3  11  110.60    8.04   2 
  -3   3 -13  253.33    9.30  -1 
   3  -3  13  253.33    9.30   2 
  -2   4  -8   -1.65    6.29  -1 
   4  -2   7   -1.65    6.29   2 
  -3   3 -12  278.16    9.29  -1 
   3  -3  12  278.16    9.29   2 
  -1  -4  -6   21.36    8.57  -1 
  -4  -1   9   21.36    8.57   2 
   0  -5  -5  221.29    8.62  -1 
  -5   0   8  221.29    8.62   2 
   6  -6   0  137.83    7.91  -1 
  -6   6   0  137.83    7.91   2 
   7  -3   3  135.14    9.83  -1 
  -3   7  -5  135.14    9.83   2 
   0  -4  -3  161.95    7.90  -1 
  -4   0   5  161.95    7.90   2 
   4  -4   2   89.55    6.75  -1 
  -4   4  -2   89.55    6.75   2 
  -3  -1 -11  182.87   13.07  -1 
  -1  -3  13  182.87   13.07   2 
  -3   3 -11   57.97    7.20  -1 
   3  -3  11   57.97    7.20   2 
  -1   1  -2 1203.18   14.71  -1 
   1  -1   2 1203.18   14.71   2 
  -1   6  -8   21.49    7.24  -1 
   6  -1   5   21.49    7.24   2 
   2  -2   2  121.87    6.21  -1 
  -2   2  -2  121.87    6.21   2 
   5  -3   3  467.86    9.50  -1 
  -3   5  -4  467.86    9.50   2 
   7  -5   1    4.44    7.41  -1 
  -5   7  -2    4.44    7.41   2 
   4  -6  -1    9.75    6.98  -1 
  -6   4   2    9.75    6.98   2 
  -3   1  -9   43.42    7.39  -1 
   1  -3  10   43.42    7.39   2 
  -2   2  -5 1007.41   11.19  -1 
   2  -2   5 1007.41   11.19   2 
  -1   3  -3 1677.41   13.52  -1 
   3  -1   2 1677.41   13.52   2 
  -2   4  -7  221.20    7.60  -1 
   4  -2   6  221.20    7.60   2 
   3  -1   3  510.27    9.39  -1 
  -1   3  -4  510.27    9.39   2 
   5  -5   1  331.89    7.47  -1 
  -5   5  -1  331.89    7.47   2 
  -3   3 -10    5.14    5.96  -1 
   3  -3  10    5.14    5.96   2 
   1  -6  -6   35.16    8.64  -1 
  -6   1   9   35.16    8.64   2 
   3  -3   2    3.83    4.70  -1 
  -3   3  -2    3.83    4.70   2 
   6  -4   2  110.74    7.47  -1 
  -4   6  -3  110.74    7.47   2 
   6  -6  -1  222.64    9.42  -1 
  -6   6   1  222.64    9.42   2 
   2  -4   0 3422.67   16.83  -1 
  -4   2   1 3422.67   16.83   2 
  -1   6  -7    9.04    7.33  -1 
   6  -1   4    9.04    7.33   2 
   0  -5  -6  240.58   10.08  -1 
  -5   0   9  240.58   10.08   2 
   4  -2   3  400.44    7.43  -1 
  -2   4  -4  400.44    7.43   2 
   1   6  -3 1525.76   14.15  -1 
   6   1  -1 1525.76   14.15   2 
   4  -6  -2   20.75    6.12  -1 
  -6   4   3   20.75    6.12   2 
   7  -5   0   53.97    9.21  -1 
  -5   7  -1   53.97    9.21   2 
  -3  -1 -10    1.54    9.81  -1 
  -1  -3  12    1.54    9.81   2 
  -3   3  -9  318.09    8.04  -1 
   3  -3   9  318.09    8.04   2 
  -2   4  -6 1149.63   11.71  -1 
   4  -2   5 1149.63   11.71   2 
  -3   5 -14   89.58    9.84  -1 
   5  -3  13   89.58    9.84   2 
  -3   5 -13   98.61   10.11  -1 
   5  -3  12   98.61   10.11   2 
   2  -5  -2  358.74    8.31  -1 
  -5   2   4  358.74    8.31   2 
   7  -3   2  181.12    9.76  -1 
  -3   7  -4  181.12    9.76   2 
   5  -5   0  182.56    6.71  -1 
  -5   5   0  182.56    6.71   2 
  -3   1  -8  132.85    7.25  -1 
   1  -3   9  132.85    7.25   2 
   0   7  -6  424.84   10.49  -1 
   7   0   2  424.84   10.49   2 
   4  -4   1  309.73    6.64  -1 
  -4   4  -1  309.73    6.64   2 
   6  -6  -2   65.23    6.99  -1 
  -6   6   2   65.23    6.99   2 
   1  -1   1 9168.69   39.93  -1 
  -1   1  -1 9168.69   39.93   2 
  -3   5 -12  130.96    8.32  -1 
   5  -3  11  130.96    8.32   2 
   0  -5  -7  255.33   10.78  -1 
  -5   0  10  255.33   10.78   2 
   5  -3   2 1001.58   11.38  -1 
  -3   5  -3 1001.58   11.38   2 
   6  -4   1    2.44    7.28  -1 
  -4   6  -2    2.44    7.28   2 
   4  -6  -3   24.16    7.65  -1 
  -6   4   4   24.16    7.65   2 
  -2   2  -4 1047.97   11.52  -1 
   2  -2   4 1047.97   11.52   2 
  -3   3  -8  488.05    8.84  -1 
   3  -3   8  488.05    8.84   2 
  -3   5 -11   27.82    7.79  -1 
   5  -3  10   27.82    7.79   2 
   7  -5  -1    4.87    7.54  -1 
  -5   7   0    4.87    7.54   2 
  -2   4  -5  965.12   10.74  -1 
   4  -2   4  965.12   10.74   2 
   6  -6  -3   -1.99    6.32  -1 
  -6   6   3   -1.99    6.32   2 
   3  -5  -2   45.96    6.64  -1 
  -5   3   3   45.96    6.64   2 
   5  -5  -1    6.16    6.45  -1 
  -5   5   1    6.16    6.45   2 
  -3   5 -10   28.86    7.59  -1 
   5  -3   9   28.86    7.59   2 
   0   7  -5  378.32    9.80  -1 
   7   0   1  378.32    9.80   2 
   3  -3   1   61.25    4.63  -1 
  -3   3  -1   61.25    4.63   2 
   4  -6  -4   58.55    7.88  -1 
  -6   4   5   58.55    7.88   2 
   1  -3  -1 1273.17   12.41  -1 
  -3   1   2 1273.17   12.41   2 
  -3   1  -7  884.82   12.90  -1 
   1  -3   8  884.82   12.90   2 
  -2   0  -4   47.32    7.07  -1 
   0  -2   5   47.32    7.07   2 
   0  -5  -8   18.00    7.13  -1 
  -5   0  11   18.00    7.13   2 
   7  -3   1  277.83   10.52  -1 
  -3   7  -3  277.83   10.52   2 
   4  -4   0   38.65    6.10  -1 
  -4   4   0   38.65    6.10   2 
  -4   2 -14   41.54    9.74  -1 
   2  -4  15   41.54    9.74   2 
  -3   3  -7  315.74    7.66  -1 
   3  -3   7  315.74    7.66   2 
  -3   5  -9  333.16    9.76  -1 
   5  -3   8  333.16    9.76   2 
   2  -2   1  604.03    8.78  -1 
  -2   2  -1  604.03    8.78   2 
   4  -2   2  299.41    8.17  -1 
  -2   4  -3  299.41    8.17   2 
   6  -4   0    2.88    6.37  -1 
  -4   6  -1    2.88    6.37   2 
   6  -2   2   42.21    7.59  -1 
  -2   6  -4   42.21    7.59   2 
   7  -5  -2    9.77    8.05  -1 
  -5   7   1    9.77    8.05   2 
  -3  -1  -9    1.99    9.79  -1 
  -1  -3  11    1.99    9.79   2 
  -4   2 -13    3.80    7.99  -1 
   2  -4  14    3.80    7.99   2 
   4  -6  -5   92.19    8.37  -1 
  -6   4   6   92.19    8.37   2 
  -4   2 -12    0.09    8.54  -1 
   2  -4  13    0.09    8.54   2 
  -4   4 -13    5.78    8.73  -1 
   4  -4  13    5.78    8.73   2 
  -1   8  -8  161.20   10.32  -1 
   8  -1   4  161.20   10.32   2 
   0   7  -4  208.67    8.88  -1 
   7   0   0  208.67    8.88   2 
   2  -5  -4   25.58    6.68  -1 
  -5   2   6   25.58    6.68   2 
   5  -5  -2  846.52   10.09  -1 
  -5   5   2  846.52   10.09   2 
   5  -3   1  581.15    8.81  -1 
  -3   5  -2  581.15    8.81   2 
  -2   4  -4  345.84    7.29  -1 
   4  -2   3  345.84    7.29   2 
  -3   5  -8  694.18   11.46  -1 
   5  -3   7  694.18   11.46   2 
  -1   6  -4   29.88    7.25  -1 
   6  -1   1   29.88    7.25   2 
   3  -1   2 1927.56   16.23  -1 
  -1   3  -3 1927.56   16.23   2 
  -4   2 -11  112.51    8.50  -1 
   2  -4  12  112.51    8.50   2 
  -3   3  -6   11.55    6.28  -1 
   3  -3   6   11.55    6.28   2 
  -4   4 -12    3.03    7.80  -1 
   4  -4  12    3.03    7.80   2 
  -2   2  -3  922.62   10.92  -1 
   2  -2   3  922.62   10.92   2 
   7  -3   0  291.07   10.50  -1 
  -3   7  -2  291.07   10.50   2 
   4  -6  -6   13.46    8.20  -1 
  -6   4   7   13.46    8.20   2 
  -3   1  -6  463.43   10.02  -1 
   1  -3   7  463.43   10.02   2 
  -4   4 -11   65.89    8.14  -1 
   4  -4  11   65.89    8.14   2 
   4  -4  -1 2024.03   13.01  -1 
  -4   4   1 2024.03   13.01   2 
   6  -4  -1   96.44    7.25  -1 
  -4   6   0   96.44    7.25   2 
   5  -5  -3  478.60    9.59  -1 
  -5   5   3  478.60    9.59   2 
   3  -3   0   46.98    5.64  -1 
  -3   3   0   46.98    5.64   2 
  -4   2 -10   82.99    8.69  -1 
   2  -4  11   82.99    8.69   2 
  -3   5  -7  664.42   10.62  -1 
   5  -3   6  664.42   10.62   2 
   2  -5  -5   25.81    7.01  -1 
  -5   2   7   25.81    7.01   2 
   4  -6  -7   44.07    8.87  -1 
  -6   4   8   44.07    8.87   2 
   3  -5  -4   82.14    6.16  -1 
  -5   3   5   82.14    6.16   2 
  -1   3  -1  192.47    7.54  -1 
   3  -1   0  192.47    7.54   2 
  -4   4 -10   50.68    7.53  -1 
   4  -4  10   50.68    7.53   2 
  -1   1  -1 9035.80   40.02  -1 
   1  -1   1 9035.80   40.02   2 
   0   7  -3   29.08    7.62  -1 
   7   0  -1   29.08    7.62   2 
   6  -2   1   36.28    7.38  -1 
  -2   6  -3   36.28    7.38   2 
   1  -3  -2 2739.98   17.14  -1 
  -3   1   3 2739.98   17.14   2 
  -1   5  -2    7.73    6.50  -1 
   5  -1   0    7.73    6.50   2 
  -2   4  -3  256.54    6.82  -1 
   4  -2   2  256.54    6.82   2 
  -1   6  -3  170.78    8.00  -1 
   6  -1   0  170.78    8.00   2 
  -1   8  -6    1.50    8.23  -1 
   8  -1   2    1.50    8.23   2 
   5  -3   0  557.55    8.61  -1 
  -3   5  -1  557.55    8.61   2 
   2  -4  -3  278.36    7.97  -1 
  -4   2   4  278.36    7.97   2 
  -4   2  -9   85.97    9.07  -1 
   2  -4  10   85.97    9.07   2 
  -3   3  -5  160.47    7.04  -1 
   3  -3   5  160.47    7.04   2 
  -4   4  -9   -2.32    6.69  -1 
   4  -4   9   -2.32    6.69   2 
  -3   5  -6  113.05    6.34  -1 
   5  -3   5  113.05    6.34   2 
  -2   7  -6  122.18    8.65  -1 
   7  -2   3  122.18    8.65   2 
   4  -6  -8   -4.09    7.47  -1 
  -6   4   9   -4.09    7.47   2 
   4  -2   1  386.46    8.57  -1 
  -2   4  -2  386.46    8.57   2 
   5  -5  -4  256.63    7.13  -1 
  -5   5   4  256.63    7.13   2 
   6  -4  -2   11.34    6.42  -1 
  -4   6   1   11.34    6.42   2 
   7  -3  -1   67.91    8.75  -1 
  -3   7  -1   67.91    8.75   2 
   3  -5  -5   97.41    7.40  -1 
  -5   3   6   97.41    7.40   2 
   4  -4  -2  576.97    7.92  -1 
  -4   4   2  576.97    7.92   2 
   4  -6  -9   36.15    9.38  -1 
  -6   4  10   36.15    9.38   2 
  -1   8  -5   13.33    8.73  -1 
   8  -1   1   13.33    8.73   2 
   3   4   2  394.62   14.77  -1 
   4   3  -6  394.62   14.77   2 
   2  -2   0 2975.64   17.12  -1 
  -2   2   0 2975.64   17.12   2 
  -4   4  -8   31.83    7.03  -1 
   4  -4   8   31.83    7.03   2 
  -4   6 -10  120.08    8.35  -1 
   6  -4   9  120.08    8.35   2 
   5  -5  -5   40.28    6.11  -1 
  -5   5   5   40.28    6.11   2 
  -3  -1  -8  471.03   17.59  -1 
  -1  -3  10  471.03   17.59   2 
  -3   1  -5  134.70    7.35  -1 
   1  -3   6  134.70    7.35   2 
  -4   2  -8  620.33   10.71  -1 
   2  -4   9  620.33   10.71   2 
  -3   5  -5  162.36    7.61  -1 
   5  -3   4  162.36    7.61   2 
   3  -5  -6   35.26    6.69  -1 
  -5   3   7   35.26    6.69   2 
   3  -3  -1   58.33    4.59  -1 
  -3   3   1   58.33    4.59   2 
   6  -4  -3   19.29    6.53  -1 
  -4   6   2   19.29    6.53   2 
  -2   2  -2  118.95    6.90  -1 
   2  -2   2  118.95    6.90   2 
  -4   6  -9   71.32    8.16  -1 
   6  -4   8   71.32    8.16   2 
  -3   3  -4   23.07    5.17  -1 
   3  -3   4   23.07    5.17   2 
   5  -3  -1   11.76    5.85  -1 
  -3   5   0   11.76    5.85   2 
   2  -4  -4  737.23    9.21  -1 
  -4   2   5  737.23    9.21   2 
   4  -4  -3  238.16    7.47  -1 
  -4   4   3  238.16    7.47   2 
  -2   4  -2  364.59    8.17  -1 
   4  -2   1  364.59    8.17   2 
  -4   4  -7    1.67    5.38  -1 
   4  -4   7    1.67    5.38   2 
  -1   8  -4   38.82    9.15  -1 
   8  -1   0   38.82    9.15   2 
   5  -5  -6    2.95    6.18  -1 
  -5   5   6    2.95    6.18   2 
  -5   3 -13   59.16   10.60  -1 
   3  -5  14   59.16   10.60   2 
  -2   6  -3   47.87    7.16  -1 
   6  -2   1   47.87    7.16   2 
  -2   7  -4  163.87    8.60  -1 
   7  -2   1  163.87    8.60   2 
   3  -5  -7    9.72    5.96  -1 
  -5   3   8    9.72    5.96   2 
  -4   2  -7    6.41    6.42  -1 
   2  -4   8    6.41    6.42   2 
  -5   3 -12  125.06   10.71  -1 
   3  -5  13  125.06   10.71   2 
  -4   6  -8   13.78    6.80  -1 
   6  -4   7   13.78    6.80   2 
  -3   5  -4  355.49    7.66  -1 
   5  -3   3  355.49    7.66   2 
   3  -1   1 2735.46   18.41  -1 
  -1   3  -2 2735.46   18.41   2 
   4  -2   0 1557.12   13.12  -1 
  -2   4  -1 1557.12   13.12   2 
   5  -5  -7   58.13    6.33  -1 
  -5   5   7   58.13    6.33   2 
   6  -4  -4   15.31    5.97  -1 
  -4   6   3   15.31    5.97   2 
   1  -1   0   41.58    6.18  -1 
  -1   1   0   41.58    6.18   2 
  -2   0  -3    7.74    6.38  -1 
   0  -2   4    7.74    6.38   2 
   1  -4  -6    6.07    6.31  -1 
  -4   1   8    6.07    6.31   2 
   7  -3  -3  267.40   10.16  -1 
  -3   7   1  267.40   10.16   2 
   3  -5  -8   44.25    7.75  -1 
  -5   3   9   44.25    7.75   2 
   2  -4  -5  739.97   10.19  -1 
  -4   2   6  739.97   10.19   2 
  -5   3 -11  156.69    9.40  -1 
   3  -5  12  156.69    9.40   2 
  -4   4  -6   14.72    6.63  -1 
   4  -4   6   14.72    6.63   2 
  -5   5 -11   -0.37    8.88  -1 
   5  -5  11   -0.37    8.88   2 
  -4   6  -7    0.13    6.68  -1 
   6  -4   6    0.13    6.68   2 
   3  -3  -2 1557.73   11.50  -1 
  -3   3   2 1557.73   11.50   2 
   4  -4  -4  198.54    6.04  -1 
  -4   4   4  198.54    6.04   2 
   5  -3  -2  700.98    9.04  -1 
  -3   5   1  700.98    9.04   2 
   5  -5  -8  177.55    7.65  -1 
  -5   5   8  177.55    7.65   2 
  -3   3  -3   31.04    5.04  -1 
   3  -3   3   31.04    5.04   2 
   6  -4  -5   47.22    7.05  -1 
  -4   6   4   47.22    7.05   2 
   3  -5  -9   18.55    8.21  -1 
  -5   3  10   18.55    8.21   2 
  -5   3 -10   22.96    7.88  -1 
   3  -5  11   22.96    7.88   2 
  -5   5 -10   16.08    8.23  -1 
   5  -5  10   16.08    8.23   2 
  -2   6  -2  189.16    7.95  -1 
   6  -2   0  189.16    7.95   2 
  -3   1  -4  602.47   10.12  -1 
   1  -3   5  602.47   10.12   2 
   5  -5  -9   62.56    7.49  -1 
  -5   5   9   62.56    7.49   2 
  -4   2  -6  213.06    7.92  -1 
   2  -4   7  213.06    7.92   2 
  -2   4  -1 1296.19   10.98  -1 
   4  -2   0 1296.19   10.98   2 
  -3   5  -3  796.58   10.35  -1 
   5  -3   2  796.58   10.35   2 
  -4   6  -6  130.89    7.64  -1 
   6  -4   5  130.89    7.64   2 
   1   6   1 1045.35   14.29  -1 
   6   1  -5 1045.35   14.29   2 
   2  -2  -1    7.12    4.52  -1 
  -2   2   1    7.12    4.52   2 
   3  -5 -10    6.59    8.29  -1 
  -5   3  11    6.59    8.29   2 
   4  -4  -5  751.81    9.10  -1 
  -4   4   5  751.81    9.10   2 
  -4   4  -5  184.36    7.58  -1 
   4  -4   5  184.36    7.58   2 
  -5   5  -9   21.58    7.95  -1 
   5  -5   9   21.58    7.95   2 
   2  -4  -6  877.41   10.08  -1 
  -4   2   7  877.41   10.08   2 
   5  -5 -10   12.16    7.45  -1 
  -5   5  10   12.16    7.45   2 
   6  -4  -6   79.99    7.33  -1 
  -4   6   5   79.99    7.33   2 
   3  -5 -11   64.05    9.42  -1 
  -5   3  12   64.05    9.42   2 
   1  -3  -4   21.50    5.74  -1 
  -3   1   5   21.50    5.74   2 
  -5   3  -9   18.34    7.53  -1 
   3  -5  10   18.34    7.53   2 
  -2   2  -1  552.19    8.64  -1 
   2  -2   1  552.19    8.64   2 
  -1   8  -2  111.10    9.36  -1 
   8  -1  -2  111.10    9.36   2 
   2   5   2   16.10    8.65  -1 
   5   2  -6   16.10    8.65   2 
   5  -3  -3   21.36    6.03  -1 
  -3   5   2   21.36    6.03   2 
   3  -5 -12   36.48    9.59  -1 
  -5   3  13   36.48    9.59   2 
   0  -2  -3 1020.64   14.81  -1 
  -2   0   4 1020.64   14.81   2 
  -5   5  -8  127.64    8.55  -1 
   5  -5   8  127.64    8.55   2 
  -4   6  -5   94.70    7.84  -1 
   6  -4   4   94.70    7.84   2 
  -2   7  -2   43.62    8.05  -1 
   7  -2  -1   43.62    8.05   2 
   0   7   0  339.22   10.14  -1 
   7   0  -4  339.22   10.14   2 
   3  -3  -3  411.80    6.89  -1 
  -3   3   3  411.80    6.89   2 
   4  -2  -1 3416.97   16.93  -1 
  -2   4   0 3416.97   16.93   2 
   6  -4  -7   13.15    6.39  -1 
  -4   6   6   13.15    6.39   2 
   6  -2  -2  638.51   10.78  -1 
  -2   6   0  638.51   10.78   2 
   7  -3  -5  194.33   10.06  -1 
  -3   7   3  194.33   10.06   2 
   8   1  -1    8.18    9.94  -1 
   1   8  -4    8.18    9.94   2 
  -2   6  -1  148.02    7.93  -1 
   6  -2  -1  148.02    7.93   2 
  -5   3  -8  309.07    9.22  -1 
   3  -5   9  309.07    9.22   2 
  -1   6   0   86.72    7.34  -1 
   6  -1  -3   86.72    7.34   2 
   4  -4  -6  806.40    9.16  -1 
  -4   4   6  806.40    9.16   2 
   2  -4  -7   90.34    7.09  -1 
  -4   2   8   90.34    7.09   2 
  -4   2  -5 1085.41   12.46  -1 
   2  -4   6 1085.41   12.46   2 
  -3   3  -2    3.69    5.74  -1 
   3  -3   2    3.69    5.74   2 
  -4   4  -4   88.52    6.95  -1 
   4  -4   4   88.52    6.95   2 
  -3   5  -2  507.35    8.99  -1 
   5  -3   1  507.35    8.99   2 
   6  -4  -8   26.79    8.57  -1 
  -4   6   7   26.79    8.57   2 
  -5   5  -7  142.21    8.37  -1 
   5  -5   7  142.21    8.37   2 
   5  -3  -4   63.87    5.70  -1 
  -3   5   3   63.87    5.70   2 
   7  -3  -6   16.85    8.99  -1 
  -3   7   4   16.85    8.99   2 
  -1   3   1 1206.93   12.44  -1 
   3  -1  -2 1206.93   12.44   2 
  -2   4   0 3003.71   16.67  -1 
   4  -2  -1 3003.71   16.67   2 
  -4   6  -4   53.16    7.43  -1 
   6  -4   3   53.16    7.43   2 
  -1   1   0   39.17    6.24  -1 
   1  -1   0   39.17    6.24   2 
  -1   8  -1    1.90    8.20  -1 
   8  -1  -3    1.90    8.20   2 
   4  -4  -7  678.61    9.01  -1 
  -4   4   7  678.61    9.01   2 
   6  -4  -9    4.14    6.24  -1 
  -4   6   8    4.14    6.24   2 
   2  -4  -8   38.27    7.00  -1 
  -4   2   9   38.27    7.00   2 
  -4   0  -8 1442.22   20.30  -1 
   0  -4  10 1442.22   20.30   2 
  -5   3  -7  730.33   11.32  -1 
   3  -5   8  730.33   11.32   2 
  -3   1  -3  439.50    9.49  -1 
   1  -3   4  439.50    9.49   2 
  -2   7  -1  137.98    8.61  -1 
   7  -2  -2  137.98    8.61   2 
   6  -2  -3  242.74    8.74  -1 
  -2   6   1  242.74    8.74   2 
   7  -3  -7    0.44    9.16  -1 
  -3   7   5    0.44    9.16   2 
   7   2   0  165.29   11.76  -1 
   2   7  -5  165.29   11.76   2 
   1  -3  -5   17.28    5.66  -1 
  -3   1   6   17.28    5.66   2 
   3  -3  -4  165.74    5.46  -1 
  -3   3   4  165.74    5.46   2 
  -5   5  -6  237.00    7.82  -1 
   5  -5   6  237.00    7.82   2 
   4  -4  -8   44.83    6.15  -1 
  -4   4   8   44.83    6.15   2 
   4  -2  -2 1313.80   11.99  -1 
  -2   4   1 1313.80   11.99   2 
   6  -4 -10   24.02    7.56  -1 
  -4   6   9   24.02    7.56   2 
  -4   4  -3    2.04    4.80  -1 
   4  -4   3    2.04    4.80   2 
  -3   5  -1  459.56    9.12  -1 
   5  -3   0  459.56    9.12   2 
  -2   6   0  452.48    9.61  -1 
   6  -2  -2  452.48    9.61   2 
  -3   7  -2  197.36    9.56  -1 
   7  -3   0  197.36    9.56   2 
  -4   2  -4  990.95   11.31  -1 
   2  -4   5  990.95   11.31   2 
   0   7   1   22.55    7.83  -1 
   7   0  -5   22.55    7.83   2 
   1   6   2  554.83   12.34  -1 
   6   1  -6  554.83   12.34   2 
   2  -4  -9  103.38    7.57  -1 
  -4   2  10  103.38    7.57   2 
   2  -2  -2   40.87    4.49  -1 
  -2   2   2   40.87    4.49   2 
   5  -3  -5  110.73    6.40  -1 
  -3   5   4  110.73    6.40   2 
   8   1  -2   50.30    9.22  -1 
   1   8  -3   50.30    9.22   2 
  -5   3  -6  708.19   11.39  -1 
   3  -5   7  708.19   11.39   2 
  -4   6  -3   94.72    7.74  -1 
   6  -4   2   94.72    7.74   2 
  -1   6   1  201.74    8.37  -1 
   6  -1  -4  201.74    8.37   2 
   4  -4  -9  265.20    7.91  -1 
  -4   4   9  265.20    7.91   2 
   6   3   1    6.41   10.68  -1 
   3   6  -6    6.41   10.68   2 
  -3   3  -1   57.88    5.94  -1 
   3  -3   1   57.88    5.94   2 
  -5   5  -5   77.12    7.45  -1 
   5  -5   5   77.12    7.45   2 
   2  -4 -10   46.17    7.25  -1 
  -4   2  11   46.17    7.25   2 
   6  -2  -4   27.63    7.79  -1 
  -2   6   2   27.63    7.79   2 
  -2   2   0 2800.19   17.00  -1 
   2  -2   0 2800.19   17.00   2 
  -1   8   0   24.08    8.74  -1 
   8  -1  -4   24.08    8.74   2 
   2  -4 -11    9.38    8.15  -1 
  -4   2  12    9.38    8.15   2 
   3  -3  -5   17.33    4.43  -1 
  -3   3   5   17.33    4.43   2 
   4  -4 -10  343.45    8.54  -1 
  -4   4  10  343.45    8.54   2 
   5  -3  -6   76.79    5.89  -1 
  -3   5   5   76.79    5.89   2 
   6   1   0  634.65   12.65  -1 
   1   6  -4  634.65   12.65   2 
   1  -3  -6  425.89    8.90  -1 
  -3   1   7  425.89    8.90   2 
  -4   4  -2   82.89    6.03  -1 
   4  -4   2   82.89    6.03   2 
   2  -4 -12   43.41    8.59  -1 
  -4   2  13   43.41    8.59   2 
   4  -4 -11  304.15    9.20  -1 
  -4   4  11  304.15    9.20   2 
  -5   3  -5  141.63    7.88  -1 
   3  -5   6  141.63    7.88   2 
  -6   4  -8  112.19    9.44  -1 
   4  -6   9  112.19    9.44   2 
  -2   4   1 1184.13   11.35  -1 
   4  -2  -2 1184.13   11.35   2 
  -4   6  -2    6.99    6.99  -1 
   6  -4   1    6.99    6.99   2 
  -5   5  -4  179.64    7.13  -1 
   5  -5   4  179.64    7.13   2 
   2  -4 -13   -0.33    8.01  -1 
  -4   2  14   -0.33    8.01   2 
   4  -4 -12  127.60    9.01  -1 
  -4   4  12  127.60    9.01   2 
   4  -2  -3   47.17    6.35  -1 
  -2   4   2   47.17    6.35   2 
   8   1  -3   80.19   10.73  -1 
   1   8  -2   80.19   10.73   2 
   0  -2  -4 2471.13   20.81  -1 
  -2   0   5 2471.13   20.81   2 
  -3   5   0   16.00    6.50  -1 
   5  -3  -1   16.00    6.50   2 
  -2   6   1  168.11    7.95  -1 
   6  -2  -3  168.11    7.95   2 
  -4   2  -3  401.50    8.12  -1 
   2  -4   4  401.50    8.12   2 
   1  -1  -1 4150.87   25.98  -1 
  -1   1   1 4150.87   25.98   2 
   4  -4 -13    2.75    7.61  -1 
  -4   4  13    2.75    7.61   2 
   5  -3  -7   23.72    6.15  -1 
  -3   5   6   23.72    6.15   2 
   6  -2  -5  207.27    8.90  -1 
  -2   6   3  207.27    8.90   2 
  -5   7  -4    9.81    8.30  -1 
   7  -5   3    9.81    8.30   2 
  -2   0  -2  129.84    9.72  -1 
   0  -2   3  129.84    9.72   2 
   0   7   2    3.66    8.50  -1 
   7   0  -6    3.66    8.50   2 
   3  -3  -6  181.54    5.74  -1 
  -3   3   6  181.54    5.74   2 
  -3   1  -2 1598.28   15.49  -1 
   1  -3   3 1598.28   15.49   2 
  -1   6   2  569.27   10.60  -1 
   6  -1  -5  569.27   10.60   2 
  -1   8   1    7.64    8.75  -1 
   8  -1  -5    7.64    8.75   2 
   1  -3  -7 1158.22   11.83  -1 
  -3   1   8 1158.22   11.83   2 
   2  -2  -3  119.06    5.38  -1 
  -2   2   3  119.06    5.38   2 
   2   5   3  246.82   10.58  -1 
   5   2  -7  246.82   10.58   2 
   3  -1  -1  179.95    7.77  -1 
  -1   3   0  179.95    7.77   2 
   5  -3  -8   12.31    7.58  -1 
  -3   5   7   12.31    7.58   2 
   7   0  -3  364.13   10.79  -1 
   0   7  -1  364.13   10.79   2 
  -5   5  -3  428.08    9.47  -1 
   5  -5   3  428.08    9.47   2 
  -4   6  -1    4.35    6.99  -1 
   6  -4   0    4.35    6.99   2 
  -3   7   0   -6.94    7.89  -1 
   7  -3  -2   -6.94    7.89   2 
  -5   3  -4  163.87    7.54  -1 
   3  -5   5  163.87    7.54   2 
  -3   3   0   41.58    4.72  -1 
   3  -3   0   41.58    4.72   2 
  -2   7   1  297.25   10.41  -1 
   7  -2  -4  297.25   10.41   2 
   5   2   1   96.14    9.95  -1 
   2   5  -5   96.14    9.95   2 
   6  -2  -6  529.76   10.86  -1 
  -2   6   4  529.76   10.86   2 
  -4   4  -1  267.19    6.49  -1 
   4  -4   1  267.19    6.49   2 
  -6   4  -6    2.89    7.92  -1 
   4  -6   7    2.89    7.92   2 
  -5   7  -3    2.62    7.13  -1 
   7  -5   2    2.62    7.13   2 
   3  -3  -7  442.09    7.25  -1 
  -3   3   7  442.09    7.25   2 
   4  -2  -4  246.69    7.70  -1 
  -2   4   3  246.69    7.70   2 
   5  -3  -9   64.06    8.06  -1 
  -3   5   8   64.06    8.06   2 
   8   1  -4   12.34    9.81  -1 
   1   8  -1   12.34    9.81   2 
   5   0  -1   39.89    6.72  -1 
   0   5  -2   39.89    6.72   2 
   1   6   3  432.91   10.99  -1 
   6   1  -7  432.91   10.99   2 
   1  -3  -8 1009.02   12.70  -1 
  -3   1   9 1009.02   12.70   2 
  -3   5   1  590.45    9.66  -1 
   5  -3  -2  590.45    9.66   2 
   5  -3 -10   12.58    6.93  -1 
  -3   5   9   12.58    6.93   2 
   6  -2  -7  422.78   10.43  -1 
  -2   6   5  422.78   10.43   2 
   6   1  -1 1590.50   16.79  -1 
   1   6  -3 1590.50   16.79   2 
  -2   4   2   62.08    6.51  -1 
   4  -2  -3   62.08    6.51   2 
  -5   5  -2  701.60   10.59  -1 
   5  -5   2  701.60   10.59   2 
  -6   4  -5  169.02    9.08  -1 
   4  -6   6  169.02    9.08   2 
  -5   3  -3  391.61    8.59  -1 
   3  -5   4  391.61    8.59   2 
  -4   2  -2  250.74    7.29  -1 
   2  -4   3  250.74    7.29   2 
   3  -3  -8 1284.48   11.07  -1 
  -3   3   8 1284.48   11.07   2 
   5  -3 -11    7.23    6.80  -1 
  -3   5  10    7.23    6.80   2 
   7   0  -4  309.47    9.44  -1 
   0   7   0  309.47    9.44   2 
  -4   6   0   68.01    7.44  -1 
   6  -4  -1   68.01    7.44   2 
  -5   7  -2    5.73    8.26  -1 
   7  -5   1    5.73    8.26   2 
  -3   7   1  208.35    9.30  -1 
   7  -3  -3  208.35    9.30   2 
  -6   6  -4  120.68    8.21  -1 
   6  -6   4  120.68    8.21   2 
  -2   2   1   10.21    4.56  -1 
   2  -2  -1   10.21    4.56   2 
  -1   8   2    3.29    8.73  -1 
   8  -1  -6    3.29    8.73   2 
   5  -3 -12   29.57    7.44  -1 
  -3   5  11   29.57    7.44   2 
   6  -2  -8  411.93   10.76  -1 
  -2   6   6  411.93   10.76   2 
   1  -3  -9  378.89    9.83  -1 
  -3   1  10  378.89    9.83   2 
  -4   4   0   39.23    5.15  -1 
   4  -4   0   39.23    5.15   2 
  -2   7   2   38.34    8.45  -1 
   7  -2  -5   38.34    8.45   2 
   0   7   3   -2.17    7.99  -1 
   7   0  -7   -2.17    7.99   2 
   2  -2  -4    8.39    4.13  -1 
  -2   2   4    8.39    4.13   2 
   3  -3  -9  459.96    8.18  -1 
  -3   3   9  459.96    8.18   2 
   4  -2  -5  851.87    9.06  -1 
  -2   4   4  851.87    9.06   2 
   5  -3 -13   30.75    7.47  -1 
  -3   5  12   30.75    7.47   2 
   8   1  -5   17.61    9.86  -1 
   1   8   0   17.61    9.86   2 
   0  -2  -5 2093.26   19.54  -1 
  -2   0   6 2093.26   19.54   2 
  -5   0 -10    6.74   11.32  -1 
   0  -5  13    6.74   11.32   2 
  -3   3   1   63.84    5.31  -1 
   3  -3  -1   63.84    5.31   2 
   6  -2  -9   46.13    8.91  -1 
  -2   6   7   46.13    8.91   2 
   1  -3 -10  201.84    8.62  -1 
  -3   1  11  201.84    8.62   2 
  -6   4  -4  106.57    8.72  -1 
   4  -6   5  106.57    8.72   2 
  -5   5  -1  318.26    8.67  -1 
   5  -5   1  318.26    8.67   2 
  -6   6  -3   44.66    7.81  -1 
   6  -6   3   44.66    7.81   2 
  -5   7  -1   30.77    8.56  -1 
   7  -5   0   30.77    8.56   2 
   3  -3 -10   32.50    5.68  -1 
  -3   3  10   32.50    5.68   2 
   3  -1  -2 1491.62   13.74  -1 
  -1   3   1 1491.62   13.74   2 
   4   3   2    6.47   12.64  -1 
   3   4  -6    6.47   12.64   2 
   7   0  -5   20.75    7.90  -1 
   0   7   1   20.75    7.90   2 
  -3   5   2   39.13    6.70  -1 
   5  -3  -3   39.13    6.70   2 
  -5   3  -2  852.67   10.58  -1 
   3  -5   3  852.67   10.58   2 
  -3   1  -1 2518.65   18.59  -1 
   1  -3   2 2518.65   18.59   2 
   1  -3 -11   38.67    7.40  -1 
  -3   1  12   38.67    7.40   2 
   3  -3 -11   60.45    6.13  -1 
  -3   3  11   60.45    6.13   2 
   4  -2  -6  915.47   10.54  -1 
  -2   4   5  915.47   10.54   2 
   5   0  -2    4.18    5.85  -1 
   0   5  -1    4.18    5.85   2 
   6  -2 -10   38.31    7.55  -1 
  -2   6   8   38.31    7.55   2 
  -1   1   1 4421.05   29.03  -1 
   1  -1  -1 4421.05   29.03   2 
  -2   6   3  202.82    8.91  -1 
   6  -2  -5  202.82    8.91   2 
  -3   7   2  225.74    9.71  -1 
   7  -3  -4  225.74    9.71   2 
  -4   2  -1  330.06    8.06  -1 
   2  -4   2  330.06    8.06   2 
   1  -3 -15    0.58    8.89  -1 
  -3   1  16    0.58    8.89   2 
   1  -3 -14   25.72    8.22  -1 
  -3   1  15   25.72    8.22   2 
   1  -3 -13  190.54    8.82  -1 
  -3   1  14  190.54    8.82   2 
   1  -3 -12   79.61    7.96  -1 
  -3   1  13   79.61    7.96   2 
   3  -3 -15   30.86    8.75  -1 
  -3   3  15   30.86    8.75   2 
   3  -3 -14  142.35    8.14  -1 
  -3   3  14  142.35    8.14   2 
   3  -3 -13  397.63    9.57  -1 
  -3   3  13  397.63    9.57   2 
   3  -3 -12  256.77    8.38  -1 
  -3   3  12  256.77    8.38   2 
   6  -2 -11  168.65   10.65  -1 
  -2   6   9  168.65   10.65   2 
   6   1  -2  920.78   13.04  -1 
   1   6  -2  920.78   13.04   2 
  -6   1 -10   86.75   11.43  -1 
   1  -6  13   86.75   11.43   2 
  -6   4  -3   71.61    7.77  -1 
   4  -6   4   71.61    7.77   2 
   2  -2  -5   59.86    4.74  -1 
  -2   2   5   59.86    4.74   2 
   6  -2 -12  134.12    8.92  -1 
  -2   6  10  134.12    8.92   2 
   7   0  -6    9.49    8.62  -1 
   0   7   2    9.49    8.62   2 
  -4   4   1 1954.92   13.02  -1 
   4  -4  -1 1954.92   13.02   2 
  -2   4   3  270.42    7.88  -1 
   4  -2  -4  270.42    7.88   2 
  -6   6  -2    8.21    6.74  -1 
   6  -6   2    8.21    6.74   2 
  -5   7   0    7.57    8.11  -1 
   7  -5  -1    7.57    8.11   2 
  -5   5   0  174.76    6.84  -1 
   5  -5   0  174.76    6.84   2 
  -2   7   3    9.37    8.30  -1 
   7  -2  -6    9.37    8.30   2 
  -1   8   3   -2.77    8.35  -1 
   8  -1  -7   -2.77    8.35   2 
   4  -2  -7 1161.10   11.94  -1 
  -2   4   6 1161.10   11.94   2 
   0   5   4  186.70    8.91  -1 
   5   0  -7  186.70    8.91   2 
   1  -1  -2   35.58    5.35  -1 
  -1   1   2   35.58    5.35   2 
   1   6   4  151.32    9.24  -1 
   6   1  -8  151.32    9.24   2 
   5  -1  -5  144.98    7.70  -1 
  -1   5   3  144.98    7.70   2 
  -5   3  -1  517.11    9.13  -1 
   3  -5   2  517.11    9.13   2 
  -4   6   2    7.37    6.29  -1 
   6  -4  -3    7.37    6.29   2 
   7   0  -7    3.33    8.48  -1 
   0   7   3    3.33    8.48   2 
   0  -2  -6 2243.83   19.53  -1 
  -2   0   7 2243.83   19.53   2 
  -6   4  -2   94.29    8.11  -1 
   4  -6   3   94.29    8.11   2 
  -3   5   3   71.92    7.27  -1 
   5  -3  -4   71.92    7.27   2 
  -6   6  -1   24.92    8.24  -1 
   6  -6   1   24.92    8.24   2 
  -3   3   2 1448.50   11.47  -1 
   3  -3  -2 1448.50   11.47   2 
  -3   6   3   30.33    7.69  -1 
   6  -3  -5   30.33    7.69   2 
   0   7   4   45.72    8.45  -1 
   7   0  -8   45.72    8.45   2 
   3  -1  -3 2895.76   17.44  -1 
  -1   3   2 2895.76   17.44   2 
   4  -2  -8   75.87    6.27  -1 
  -2   4   7   75.87    6.27   2 
   5   0  -3    7.27    6.61  -1 
   0   5   0    7.27    6.61   2 
   5   2   0  133.02    9.79  -1 
   2   5  -4  133.02    9.79   2 
   6  -1  -8   12.38    8.40  -1 
  -1   6   5   12.38    8.40   2 
  -6   1  -8   36.04    9.93  -1 
   1  -6  11   36.04    9.93   2 
  -5   7   1    5.99    8.49  -1 
   7  -5  -2    5.99    8.49   2 
  -2   2   2   37.70    4.68  -1 
   2  -2  -2   37.70    4.68   2 
   2  -2  -6   26.79    4.39  -1 
  -2   2   6   26.79    4.39   2 
   6   1  -3  225.39    9.27  -1 
   1   6  -1  225.39    9.27   2 
   7   0  -8   76.17    9.27  -1 
   0   7   4   76.17    9.27   2 
  -5   5   1   11.16    5.23  -1 
   5  -5  -1   11.16    5.23   2 
  -4   2   0 1288.47   11.67  -1 
   2  -4   1 1288.47   11.67   2 
  -4   4   2  567.32    8.15  -1 
   4  -4  -2  567.32    8.15   2 
   4  -2  -9   69.26    5.74  -1 
  -2   4   8   69.26    5.74   2 
  -2   7   4  104.34    9.20  -1 
   7  -2  -7  104.34    9.20   2 
   4  -2 -10   83.29    6.58  -1 
  -2   4   9   83.29    6.58   2 
   7   0  -9   58.07    9.17  -1 
   0   7   5   58.07    9.17   2 
  -6   4  -1    0.74    6.70  -1 
   4  -6   2    0.74    6.70   2 
  -6   6   0  104.54    7.75  -1 
   6  -6   0  104.54    7.75   2 
  -5   3   0  492.99    8.53  -1 
   3  -5   1  492.99    8.53   2 
  -4   6   3   19.85    6.28  -1 
   6  -4  -4   19.85    6.28   2 
  -3   1   0  224.96    7.37  -1 
   1  -3   1  224.96    7.37   2 
   2  -2  -7  260.97    6.58  -1 
  -2   2   7  260.97    6.58   2 
   4  -2 -11   48.84    6.74  -1 
  -2   4  10   48.84    6.74   2 
   5  -1  -7  174.84    8.78  -1 
  -1   5   5  174.84    8.78   2 
   0  -2  -7  177.05    8.75  -1 
  -2   0   8  177.05    8.75   2 
  -2   4   4  796.18   10.55  -1 
   4  -2  -5  796.18   10.55   2 
  -5   7   2   43.76    7.38  -1 
   7  -5  -3   43.76    7.38   2 
   4  -2 -15   21.26    8.52  -1 
  -2   4  14   21.26    8.52   2 
   4  -2 -14    3.75    7.27  -1 
  -2   4  13    3.75    7.27   2 
   4  -2 -13   30.06    7.16  -1 
  -2   4  12   30.06    7.16   2 
   4  -2 -12   26.32    7.05  -1 
  -2   4  11   26.32    7.05   2 
   5   0  -4   67.56    6.52  -1 
   0   5   1   67.56    6.52   2 
   7   0 -10   23.32    9.33  -1 
   0   7   6   23.32    9.33   2 
  -7   5  -2   -4.65    8.52  -1 
   5  -7   3   -4.65    8.52   2 
  -3   5   4   86.26    7.34  -1 
   5  -3  -5   86.26    7.34   2 
  -5   1  -3  137.40    8.41  -1 
   1  -5   5  137.40    8.41   2 
  -5   5   2  873.45   10.11  -1 
   5  -5  -2  873.45   10.11   2 
   3  -1  -4 2338.79   15.59  -1 
  -1   3   3 2338.79   15.59   2 
   5  -1  -8  311.19    9.24  -1 
  -1   5   6  311.19    9.24   2 
   6   1  -4  107.06    8.42  -1 
   1   6   0  107.06    8.42   2 
   7   0 -11   13.38    9.55  -1 
   0   7   7   13.38    9.55   2 
  -6   4   0   -3.54    7.00  -1 
   4  -6   1   -3.54    7.00   2 
  -6   6   1  180.80    8.29  -1 
   6  -6  -1  180.80    8.29   2 
  -3   3   3  374.41    6.66  -1 
   3  -3  -3  374.41    6.66   2 
   2  -2  -8   10.87    4.66  -1 
  -2   2   8   10.87    4.66   2 
  -1   3   4   16.03    5.91  -1 
   3  -1  -5   16.03    5.91   2 
  -4   2   1 3327.32   16.88  -1 
   2  -4   0 3327.32   16.88   2 
  -4   4   3  233.95    6.48  -1 
   4  -4  -3  233.95    6.48   2 
   0   5   5  257.07   10.13  -1 
   5   0  -8  257.07   10.13   2 
   5  -1  -9  487.86   10.68  -1 
  -1   5   7  487.86   10.68   2 
   0  -2  -8   94.34    7.24  -1 
  -2   0   9   94.34    7.24   2 
  -5   3   1    8.63    5.63  -1 
   3  -5   0    8.63    5.63   2 
  -2   7   5  217.58   10.85  -1 
   7  -2  -8  217.58   10.85   2 
   0  -2 -16   30.11   11.08  -1 
  -2   0  17   30.11   11.08   2 
   2  -2 -16  163.18    9.54  -1 
  -2   2  16  163.18    9.54   2 
   2  -2  -9   27.01    4.81  -1 
  -2   2   9   27.01    4.81   2 
   5  -1 -10  303.15   10.12  -1 
  -1   5   8  303.15   10.12   2 
   5   0  -5   14.22    7.08  -1 
   0   5   2   14.22    7.08   2 
  -5   0  -6  306.12   12.66  -1 
   0  -5   9  306.12   12.66   2 
  -4   6   4   50.44    6.52  -1 
   6  -4  -5   50.44    6.52   2 
   1  -1  -3 1123.91   12.81  -1 
  -1   1   3 1123.91   12.81   2 
   2  -2 -15  132.77    8.95  -1 
  -2   2  15  132.77    8.95   2 
   2  -2 -10  492.40    7.96  -1 
  -2   2  10  492.40    7.96   2 
   5  -1 -11   61.39    8.89  -1 
  -1   5   9   61.39    8.89   2 
   5   2  -1   46.14    8.96  -1 
   2   5  -3   46.14    8.96   2 
  -6   4   1   77.91    7.67  -1 
   4  -6   0   77.91    7.67   2 
  -6   6   2   46.10    6.96  -1 
   6  -6  -2   46.10    6.96   2 
  -5   5   3  452.68    8.38  -1 
   5  -5  -3  452.68    8.38   2 
  -2   2   3  110.14    5.40  -1 
   2  -2  -3  110.14    5.40   2 
   0  -2 -15  136.78   10.19  -1 
  -2   0  16  136.78   10.19   2 
   0  -2  -9 1545.84   16.24  -1 
  -2   0  10 1545.84   16.24   2 
   2  -2 -14   83.53    6.72  -1 
  -2   2  14   83.53    6.72   2 
   2  -2 -13    5.71    5.79  -1 
  -2   2  13    5.71    5.79   2 
   2  -2 -12   14.79    6.16  -1 
  -2   2  12   14.79    6.16   2 
   2  -2 -11  629.55    9.12  -1 
  -2   2  11  629.55    9.12   2 
   3  -1  -5   19.35    5.29  -1 
  -1   3   4   19.35    5.29   2 
   5  -1 -13   95.33    8.23  -1 
  -1   5  11   95.33    8.23   2 
  -7   5   0   18.52    8.51  -1 
   5  -7   1   18.52    8.51   2 
  -5   1  -2    1.33    7.47  -1 
   1  -5   4    1.33    7.47   2 
   0  -2 -14  105.11    9.00  -1 
  -2   0  15  105.11    9.00   2 
   0  -2 -10  955.63   14.06  -1 
  -2   0  11  955.63   14.06   2 
  -2   4   5  740.54   10.15  -1 
   4  -2  -6  740.54   10.15   2 
  -3   5   5  104.60    7.50  -1 
   5  -3  -6  104.60    7.50   2 
  -3   1   1  177.16    7.86  -1 
   1  -3   0  177.16    7.86   2 
  -1   1   2   39.51    5.50  -1 
   1  -1  -2   39.51    5.50   2 
   0  -2 -13   32.02    7.44  -1 
  -2   0  14   32.02    7.44   2 
   0  -2 -12  138.24    9.09  -1 
  -2   0  13  138.24    9.09   2 
   0  -2 -11  104.10    8.16  -1 
  -2   0  12  104.10    8.16   2 
   5   0  -6   72.10    6.25  -1 
   0   5   3   72.10    6.25   2 
  -5   3   2  679.88    9.65  -1 
   3  -5  -1  679.88    9.65   2 
  -4   4   4  181.88    6.20  -1 
   4  -4  -4  181.88    6.20   2 
   3  -1  -6   22.07    6.70  -1 
  -1   3   5   22.07    6.70   2 
  -7   2  -4    8.27    7.67  -1 
   2  -7   7    8.27    7.67   2 
  -3   3   4  165.83    5.47  -1 
   3  -3  -4  165.83    5.47   2 
  -4   6   5   86.57    8.31  -1 
   6  -4  -6   86.57    8.31   2 
  -6   6   3    8.35    6.42  -1 
   6  -6  -3    8.35    6.42   2 
  -4   2   2 1075.17   10.48  -1 
   2  -4  -1 1075.17   10.48   2 
  -1   6   6   41.90    9.29  -1 
   6  -1  -9   41.90    9.29   2 
  -7   5   1    6.19    7.41  -1 
   5  -7   0    6.19    7.41   2 
  -5   5   4  236.24    7.42  -1 
   5  -5  -4  236.24    7.42   2 
  -6   4   2    3.78    5.08  -1 
   4  -6  -1    3.78    5.08   2 
   6   1  -7  496.22   10.73  -1 
   1   6   3  496.22   10.73   2 
  -3   7   6    6.45    8.89  -1 
   7  -3  -8    6.45    8.89   2 
  -5   1  -1   63.29    7.05  -1 
   1  -5   3   63.29    7.05   2 
   3  -1  -7  470.98    9.15  -1 
  -1   3   6  470.98    9.15   2 
   5   0  -8  223.35    9.19  -1 
   0   5   5  223.35    9.19   2 
  -7   2  -3   99.21    8.87  -1 
   2  -7   6   99.21    8.87   2 
   1   4   5   78.41    9.39  -1 
   4   1  -8   78.41    9.39   2 
   6   1  -8  132.69    8.55  -1 
   1   6   4  132.69    8.55   2 
   1  -1  -4  221.41    7.11  -1 
  -1   1   4  221.41    7.11   2 
  -1   3   5   13.96    6.01  -1 
   3  -1  -6   13.96    6.01   2 
  -3   5   6   44.31    7.38  -1 
   5  -3  -7   44.31    7.38   2 
  -7   5   2    0.36    8.41  -1 
   5  -7  -1    0.36    8.41   2 
  -6   2   0  140.63    8.35  -1 
   2  -6   2  140.63    8.35   2 
  -5   3   3   26.70    6.49  -1 
   3  -5  -2   26.70    6.49   2 
   0   5   6  280.50   10.71  -1 
   5   0  -9  280.50   10.71   2 
   3  -1 -16   -1.04    8.01  -1 
  -1   3  15   -1.04    8.01   2 
   3  -1  -8 1424.55   11.42  -1 
  -1   3   7 1424.55   11.42   2 
   4   1  -2  247.07    7.96  -1 
   1   4  -1  247.07    7.96   2 
   5   0  -9  213.63    8.11  -1 
   0   5   6  213.63    8.11   2 
  -4   4   5  785.24    9.15  -1 
   4  -4  -5  785.24    9.15   2 
  -4   6   6    5.94    8.06  -1 
   6  -4  -7    5.94    8.06   2 
  -6   4   3   20.98    7.16  -1 
   4  -6  -2   20.98    7.16   2 
  -5   5   5   43.17    5.98  -1 
   5  -5  -5   43.17    5.98   2 
   3  -1 -15   36.20    7.82  -1 
  -1   3  14   36.20    7.82   2 
   3  -1  -9 1067.79   12.10  -1 
  -1   3   8 1067.79   12.10   2 
   5   0 -14  154.65   11.52  -1 
   0   5  11  154.65   11.52   2 
   5   0 -11   36.94    8.40  -1 
   0   5   8   36.94    8.40   2 
   5   0 -10  191.90    8.09  -1 
   0   5   7  191.90    8.09   2 
   6   1  -9   15.40    8.50  -1 
   1   6   5   15.40    8.50   2 
  -2   4   6 1030.78   11.59  -1 
   4  -2  -7 1030.78   11.59   2 
  -4   2   3   51.88    5.85  -1 
   2  -4  -2   51.88    5.85   2 
  -3   1   2 1481.29   13.36  -1 
   1  -3  -1 1481.29   13.36   2 
  -2   2   4    5.08    4.21  -1 
   2  -2  -4    5.08    4.21   2 
   3  -1 -14  143.37    8.37  -1 
  -1   3  13  143.37    8.37   2 
   3  -1 -13  134.54    9.08  -1 
  -1   3  12  134.54    9.08   2 
   3  -1 -10  410.90   10.09  -1 
  -1   3   9  410.90   10.09   2 
   6   1 -10  146.69    9.39  -1 
   1   6   6  146.69    9.39   2 
  -6   1  -2    0.53    7.06  -1 
   1  -6   5    0.53    7.06   2 
  -5   1   0    1.83    6.76  -1 
   1  -5   2    1.83    6.76   2 
  -3   3   5   15.14    4.33  -1 
   3  -3  -5   15.14    4.33   2 
  -2   7   7   55.82   10.72  -1 
   7  -2 -10   55.82   10.72   2 
   3  -1 -12   59.72    6.57  -1 
  -1   3  11   59.72    6.57   2 
   3  -1 -11  107.61    6.80  -1 
  -1   3  10  107.61    6.80   2 
   4   3   1    8.00    9.90  -1 
   3   4  -5    8.00    9.90   2 
   6   1 -14   -2.05    9.63  -1 
   1   6  10   -2.05    9.63   2 
   6   1 -13    5.45    9.09  -1 
   1   6   9    5.45    9.09   2 
   6   1 -12   19.72    8.94  -1 
   1   6   8   19.72    8.94   2 
  -3   7   7   63.80   10.40  -1 
   7  -3  -9   63.80   10.40   2 
  -7   5   3   35.98    6.63  -1 
   5  -7  -2   35.98    6.63   2 
  -1   6   7  347.45   12.25  -1 
   6  -1 -10  347.45   12.25   2 
   1  -1 -17   69.75    8.97  -1 
  -1   1  17   69.75    8.97   2 
  -6   4   4   12.48    7.04  -1 
   4  -6  -3   12.48    7.04   2 
  -5   3   4   57.71    6.68  -1 
   3  -5  -3   57.71    6.68   2 
  -3   6   7   28.36    9.09  -1 
   6  -3  -9   28.36    9.09   2 
   1  -1  -5  548.88    8.70  -1 
  -1   1   5  548.88    8.70   2 
   4   0  -7   46.81    7.47  -1 
   0   4   5   46.81    7.47   2 
  -5   0  -3  113.10    9.24  -1 
   0  -5   6  113.10    9.24   2 
  -3   5   7    5.94    7.31  -1 
   5  -3  -8    5.94    7.31   2 
  -5   5   6   -5.34    6.31  -1 
   5  -5  -6   -5.34    6.31   2 
  -4   4   6  697.54    8.59  -1 
   4  -4  -6  697.54    8.59   2 
  -4   6   7   17.14    7.76  -1 
   6  -4  -8   17.14    7.76   2 
   1  -1 -16    6.88    6.91  -1 
  -1   1  16    6.88    6.91   2 
   4   1  -3    8.27    5.48  -1 
   1   4   0    8.27    5.48   2 
  -6   1  -1   15.18    7.02  -1 
   1  -6   4   15.18    7.02   2 
  -5   1   1   88.14    7.26  -1 
   1  -5   1   88.14    7.26   2 
  -4   2   4  216.86    6.37  -1 
   2  -4  -3  216.86    6.37   2 
   1  -1 -15   15.06    6.82  -1 
  -1   1  15   15.06    6.82   2 
   3   2   1  719.86   14.80  -1 
   2   3  -4  719.86   14.80   2 
   4   0 -13   22.09    9.02  -1 
   0   4  11   22.09    9.02   2 
   4   0 -10   10.35    8.09  -1 
   0   4   8   10.35    8.09   2 
   4   0  -9   34.86    7.89  -1 
   0   4   7   34.86    7.89   2 
  -6   4   5   27.79    7.06  -1 
   4  -6  -4   27.79    7.06   2 
   1  -1  -6    4.60    4.30  -1 
  -1   1   6    4.60    4.30   2 
   4   0 -12  296.18    9.37  -1 
   0   4  10  296.18    9.37   2 
   4   0 -11  321.07    8.67  -1 
   0   4   9  321.07    8.67   2 
  -3   3   6  157.44    5.57  -1 
   3  -3  -6  157.44    5.57   2 
  -1   3   6  424.27    8.97  -1 
   3  -1  -7  424.27    8.97   2 
  -2   4   7   96.22    7.57  -1 
   4  -2  -8   96.22    7.57   2 
  -5   3   5  105.22    6.98  -1 
   3  -5  -4  105.22    6.98   2 
  -3   1   3 2799.75   17.05  -1 
   1  -3  -2 2799.75   17.05   2 
  -1   1   3 1052.43   12.52  -1 
   1  -1  -3 1052.43   12.52   2 
   1  -1 -14   41.85    6.55  -1 
  -1   1  14   41.85    6.55   2 
   4   1  -4  119.69    8.01  -1 
   1   4   1  119.69    8.01   2 
   5   2  -4 1280.23   14.60  -1 
   2   5   0 1280.23   14.60   2 
  -5   5   7   44.13    6.13  -1 
   5  -5  -7   44.13    6.13   2 
  -3   6   8   47.81    9.47  -1 
   6  -3 -10   47.81    9.47   2 
  -2   2   5   69.60    4.77  -1 
   2  -2  -5   69.60    4.77   2 
  -1  -1 -15   10.95    8.08  -1 
  -1  -1  16   10.95    8.08   2 
   0   5   7  215.67    9.88  -1 
   5   0 -10  215.67    9.88   2 
   1  -1 -13   21.07    6.08  -1 
  -1   1  13   21.07    6.08   2 
   1  -1  -7  213.99    6.28  -1 
  -1   1   7  213.99    6.28   2 
  -4   6   8    2.86    8.96  -1 
   6  -4  -9    2.86    8.96   2 
  -4   4   7  548.67    8.51  -1 
   4  -4  -7  548.67    8.51   2 
  -1   6   8  333.96   13.06  -1 
   6  -1 -11  333.96   13.06   2 
   1  -1 -12   55.39    5.96  -1 
  -1   1  12   55.39    5.96   2 
  -3   5   8   38.17    7.91  -1 
   5  -3  -9   38.17    7.91   2 
  -5   1   2  173.37    8.34  -1 
   1  -5   0  173.37    8.34   2 
  -4   0   0  349.53   10.09  -1 
   0  -4   2  349.53   10.09   2 
  -1  -1 -14  147.79   10.83  -1 
  -1  -1  15  147.79   10.83   2 
   1  -1 -11   49.79    5.64  -1 
  -1   1  11   49.79    5.64   2 
   1  -1 -10   75.51    5.38  -1 
  -1   1  10   75.51    5.38   2 
   1  -1  -9    4.92    4.64  -1 
  -1   1   9    4.92    4.64   2 
   1  -1  -8    0.98    4.81  -1 
  -1   1   8    0.98    4.81   2 
  -6   4   6   81.83    7.19  -1 
   4  -6  -5   81.83    7.19   2 
  -4   2   5  782.31    8.89  -1 
   2  -4  -4  782.31    8.89   2 
   2   0 -17   33.27    8.30  -1 
   0   2  16   33.27    8.30   2 
   4   1  -5   64.64    7.77  -1 
   1   4   2   64.64    7.77   2 
  -5   3   6   81.57    6.68  -1 
   3  -5  -5   81.57    6.68   2 
   1   4   6   18.13    9.13  -1 
   4   1  -9   18.13    9.13   2 
  -5   5   8  164.30    7.54  -1 
   5  -5  -8  164.30    7.54   2 
  -3   3   7  389.88    6.71  -1 
   3  -3  -7  389.88    6.71   2 
  -1  -1 -13  306.50   10.75  -1 
  -1  -1  14  306.50   10.75   2 
   2   0 -16  170.69    9.65  -1 
   0   2  15  170.69    9.65   2 
   4   1  -6   63.94    8.01  -1 
   1   4   3   63.94    8.01   2 
   5   2  -6    4.45    7.49  -1 
   2   5   2    4.45    7.49   2 
  -2   4   8   54.57    7.45  -1 
   4  -2  -9   54.57    7.45   2 
  -4   6   9   17.34    9.35  -1 
   6  -4 -10   17.34    9.35   2 
  -6   2   4   43.28    7.67  -1 
   2  -6  -2   43.28    7.67   2 
  -4   4   8   34.03    5.69  -1 
   4  -4  -8   34.03    5.69   2 
  -3   6   9   16.42    9.64  -1 
   6  -3 -11   16.42    9.64   2 
   4   1 -14   58.59    9.43  -1 
   1   4  11   58.59    9.43   2 
   5   2 -15  113.99   10.68  -1 
   2   5  11  113.99   10.68   2 
   6   3 -13   29.91    9.38  -1 
   3   6   8   29.91    9.38   2 
   6   3 -10   12.58    8.23  -1 
   3   6   5   12.58    8.23   2 
  -6   4   7    2.80    7.43  -1 
   4  -6  -6    2.80    7.43   2 
  -5   1   3  239.80    8.44  -1 
   1  -5  -1  239.80    8.44   2 
  -1  -1 -12  538.36   13.13  -1 
  -1  -1  13  538.36   13.13   2 
   2   0 -15  103.22    8.85  -1 
   0   2  14  103.22    8.85   2 
   2   0  -4 1037.60   13.61  -1 
   0   2   3 1037.60   13.61   2 
   4   1 -13   14.57    8.80  -1 
   1   4  10   14.57    8.80   2 
   4   1  -7   71.78    7.87  -1 
   1   4   4   71.78    7.87   2 
   5   2 -14  171.59   10.65  -1 
   2   5  10  171.59   10.65   2 
  -3   5   9   11.62    8.47  -1 
   5  -3 -10   11.62    8.47   2 
  -2   2   6   27.06    4.43  -1 
   2  -2  -6   27.06    4.43   2 
   2   0 -14   31.53    7.14  -1 
   0   2  13   31.53    7.14   2 
   2   3   4  544.00   20.48  -1 
   3   2  -7  544.00   20.48   2 
   4   1 -12   41.33    8.74  -1 
   1   4   9   41.33    8.74   2 
   4   1  -8  106.65    8.26  -1 
   1   4   5  106.65    8.26   2 
   5   2 -13  296.53   10.47  -1 
   2   5   9  296.53   10.47   2 
  -1  -1  -5   43.84   10.19  -1 
  -1  -1   6   43.84   10.19   2 
  -5   0   0  100.43    7.36  -1 
   0  -5   3  100.43    7.36   2 
  -5   3   7   20.95    5.94  -1 
   3  -5  -6   20.95    5.94   2 
  -4   2   6  746.54    8.72  -1 
   2  -4  -5  746.54    8.72   2 
  -1  -1 -11  208.00   10.49  -1 
  -1  -1  12  208.00   10.49   2 
  -1   4   8  231.60   10.62  -1 
   4  -1 -10  231.60   10.62   2 
  -1   6   9  108.63   10.22  -1 
   6  -1 -12  108.63   10.22   2 
   4   1 -11  192.08    8.17  -1 
   1   4   8  192.08    8.17   2 
  -6   2   5  170.83    8.76  -1 
   2  -6  -3  170.83    8.76   2 
  -5   5   9   49.69    6.81  -1 
   5  -5  -9   49.69    6.81   2 
   0   0 -17   14.75    8.14  -1 
   0   0  17   14.75    8.14   2 
   0   5   8   23.39    8.27  -1 
   5   0 -11   23.39    8.27   2 
   2   0 -13   94.15    7.02  -1 
   0   2  12   94.15    7.02   2 
   2   0  -5 2694.45   18.50  -1 
   0   2   4 2694.45   18.50   2 
  -6   4   8   32.70    7.11  -1 
   4  -6  -7   32.70    7.11   2 
  -1   1   4  213.26    6.72  -1 
   1  -1  -4  213.26    6.72   2 
   2   0 -12  190.40    7.65  -1 
   0   2  11  190.40    7.65   2 
  -3   3   8 1095.54   10.93  -1 
   3  -3  -8 1095.54   10.93   2 
  -4   4   9  209.01    7.24  -1 
   4  -4  -9  209.01    7.24   2 
   2   0 -11 1179.14   12.42  -1 
   0   2  10 1179.14   12.42   2 
   2   0  -6 2275.97   17.12  -1 
   0   2   5 2275.97   17.12   2 
   3   2   0  743.40   15.09  -1 
   2   3  -3  743.40   15.09   2 
  -2   4   9  119.60    8.43  -1 
   4  -2 -10  119.60    8.43   2 
  -5   3   8   18.52    7.50  -1 
   3  -5  -7   18.52    7.50   2 
  -3   1   5   24.28    6.64  -1 
   1  -3  -4   24.28    6.64   2 
   0   0 -16   19.34    7.62  -1 
   0   0  16   19.34    7.62   2 
   2   0 -10 1443.73   12.90  -1 
   0   2   9 1443.73   12.90   2 
   2   0  -7 2948.08   19.03  -1 
   0   2   6 2948.08   19.03   2 
   3   1 -14   -5.59    7.14  -1 
   1   3  12   -5.59    7.14   2 
  -3   5  10    3.30    9.09  -1 
   5  -3 -11    3.30    9.09   2 
  -6   2   6  412.53   10.77  -1 
   2  -6  -4  412.53   10.77   2 
  -4   2   7 1102.86   11.65  -1 
   2  -4  -6 1102.86   11.65   2 
   2   0  -9  120.61    6.69  -1 
   0   2   8  120.61    6.69   2 
   2   0  -8  196.24    6.90  -1 
   0   2   7  196.24    6.90   2 
  -6   4   9   10.45    8.83  -1 
   4  -6  -8   10.45    8.83   2 
   0   0 -15    7.67    8.46  -1 
   0   0  15    7.67    8.46   2 
  -5   1   5  132.40    7.69  -1 
   1  -5  -3  132.40    7.69   2 
  -2   2   7  214.52    6.01  -1 
   2  -2  -7  214.52    6.01   2 
   3   1 -12  212.76    8.39  -1 
   1   3  10  212.76    8.39   2 
  -5   0   2    7.47    6.68  -1 
   0  -5   1    7.47    6.68   2 
  -4   4  10  240.07    7.31  -1 
   4  -4 -10  240.07    7.31   2 
  -2   0 -16   43.81    9.59  -1 
   0  -2  17   43.81    9.59   2 
   3   1 -11  136.27    9.14  -1 
   1   3   9  136.27    9.14   2 
   3   2 -17    6.41   10.34  -1 
   2   3  14    6.41   10.34   2 
  -6   2   7  319.07   10.10  -1 
   2  -6  -5  319.07   10.10   2 
  -5   3   9   46.49    8.55  -1 
   3  -5  -8   46.49    8.55   2 
  -3   3   9  396.36    7.93  -1 
   3  -3  -9  396.36    7.93   2 
  -1   4   9  149.48   10.14  -1 
   4  -1 -11  149.48   10.14   2 
   0   0 -14    7.35    7.41  -1 
   0   0  14    7.35    7.41   2 
   1   1 -17   38.18    8.77  -1 
   1   1  16   38.18    8.77   2 
   1   4   7   51.00    9.74  -1 
   4   1 -10   51.00    9.74   2 
   3   1 -10   42.17    8.20  -1 
   1   3   8   42.17    8.20   2 
   3   1  -6  909.98   12.35  -1 
   1   3   4  909.98   12.35   2 
  -4   2   8   85.84    7.63  -1 
   2  -4  -7   85.84    7.63   2 
   0   5   9  131.89   10.87  -1 
   5   0 -12  131.89   10.87   2 
   3   1  -9  151.17    6.97  -1 
   1   3   7  151.17    6.97   2 
   3   1  -8    4.85    7.43  -1 
   1   3   6    4.85    7.43   2 
   3   2 -16    0.05   10.27  -1 
   2   3  13    0.05   10.27   2 
   4   3 -16  120.17   11.37  -1 
   3   4  12  120.17   11.37   2 
  -2   4  10   30.51    8.05  -1 
   4  -2 -11   30.51    8.05   2 
  -3   5  11   59.15    9.98  -1 
   5  -3 -12   59.15    9.98   2 
  -6   4  10    3.43    8.18  -1 
   4  -6  -9    3.43    8.18   2 
  -2   0 -15  206.45   12.71  -1 
   0  -2  16  206.45   12.71   2 
  -1   1   5  552.21    8.55  -1 
   1  -1  -5  552.21    8.55   2 
   0   0 -13   -1.65    6.08  -1 
   0   0  13   -1.65    6.08   2 
   1   1 -16    8.21    7.61  -1 
   1   1  15    8.21    7.61   2 
   3   2 -15   -1.67    9.43  -1 
   2   3  12   -1.67    9.43   2 
   3   2  -1  666.99   13.14  -1 
   2   3  -2  666.99   13.14   2 
   4   3 -15  149.87   10.27  -1 
   3   4  11  149.87   10.27   2 
   5   4 -13   34.11    9.26  -1 
   4   5   8   34.11    9.26   2 
  -6   2   8  374.91   10.47  -1 
   2  -6  -6  374.91   10.47   2 
   5   4 -12   15.04    8.67  -1 
   4   5   7   15.04    8.67   2 
  -4   4  11  199.57    8.11  -1 
   4  -4 -11  199.57    8.11   2 
  -5   3  10    9.75    7.04  -1 
   3  -5  -9    9.75    7.04   2 
  -2   2   8   10.55    4.38  -1 
   2  -2  -8   10.55    4.38   2 
   3   2 -14    0.98    9.14  -1 
   2   3  11    0.98    9.14   2 
  -3   3  10   33.01    7.19  -1 
   3  -3 -10   33.01    7.19   2 
  -4   2   9   65.09    7.47  -1 
   2  -4  -8   65.09    7.47   2 
   0   0 -12   -1.00    5.36  -1 
   0   0  12   -1.00    5.36   2 
   1   1 -15  166.32    8.89  -1 
   1   1  14  166.32    8.89   2 
   4   3 -13   39.10    8.32  -1 
   3   4   9   39.10    8.32   2 
  -5   0   4   64.26    6.43  -1 
   0  -5  -1   64.26    6.43   2 
  -5   1   7  165.70    8.58  -1 
   1  -5  -5  165.70    8.58   2 
  -3   1   7  447.41    9.01  -1 
   1  -3  -6  447.41    9.01   2 
  -2   0 -14  103.89   10.56  -1 
   0  -2  15  103.89   10.56   2 
  -1   4  10   13.87    9.32  -1 
   4  -1 -12   13.87    9.32   2 
  -3   5  12   51.06   10.20  -1 
   5  -3 -13   51.06   10.20   2 
  -6   2   9   23.58    8.89  -1 
   2  -6  -7   23.58    8.89   2 
  -1   1 -17   16.58    8.78  -1 
   1  -1  17   16.58    8.78   2 
   3   2  -2 3515.17   22.94  -1 
   2   3  -1 3515.17   22.94   2 
  -2   4  11   18.93    8.54  -1 
   4  -2 -12   18.93    8.54   2 
  -5   3  11   22.37    8.41  -1 
   3  -5 -10   22.37    8.41   2 
   0   0 -11  168.64    6.47  -1 
   0   0  11  168.64    6.47   2 
   1   1 -14  339.48    9.99  -1 
   1   1  13  339.48    9.99   2 
  -4   4  12  109.11    8.19  -1 
   4  -4 -12  109.11    8.19   2 
   3   2 -11   14.09    8.10  -1 
   2   3   8   14.09    8.10   2 
  -5   0   5    5.00    6.23  -1 
   0  -5  -2    5.00    6.23   2 
  -5   1   8  287.26    8.98  -1 
   1  -5  -6  287.26    8.98   2 
  -4   2  10  104.91    7.96  -1 
   2  -4  -9  104.91    7.96   2 
  -3   3  11   61.94    5.98  -1 
   3  -3 -11   61.94    5.98   2 
  -2   2   9   35.08    4.60  -1 
   2  -2  -9   35.08    4.60   2 
   3   2  -3 2518.97   18.68  -1 
   2   3   0 2518.97   18.68   2 
   4   3  -8   46.25    7.61  -1 
   3   4   4   46.25    7.61   2 
   4   3  -6  408.02    9.66  -1 
   3   4   2  408.02    9.66   2 
  -6   2  10   51.41    9.15  -1 
   2  -6  -8   51.41    9.15   2 
  -2   0 -13  104.82    9.49  -1 
   0  -2  14  104.82    9.49   2 
  -1   1 -16   27.16    7.91  -1 
   1  -1  16   27.16    7.91   2 
  -1   1   6    8.43    4.62  -1 
   1  -1  -6    8.43    4.62   2 
   0   0 -10  437.88    8.06  -1 
   0   0  10  437.88    8.06   2 
   1   1 -13  545.09   10.13  -1 
   1   1  12  545.09   10.13   2 
  -7   0   4  232.84   10.62  -1 
   0  -7   0  232.84   10.62   2 
  -3   1   8 1285.68   10.98  -1 
   1  -3  -7 1285.68   10.98   2 
  -5   3  12   44.50    7.20  -1 
   3  -5 -11   44.50    7.20   2 
   0   0  -9   63.69    5.24  -1 
   0   0   9   63.69    5.24   2 
   1   1 -12  245.63    7.99  -1 
   1   1  11  245.63    7.99   2 
  -1   3  10  236.50    9.12  -1 
   3  -1 -11  236.50    9.12   2 
  -2   4  12   52.57    9.19  -1 
   4  -2 -13   52.57    9.19   2 
  -5   1   9  466.18   10.34  -1 
   1  -5  -7  466.18   10.34   2 
  -4   4  13   -2.05    7.14  -1 
   4  -4 -13   -2.05    7.14   2 
   0   2 -17   42.08    9.65  -1 
   2   0  16   42.08    9.65   2 
  -7   0   5   14.11    8.59  -1 
   0  -7  -1   14.11    8.59   2 
  -6   2  11  163.95   10.46  -1 
   2  -6  -9  163.95   10.46   2 
  -4   2  11   66.14    8.37  -1 
   2  -4 -10   66.14    8.37   2 
  -1   1 -15   28.90    9.55  -1 
   1  -1  15   28.90    9.55   2 
  -3   1 -16   29.99   12.17  -1 
   1  -3  17   29.99   12.17   2 
  -3   3  12  240.44    8.15  -1 
   3  -3 -12  240.44    8.15   2 
  -2   0 -12    3.16    7.74  -1 
   0  -2  13    3.16    7.74   2 
  -2   2  10  463.97    7.80  -1 
   2  -2 -10  463.97    7.80   2 
   0   0  -8  279.45    6.80  -1 
   0   0   8  279.45    6.80   2 
   1   1 -11   47.00    6.58  -1 
   1   1  10   47.00    6.58   2 
   3   4 -15   55.45    9.75  -1 
   4   3  11   55.45    9.75   2 
   4   5 -13   20.63    9.64  -1 
   5   4   8   20.63    9.64   2 
  -5   3  13   43.34    9.48  -1 
   3  -5 -12   43.34    9.48   2 
  -3   1   9 1066.94   11.78  -1 
   1  -3  -8 1066.94   11.78   2 
   2   3 -15   48.93    9.82  -1 
   3   2  12   48.93    9.82   2 
  -7   0   6    2.02    8.73  -1 
   0  -7  -2    2.02    8.73   2 
  -6  -1   1 1287.11   18.31  -1 
  -1  -6   3 1287.11   18.31   2 
  -5   1  10  273.14    9.85  -1 
   1  -5  -8  273.14    9.85   2 
  -4  -1   2  261.48    9.27  -1 
  -1  -4   1  261.48    9.27   2 
  -1   1   7  222.95    6.24  -1 
   1  -1  -7  222.95    6.24   2 
   0   2 -16  210.73   10.57  -1 
   2   0  15  210.73   10.57   2 
   3   4 -14  228.76   11.02  -1 
   4   3  10  228.76   11.02   2 
   4   5 -12  122.36   10.88  -1 
   5   4   7  122.36   10.88   2 
  -6   2  12  131.03   10.75  -1 
   2  -6 -10  131.03   10.75   2 
   0   0  -7  117.49    6.00  -1 
   0   0   7  117.49    6.00   2 
   1   1 -10  244.33    7.65  -1 
   1   1   9  244.33    7.65   2 
  -2   4  13   -7.21    9.50  -1 
   4  -2 -14   -7.21    9.50   2 
  -7   0   7    0.51    6.91  -1 
   0  -7  -3    0.51    6.91   2 
  -6  -1   2  692.61   13.53  -1 
  -1  -6   2  692.61   13.53   2 
  -4   2  12   28.25    5.95  -1 
   2  -4 -11   28.25    5.95   2 
  -1   1 -14  341.57    9.28  -1 
   1  -1  14  341.57    9.28   2 
   2   3 -14   94.96    9.39  -1 
   3   2  11   94.96    9.39   2 
   0   2   8  108.31    8.77  -1 
   2   0  -9  108.31    8.77   2 
  -1   3  11   42.88    8.57  -1 
   3  -1 -12   42.88    8.57   2 
  -5   0   8  142.65    6.02  -1 
   0  -5  -5  142.65    6.02   2 
  -4  -1   3    5.42    6.48  -1 
  -1  -4   0    5.42    6.48   2 
  -3   3  13  406.13    9.24  -1 
   3  -3 -13  406.13    9.24   2 
   0   0  -6 6046.00   27.21  -1 
   0   0   6 6046.00   27.21   2 
   4   5 -10  137.83   10.15  -1 
   5   4   5  137.83   10.15   2 
  -6  -1   3  172.71    9.11  -1 
  -1  -6   1  172.71    9.11   2 
  -6   1  11  277.20   11.35  -1 
   1  -6  -8  277.20   11.35   2 
  -5   1  11   40.39    8.82  -1 
   1  -5  -9   40.39    8.82   2 
  -3   1 -15   -0.51    9.65  -1 
   1  -3  16   -0.51    9.65   2 
  -3   1  10  345.27    7.65  -1 
   1  -3  -9  345.27    7.65   2 
  -2   2  11  661.61    8.99  -1 
   2  -2 -11  661.61    8.99   2 
   0   2 -15   79.07    8.63  -1 
   2   0  14   79.07    8.63   2 
   1   1  -9  954.13   12.00  -1 
   1   1   8  954.13   12.00   2 
   2   2  -9   16.00    7.33  -1 
   2   2   7   16.00    7.33   2 
   2   3 -13    8.23    8.93  -1 
   3   2  10    8.23    8.93   2 
   3   4 -12   56.22    8.69  -1 
   4   3   8   56.22    8.69   2 
  -6  -1   4   66.17    7.60  -1 
  -1  -6   0   66.17    7.60   2 
  -5   0   9  199.59    7.90  -1 
   0  -5  -6  199.59    7.90   2 
  -4  -1   4   92.79    6.79  -1 
  -1  -4  -1   92.79    6.79   2 
  -4   2  13   30.91    8.63  -1 
   2  -4 -12   30.91    8.63   2 
  -1   1 -13  271.12    8.06  -1 
   1  -1  13  271.12    8.06   2 
   0   0  -5 3395.82   21.37  -1 
   0   0   5 3395.82   21.37   2 
   1   1  -8 2145.17   14.83  -1 
   1   1   7 2145.17   14.83   2 
   1   4 -17   20.28   10.39  -1 
   4   1  14   20.28   10.39   2 
   4   5  -6  288.77   11.65  -1 
   5   4   1  288.77   11.65   2 
  -1   1   8    1.57    4.63  -1 
   1  -1  -8    1.57    4.63   2 
   3   4 -11   18.11    8.06  -1 
   4   3   7   18.11    8.06   2 
  -2   4  14   12.17   10.17  -1 
   4  -2 -15   12.17   10.17   2 
  -7   0   9   30.03    9.27  -1 
   0  -7  -5   30.03    9.27   2 
  -6  -1   5  529.48   11.88  -1 
  -1  -6  -1  529.48   11.88   2 
  -5   1  12   66.60    9.14  -1 
   1  -5 -10   66.60    9.14   2 
  -3   1  11  158.76    8.56  -1 
   1  -3 -10  158.76    8.56   2 
  -3   3  14  140.81    7.99  -1 
   3  -3 -14  140.81    7.99   2 
   0   2 -14  115.51    8.13  -1 
   2   0  13  115.51    8.13   2 
   2   2  -8  307.22    8.59  -1 
   2   2   6  307.22    8.59   2 
  -5   0  10  181.92    9.33  -1 
   0  -5  -7  181.92    9.33   2 
  -4  -1   5   49.92    6.49  -1 
  -1  -4  -2   49.92    6.49   2 
   0   0  -4 3432.82   23.33  -1 
   0   0   4 3432.82   23.33   2 
   1   1  -7  270.75    7.67  -1 
   1   1   6  270.75    7.67   2 
   3   4 -10  202.26    8.95  -1 
   4   3   6  202.26    8.95   2 
  -5   0 -11   73.62   14.78  -1 
   0  -5  14   73.62   14.78   2 
  -2   2  12   27.47    8.08  -1 
   2  -2 -12   27.47    8.08   2 
  -2   2 -16  141.38   11.60  -1 
   2  -2  16  141.38   11.60   2 
  -7   0  10   13.06    9.48  -1 
   0  -7  -6   13.06    9.48   2 
  -6  -1   6  451.29   12.36  -1 
  -1  -6  -2  451.29   12.36   2 
  -3   1 -14    4.06    9.44  -1 
   1  -3  15    4.06    9.44   2 
  -1   3 -17   15.03    9.51  -1 
   3  -1  16   15.03    9.51   2 
   1   4 -16   22.81    9.92  -1 
   4   1  13   22.81    9.92   2 
  -4  -1   6   54.97    8.26  -1 
  -1  -4  -3   54.97    8.26   2 
  -4   2  14    5.51    6.20  -1 
   2  -4 -13    5.51    6.20   2 
  -1   1 -12  671.05   10.02  -1 
   1  -1  12  671.05   10.02   2 
   0   0  -3    5.92    4.90  -1 
   0   0   3    5.92    4.90   2 
   1   2 -11  178.10    8.78  -1 
   2   1   9  178.10    8.78   2 
   2   5 -15    8.10    9.66  -1 
   5   2  11    8.10    9.66   2 
   3   4  -9  208.28    8.91  -1 
   4   3   5  208.28    8.91   2 
   3   6 -13   75.20   11.31  -1 
   6   3   8   75.20   11.31   2 
  -6  -1   7  305.92   11.19  -1 
  -1  -6  -3  305.92   11.19   2 
   0   2 -13    4.74    6.90  -1 
   2   0  12    4.74    6.90   2 
   1   1  -6   36.01    6.52  -1 
   1   1   5   36.01    6.52   2 
  -1   1   9   13.00    6.25  -1 
   1  -1  -9   13.00    6.25   2 
  -8  -1   5   16.03    9.39  -1 
  -1  -8   0   16.03    9.39   2 
  -7   0  11   -2.55    9.76  -1 
   0  -7  -7   -2.55    9.76   2 
  -3   1  12   52.20    6.08  -1 
   1  -3 -11   52.20    6.08   2 
  -3   3  15   40.57    8.26  -1 
   3  -3 -15   40.57    8.26   2 
  -2   0   8  246.59    8.32  -1 
   0  -2  -7  246.59    8.32   2 
   1   3 -13  232.42   10.29  -1 
   3   1  11  232.42   10.29   2 
   1   4 -15   24.84    9.69  -1 
   4   1  12   24.84    9.69   2 
   3   4  -8   26.78    7.75  -1 
   4   3   4   26.78    7.75   2 
  -6  -1   8   81.75    8.80  -1 
  -1  -6  -4   81.75    8.80   2 
  -4  -1   7   57.45    6.23  -1 
  -1  -4  -4   57.45    6.23   2 
   0   0  -2    3.10    5.07  -1 
   0   0   2    3.10    5.07   2 
   1   1  -5  325.23   10.48  -1 
   1   1   4  325.23   10.48   2 
   2   5 -14   10.05    9.10  -1 
   5   2  10   10.05    9.10   2 
  -1   3 -16   -1.43   10.27  -1 
   3  -1  15   -1.43   10.27   2 
  -5   1  14  191.42   11.13  -1 
   1  -5 -12  191.42   11.13   2 
  -4   0  11  414.61   10.37  -1 
   0  -4  -9  414.61   10.37   2 
  -4   2  15   23.89    9.77  -1 
   2  -4 -14   23.89    9.77   2 
  -2   2 -15  448.70   11.04  -1 
   2  -2  15  448.70   11.04   2 
  -2   2  13   -2.89    6.04  -1 
   2  -2 -13   -2.89    6.04   2 
   2   2  -4  305.25    9.65  -1 
   2   2   2  305.25    9.65   2 
  -8  -1   7   35.88   10.62  -1 
  -1  -8  -2   35.88   10.62   2 
  -3  -1   6  910.43   12.39  -1 
  -1  -3  -4  910.43   12.39   2 
  -1   1 -11  295.14    7.64  -1 
   1  -1  11  295.14    7.64   2 
   0   2 -12  160.83    7.31  -1 
   2   0  11  160.83    7.31   2 
   2   3  -9 1108.45   12.23  -1 
   3   2   6 1108.45   12.23   2 
   3   6 -11   22.07    9.21  -1 
   6   3   6   22.07    9.21   2 
  -6  -1   9   -2.80    7.74  -1 
  -1  -6  -5   -2.80    7.74   2 
  -3   1 -13   -3.27    9.38  -1 
   1  -3  14   -3.27    9.38   2 
  -3   1  13  117.76    8.73  -1 
   1  -3 -12  117.76    8.73   2 
  -2   0   9  146.02    7.96  -1 
   0  -2  -8  146.02    7.96   2 
   1   1  -4  220.96   10.51  -1 
   1   1   3  220.96   10.51   2 
   1   4 -14  163.37   10.50  -1 
   4   1  11  163.37   10.50   2 
   2   5 -13    3.50    7.76  -1 
   5   2   9    3.50    7.76   2 
  -1   1  10   76.14    5.39  -1 
   1  -1 -10   76.14    5.39   2 
   3   6 -10  214.08   11.05  -1 
   6   3   5  214.08   11.05   2 
  -6  -1  10  108.98    9.77  -1 
  -1  -6  -6  108.98    9.77   2 
  -5   1  15   76.78   10.94  -1 
   1  -5 -13   76.78   10.94   2 
  -1   3 -15   -1.22    7.92  -1 
   3  -1  14   -1.22    7.92   2 
  -4  -1   9   13.56    6.54  -1 
  -1  -4  -6   13.56    6.54   2 
  -2   2 -14  192.41    8.92  -1 
   2  -2  14  192.41    8.92   2 
  -2   2  14   84.83    6.70  -1 
   2  -2 -14   84.83    6.70   2 
   1   1  -3   92.57    8.07  -1 
   1   1   2   92.57    8.07   2 
   3   6  -9  400.53   12.28  -1 
   6   3   4  400.53   12.28   2 
   0   2 -11  333.22    9.81  -1 
   2   0  10  333.22    9.81   2 
  -3   1  14  187.76   10.35  -1 
   1  -3 -13  187.76   10.35   2 
  -2   0  10 1898.14   15.53  -1 
   0  -2  -9 1898.14   15.53   2 
  -1   1 -10  141.01    5.99  -1 
   1  -1  10  141.01    5.99   2 
  -5   0 -10   11.99   12.23  -1 
   0  -5  13   11.99   12.23   2 
  -6  -1  11  110.67    8.86  -1 
  -1  -6  -7  110.67    8.86   2 
  -4  -1  10   93.67    8.80  -1 
  -1  -4  -7   93.67    8.80   2 
  -4   0  13   20.65    8.85  -1 
   0  -4 -11   20.65    8.85   2 
   3   6  -8  340.31   11.50  -1 
   6   3   3  340.31   11.50   2 
  -5  -2   4 1213.89   16.52  -1 
  -2  -5   0 1213.89   16.52   2 
  -3   1 -12    5.82    8.56  -1 
   1  -3  13    5.82    8.56   2 
  -1   1  11   40.83    5.59  -1 
   1  -1 -11   40.83    5.59   2 
  -7  -2   3    1.79    8.89  -1 
  -2  -7   2    1.79    8.89   2 
  -7  -2   4    5.56    8.58  -1 
  -2  -7   1    5.56    8.58   2 
  -6  -1  12   12.46    9.32  -1 
  -1  -6  -8   12.46    9.32   2 
  -1   3 -14    2.10    8.42  -1 
   3  -1  13    2.10    8.42   2 
   0   0   2    2.68    5.29  -1 
   0   0  -2    2.68    5.29   2 
   1   3 -10  680.58    9.85  -1 
   3   1   8  680.58    9.85   2 
   1   4 -12  450.58   11.26  -1 
   4   1   9  450.58   11.26   2 
   3   6  -7   32.67    8.92  -1 
   6   3   2   32.67    8.92   2 
  -2   2  15  170.56   10.49  -1 
   2  -2 -15  170.56   10.49   2 
  -7  -2   6   14.59    8.89  -1 
  -2  -7  -1   14.59    8.89   2 
  -4  -1  11  147.84    7.96  -1 
  -1  -4  -8  147.84    7.96   2 
  -4   0  14    3.37    9.21  -1 
   0  -4 -12    3.37    9.21   2 
  -3   1  15   59.61    9.30  -1 
   1  -3 -14   59.61    9.30   2 
  -2   0  11 1403.41   13.86  -1 
   0  -2 -10 1403.41   13.86   2 
   0   2 -10  355.32    8.57  -1 
   2   0   9  355.32    8.57   2 
   0   5 -15  154.84   11.32  -1 
   5   0  12  154.84   11.32   2 
   1   6 -14   14.48    9.92  -1 
   6   1  10   14.48    9.92   2 
  -7  -2   7   19.27    9.48  -1 
  -2  -7  -2   19.27    9.48   2 
  -2   2 -13   53.74    6.45  -1 
   2  -2  13   53.74    6.45   2 
   3   6  -6    8.44    8.57  -1 
   6   3   1    8.44    8.57   2 
  -1   3  15   12.92    9.53  -1 
   3  -1 -16   12.92    9.53   2 
  -7  -2   8   14.86    9.21  -1 
  -2  -7  -3   14.86    9.21   2 
  -6  -1  13    6.19    7.88  -1 
  -1  -6  -9    6.19    7.88   2 
  -5  -2   7  290.50    9.52  -1 
  -2  -5  -3  290.50    9.52   2 
  -3  -1  10   43.87    8.25  -1 
  -1  -3  -8   43.87    8.25   2 
  -1   1  -9 1057.45   10.90  -1 
   1  -1   9 1057.45   10.90   2 
  -1   1  12   58.95    5.74  -1 
   1  -1 -12   58.95    5.74   2 
   0   0   3    3.88    5.00  -1 
   0   0  -3    3.88    5.00   2 
  -5  -2   8  806.67   13.48  -1 
  -2  -5  -4  806.67   13.48   2 
  -4  -1  12   28.47    8.63  -1 
  -1  -4  -9   28.47    8.63   2 
  -4   2 -14   29.03   11.79  -1 
   2  -4  15   29.03   11.79   2 
   1   3  -9 1486.53   12.49  -1 
   3   1   7 1486.53   12.49   2 
   1   6 -13   17.29    9.76  -1 
   6   1   9   17.29    9.76   2 
  -1   3 -13   13.21    8.94  -1 
   3  -1  12   13.21    8.94   2 
  -7  -2   9   36.39    9.75  -1 
  -2  -7  -4   36.39    9.75   2 
  -6  -1  14    3.77    9.76  -1 
  -1  -6 -10    3.77    9.76   2 
  -3   1  16    6.69    9.43  -1 
   1  -3 -15    6.69    9.43   2 
  -3   3 -15   11.60    8.48  -1 
   3  -3  15   11.60    8.48   2 
  -2   0  12  185.40    7.57  -1 
   0  -2 -11  185.40    7.57   2 
  -2   2  16  196.18    9.32  -1 
   2  -2 -16  196.18    9.32   2 
   0   0   4 3614.04   23.69  -1 
   0   0  -4 3614.04   23.69   2 
   0   5 -14   79.52   10.10  -1 
   5   0  11   79.52   10.10   2 
   0   2  12  163.35    9.74  -1 
   2   0 -13  163.35    9.74   2 
  -7  -2  10   33.83   10.64  -1 
  -2  -7  -5   33.83   10.64   2 
  -5  -2   9  849.95   13.71  -1 
  -2  -5  -5  849.95   13.71   2 
  -3  -1  11  125.36    9.09  -1 
  -1  -3  -9  125.36    9.09   2 
   0   2  -9  222.44    7.15  -1 
   2   0   8  222.44    7.15   2 
  -3   1 -11   12.65    8.24  -1 
   1  -3  12   12.65    8.24   2 
  -2   4 -15   20.11    8.47  -1 
   4  -2  14   20.11    8.47   2 
  -7  -2  11    8.05   10.03  -1 
  -2  -7  -6    8.05   10.03   2 
  -4   0  16   64.71   10.46  -1 
   0  -4 -14   64.71   10.46   2 
  -2   0  13  133.58    8.72  -1 
   0  -2 -12  133.58    8.72   2 
  -2   2 -12   67.98    6.54  -1 
   2  -2  12   67.98    6.54   2 
  -1   1  13   19.77    5.85  -1 
   1  -1 -13   19.77    5.85   2 
   0   0   5 3439.70   21.01  -1 
   0   0  -5 3439.70   21.01   2 
   1   3  -8 1206.97   11.82  -1 
   3   1   6 1206.97   11.82   2 
   1   6 -12   30.61    8.39  -1 
   6   1   8   30.61    8.39   2 
  -5  -2  11    6.53    8.48  -1 
  -2  -5  -7    6.53    8.48   2 
  -4   0  -9  424.28   15.31  -1 
   0  -4  11  424.28   15.31   2 
   0   5 -13    7.04    8.78  -1 
   5   0  10    7.04    8.78   2 
  -1   1  -8 2220.64   18.19  -1 
   1  -1   8 2220.64   18.19   2 
  -1   3 -12   12.17    8.14  -1 
   3  -1  11   12.17    8.14   2 
  -4  -1  14   51.55    7.60  -1 
  -1  -4 -11   51.55    7.60   2 
  -3  -2   5  232.81    9.48  -1 
  -2  -3  -2  232.81    9.48   2 
   0   0   6 8293.50   34.15  -1 
   0   0  -6 8293.50   34.15   2 
  -3   3 -14  183.39   11.54  -1 
   3  -3  14  183.39   11.54   2 
  -5  -2  12  134.04    9.99  -1 
  -2  -5  -8  134.04    9.99   2 
  -4   2 -13   10.64   10.22  -1 
   2  -4  14   10.64   10.22   2 
   0   2  -8    8.71    6.00  -1 
   2   0   7    8.71    6.00   2 
   1   6 -11   33.25    8.78  -1 
   6   1   7   33.25    8.78   2 
  -2   0  14   43.41    7.06  -1 
   0  -2 -13   43.41    7.06   2 
  -1  -1   3  107.33    9.49  -1 
  -1  -1  -2  107.33    9.49   2 
  -1  -1   5  326.84   10.12  -1 
  -1  -1  -4  326.84   10.12   2 
  -1   1  14   50.96    6.39  -1 
   1  -1 -14   50.96    6.39   2 
  -2   4 -14    6.48    9.55  -1 
   4  -2  13    6.48    9.55   2 
  -1  -1   6   39.56    7.46  -1 
  -1  -1  -5   39.56    7.46   2 
   0   0   7  119.90    5.89  -1 
   0   0  -7  119.90    5.89   2 
   0   5 -12   76.70    9.15  -1 
   5   0   9   76.70    9.15   2 
   2   5  -6  230.21    8.74  -1 
   5   2   2  230.21    8.74   2 
  -5  -2  13  171.43    9.34  -1 
  -2  -5  -9  171.43    9.34   2 
  -3  -2   9  453.82   10.64  -1 
  -2  -3  -6  453.82   10.64   2 
  -2   2 -11  458.70    8.62  -1 
   2  -2  11  458.70    8.62   2 
  -3   1 -10  122.79    8.99  -1 
   1  -3  11  122.79    8.99   2 
  -2   0  15  136.42   10.48  -1 
   0  -2 -14  136.42   10.48   2 
  -1  -1   7  304.56    8.05  -1 
  -1  -1  -6  304.56    8.05   2 
  -1   3 -11   70.79    6.90  -1 
   3  -1  10   70.79    6.90   2 
   1   6 -10   46.98    7.92  -1 
   6   1   6   46.98    7.92   2 
   1   1   6  323.55   11.33  -1 
   1   1  -7  323.55   11.33   2 
  -3  -2  10   30.86    6.85  -1 
  -2  -3  -7   30.86    6.85   2 
  -1  -1   8 2768.39   18.20  -1 
  -1  -1  -7 2768.39   18.20   2 
  -1   1  15   13.62    6.64  -1 
   1  -1 -15   13.62    6.64   2 
   0   0   8  262.68    6.51  -1 
   0   0  -8  262.68    6.51   2 
   0   2  -7   93.73    7.91  -1 
   2   0   6   93.73    7.91   2 
  -3   3 -13  252.28   11.14  -1 
   3  -3  13  252.28   11.14   2 
  -3  -1  15   21.65    8.90  -1 
  -1  -3 -13   21.65    8.90   2 
  -1   1  -7 5215.81   23.02  -1 
   1  -1   7 5215.81   23.02   2 
   0   5 -11  386.70   10.38  -1 
   5   0   8  386.70   10.38   2 
   0   7 -12   39.80    9.92  -1 
   7   0   8   39.80    9.92   2 
  -2   4 -13   -0.16    9.20  -1 
   4  -2  12   -0.16    9.20   2 
  -6  -3  10   20.68    8.63  -1 
  -3  -6  -5   20.68    8.63   2 
  -5  -2  15   28.60   10.51  -1 
  -2  -5 -11   28.60   10.51   2 
  -3  -2  11    6.29    6.66  -1 
  -2  -3  -8    6.29    6.66   2 
  -2   0  16  214.27   11.37  -1 
   0  -2 -15  214.27   11.37   2 
  -1  -1   1  114.78   10.86  -1 
  -1  -1   0  114.78   10.86   2 
  -1  -1   9 1108.05   12.91  -1 
  -1  -1  -8 1108.05   12.91   2 
   1   6  -9  331.41   10.58  -1 
   6   1   5  331.41   10.58   2 
   0   0   9   83.72    6.90  -1 
   0   0  -9   83.72    6.90   2 
   1   1   7 2261.12   21.99  -1 
   1   1  -8 2261.12   21.99   2 
  -6  -3  11    3.58    9.07  -1 
  -3  -6  -6    3.58    9.07   2 
  -4   2 -12    5.02    7.71  -1 
   2  -4  13    5.02    7.71   2 
  -3  -2  12   29.41    8.39  -1 
  -2  -3  -9   29.41    8.39   2 
  -3  -1  16    7.02    9.36  -1 
  -1  -3 -14    7.02    9.36   2 
  -2  -2   5  896.45   12.69  -1 
  -2  -2  -3  896.45   12.69   2 
  -2  -2   6 1320.88   14.09  -1 
  -2  -2  -4 1320.88   14.09   2 
  -1  -1  10  307.63    9.33  -1 
  -1  -1  -9  307.63    9.33   2 
  -1   1  16    9.81    6.98  -1 
   1  -1 -16    9.81    6.98   2 
   0   2  15  176.36   12.03  -1 
   2   0 -16  176.36   12.03   2 
  -1   3 -10   33.61    7.66  -1 
   3  -1   9   33.61    7.66   2 
  -6  -3   2  249.50   12.89  -1 
  -3  -6   3  249.50   12.89   2 
  -3  -2  13   28.98    9.03  -1 
  -2  -3 -10   28.98    9.03   2 
  -3   5 -14   93.30    9.94  -1 
   5  -3  13   93.30    9.94   2 
  -2  -2   4  313.97   10.18  -1 
  -2  -2  -2  313.97   10.18   2 
  -2  -2   8  358.70    9.91  -1 
  -2  -2  -6  358.70    9.91   2 
  -2   2 -10 1294.45   12.48  -1 
   2  -2  10 1294.45   12.48   2 
   0   0  10  468.97    8.02  -1 
   0   0 -10  468.97    8.02   2 
   0   7 -11  211.47   10.91  -1 
   7   0   7  211.47   10.91   2 
   1   3  -5  114.53    7.87  -1 
   3   1   3  114.53    7.87   2 
   1   1   8  976.84   15.49  -1 
   1   1  -9  976.84   15.49   2 
   0   4  -9   16.80    7.50  -1 
   4   0   7   16.80    7.50   2 
  -4  -3   7  271.85    9.44  -1 
  -3  -4  -3  271.85    9.44   2 
  -4   0  -8 1664.44   22.04  -1 
   0  -4  10 1664.44   22.04   2 
  -2  -2   9   16.40    7.47  -1 
  -2  -2  -7   16.40    7.47   2 
  -2   0  17   40.96    9.89  -1 
   0  -2 -16   40.96    9.89   2 
  -1  -1  11   65.93    7.75  -1 
  -1  -1 -10   65.93    7.75   2 
   1   6  -8  517.02   11.35  -1 
   6   1   4  517.02   11.35   2 
  -2   4 -12  118.28    9.50  -1 
   4  -2  11  118.28    9.50   2 
  -3  -2  14    9.50    8.85  -1 
  -2  -3 -11    9.50    8.85   2 
  -3  -1  17  -10.90    9.58  -1 
  -1  -3 -15  -10.90    9.58   2 
  -3   3 -12  293.30    9.28  -1 
   3  -3  12  293.30    9.28   2 
  -2  -2   3  510.39   11.82  -1 
  -2  -2  -1  510.39   11.82   2 
  -2  -2  10  231.16    8.91  -1 
  -2  -2  -8  231.16    8.91   2 
  -1   6 -12  102.79    9.21  -1 
   6  -1   9  102.79    9.21   2 
   0   2  -6  381.80    9.67  -1 
   2   0   5  381.80    9.67   2 
  -3   1  -9   38.17    7.80  -1 
   1  -3  10   38.17    7.80   2 
  -1   1  17   52.59    9.06  -1 
   1  -1 -17   52.59    9.06   2 
   0   0  11  173.85    6.48  -1 
   0   0 -11  173.85    6.48   2 
   0   7 -10  268.64   11.24  -1 
   7   0   6  268.64   11.24   2 
   1   1   9  275.46   10.26  -1 
   1   1 -10  275.46   10.26   2 
  -6  -3   1  731.07   16.84  -1 
  -3  -6   4  731.07   16.84   2 
  -1  -1  12  241.70    7.39  -1 
  -1  -1 -11  241.70    7.39   2 
  -1   1  -6 1060.38   13.13  -1 
   1  -1   6 1060.38   13.13   2 
   1   6  -7  424.52   10.37  -1 
   6   1   3  424.52   10.37   2 
   0   2  16   51.52   10.39  -1 
   2   0 -17   51.52   10.39   2 
  -4   2 -11  163.66   11.34  -1 
   2  -4  12  163.66   11.34   2 
  -3  -2  15    1.46    7.88  -1 
  -2  -3 -12    1.46    7.88   2 
   0   5  -9  418.96    9.89  -1 
   5   0   6  418.96    9.89   2 
  -1   3  -9  210.47    8.53  -1 
   3  -1   8  210.47    8.53   2 
  -4   4 -13    0.13    9.56  -1 
   4  -4  13    0.13    9.56   2 
  -3   5 -13  102.26   10.99  -1 
   5  -3  12  102.26   10.99   2 
  -4  -3  13   22.75    8.44  -1 
  -3  -4  -9   22.75    8.44   2 
  -1  -1  13  688.71   12.32  -1 
  -1  -1 -12  688.71   12.32   2 
  -1   6 -11   29.99    8.81  -1 
   6  -1   8   29.99    8.81   2 
   0   0  12   -2.24    5.88  -1 
   0   0 -12   -2.24    5.88   2 
  -4  -3  14   31.93    8.95  -1 
  -3  -4 -10   31.93    8.95   2 
  -2  -2  13   98.48    8.93  -1 
  -2  -2 -11   98.48    8.93   2 
  -2   2  -9 1572.70   12.95  -1 
   2  -2   9 1572.70   12.95   2 
   0   7  -9   88.50    9.48  -1 
   7   0   5   88.50    9.48   2 
   1   1  10   90.05    8.72  -1 
   1   1 -11   90.05    8.72   2 
  -2   4 -11   91.83    8.51  -1 
   4  -2  10   91.83    8.51   2 
  -1  -1  14  375.57   11.56  -1 
  -1  -1 -13  375.57   11.56   2 
   1   6  -6   44.36    7.35  -1 
   6   1   2   44.36    7.35   2 
   0   0  13    5.98    7.37  -1 
   0   0 -13    5.98    7.37   2 
  -3   3 -11   55.85    8.08  -1 
   3  -3  11   55.85    8.08   2 
  -5   3 -12   82.25   13.08  -1 
   3  -5  13   82.25   13.08   2 
  -4  -3  15   78.04   10.36  -1 
  -3  -4 -11   78.04   10.36   2 
  -2  -2  14   13.22    8.53  -1 
  -2  -2 -12   13.22    8.53   2 
  -1  -1   0  108.93   13.38  -1 
  -1  -1   1  108.93   13.38   2 
   0   2  -5   75.10    7.30  -1 
   2   0   4   75.10    7.30   2 
  -1   6 -10   10.79    8.09  -1 
   6  -1   7   10.79    8.09   2 
   0   7  -8   -2.73    8.03  -1 
   7   0   4   -2.73    8.03   2 
   1   1  11  236.71   10.56  -1 
   1   1 -12  236.71   10.56   2 
   0   4  -7  296.57    8.62  -1 
   4   0   5  296.57    8.62   2 
  -3   5 -12  151.59   10.46  -1 
   5  -3  11  151.59   10.46   2 
  -4  -3  16   75.83   11.48  -1 
  -3  -4 -12   75.83   11.48   2 
  -1  -1  15  188.51    9.53  -1 
  -1  -1 -14  188.51    9.53   2 
   0   0  14   14.16    6.07  -1 
   0   0 -14   14.16    6.07   2 
   1   6  -5   80.26    8.13  -1 
   6   1   1   80.26    8.13   2 
  -1   3  -8 1046.04   12.52  -1 
   3  -1   7 1046.04   12.52   2 
  -4   4 -12   -5.55    8.84  -1 
   4  -4  12   -5.55    8.84   2 
  -5  -4   6   42.09    9.73  -1 
  -4  -5  -1   42.09    9.73   2 
  -5  -4  13   13.20    9.10  -1 
  -4  -5  -8   13.20    9.10   2 
  -4   2 -10   89.72   10.74  -1 
   2  -4  11   89.72   10.74   2 
  -3   1  -8  173.47    8.90  -1 
   1  -3   9  173.47    8.90   2 
  -1  -1  16   20.64    8.88  -1 
  -1  -1 -15   20.64    8.88   2 
   1   1  12  574.79   12.90  -1 
   1   1 -13  574.79   12.90   2 
  -2   4 -10  129.12    8.05  -1 
   4  -2   9  129.12    8.05   2 
   0   0  15   13.56    7.22  -1 
   0   0 -15   13.56    7.22   2 
   0   5  -7    6.96    7.55  -1 
   5   0   4    6.96    7.55   2 
  -1   1  -5  515.51   10.81  -1 
   1  -1   5  515.51   10.81   2 
  -4   0  -7   29.13   11.72  -1 
   0  -4   9   29.13   11.72   2 
  -3   3 -10   11.45    6.38  -1 
   3  -3  10   11.45    6.38   2 
  -2  -3   8   27.41    7.67  -1 
  -3  -2  -5   27.41    7.67   2 
  -2  -3   9 1031.35   12.33  -1 
  -3  -2  -6 1031.35   12.33   2 
  -2  -3  10  606.97   11.47  -1 
  -3  -2  -7  606.97   11.47   2 
  -2  -3  11  330.66   10.04  -1 
  -3  -2  -8  330.66   10.04   2 
  -2   2  -8  262.85    6.75  -1 
   2  -2   8  262.85    6.75   2 
  -1   6  -9   37.48    8.17  -1 
   6  -1   6   37.48    8.17   2 
   1   6  -4  753.13   11.82  -1 
   6   1   0  753.13   11.82   2 
  -3   5 -11   34.40    8.59  -1 
   5  -3  10   34.40    8.59   2 
  -2  -3   7  444.98   10.18  -1 
  -3  -2  -4  444.98   10.18   2 
  -2  -3  12  315.05    9.72  -1 
  -3  -2  -9  315.05    9.72   2 
  -1  -1  17   49.14    9.84  -1 
  -1  -1 -16   49.14    9.84   2 
   1   1  13  382.51   11.77  -1 
   1   1 -14  382.51   11.77   2 
   0   4  -6  524.97    9.63  -1 
   4   0   4  524.97    9.63   2 
  -5   3 -11  187.63   10.23  -1 
   3  -5  12  187.63   10.23   2 
  -2  -3  13   -3.72    8.74  -1 
  -3  -2 -10   -3.72    8.74   2 
   0   0  16   16.09    7.47  -1 
   0   0 -16   16.09    7.47   2 
   0   2  -4   19.77    7.30  -1 
   2   0   3   19.77    7.30   2 
  -4   4 -11   87.68    8.37  -1 
   4  -4  11   87.68    8.37   2 
  -2  -3  14   92.17    9.36  -1 
  -3  -2 -11   92.17    9.36   2 
   0   7  -6  378.77   10.85  -1 
   7   0   2  378.77   10.85   2 
   1   6  -3 1478.08   15.34  -1 
   6   1  -1 1478.08   15.34   2 
  -1   3  -7  620.85   10.02  -1 
   3  -1   6  620.85   10.02   2 
  -1   5  -8   14.78    7.34  -1 
   5  -1   6   14.78    7.34   2 
  -3  -1  -4  115.11   15.01  -1 
  -1  -3   6  115.11   15.01   2 
  -1  -1  18   59.68   10.23  -1 
  -1  -1 -17   59.68   10.23   2 
  -1   6  -8   11.45    7.90  -1 
   6  -1   5   11.45    7.90   2 
   0   5  -6  119.45    7.98  -1 
   5   0   3  119.45    7.98   2 
   1   1  14  157.80   10.89  -1 
   1   1 -15  157.80   10.89   2 
   0   0  17   17.99    8.18  -1 
   0   0 -17   17.99    8.18   2 
  -3  -4  13  150.68    9.78  -1 
  -4  -3  -9  150.68    9.78   2 
   0   7  -5  348.10   10.42  -1 
   7   0   1  348.10   10.42   2 
   0   4  -5  585.99   10.18  -1 
   4   0   3  585.99   10.18   2 
  -3   5 -10   38.18    8.17  -1 
   5  -3   9   38.18    8.17   2 
  -4   2  -9  103.63    9.02  -1 
   2  -4  10  103.63    9.02   2 
  -3  -4  14  189.68   10.74  -1 
  -4  -3 -10  189.68   10.74   2 
  -2  -2   0 2075.96   22.50  -1 
  -2  -2   2 2075.96   22.50   2 
   1   6  -2  770.23   12.37  -1 
   6   1  -2  770.23   12.37   2 
   1   1  15   11.56    9.32  -1 
   1   1 -16   11.56    9.32   2 
  -3   3  -9  350.68    9.29  -1 
   3  -3   9  350.68    9.29   2 
  -3  -4  15   32.63    9.96  -1 
  -4  -3 -11   32.63    9.96   2 
  -2   2  -7   35.96    4.98  -1 
   2  -2   7   35.96    4.98   2 
  -1   5  -7   71.69    7.80  -1 
   5  -1   5   71.69    7.80   2 
  -5   3 -10   29.53    9.05  -1 
   3  -5  11   29.53    9.05   2 
  -4   4 -10   34.41    8.17  -1 
   4  -4  10   34.41    8.17   2 
  -3  -4  16   -6.77    9.56  -1 
  -4  -3 -12   -6.77    9.56   2 
  -3   1  -7 1204.17   15.53  -1 
   1  -3   8 1204.17   15.53   2 
  -1   6  -7   16.49    7.85  -1 
   6  -1   4   16.49    7.85   2 
   0   5  -5  305.90    8.74  -1 
   5   0   2  305.90    8.74   2 
  -2   7  -8   74.34    8.30  -1 
   7  -2   5   74.34    8.30   2 
  -1  -3   9 1699.58   14.82  -1 
  -3  -1  -7 1699.58   14.82   2 
  -1  -3  10  677.45   11.44  -1 
  -3  -1  -8  677.45   11.44   2 
  -1  -3  11    1.25    7.11  -1 
  -3  -1  -9    1.25    7.11   2 
   0  -2   9  242.06    8.92  -1 
  -2   0  -8  242.06    8.92   2 
   0  -2  10  388.79    9.94  -1 
  -2   0  -9  388.79    9.94   2 
   0  -2  11  363.89    9.93  -1 
  -2   0 -10  363.89    9.93   2 
   0   7  -4  207.48    9.22  -1 
   7   0   0  207.48    9.22   2 
   1   1  16   56.02   10.71  -1 
   1   1 -17   56.02   10.71   2 
  -1   3  -6  165.44    7.59  -1 
   3  -1   5  165.44    7.59   2 
  -2   4  -8    1.48    6.84  -1 
   4  -2   7    1.48    6.84   2 
  -4   6 -10  162.99   10.47  -1 
   6  -4   9  162.99   10.47   2 
  -1  -3   8 1371.29   13.73  -1 
  -3  -1  -6 1371.29   13.73   2 
   0  -2   8   10.68    6.79  -1 
  -2   0  -7   10.68    6.79   2 
   0  -2  12  171.67    7.23  -1 
  -2   0 -11  171.67    7.23   2 
   1   6  -1  371.34    9.65  -1 
   6   1  -3  371.34    9.65   2 
   0   2  -3  115.81    8.03  -1 
   2   0   2  115.81    8.03   2 
  -3   5  -9  383.02   10.19  -1 
   5  -3   8  383.02   10.19   2 
  -4  -5  11  149.22   10.44  -1 
  -5  -4  -6  149.22   10.44   2 
  -1  -3   7  444.61   10.06  -1 
  -3  -1  -5  444.61   10.06   2 
  -1   1  -4  729.59   10.91  -1 
   1  -1   4  729.59   10.91   2 
   0  -2  13    1.66    7.00  -1 
  -2   0 -12    1.66    7.00   2 
   0  -2   7   65.19    6.43  -1 
  -2   0  -6   65.19    6.43   2 
   0  -2  14  111.12    8.91  -1 
  -2   0 -13  111.12    8.91   2 
   1   1  17   46.44   11.27  -1 
   1   1 -18   46.44   11.27   2 
  -5   5 -10   19.10    9.18  -1 
   5  -5  10   19.10    9.18   2 
  -2   7  -7    6.44    8.42  -1 
   7  -2   4    6.44    8.42   2 
  -1   6  -6    8.15    6.96  -1 
   6  -1   3    8.15    6.96   2 
   0  -2  15   99.26    9.71  -1 
  -2   0 -14   99.26    9.71   2 
   0   5  -4  306.32    8.62  -1 
   5   0   1  306.32    8.62   2 
   0   7  -3   24.78    7.68  -1 
   7   0  -1   24.78    7.68   2 
   1   6   0   97.86    8.51  -1 
   6   1  -4   97.86    8.51   2 
  -3   7  -8  105.05    9.63  -1 
   7  -3   6  105.05    9.63   2 
  -3   3  -8  524.35    8.81  -1 
   3  -3   8  524.35    8.81   2 
  -1   8  -4   42.15    9.11  -1 
   8  -1   0   42.15    9.11   2 
   0  -2   6  304.86    8.15  -1 
  -2   0  -5  304.86    8.15   2 
  -4   6  -9  133.74    9.59  -1 
   6  -4   8  133.74    9.59   2 
  -2   6  -7   41.93    8.09  -1 
   6  -2   5   41.93    8.09   2 
  -4   2  -8  716.74   11.98  -1 
   2  -4   9  716.74   11.98   2 
  -4   4  -9   13.45    7.20  -1 
   4  -4   9   13.45    7.20   2 
   0  -2  16  223.29   10.24  -1 
  -2   0 -15  223.29   10.24   2 
   1  -1  10  146.81    6.44  -1 
  -1   1 -10  146.81    6.44   2 
   1  -1  11  316.04    7.73  -1 
  -1   1 -11  316.04    7.73   2 
   1  -1  12  716.10   11.72  -1 
  -1   1 -12  716.10   11.72   2 
   1  -1   9 1215.83   12.84  -1 
  -1   1  -9 1215.83   12.84   2 
  -2   4  -7  273.65    8.01  -1 
   4  -2   6  273.65    8.01   2 
  -5   3  -9   17.05    8.50  -1 
   3  -5  10   17.05    8.50   2 
  -4   0  -6   17.49    9.14  -1 
   0  -4   8   17.49    9.14   2 
   0   7  -2   54.43    8.42  -1 
   7   0  -2   54.43    8.42   2 
   1  -1  13  332.65    9.81  -1 
  -1   1 -13  332.65    9.81   2 
   1  -1   8 1995.55   15.81  -1 
  -1   1  -8 1995.55   15.81   2 
  -2   2  -6 1862.05   14.90  -1 
   2  -2   6 1862.05   14.90   2 
  -3   5  -8  824.61   11.82  -1 
   5  -3   7  824.61   11.82   2 
  -2   7  -6  134.30    9.21  -1 
   7  -2   3  134.30    9.21   2 
  -1   6  -5    4.08    7.41  -1 
   6  -1   2    4.08    7.41   2 
   0  -2  17   78.08    9.40  -1 
  -2   0 -16   78.08    9.40   2 
   1   6   1  907.64   14.14  -1 
   6   1  -5  907.64   14.14   2 
   1  -1  14  425.78   11.37  -1 
  -1   1 -14  425.78   11.37   2 
  -4  -5   6  330.94   10.96  -1 
  -5  -4  -1  330.94   10.96   2 
   0  -2   5   74.80    7.39  -1 
  -2   0  -4   74.80    7.39   2 
   0   5  -3  111.89    7.68  -1 
   5   0   0  111.89    7.68   2 
   1  -1   7 6419.21   28.02  -1 
  -1   1  -7 6419.21   28.02   2 
  -5   5  -9   19.36    8.70  -1 
   5  -5   9   19.36    8.70   2 
  -1  -4  11  112.60    8.69  -1 
  -4  -1  -8  112.60    8.69   2 
  -1  -4  12  414.60   11.12  -1 
  -4  -1  -9  414.60   11.12   2 
  -1  -4  13  538.86   12.21  -1 
  -4  -1 -10  538.86   12.21   2 
  -1  -4  14  170.09   10.16  -1 
  -4  -1 -11  170.09   10.16   2 
   0   7  -1  318.01   10.51  -1 
   7   0  -3  318.01   10.51   2 
   1  -1  15   33.68    7.96  -1 
  -1   1 -15   33.68    7.96   2 
  -4   6  -8   16.58    8.53  -1 
   6  -4   7   16.58    8.53   2 
  -2   6  -6   52.07    7.80  -1 
   6  -2   4   52.07    7.80   2 
  -6   4  -9  148.84   11.07  -1 
   4  -6  10  148.84   11.07   2 
  -3   1  -6  562.34   11.01  -1 
   1  -3   7  562.34   11.01   2 
  -1  -4  10   97.06    8.36  -1 
  -4  -1  -7   97.06    8.36   2 
   1   6   2  469.63   11.56  -1 
   6   1  -6  469.63   11.56   2 
  -2  -5  12   13.21    8.28  -1 
  -5  -2  -8   13.21    8.28   2 
  -2  -5  13   -6.00    8.54  -1 
  -5  -2  -9   -6.00    8.54   2 
  -2  -5  14   -5.56    9.00  -1 
  -5  -2 -10   -5.56    9.00   2 
  -1  -4   9 1301.56   13.76  -1 
  -4  -1  -6 1301.56   13.76   2 
   1  -1  16   41.26    7.78  -1 
  -1   1 -16   41.26    7.78   2 
   0   2  -2  194.00    9.04  -1 
   2   0   1  194.00    9.04   2 
  -3   3  -7  308.50    8.25  -1 
   3  -3   7  308.50    8.25   2 
  -4   4  -8   31.14    7.09  -1 
   4  -4   8   31.14    7.09   2 
  -2   7  -5  204.20    9.37  -1 
   7  -2   2  204.20    9.37   2 
  -1   6  -4   35.04    7.31  -1 
   6  -1   1   35.04    7.31   2 
   1  -1   6  898.55   10.81  -1 
  -1   1  -6  898.55   10.81   2 
  -5   3  -8  382.50   10.76  -1 
   3  -5   9  382.50   10.76   2 
   0  -2   4   12.52    7.34  -1 
  -2   0  -3   12.52    7.34   2 
   1  -1  17   23.79    8.85  -1 
  -1   1 -17   23.79    8.85   2 
  -1   5  -4   -1.28    6.92  -1 
   5  -1   2   -1.28    6.92   2 
  -5   5  -8  150.90    9.35  -1 
   5  -5   8  150.90    9.35   2 
  -4   2  -7   -0.98    9.20  -1 
   2  -4   8   -0.98    9.20   2 
  -2  -5   9   18.77    7.37  -1 
  -5  -2  -5   18.77    7.37   2 
   1   6   3  425.96   11.10  -1 
   6   1  -7  425.96   11.10   2 
  -4   6  -7    8.73    8.05  -1 
   6  -4   6    8.73    8.05   2 
  -6   4  -5  177.72   11.00  -1 
   4  -6   6  177.72   11.00   2 
  -5   3  -5  143.77    8.22  -1 
   3  -5   6  143.77    8.22   2 
   3  -1  16   26.84    8.77  -1 
  -1   3 -17   26.84    8.77   2 
   3  -1  15    6.66    8.03  -1 
  -1   3 -16    6.66    8.03   2 
   3  -1  14   -2.56    7.74  -1 
  -1   3 -15   -2.56    7.74   2 
   3  -1  13   -3.67    8.11  -1 
  -1   3 -14   -3.67    8.11   2 
   3   4   9   30.36    7.90  -1 
   4   3 -13   30.36    7.90   2 
   1  -1   3 4535.92   33.43  -1 
  -1   1  -3 4535.92   33.43   2 
   3  -1  12    8.21    6.64  -1 
  -1   3 -13    8.21    6.64   2 
  -7   0  -3  134.11    7.86  -1 
   0  -7   7  134.11    7.86   2 
   3   4   8  320.20    9.95  -1 
   4   3 -12  320.20    9.95   2 
   2   5   4 1034.72   13.11  -1 
   5   2  -8 1034.72   13.11   2 
   1   6   2  526.55   11.33  -1 
   6   1  -6  526.55   11.33   2 
   0   7   1   22.69    9.74  -1 
   7   0  -5   22.69    9.74   2 
   1   1   1 5867.61   32.55  -1 
   1   1  -2 5867.61   32.55   2 
   2  -2   8  306.21    8.99  -1 
  -2   2  -8  306.21    8.99   2 
  -5  -2  -1  104.26    7.56  -1 
  -2  -5   5  104.26    7.56   2 
  -7   2  -4    7.91    7.95  -1 
   2  -7   7    7.91    7.95   2 
  -1   6  -2  205.81   11.61  -1 
   6  -1  -1  205.81   11.61   2 
  -5   1  -4    6.55    6.53  -1 
   1  -5   6    6.55    6.53   2 
  -6  -1  -2   27.05    7.03  -1 
  -1  -6   6   27.05    7.03   2 
   3  -1  11   13.88    6.88  -1 
  -1   3 -12   13.88    6.88   2 
  -1   1  -2 1411.50   22.89  -1 
   1  -1   2 1411.50   22.89   2 
   3   4   7  838.18   12.17  -1 
   4   3 -11  838.18   12.17   2 
   3   1   7 1639.21   13.62  -1 
   1   3  -9 1639.21   13.62   2 
   3  -1  10   81.90    7.48  -1 
  -1   3 -11   81.90    7.48   2 
   3   4   6  696.33   10.89  -1 
   4   3 -10  696.33   10.89   2 
   2   5   3  253.42    8.80  -1 
   5   2  -7  253.42    8.80   2 
  -6   6  -4  160.66   13.63  -1 
   6  -6   4  160.66   13.63   2 
  -2   0  -2  136.41    7.74  -1 
   0  -2   3  136.41    7.74   2 
   2   0   4   62.97    7.09  -1 
   0   2  -5   62.97    7.09   2 
   1   6   1 1160.61   16.01  -1 
   6   1  -5 1160.61   16.01   2 
  -7   0  -2  435.67   10.64  -1 
   0  -7   6  435.67   10.64   2 
  -4   2  -4 1051.01   12.84  -1 
   2  -4   5 1051.01   12.84   2 
   4   1  14   52.48    9.69  -1 
   1   4 -17   52.48    9.69   2 
  -3   3  -4   29.07    7.24  -1 
   3  -3   4   29.07    7.24   2 
   4   3  12    4.11    8.96  -1 
   3   4 -16    4.11    8.96   2 
   0   7   0  319.42   12.72  -1 
   7   0  -4  319.42   12.72   2 
   3  -1   9   44.09    6.84  -1 
  -1   3 -10   44.09    6.84   2 
   2  -2   7   37.55    7.01  -1 
  -2   2  -7   37.55    7.01   2 
   4   1  12   33.15    8.13  -1 
   1   4 -15   33.15    8.13   2 
   4   3  11   65.43    9.03  -1 
   3   4 -15   65.43    9.03   2 
   3   4   5  112.49    7.95  -1 
   4   3  -9  112.49    7.95   2 
  -5  -2   0  122.67    7.57  -1 
  -2  -5   4  122.67    7.57   2 
  -6  -1  -1  147.12    7.73  -1 
  -1  -6   5  147.12    7.73   2 
   4   1  11  238.75    9.14  -1 
   1   4 -14  238.75    9.14   2 
  -7   2  -3  136.63    8.62  -1 
   2  -7   6  136.63    8.62   2 
   2   5   2   25.55    6.96  -1 
   5   2  -6   25.55    6.96   2 
  -6   4  -4  104.48    8.71  -1 
   4  -6   5  104.48    8.71   2 
  -3   1  -3  506.57    9.58  -1 
   1  -3   4  506.57    9.58   2 
   4   3   9  206.90    9.06  -1 
   3   4 -13  206.90    9.06   2 
  -5   3  -4  162.29    8.11  -1 
   3  -5   5  162.29    8.11   2 
   3  -1   8  169.95    8.06  -1 
  -1   3  -9  169.95    8.06   2 
   3   4   4   84.36    7.68  -1 
   4   3  -8   84.36    7.68   2 
  -5   5  -4  241.20   11.59  -1 
   5  -5   4  241.20   11.59   2 
   4   1   9  475.22    9.72  -1 
   1   4 -12  475.22    9.72   2 
  -2   2  -3 1075.10   16.22  -1 
   2  -2   3 1075.10   16.22   2 
   2  -4  15   39.61   11.95  -1 
  -4   2 -14   39.61   11.95   2 
  -4   4  -4  105.82    8.79  -1 
   4  -4   4  105.82    8.79   2 
   1   6   0   95.70    8.25  -1 
   6   1  -4   95.70    8.25   2 
   2  -4  14   13.86   11.63  -1 
  -4   2 -13   13.86   11.63   2 
   2   0   3   13.32    6.86  -1 
   0   2  -4   13.32    6.86   2 
   3  -3  15   16.71    9.97  -1 
  -3   3 -15   16.71    9.97   2 
  -5  -2   1   53.10    6.97  -1 
  -2  -5   3   53.10    6.97   2 
  -6  -1   0  661.72   10.68  -1 
  -1  -6   4  661.72   10.68   2 
  -6   1  -2    5.30    6.68  -1 
   1  -6   5    5.30    6.68   2 
   3   4   3  334.50    8.92  -1 
   4   3  -7  334.50    8.92   2 
   2   5   1  344.13    9.67  -1 
   5   2  -5  344.13    9.67   2 
   3  -1   7 1161.68   12.32  -1 
  -1   3  -8 1161.68   12.32   2 
   3  -3  14  221.35   11.94  -1 
  -3   3 -14  221.35   11.94   2 
   4   3   6  206.94    8.13  -1 
   3   4 -10  206.94    8.13   2 
   2  -4  13    3.14   10.79  -1 
  -4   2 -12    3.14   10.79   2 
   3   1   4  147.77    7.31  -1 
   1   3  -6  147.77    7.31   2 
   2  -2   6 2162.12   19.44  -1 
  -2   2  -6 2162.12   19.44   2 
  -6   6  -3   35.27   11.53  -1 
   6  -6   3   35.27   11.53   2 
   3  -3  13  332.37   12.48  -1 
  -3   3 -13  332.37   12.48   2 
  -7   0   0  192.89    8.13  -1 
   0  -7   4  192.89    8.13   2 
  -6   4  -3   69.05    8.71  -1 
   4  -6   4   69.05    8.71   2 
  -4   2  -3  425.91    8.74  -1 
   2  -4   4  425.91    8.74   2 
  -5   0  -1  296.14    8.26  -1 
   0  -5   4  296.14    8.26   2 
   5   2  11   18.06    8.53  -1 
   2   5 -15   18.06    8.53   2 
   4  -2  14   62.05   10.12  -1 
  -2   4 -15   62.05   10.12   2 
   5   2  10   -5.08    7.95  -1 
   2   5 -14   -5.08    7.95   2 
   3   4   2  441.02    9.24  -1 
   4   3  -6  441.02    9.24   2 
  -5   3  -3  476.79   10.23  -1 
   3  -5   4  476.79   10.23   2 
   3  -3  12  365.10   11.57  -1 
  -3   3 -12  365.10   11.57   2 
  -6  -1   1 1586.82   14.27  -1 
  -1  -6   3 1586.82   14.27   2 
   2   5   0 1692.27   15.01  -1 
   5   2  -4 1692.27   15.01   2 
   1   6  -1  425.45   10.41  -1 
   6   1  -3  425.45   10.41   2 
   2  -4  12  123.39   12.65  -1 
  -4   2 -11  123.39   12.65   2 
   3  -1   6  586.97    9.77  -1 
  -1   3  -7  586.97    9.77   2 
  -5  -2   2  661.84    9.99  -1 
  -2  -5   2  661.84    9.99   2 
   4  -2  13    6.03    8.21  -1 
  -2   4 -14    6.03    8.21   2 
   5   0  13  146.44   10.35  -1 
   0   5 -16  146.44   10.35   2 
  -6   1  -1   17.37    6.89  -1 
   1  -6   4   17.37    6.89   2 
  -7   2  -1  157.48    8.88  -1 
   2  -7   4  157.48    8.88   2 
  -1   6  -3  160.22   14.22  -1 
   6  -1   0  160.22   14.22   2 
  -7   5  -2    6.35    8.31  -1 
   5  -7   3    6.35    8.31   2 
   4   0   7   27.58    6.82  -1 
   0   4  -9   27.58    6.82   2 
   5   0  12  177.61    9.77  -1 
   0   5 -15  177.61    9.77   2 
   4   3   4   45.10    7.42  -1 
   3   4  -8   45.10    7.42   2 
  -7   0   1   20.67    7.48  -1 
   0  -7   3   20.67    7.48   2 
  -3   1  -2 1704.03   15.06  -1 
   1  -3   3 1704.03   15.06   2 
   4  -2  12    3.82    8.29  -1 
  -2   4 -13    3.82    8.29   2 
   3  -3  11   68.37    8.47  -1 
  -3   3 -11   68.37    8.47   2 
  -4  -3   4  212.40    7.78  -1 
  -3  -4   0  212.40    7.78   2 
   1  -3   6  149.32   15.86  -1 
  -3   1  -5  149.32   15.86   2 
  -5   5  -3  490.22   12.53  -1 
   5  -5   3  490.22   12.53   2 
   4  -2  11  139.22    9.04  -1 
  -2   4 -12  139.22    9.04   2 
   5   0  10    8.63    8.05  -1 
   0   5 -13    8.63    8.05   2 
   5   2   7   87.04    7.99  -1 
   2   5 -11   87.04    7.99   2 
  -4   6  -3  109.21   12.02  -1 
   6  -4   2  109.21   12.02   2 
   0   7  -2   61.37   11.02  -1 
   7   0  -2   61.37   11.02   2 
   2   0   2  144.85    8.05  -1 
   0   2  -3  144.85    8.05   2 
  -6  -1   2  870.43   11.41  -1 
  -1  -6   2  870.43   11.41   2 
  -3   3  -3   28.61    6.49  -1 
   3  -3   3   28.61    6.49   2 
   4   3   3   17.88    7.15  -1 
   3   4  -7   17.88    7.15   2 
  -6   4  -2   99.67    8.31  -1 
   4  -6   3   99.67    8.31   2 
  -5  -2   3  905.30   11.51  -1 
  -2  -5   1  905.30   11.51   2 
  -7   2   0   10.98    7.62  -1 
   2  -7   3   10.98    7.62   2 
  -6   6  -2   15.92    8.70  -1 
   6  -6   2   15.92    8.70   2 
  -4   4  -3    4.09    8.32  -1 
   4  -4   3    4.09    8.32   2 
   3  -3  10   13.97    8.39  -1 
  -3   3 -10   13.97    8.39   2 
   3  -1   5  168.37    7.26  -1 
  -1   3  -6  168.37    7.26   2 
   4  -2  10   88.86    9.35  -1 
  -2   4 -11   88.86    9.35   2 
  -7   0   2   85.53    7.73  -1 
   0  -7   2   85.53    7.73   2 
  -6   1   0  234.28    8.19  -1 
   1  -6   3  234.28    8.19   2 
   2   5  -1  851.02   12.11  -1 
   5   2  -3  851.02   12.11   2 
  -7   5  -1    3.91    9.06  -1 
   5  -7   2    3.91    9.06   2 
   2  -4  11   94.07   12.55  -1 
  -4   2 -10   94.07   12.55   2 
   2  -2   5 1092.91   14.71  -1 
  -2   2  -5 1092.91   14.71   2 
  -5   3  -2  948.45   11.89  -1 
   3  -5   3  948.45   11.89   2 
  -4   2  -2  279.28    7.59  -1 
   2  -4   3  279.28    7.59   2 
   3   1   2 1656.45   13.78  -1 
   1   3  -4 1656.45   13.78   2 
   1   6  -2  817.36   15.07  -1 
   6   1  -2  817.36   15.07   2 
  -5   7  -2    8.07   11.71  -1 
   7  -5   1    8.07   11.71   2 
   1  -1   2 1411.93   21.86  -1 
  -1   1  -2 1411.93   21.86   2 
   5   2   5   14.96    6.88  -1 
   2   5  -9   14.96    6.88   2 
   4   3   2   15.54    6.96  -1 
   3   4  -6   15.54    6.96   2 
   3   4   0  190.03    7.72  -1 
   4   3  -4  190.03    7.72   2 
   4  -2   9   89.35    8.06  -1 
  -2   4 -10   89.35    8.06   2 
  -6  -1   3  319.20    7.96  -1 
  -1  -6   1  319.20    7.96   2 
   6   1  10   14.86    8.43  -1 
   1   6 -14   14.86    8.43   2 
  -5  -2   4 1315.84   13.56  -1 
  -2  -5   0 1315.84   13.56   2 
  -7   0   3  383.60    8.87  -1 
   0  -7   1  383.60    8.87   2 
  -7   2   1   79.96    7.42  -1 
   2  -7   2   79.96    7.42   2 
   3  -3   9  351.54   10.95  -1 
  -3   3  -9  351.54   10.95   2 
  -3  -4   8   27.84    7.87  -1 
  -4  -3  -4   27.84    7.87   2 
  -6   1   1  185.26    8.34  -1 
   1  -6   2  185.26    8.34   2 
  -7   5   0   35.73    9.19  -1 
   5  -7   1   35.73    9.19   2 
  -6   4  -1    7.88    6.89  -1 
   4  -6   2    7.88    6.89   2 
   3  -1   4  770.70   11.50  -1 
  -1   3  -5  770.70   11.50   2 
   6   1   8   24.94    7.98  -1 
   1   6 -12   24.94    7.98   2 
  -5   5  -2  799.15   13.73  -1 
   5  -5   2  799.15   13.73   2 
   4  -2   8  713.12   12.26  -1 
  -2   4  -9  713.12   12.26   2 
  -4  -3   6  449.72    9.30  -1 
  -3  -4  -2  449.72    9.30   2 
  -6  -1   4   99.16    7.47  -1 
  -1  -6   0   99.16    7.47   2 
   2   5  -2  526.79   11.25  -1 
   5   2  -2  526.79   11.25   2 
  -6   6  -1   23.33    9.98  -1 
   6  -6   1   23.33    9.98   2 
   5  -1   8  124.67    8.90  -1 
  -1   5 -10  124.67    8.90   2 
  -7   0   4  334.61    8.81  -1 
   0  -7   0  334.61    8.81   2 
  -2   2  -2  133.96    8.04  -1 
   2  -2   2  133.96    8.04   2 
   3   1   1 2465.29   15.62  -1 
   1   3  -3 2465.29   15.62   2 
  -5  -2   5  399.63    8.59  -1 
  -2  -5  -1  399.63    8.59   2 
  -7   2   2  116.75    8.28  -1 
   2  -7   1  116.75    8.28   2 
  -5   3  -1  568.94    9.81  -1 
   3  -5   2  568.94    9.81   2 
   2  -4  10  121.90   14.90  -1 
  -4   2  -9  121.90   14.90   2 
   6  -1  11   40.55    8.90  -1 
  -1   6 -14   40.55    8.90   2 
   0   7  -3   28.46   11.00  -1 
   7   0  -1   28.46   11.00   2 
   2   0   1  183.19    8.54  -1 
   0   2  -2  183.19    8.54   2 
  -3  -4   9  203.59    9.91  -1 
  -4  -3  -5  203.59    9.91   2 
  -6   1   2  344.28    8.73  -1 
   1  -6   1  344.28    8.73   2 
   3  -3   8  596.45   13.03  -1 
  -3   3  -8  596.45   13.03   2 
  -6  -1   5  843.90   11.23  -1 
  -1  -6  -1  843.90   11.23   2 
   6  -1  10  103.71    9.49  -1 
  -1   6 -13  103.71    9.49   2 
   1   6  -3 1700.38   20.23  -1 
   6   1  -1 1700.38   20.23   2 
  -7   0   5   18.36    7.51  -1 
   0  -7  -1   18.36    7.51   2 
  -7   5   1   10.02    7.56  -1 
   5  -7   0   10.02    7.56   2 
  -4   4  -2  109.64    7.58  -1 
   4  -4   2  109.64    7.58   2 
   4  -2   7    2.92    6.53  -1 
  -2   4  -8    2.92    6.53   2 
   4   0   3  581.20    9.86  -1 
   0   4  -5  581.20    9.86   2 
  -6   4   0    0.24    6.40  -1 
   4  -6   1    0.24    6.40   2 
  -5  -2   6   12.01    6.91  -1 
  -2  -5  -2   12.01    6.91   2 
  -7   2   3  449.73   10.41  -1 
   2  -7   0  449.73   10.41   2 
   5   2   2  262.76    8.31  -1 
   2   5  -6  262.76    8.31   2 
  -5   7  -1   39.40   10.72  -1 
   7  -5   0   39.40   10.72   2 
  -3   3  -2    6.67    6.47  -1 
   3  -3   2    6.67    6.47   2 
   5  -3  13   97.62   12.60  -1 
  -3   5 -14   97.62   12.60   2 
  -4   6  -2    5.72    9.18  -1 
   6  -4   1    5.72    9.18   2 
  -6   6   0  174.14   10.87  -1 
   6  -6   0  174.14   10.87   2 
   3  -1   3  512.74    9.58  -1 
  -1   3  -4  512.74    9.58   2 
   2  -2   4 1133.50   15.35  -1 
  -2   2  -4 1133.50   15.35   2 
  -7   0   6   -0.73    7.74  -1 
   0  -7  -2   -0.73    7.74   2 
  -5   5  -1  400.44   11.23  -1 
   5  -5   1  400.44   11.23   2 
   5  -1   6   23.82    6.93  -1 
  -1   5  -8   23.82    6.93   2 
  -6  -1   6  547.54    9.59  -1 
  -1  -6  -2  547.54    9.59   2 
  -6   1   3  126.96    7.73  -1 
   1  -6   0  126.96    7.73   2 
   3   4  -2  349.60    8.50  -1 
   4   3  -2  349.60    8.50   2 
   5  -3  12  118.64   11.69  -1 
  -3   5 -13  118.64   11.69   2 
  -4  -3   8   50.23    7.05  -1 
  -3  -4  -4   50.23    7.05   2 
   2   5  -3   39.48    7.27  -1 
   5   2  -1   39.48    7.27   2 
  -7   5   2   12.77    7.98  -1 
   5  -7  -1   12.77    7.98   2 
  -5   3   0  571.92    9.22  -1 
   3  -5   1  571.92    9.22   2 
   4  -2   6  255.95    8.65  -1 
  -2   4  -7  255.95    8.65   2 
  -5  -2   7  346.80    8.89  -1 
  -2  -5  -3  346.80    8.89   2 
  -7   2   4  339.99    9.87  -1 
   2  -7  -1  339.99    9.87   2 
  -7   0   7    4.95    7.95  -1 
   0  -7  -3    4.95    7.95   2 
  -6   4   1  115.43    7.53  -1 
   4  -6   0  115.43    7.53   2 
  -3   1   0  268.62    7.64  -1 
   1  -3   1  268.62    7.64   2 
  -1   1  -1 9999.99   58.37  -1 
   1  -1   1 9999.99   58.37   2 
   4  -4  13    2.13   11.30  -1 
  -4   4 -13    2.13   11.30   2 
   5  -3  11  170.03   11.17  -1 
  -3   5 -12  170.03   11.17   2 
  -6  -1   7  402.33    9.91  -1 
  -1  -6  -3  402.33    9.91   2 
   3  -3   7  348.42   10.82  -1 
  -3   3  -7  348.42   10.82   2 
   5  -1   5   69.52    6.39  -1 
  -1   5  -7   69.52    6.39   2 
  -4  -3   9  110.60    7.54  -1 
  -3  -4  -5  110.60    7.54   2 
  -6   1   4  221.11    7.46  -1 
   1  -6  -1  221.11    7.46   2 
  -7   0   8   57.96    7.96  -1 
   0  -7  -4   57.96    7.96   2 
  -6   6   1  204.96   10.86  -1 
   6  -6  -1  204.96   10.86   2 
  -5  -2   8  833.80   11.24  -1 
  -2  -5  -4  833.80   11.24   2 
   5  -3  10   31.33    9.71  -1 
  -3   5 -11   31.33    9.71   2 
  -7   2   5   28.07    6.72  -1 
   2  -7  -2   28.07    6.72   2 
   4  -4  12    1.77   11.66  -1 
  -4   4 -12    1.77   11.66   2 
  -6  -1   8  120.35    7.26  -1 
  -1  -6  -4  120.35    7.26   2 
   5   2   0  134.42    7.32  -1 
   2   5  -4  134.42    7.32   2 
  -5   7   0    1.37    9.46  -1 
   7  -5  -1    1.37    9.46   2 
  -4   4  -1  325.09    8.18  -1 
   4  -4   1  325.09    8.18   2 
   4  -2   5 1304.87   14.35  -1 
  -2   4  -6 1304.87   14.35   2 
   3   4  -3   50.03    6.88  -1 
   4   3  -1   50.03    6.88   2 
  -6   4   2    7.98    6.48  -1 
   4  -6  -1    7.98    6.48   2 
  -5   5   0  233.71    8.49  -1 
   5  -5   0  233.71    8.49   2 
   3  -1   2 1669.93   15.27  -1 
  -1   3  -3 1669.93   15.27   2 
   5  -1   4   -2.06    6.51  -1 
  -1   5  -6   -2.06    6.51   2 
  -4  -3  10  586.30   11.23  -1 
  -3  -4  -6  586.30   11.23   2 
   4   3  -2  285.70    8.14  -1 
   3   4  -2  285.70    8.14   2 
  -5  -2   9  916.31   11.34  -1 
  -2  -5  -5  916.31   11.34   2 
  -6   1   5  586.16    9.37  -1 
   1  -6  -2  586.16    9.37   2 
  -7   2   6   21.30    6.48  -1 
   2  -7  -3   21.30    6.48   2 
  -7   3   5  236.83    9.13  -1 
   3  -7  -3  236.83    9.13   2 
  -6  -1   9    6.86    7.17  -1 
  -1  -6  -5    6.86    7.17   2 
   2  -4   9  589.70   25.88  -1 
  -4   2  -8  589.70   25.88   2 
   5  -3   9   24.20    9.08  -1 
  -3   5 -10   24.20    9.08   2 
  -3  -4  13  173.73   10.37  -1 
  -4  -3  -9  173.73   10.37   2 
   7   0   5  136.14    9.03  -1 
   0   7  -9  136.14    9.03   2 
  -4   6  -1    2.37    8.78  -1 
   6  -4   0    2.37    8.78   2 
  -6   2   4   33.82    6.86  -1 
   2  -6  -2   33.82    6.86   2 
  -6   6   2  105.34    9.99  -1 
   6  -6  -2  105.34    9.99   2 
   2   5  -4  131.36    9.39  -1 
   5   2   0  131.36    9.39   2 
   4  -4  11   77.36   12.18  -1 
  -4   4 -11   77.36   12.18   2 
  -4  -3  11  738.37   12.10  -1 
  -3  -4  -7  738.37   12.10   2 
  -5  -2  10  543.72   10.17  -1 
  -2  -5  -6  543.72   10.17   2 
   5   2  -1   43.65    6.84  -1 
   2   5  -3   43.65    6.84   2 
  -7   2   7  104.73    7.57  -1 
   2  -7  -4  104.73    7.57   2 
  -4   2   1 3780.67   17.90  -1 
   2  -4   0 3780.67   17.90   2 
  -3   3  -1   70.96    6.93  -1 
   3  -3   1   70.96    6.93   2 
  -3  -4  14  232.42   11.70  -1 
  -4  -3 -10  232.42   11.70   2 
  -6   1   6  428.46    9.46  -1 
   1  -6  -3  428.46    9.46   2 
   6   1   1  158.36    7.57  -1 
   1   6  -5  158.36    7.57   2 
  -6   4   3   24.71    7.01  -1 
   4  -6  -2   24.71    7.01   2 
   0   7  -4  213.61   15.59  -1 
   7   0   0  213.61   15.59   2 
   3  -3   6   -0.20    7.13  -1 
  -3   3  -6   -0.20    7.13   2 
   5  -3   8  342.94   12.21  -1 
  -3   5  -9  342.94   12.21   2 
  -5   1   4  272.52    7.51  -1 
   1  -5  -2  272.52    7.51   2 
  -3   1   1  170.51    7.12  -1 
   1  -3   0  170.51    7.12   2 
   4  -2   4 1206.39   13.74  -1 
  -2   4  -5 1206.39   13.74   2 
  -4  -3  12  273.41    9.80  -1 
  -3  -4  -8  273.41    9.80   2 
  -5  -2  11   21.33    7.42  -1 
  -2  -5  -7   21.33    7.42   2 
  -6  -1  11  164.98    9.16  -1 
  -1  -6  -7  164.98    9.16   2 
  -5   3   2  801.11    9.81  -1 
   3  -5  -1  801.11    9.81   2 
  -5   5   1   13.55    6.40  -1 
   5  -5  -1   13.55    6.40   2 
  -2   2  -1  619.73   10.97  -1 
   2  -2   1  619.73   10.97   2 
   4   3  -3   41.90    6.70  -1 
   3   4  -1   41.90    6.70   2 
  -7   3   7   16.17    8.30  -1 
   3  -7  -5   16.17    8.30   2 
  -6   6   3    0.11    7.80  -1 
   6  -6  -3    0.11    7.80   2 
  -6   1   7  269.33    8.88  -1 
   1  -6  -4  269.33    8.88   2 
   3   4  -4   20.52    6.34  -1 
   4   3   0   20.52    6.34   2 
  -6  -1  12   23.72    7.91  -1 
  -1  -6  -8   23.72    7.91   2 
  -5  -2  12  173.73    9.67  -1 
  -2  -5  -8  173.73    9.67   2 
  -4   4   0   46.13    5.78  -1 
   4  -4   0   46.13    5.78   2 
   2  -2   3 1007.56   15.01  -1 
  -2   2  -3 1007.56   15.01   2 
   4  -4  10   49.92   10.11  -1 
  -4   4 -10   49.92   10.11   2 
   4   0   0  383.17    8.29  -1 
   0   4  -2  383.17    8.29   2 
  -4  -3  13   37.35    7.56  -1 
  -3  -4  -9   37.35    7.56   2 
  -6   4   4   27.82    6.93  -1 
   4  -6  -3   27.82    6.93   2 
   5   2  -2  711.67    9.78  -1 
   2   5  -2  711.67    9.78   2 
  -6   2   6  552.32    9.81  -1 
   2  -6  -4  552.32    9.81   2 
  -5   1   5  151.84    7.20  -1 
   1  -5  -3  151.84    7.20   2 
   3  -1   1 2658.41   17.78  -1 
  -1   3  -2 2658.41   17.78   2 
   5  -3   7  786.37   14.61  -1 
  -3   5  -8  786.37   14.61   2 
   5  -1   2    0.21    6.43  -1 
  -1   5  -4    0.21    6.43   2 
  -5  -2  13  293.70    9.89  -1 
  -2  -5  -9  293.70    9.89   2 
  -5   0   7  184.31    7.42  -1 
   0  -5  -4  184.31    7.42   2 
  -6   1   8   25.90    7.54  -1 
   1  -6  -5   25.90    7.54   2 
  -4  -1   7   72.53    6.57  -1 
  -1  -4  -4   72.53    6.57   2 
  -5   3   3   36.35    6.11  -1 
   3  -5  -2   36.35    6.11   2 
  -4   2   2 1306.38   11.66  -1 
   2  -4  -1 1306.38   11.66   2 
  -3  -1   5   51.89    6.34  -1 
  -1  -3  -3   51.89    6.34   2 
   7  -2   6    9.64    9.22  -1 
  -2   7  -9    9.64    9.22   2 
  -5   5   2 1101.95   12.90  -1 
   5  -5  -2 1101.95   12.90   2 
   4  -2   3  398.52    8.79  -1 
  -2   4  -4  398.52    8.79   2 
  -6   1   9   39.18    7.72  -1 
   1  -6  -6   39.18    7.72   2 
  -6   2   7  339.62    8.39  -1 
   2  -6  -5  339.62    8.39   2 
  -6   4   5   53.26    7.10  -1 
   4  -6  -4   53.26    7.10   2 
  -2  -2   6 1168.05   12.56  -1 
  -2  -2  -4 1168.05   12.56   2 
  -5   0   8  222.47    7.91  -1 
   0  -5  -5  222.47    7.91   2 
  -5   1   6  174.97    7.58  -1 
   1  -5  -4  174.97    7.58   2 
   4  -4   9    7.56    9.34  -1 
  -4   4  -9    7.56    9.34   2 
   2   5  -5  132.72    8.19  -1 
   5   2   1  132.72    8.19   2 
  -3   1   2 1478.17   12.57  -1 
   1  -3  -1 1478.17   12.57   2 
   1  -1   1 9903.11   58.21  -1 
  -1   1  -1 9903.11   58.21   2 
   3  -3   5  189.01    8.73  -1 
  -3   3  -5  189.01    8.73   2 
   5  -3   6  707.11   13.78  -1 
  -3   5  -7  707.11   13.78   2 
   7   0   1  361.01    9.88  -1 
   0   7  -5  361.01    9.88   2 
  -6   1  10  392.82   10.06  -1 
   1  -6  -7  392.82   10.06   2 
  -3   5  -1  519.17   11.97  -1 
   5  -3   0  519.17   11.97   2 
  -4   4   1 2294.99   15.60  -1 
   4  -4  -1 2294.99   15.60   2 
  -3   3   0   58.61    6.56  -1 
   3  -3   0   58.61    6.56   2 
   5  -1   1   76.23    6.92  -1 
  -1   5  -3   76.23    6.92   2 
   6  -2   4   55.59    7.31  -1 
  -2   6  -6   55.59    7.31   2 
   1   6  -5  109.50   10.75  -1 
   6   1   1  109.50   10.75   2 
  -6   4   6  105.65    7.00  -1 
   4  -6  -5  105.65    7.00   2 
  -5   0   9  228.90    7.45  -1 
   0  -5  -6  228.90    7.45   2 
  -5   3   4   67.68    5.83  -1 
   3  -5  -3   67.68    5.83   2 
  -4   0   6   72.28    6.52  -1 
   0  -4  -4   72.28    6.52   2 
   3   4  -5    9.36    6.33  -1 
   4   3   1    9.36    6.33   2 
  -6   1  11  364.37   10.42  -1 
   1  -6  -8  364.37   10.42   2 
  -5   1   7  190.93    7.53  -1 
   1  -5  -5  190.93    7.53   2 
  -5   5   3  621.23   10.53  -1 
   5  -5  -3  621.23   10.53   2 
  -4   2   3   52.35    6.22  -1 
   2  -4  -2   52.35    6.22   2 
  -3  -1   6  880.00   10.87  -1 
  -1  -3  -4  880.00   10.87   2 
  -4  -1   9   22.38    6.48  -1 
  -1  -4  -6   22.38    6.48   2 
  -6   1  12   58.23    7.49  -1 
   1  -6  -9   58.23    7.49   2 
  -6   4   7   11.88    7.37  -1 
   4  -6  -6   11.88    7.37   2 
  -5   0  10  200.20    7.57  -1 
   0  -5  -7  200.20    7.57   2 
   8  -1   3   87.95    9.88  -1 
  -1   8  -7   87.95    9.88   2 
  -4   6   1    2.32    8.45  -1 
   6  -4  -2    2.32    8.45   2 
  -2  -2   7 2300.41   17.22  -1 
  -2  -2  -5 2300.41   17.22   2 
   3  -1   0  255.90    7.64  -1 
  -1   3  -1  255.90    7.64   2 
   4  -4   8   34.46    9.63  -1 
  -4   4  -8   34.46    9.63   2 
   4  -2   2  272.18    7.91  -1 
  -2   4  -3  272.18    7.91   2 
   5  -3   5  148.26    8.50  -1 
  -3   5  -6  148.26    8.50   2 
   6  -2   3   18.29    7.22  -1 
  -2   6  -5   18.29    7.22   2 
  -5   3   5  118.33    6.01  -1 
   3  -5  -4  118.33    6.01   2 
  -4   0   7   44.14    6.29  -1 
   0  -4  -5   44.14    6.29   2 
  -4  -1  10   92.20    7.21  -1 
  -1  -4  -7   92.20    7.21   2 
  -5   0  11   31.43    6.48  -1 
   0  -5  -8   31.43    6.48   2 
   4   3  -5  607.52    9.52  -1 
   3   4   1  607.52    9.52   2 
  -6   4   8   43.82    8.33  -1 
   4  -6  -7   43.82    8.33   2 
  -5   5   4  328.04    8.54  -1 
   5  -5  -4  328.04    8.54   2 
   5  -1   0    7.73    6.60  -1 
  -1   5  -2    7.73    6.60   2 
  -5   0  12  219.37    9.15  -1 
   0  -5  -9  219.37    9.15   2 
  -4   4   2  714.68    9.62  -1 
   4  -4  -2  714.68    9.62   2 
  -3   1   3 2819.34   16.08  -1 
   1  -3  -2 2819.34   16.08   2 
   6  -4   9  152.96   14.16  -1 
  -4   6 -10  152.96   14.16   2 
   7   0  -1   23.74    7.43  -1 
   0   7  -3   23.74    7.43   2 
   6   1  -3  339.83    8.27  -1 
   1   6  -1  339.83    8.27   2 
  -6   4   9   -5.69    8.14  -1 
   4  -6  -8   -5.69    8.14   2 
  -4  -1  11  179.05    7.27  -1 
  -1  -4  -8  179.05    7.27   2 
  -4   2   4  248.48    7.38  -1 
   2  -4  -3  248.48    7.38   2 
  -2   2   0 3371.15   22.64  -1 
   2  -2   0 3371.15   22.64   2 
   0  -2   4   11.85    8.95  -1 
  -2   0  -3   11.85    8.95   2 
  -3  -2  11   12.35    6.51  -1 
  -2  -3  -8   12.35    6.51   2 
  -5   0  13  127.29    8.66  -1 
   0  -5 -10  127.29    8.66   2 
  -5   3   6   89.03    6.70  -1 
   3  -5  -5   89.03    6.70   2 
  -4   0   8   12.74    6.27  -1 
   0  -4  -6   12.74    6.27   2 
   6  -2   2   31.20    7.45  -1 
  -2   6  -4   31.20    7.45   2 
  -2  -3  13   11.33    7.89  -1 
  -3  -2 -10   11.33    7.89   2 
  -6   4  10   16.94    8.49  -1 
   4  -6  -9   16.94    8.49   2 
  -5   0  14  197.66    9.55  -1 
   0  -5 -11  197.66    9.55   2 
  -5   5   5   57.83    7.37  -1 
   5  -5  -5   57.83    7.37   2 
  -4  -1  12   47.88    7.17  -1 
  -1  -4  -9   47.88    7.17   2 
  -2  -2   8  320.26    8.16  -1 
  -2  -2  -6  320.26    8.16   2 
   2  -2   2  129.47    7.37  -1 
  -2   2  -2  129.47    7.37   2 
   5  -3   4  173.17    9.08  -1 
  -3   5  -5  173.17    9.08   2 
  -3  -2  12   26.42    7.04  -1 
  -2  -3  -9   26.42    7.04   2 
  -5   0  15   46.37    8.73  -1 
   0  -5 -12   46.37    8.73   2 
  -4   6   2   11.63    8.35  -1 
   6  -4  -3   11.63    8.35   2 
  -3   3   1   69.34    5.78  -1 
   3  -3  -1   69.34    5.78   2 
   3  -3   4   24.73    6.32  -1 
  -3   3  -4   24.73    6.32   2 
   3   4  -6    9.02    7.46  -1 
   4   3   2    9.02    7.46   2 
   6  -4   8  106.58   12.38  -1 
  -4   6  -9  106.58   12.38   2 
  -2  -3  14   80.86    8.63  -1 
  -3  -2 -11   80.86    8.63   2 
  -4  -1  13    8.03    6.95  -1 
  -1  -4 -10    8.03    6.95   2 
  -5   3   7   20.74    5.69  -1 
   3  -5  -6   20.74    5.69   2 
  -4   0   9   45.82    6.62  -1 
   0  -4  -7   45.82    6.62   2 
   4  -4   7   -0.15    8.53  -1 
  -4   4  -7   -0.15    8.53   2 
  -3  -2  13   23.54    7.46  -1 
  -2  -3 -10   23.54    7.46   2 
   7   0  -2   80.91    7.83  -1 
   0   7  -2   80.91    7.83   2 
   5   2  -5  479.64    9.04  -1 
   2   5   1  479.64    9.04   2 
  -1   8  -3  117.68   19.21  -1 
   8  -1  -1  117.68   19.21   2 
  -4   2   5  941.35    9.88  -1 
   2  -4  -4  941.35    9.88   2 
  -4   4   3  263.73    7.33  -1 
   4  -4  -3  263.73    7.33   2 
   4  -2   1  362.61    8.09  -1 
  -2   4  -2  362.61    8.09   2 
   6   1  -4  119.02    7.34  -1 
   1   6   0  119.02    7.34   2 
  -5   5   6    6.85    6.53  -1 
   5  -5  -6    6.85    6.53   2 
   6  -2   1   29.92    7.46  -1 
  -2   6  -3   29.92    7.46   2 
  -3  -2  14    6.22    7.18  -1 
  -2  -3 -11    6.22    7.18   2 
   4   3  -6  423.11    8.87  -1 
   3   4   2  423.11    8.87   2 
  -5   3   8   25.54    7.05  -1 
   3  -5  -7   25.54    7.05   2 
  -3   1   4 2073.15   13.65  -1 
   1  -3  -3 2073.15   13.65   2 
  -2  -2   9   11.05    5.92  -1 
  -2  -2  -7   11.05    5.92   2 
   3  -1  -1  178.00    7.18  -1 
  -1   3   0  178.00    7.18   2 
   5  -3   3  398.74    9.36  -1 
  -3   5  -4  398.74    9.36   2 
   6  -4   7   23.29    9.26  -1 
  -4   6  -8   23.29    9.26   2 
  -4   6   3   18.87    7.08  -1 
   6  -4  -4   18.87    7.08   2 
  -5   3   9   55.15    7.47  -1 
   3  -5  -8   55.15    7.47   2 
  -5   5   7   62.04    7.06  -1 
   5  -5  -7   62.04    7.06   2 
  -4   2   6  874.92    9.54  -1 
   2  -4  -5  874.92    9.54   2 
  -1   1   0   42.79    5.88  -1 
   1  -1   0   42.79    5.88   2 
   7   0  -3  393.03    9.71  -1 
   0   7  -1  393.03    9.71   2 
  -5   3  10   22.50    7.50  -1 
   3  -5  -9   22.50    7.50   2 
  -5   5   8  270.61    8.42  -1 
   5  -5  -8  270.61    8.42   2 
  -4   4   4  236.06    6.87  -1 
   4  -4  -4  236.06    6.87   2 
   6   1  -5  889.00   10.92  -1 
   1   6   1  889.00   10.92   2 
   5   2  -6   11.16    6.81  -1 
   2   5   2   11.16    6.81   2 
  -5   3  11   -3.10    6.67  -1 
   3  -5 -10   -3.10    6.67   2 
  -3   3   2 1780.94   12.95  -1 
   3  -3  -2 1780.94   12.95   2 
  -2   0   4  901.58   11.42  -1 
   0  -2  -3  901.58   11.42   2 
   6  -4   6    9.26    9.53  -1 
  -4   6  -7    9.26    9.53   2 
   6  -2   0  161.93    8.29  -1 
  -2   6  -2  161.93    8.29   2 
   7  -3   3  115.50    9.53  -1 
  -3   7  -5  115.50    9.53   2 
  -3   5   1  656.56   11.48  -1 
   5  -3  -2  656.56   11.48   2 
  -5   3  12   48.95    7.16  -1 
   3  -5 -11   48.95    7.16   2 
  -5   5   9   99.39    8.09  -1 
   5  -5  -9   99.39    8.09   2 
  -4   2   7 1208.38   11.07  -1 
   2  -4  -6 1208.38   11.07   2 
  -3   1   5   22.84    4.93  -1 
   1  -3  -4   22.84    4.93   2 
   1   6  -6   46.29   10.47  -1 
   6   1   2   46.29   10.47   2 
   4  -4   6   17.87    8.71  -1 
  -4   4  -6   17.87    8.71   2 
   4  -2   0 1410.93   12.61  -1 
  -2   4  -1 1410.93   12.61   2 
   3   4  -7    2.59    7.11  -1 
   4   3   3    2.59    7.11   2 
  -4   6   4   63.27    7.65  -1 
   6  -4  -5   63.27    7.65   2 
  -5   3  13   43.38    9.05  -1 
   3  -5 -12   43.38    9.05   2 
   7   0  -4  363.79    9.74  -1 
   0   7   0  363.79    9.74   2 
   4   3  -7  280.04    8.31  -1 
   3   4   3  280.04    8.31   2 
  -4   4   5 1045.65   10.56  -1 
   4  -4  -5 1045.65   10.56   2 
  -2   2   1    8.60    6.03  -1 
   2  -2  -1    8.60    6.03   2 
  -1  -1   4  173.75    7.98  -1 
  -1  -1  -3  173.75    7.98   2 
   3  -3   3   31.26    6.71  -1 
  -3   3  -3   31.26    6.71   2 
   5  -3   2  945.02   12.75  -1 
  -3   5  -3  945.02   12.75   2 
   8  -1  -2   81.23    8.78  -1 
  -1   8  -2   81.23    8.78   2 
  -4   2   8   91.24    7.02  -1 
   2  -4  -7   91.24    7.02   2 
   7  -3   2  152.90    9.29  -1 
  -3   7  -4  152.90    9.29   2 
  -4   6   5   75.03    8.28  -1 
   6  -4  -6   75.03    8.28   2 
   6  -4   5  173.04   11.50  -1 
  -4   6  -6  173.04   11.50   2 
   6  -2  -1  168.13    8.31  -1 
  -2   6  -1  168.13    8.31   2 
   7  -2  -1   81.42    8.32  -1 
  -2   7  -2   81.42    8.32   2 
   6   1  -6  630.15   10.15  -1 
   1   6   2  630.15   10.15   2 
  -4   2   9   75.26    6.52  -1 
   2  -4  -8   75.26    6.52   2 
  -4   4   6  938.74   10.40  -1 
   4  -4  -6  938.74   10.40   2 
  -3   1   6   19.07    5.84  -1 
   1  -3  -5   19.07    5.84   2 
   5   2  -7  333.47    8.79  -1 
   2   5   3  333.47    8.79   2 
  -3   3   3  461.66    7.88  -1 
   3  -3  -3  461.66    7.88   2 
   3  -1  -2 1413.64   12.84  -1 
  -1   3   1 1413.64   12.84   2 
   8  -1  -3    3.61    8.02  -1 
  -1   8  -1    3.61    8.02   2 
   7   0  -5   40.56    7.46  -1 
   0   7   1   40.56    7.46   2 
  -3   5   2   44.69    7.08  -1 
   5  -3  -3   44.69    7.08   2 
  -4   6   6    4.41    7.82  -1 
   6  -4  -7    4.41    7.82   2 
  -4   2  10  102.21    7.24  -1 
   2  -4  -9  102.21    7.24   2 
  -2   0   5 2431.82   16.58  -1 
   0  -2  -4 2431.82   16.58   2 
  -4   2  11   71.19    7.28  -1 
   2  -4 -10   71.19    7.28   2 
  -4   4   7  820.36    9.38  -1 
   4  -4  -7  820.36    9.38   2 
   2  -2   1  606.21   11.04  -1 
  -2   2  -1  606.21   11.04   2 
   4  -4   5  217.66   10.16  -1 
  -4   4  -5  217.66   10.16   2 
   4  -2  -1 3652.50   18.62  -1 
  -2   4   0 3652.50   18.62   2 
   5  -3   1  513.73    9.61  -1 
  -3   5  -2  513.73    9.61   2 
   6  -4   4   95.53   10.06  -1 
  -4   6  -5   95.53   10.06   2 
  -4   6   7   13.59    8.40  -1 
   6  -4  -8   13.59    8.40   2 
  -4   2  12   37.48    6.43  -1 
   2  -4 -11   37.48    6.43   2 
  -4   2  13   39.31    7.73  -1 
   2  -4 -12   39.31    7.73   2 
  -4   2  15   26.57    8.86  -1 
   2  -4 -14   26.57    8.86   2 
  -3   1   7  406.33    7.57  -1 
   1  -3  -6  406.33    7.57   2 
   6  -1  -4  236.10    7.86  -1 
  -1   6   1  236.10    7.86   2 
  -4   2  14    4.06    6.85  -1 
   2  -4 -13    4.06    6.85   2 
  -4   4   8   64.74    5.57  -1 
   4  -4  -8   64.74    5.57   2 
   6  -2  -2  599.94   10.15  -1 
  -2   6   0  599.94   10.15   2 
   1  -3   6  139.85   14.94  -1 
  -3   1  -5  139.85   14.94   2 
   6   1  -7  438.87    9.53  -1 
   1   6   3  438.87    9.53   2 
   4   3  -8   51.58    6.71  -1 
   3   4   4   51.58    6.71   2 
  -4   6   8    5.44    8.48  -1 
   6  -4  -9    5.44    8.48   2 
  -3   1   8 1506.68   10.98  -1 
   1  -3  -7 1506.68   10.98   2 
  -3   3   4  205.70    6.26  -1 
   3  -3  -4  205.70    6.26   2 
   3   4  -8   39.10    6.96  -1 
   4   3   4   39.10    6.96   2 
  -4   4   9  236.45    6.96  -1 
   4  -4  -9  236.45    6.96   2 
  -4   6   9   30.63    8.61  -1 
   6  -4 -10   30.63    8.61   2 
   0  -2   5   64.98    9.20  -1 
  -2   0  -4   64.98    9.20   2 
   5  -5   9   16.37   13.21  -1 
  -5   5  -9   16.37   13.21   2 
   5  -1  -4  272.09    7.67  -1 
  -1   5   2  272.09    7.67   2 
   7  -3   0  250.16    9.69  -1 
  -3   7  -2  250.16    9.69   2 
   8  -3   0  142.23   10.40  -1 
  -3   8  -3  142.23   10.40   2 
   5   2  -8  921.04   11.75  -1 
   2   5   4  921.04   11.75   2 
  -4   4  10  368.10    8.71  -1 
   4  -4 -10  368.10    8.71   2 
  -3   5   3   66.77    6.84  -1 
   5  -3  -4   66.77    6.84   2 
  -4   4  11  355.36    8.71  -1 
   4  -4 -11  355.36    8.71   2 
  -2   0   6 2188.83   15.15  -1 
   0  -2  -5 2188.83   15.15   2 
  -2   2   2   42.41    4.97  -1 
   2  -2  -2   42.41    4.97   2 
  -1  -1   5  288.12    8.60  -1 
  -1  -1  -4  288.12    8.60   2 
   3  -3   2    5.30    6.04  -1 
  -3   3  -2    5.30    6.04   2 
   6  -4   3   63.55    9.26  -1 
  -4   6  -4   63.55    9.26   2 
  -4   4  13   -0.12    7.07  -1 
   4  -4 -13   -0.12    7.07   2 
  -4   4  12  130.49    7.87  -1 
   4  -4 -12  130.49    7.87   2 
  -3   1   9  952.50    9.16  -1 
   1  -3  -8  952.50    9.16   2 
   1  -1   0   39.87    6.11  -1 
  -1   1   0   39.87    6.11   2 
   5  -3   0  553.97    9.67  -1 
  -3   5  -1  553.97    9.67   2 
  -1   8  -2  100.36   14.55  -1 
   8  -1  -2  100.36   14.55   2 
  -3   1  10  450.82    8.78  -1 
   1  -3  -9  450.82    8.78   2 
  -3   3   5   14.65    4.97  -1 
   3  -3  -5   14.65    4.97   2 
   6  -2  -3  211.21    8.19  -1 
  -2   6   1  211.21    8.19   2 
   8  -1  -5    2.61    8.33  -1 
  -1   8   1    2.61    8.33   2 
  -3   1  16   13.32    8.11  -1 
   1  -3 -15   13.32    8.11   2 
  -3   1  11  185.96    7.28  -1 
   1  -3 -10  185.96    7.28   2 
  -3   1  15   30.25    8.41  -1 
   1  -3 -14   30.25    8.41   2 
   4  -4   4  105.00    8.07  -1 
  -4   4  -4  105.00    8.07   2 
   4  -2  -2 1206.81   12.19  -1 
  -2   4   1 1206.81   12.19   2 
   8  -3  -1  163.67   11.13  -1 
  -3   8  -2  163.67   11.13   2 
  -3   1  14  208.22    8.60  -1 
   1  -3 -13  208.22    8.60   2 
  -3   1  12   73.71    6.85  -1 
   1  -3 -11   73.71    6.85   2 
   6   1  -8  123.18    8.11  -1 
   1   6   4  123.18    8.11   2 
  -3   5   4  100.06    7.00  -1 
   5  -3  -5  100.06    7.00   2 
  -3   1  13  130.93    6.85  -1 
   1  -3 -12  130.93    6.85   2 
  -2   0   7 2933.88   16.76  -1 
   0  -2  -6 2933.88   16.76   2 
   5  -5   8  134.90   14.52  -1 
  -5   5  -8  134.90   14.52   2 
   7   0  -7    8.41    6.75  -1 
   0   7   3    8.41    6.75   2 
  -3   3   6  194.06    5.76  -1 
   3  -3  -6  194.06    5.76   2 
   2   5  -8   13.55    7.95  -1 
   5   2   4   13.55    7.95   2 
   6  -4   2   81.85    7.77  -1 
  -4   6  -3   81.85    7.77   2 
   7  -2  -4  354.00    9.38  -1 
  -2   7   1  354.00    9.38   2 
   4   3  -9   96.84    7.17  -1 
   3   4   5   96.84    7.17   2 
   8  -1  -6   -5.46    8.26  -1 
  -1   8   2   -5.46    8.26   2 
   5   2  -9  999.82   11.91  -1 
   2   5   5  999.82   11.91   2 
  -3   5   5  108.71    7.39  -1 
   5  -3  -6  108.71    7.39   2 
  -3   3   7  494.63    7.62  -1 
   3  -3  -7  494.63    7.62   2 
  -2   0   8  236.48    7.41  -1 
   0  -2  -7  236.48    7.41   2 
  -2   0  17   82.54    9.44  -1 
   0  -2 -16   82.54    9.44   2 
  -1  -1   6   32.04    6.34  -1 
  -1  -1  -5   32.04    6.34   2 
   5  -3  -1    9.95    6.28  -1 
  -3   5   0    9.95    6.28   2 
   2  -4   9  567.28   23.70  -1 
  -4   2  -8  567.28   23.70   2 
   8  -3  -2  108.78   10.07  -1 
  -3   8  -1  108.78   10.07   2 
   6  -1  -6  432.55    9.23  -1 
  -1   6   3  432.55    9.23   2 
  -2   4   1 1208.95   13.58  -1 
   4  -2  -2 1208.95   13.58   2 
  -2   2   3  137.57    5.60  -1 
   2  -2  -3  137.57    5.60   2 
  -1   1   1 4699.44   29.94  -1 
   1  -1  -1 4699.44   29.94   2 
   7  -3  -2    6.42    8.02  -1 
  -3   7   0    6.42    8.02   2 
  -2   0  16  275.73    9.70  -1 
   0  -2 -15  275.73    9.70   2 
  -3   5   6   38.38    7.29  -1 
   5  -3  -7   38.38    7.29   2 
  -3   3   8 1481.87   11.76  -1 
   3  -3  -8 1481.87   11.76   2 
  -3   3  15   40.91    7.04  -1 
   3  -3 -15   40.91    7.04   2 
  -2   0   9  143.01    5.98  -1 
   0  -2  -8  143.01    5.98   2 
   2  -2   0 3122.49   22.33  -1 
  -2   2   0 3122.49   22.33   2 
   2   0  -4  942.13   11.47  -1 
   0   2   3  942.13   11.47   2 
   5  -5   7  133.38   12.88  -1 
  -5   5  -7  133.38   12.88   2 
  -2   0  15  155.49    7.67  -1 
   0  -2 -14  155.49    7.67   2 
   7   0  -8   68.84    7.38  -1 
   0   7   4   68.84    7.38   2 
  -3   3   9  562.23    7.89  -1 
   3  -3  -9  562.23    7.89   2 
  -3   3  14  143.49    7.21  -1 
   3  -3 -14  143.49    7.21   2 
  -2   0  10 1928.22   14.04  -1 
   0  -2  -9 1928.22   14.04   2 
  -2   0  14   45.29    6.78  -1 
   0  -2 -13   45.29    6.78   2 
   3  -3   1   68.56    6.41  -1 
  -3   3  -1   68.56    6.41   2 
   4  -4   3    4.96    6.53  -1 
  -4   4  -3    4.96    6.53   2 
   4  -2  -3   49.47    6.38  -1 
  -2   4   2   49.47    6.38   2 
   6  -4   1    3.52    7.21  -1 
  -4   6  -2    3.52    7.21   2 
   7  -2  -5   23.18    7.71  -1 
  -2   7   2   23.18    7.71   2 
  -2   0  13  129.14    7.52  -1 
   0  -2 -12  129.14    7.52   2 
  -2   0  12  233.47    7.86  -1 
   0  -2 -11  233.47    7.86   2 
  -2   0  11 1423.62   12.20  -1 
   0  -2 -10 1423.62   12.20   2 
  -3   3  13  522.66    9.64  -1 
   3  -3 -13  522.66    9.64   2 
  -3   3  10   47.46    6.17  -1 
   3  -3 -10   47.46    6.17   2 
  -3   5   7    7.10    7.13  -1 
   5  -3  -8    7.10    7.13   2 
  -3   3  11   67.17    5.54  -1 
   3  -3 -11   67.17    5.54   2 
  -3   3  12  329.32    7.60  -1 
   3  -3 -12  329.32    7.60   2 
  -1  -1   7  275.52    7.75  -1 
  -1  -1  -6  275.52    7.75   2 
   2  -4  15   49.73   12.22  -1 
  -4   2 -14   49.73   12.22   2 
   8  -3  -3    4.74    8.42  -1 
  -3   8   0    4.74    8.42   2 
  -1  -1  17   80.00    9.16  -1 
  -1  -1 -16   80.00    9.16   2 
  -3   5   8   43.63    7.61  -1 
   5  -3  -9   43.63    7.61   2 
  -1   8  -1    5.23   10.53  -1 
   8  -1  -3    5.23   10.53   2 
  -3   5   9   -3.60    8.00  -1 
   5  -3 -10   -3.60    8.00   2 
  -3   5  12   41.06    8.80  -1 
   5  -3 -13   41.06    8.80   2 
   7  -3  -3   68.27    9.71  -1 
  -3   7   1   68.27    9.71   2 
   1  -3  17   26.79   10.22  -1 
  -3   1 -16   26.79   10.22   2 
  -1  -1  16   10.44    7.91  -1 
  -1  -1 -15   10.44    7.91   2 
  -3   5  11   45.10    8.15  -1 
   5  -3 -12   45.10    8.15   2 
  -3   5  10    1.38    7.60  -1 
   5  -3 -11    1.38    7.60   2 
  -2   2   4   10.41    4.26  -1 
   2  -2  -4   10.41    4.26   2 
   4   3 -10  338.60   11.01  -1 
   3   4   6  338.60   11.01   2 
   5  -5   6  322.81   15.68  -1 
  -5   5  -6  322.81   15.68   2 
   5  -3  -2  706.52   10.14  -1 
  -3   5   1  706.52   10.14   2 
   5   2 -10  450.48   10.46  -1 
   2   5   6  450.48   10.46   2 
   6  -2  -5  111.19    8.02  -1 
  -2   6   3  111.19    8.02   2 
   2  -4  14    8.13   10.44  -1 
  -4   2 -13    8.13   10.44   2 
   0  -2  17   96.14    9.65  -1 
  -2   0 -16   96.14    9.65   2 
   5   0  -8  169.43    7.70  -1 
   0   5   5  169.43    7.70   2 
  -1  -1   8 2455.40   16.04  -1 
  -1  -1  -7 2455.40   16.04   2 
   6  -4   0    5.10    6.75  -1 
  -4   6  -1    5.10    6.75   2 
   1  -3  16    0.27   10.17  -1 
  -3   1 -15    0.27   10.17   2 
  -1  -1  15  258.41    9.01  -1 
  -1  -1 -14  258.41    9.01   2 
   7   0  -9   53.50    7.33  -1 
   0   7   5   53.50    7.33   2 
  -2   4   2   61.37    6.26  -1 
   4  -2  -3   61.37    6.26   2 
   2  -4  12  130.68   12.05  -1 
  -4   2 -11  130.68   12.05   2 
   1  -3   7  542.72   15.77  -1 
  -3   1  -6  542.72   15.77   2 
   0  -2  16  349.45   11.09  -1 
  -2   0 -15  349.45   11.09   2 
  -1  -1  14  457.42   10.24  -1 
  -1  -1 -13  457.42   10.24   2 
   6   1 -10  121.37    7.63  -1 
   1   6   6  121.37    7.63   2 
  -2   2  16  260.22    8.64  -1 
   2  -2 -16  260.22    8.64   2 
  -1  -1   9 1040.01   11.00  -1 
  -1  -1  -8 1040.01   11.00   2 
   4  -4   2  100.12    8.18  -1 
  -4   4  -2  100.12    8.18   2 
   1  -3  15    6.53    9.39  -1 
  -3   1 -14    6.53    9.39   2 
   0  -2  15  147.28    9.21  -1 
  -2   0 -14  147.28    9.21   2 
  -1  -1  13  809.32   11.32  -1 
  -1  -1 -12  809.32   11.32   2 
  -1  -1  12  298.16    8.33  -1 
  -1  -1 -11  298.16    8.33   2 
  -1  -1  10  277.32    7.52  -1 
  -1  -1  -9  277.32    7.52   2 
  -2   2   5   82.99    5.62  -1 
   2  -2  -5   82.99    5.62   2 
   1   4  -7 1002.85   16.10  -1 
   4   1   4 1002.85   16.10   2 
  -1  -1  11   64.90    6.62  -1 
  -1  -1 -10   64.90    6.62   2 
   4  -2  -4  231.90    7.36  -1 
  -2   4   3  231.90    7.36   2 
   7  -5   3    6.54    9.26  -1 
  -5   7  -4    6.54    9.26   2 
  -2   2  15  190.09    8.31  -1 
   2  -2 -15  190.09    8.31   2 
  -1   6  -2  196.93   10.86  -1 
   6  -1  -1  196.93   10.86   2 
   3  -3   0   53.81    5.97  -1 
  -3   3   0   53.81    5.97   2 
   5  -5   5   87.43   10.96  -1 
  -5   5  -5   87.43   10.96   2 
   5  -3  -3   34.33    6.16  -1 
  -3   5   2   34.33    6.16   2 
   6  -2  -6  435.46    9.77  -1 
  -2   6   4  435.46    9.77   2 
   0  -2  14  160.40    8.92  -1 
  -2   0 -13  160.40    8.92   2 
  -2   2  14  104.76    7.17  -1 
   2  -2 -14  104.76    7.17   2 
  -2   4   3  248.12    7.29  -1 
   4  -2  -4  248.12    7.29   2 
  -2   2   6   30.69    4.51  -1 
   2  -2  -6   30.69    4.51   2 
   6  -4  -1  111.23    7.93  -1 
  -4   6   0  111.23    7.93   2 
   0  -2  13    3.55    7.51  -1 
  -2   0 -12    3.55    7.51   2 
   7  -2  -7   99.17    8.70  -1 
  -2   7   4   99.17    8.70   2 
   5   0  -9  243.06    8.03  -1 
   0   5   6  243.06    8.03   2 
   7   0 -10   12.64    6.99  -1 
   0   7   6   12.64    6.99   2 
  -2   7   6  184.22   10.70  -1 
   7  -2  -9  184.22   10.70   2 
  -2   7   5  183.67    9.68  -1 
   7  -2  -8  183.67    9.68   2 
  -2   2  13    0.89    4.87  -1 
   2  -2 -13    0.89    4.87   2 
   3  -1  -5   22.71    4.85  -1 
  -1   3   4   22.71    4.85   2 
   7  -5   2   12.81    9.05  -1 
  -5   7  -3   12.81    9.05   2 
   1  -3   8  897.65   17.11  -1 
  -3   1  -7  897.65   17.11   2 
  -2   2  12   23.71    6.10  -1 
   2  -2 -12   23.71    6.10   2 
  -2   2   7  269.83    6.68  -1 
   2  -2  -7  269.83    6.68   2 
  -1   1   2   42.85    5.56  -1 
   1  -1  -2   42.85    5.56   2 
   2  -2  -1    8.35    4.46  -1 
  -2   2   1    8.35    4.46   2 
   7  -3  -5  190.76    9.30  -1 
  -3   7   3  190.76    9.30   2 
   0  -2  12  204.78    7.68  -1 
  -2   0 -11  204.78    7.68   2 
   0  -2  10  395.23    9.58  -1 
  -2   0  -9  395.23    9.58   2 
   0  -2   9  256.30    8.69  -1 
  -2   0  -8  256.30    8.69   2 
  -1   1  17   74.06    8.10  -1 
   1  -1 -17   74.06    8.10   2 
  -2   2  11  750.27    9.27  -1 
   2  -2 -11  750.27    9.27   2 
  -2   2   8   14.16    4.99  -1 
   2  -2  -8   14.16    4.99   2 
  -2   4  14   17.92    7.41  -1 
   4  -2 -15   17.92    7.41   2 
  -2   4   4  742.97   10.12  -1 
   4  -2  -5  742.97   10.12   2 
  -2   2   9   37.13    4.31  -1 
   2  -2  -9   37.13    4.31   2 
  -2   2  10  510.43    7.61  -1 
   2  -2 -10  510.43    7.61   2 
   4  -4   1  320.55    9.36  -1 
  -4   4  -1  320.55    9.36   2 
   5  -5   4  212.73   11.46  -1 
  -5   5  -4  212.73   11.46   2 
   1  -3   9  194.83   10.24  -1 
  -3   1  -8  194.83   10.24   2 
  -2   4  13   -0.42    7.63  -1 
   4  -2 -14   -0.42    7.63   2 
   1  -1  -1 4584.37   29.92  -1 
  -1   1   1 4584.37   29.92   2 
   4  -2  -5  884.90    9.85  -1 
  -2   4   4  884.90    9.85   2 
   5  -1  -8  289.64    8.26  -1 
  -1   5   6  289.64    8.26   2 
   6  -4  -2    2.82    6.79  -1 
  -4   6   1    2.82    6.79   2 
   6  -2  -7  365.89    9.32  -1 
  -2   6   5  365.89    9.32   2 
   7  -5   1   -2.05   10.28  -1 
  -5   7  -2   -2.05   10.28   2 
   1  -3  10   32.40    7.95  -1 
  -3   1  -9   32.40    7.95   2 
   6  -1  -9   35.67    7.38  -1 
  -1   6   6   35.67    7.38   2 
  -1   1  16   10.18    6.96  -1 
   1  -1 -16   10.18    6.96   2 
  -2   4  12   50.89    7.63  -1 
   4  -2 -13   50.89    7.63   2 
  -2   4   5  679.46    9.71  -1 
   4  -2  -6  679.46    9.71   2 
   5  -3  -4   74.52    6.65  -1 
  -3   5   3   74.52    6.65   2 
   7   0 -11   15.65    9.00  -1 
   0   7   7   15.65    9.00   2 
   4   1 -10   88.42    6.92  -1 
   1   4   7   88.42    6.92   2 
  -2   4  11   26.32    7.20  -1 
   4  -2 -12   26.32    7.20   2 
  -2   4   6 1073.62   11.01  -1 
   4  -2  -7 1073.62   11.01   2 
   7  -3  -6   14.84    8.30  -1 
  -3   7   4   14.84    8.30   2 
   5   0 -10  193.57    8.21  -1 
   0   5   7  193.57    8.21   2 
  -1   1  15   26.58    6.61  -1 
   1  -1 -15   26.58    6.61   2 
   5   2 -12  154.97    8.71  -1 
   2   5   8  154.97    8.71   2 
   2   3  -9  993.54   12.43  -1 
   3   2   6  993.54   12.43   2 
  -2   4  10   52.99    6.25  -1 
   4  -2 -11   52.99    6.25   2 
  -2   4   9   93.52    7.31  -1 
   4  -2 -10   93.52    7.31   2 
  -2   4   8   38.11    6.83  -1 
   4  -2  -9   38.11    6.83   2 
  -2   4   7  102.01    6.83  -1 
   4  -2  -8  102.01    6.83   2 
   3  -3  -1   65.57    5.53  -1 
  -3   3   1   65.57    5.53   2 
   5  -5   3  438.46   12.23  -1 
  -5   5  -3  438.46   12.23   2 
   6   1 -12   20.65    8.30  -1 
   1   6   8   20.65    8.30   2 
  -1   6  -1  428.59   12.13  -1 
   6  -1  -2  428.59   12.13   2 
   1   1  -5  277.10    8.86  -1 
   1   1   4  277.10    8.86   2 
   3  -1  -6   16.58    4.97  -1 
  -1   3   5   16.58    4.97   2 
   6  -4  -3   28.50    6.86  -1 
  -4   6   2   28.50    6.86   2 
   7  -5   0   12.83    8.47  -1 
  -5   7  -1   12.83    8.47   2 
   0   0  17   13.74    7.31  -1 
   0   0 -17   13.74    7.31   2 
  -1   1  14   55.73    6.43  -1 
   1  -1 -14   55.73    6.43   2 
   0   7  -4  223.89   14.91  -1 
   7   0   0  223.89   14.91   2 
  -1   1   3 1314.34   13.83  -1 
   1  -1  -3 1314.34   13.83   2 
   3   1  -9  164.16    7.34  -1 
   1   3   7  164.16    7.34   2 
   4  -4   0   53.21    6.46  -1 
  -4   4   0   53.21    6.46   2 
   7  -2  -9  142.52    9.64  -1 
  -2   7   6  142.52    9.64   2 
   6  -1 -10  369.96    9.99  -1 
  -1   6   7  369.96    9.99   2 
  -1   1  13   25.25    5.14  -1 
   1  -1 -13   25.25    5.14   2 
   2   0  -6 1804.50   13.55  -1 
   0   2   5 1804.50   13.55   2 
   4  -2  -6  797.46    8.98  -1 
  -2   4   5  797.46    8.98   2 
   5  -3  -5  111.43    7.05  -1 
  -3   5   4  111.43    7.05   2 
   7  -3  -7    4.64    8.16  -1 
  -3   7   5    4.64    8.16   2 
   0   0  16   31.06    7.42  -1 
   0   0 -16   31.06    7.42   2 
  -1   3  15   15.28    7.86  -1 
   3  -1 -16   15.28    7.86   2 
   2  -2  -2   36.90    5.00  -1 
  -2   2   2   36.90    5.00   2 
   5  -5   2  812.53   14.38  -1 
  -5   5  -2  812.53   14.38   2 
   7  -5  -1    0.29    7.65  -1 
  -5   7   0    0.29    7.65   2 
  -1   1  12   59.31    6.00  -1 
   1  -1 -12   59.31    6.00   2 
  -1   3   0  200.09    8.30  -1 
   3  -1  -1  200.09    8.30   2 
   6  -4  -4   16.30    6.54  -1 
  -4   6   3   16.30    6.54   2 
   5  -2  -8   59.91    7.06  -1 
  -2   5   6   59.91    7.06   2 
  -1   3  14   62.83    7.86  -1 
   3  -1 -15   62.83    7.86   2 
  -1   6   0   76.90    8.35  -1 
   6  -1  -3   76.90    8.35   2 
  -1   1   4  249.18    6.96  -1 
   1  -1  -4  249.18    6.96   2 
  -1   1  11   52.79    5.00  -1 
   1  -1 -11   52.79    5.00   2 
   3  -3  -2 1734.95   13.49  -1 
  -3   3   2 1734.95   13.49   2 
   6  -2  -9   36.83    7.67  -1 
  -2   6   7   36.83    7.67   2 
   7  -2 -10   68.42    8.90  -1 
  -2   7   7   68.42    8.90   2 
   0   0  15    7.10    6.97  -1 
   0   0 -15    7.10    6.97   2 
   4  -4  -1 2235.33   16.31  -1 
  -4   4   1 2235.33   16.31   2 
   4   0 -10    7.93    6.47  -1 
   0   4   8    7.93    6.47   2 
   5  -3  -6   74.32    6.91  -1 
  -3   5   5   74.32    6.91   2 
   7  -5  -2   16.64    9.15  -1 
  -5   7   1   16.64    9.15   2 
   7  -3  -8    9.45    7.92  -1 
  -3   7   6    9.45    7.92   2 
  -1   1  10   82.23    5.01  -1 
   1  -1 -10   82.23    5.01   2 
  -1   3  13  249.00    8.10  -1 
   3  -1 -14  249.00    8.10   2 
   1   4  -8 1669.73   20.41  -1 
   4   1   5 1669.73   20.41   2 
  -1   1   5  665.04    9.07  -1 
   1  -1  -5  665.04    9.07   2 
  -1   1   9    9.07    4.58  -1 
   1  -1  -9    9.07    4.58   2 
   3  -1  -7  397.39    7.55  -1 
  -1   3   6  397.39    7.55   2 
   4  -2  -7 1071.43   10.73  -1 
  -2   4   6 1071.43   10.73   2 
   5  -5   1  355.76   10.53  -1 
  -5   5  -1  355.76   10.53   2 
   1  -1  16   40.76    8.55  -1 
  -1   1 -16   40.76    8.55   2 
   0   0  14   11.40    6.20  -1 
   0   0 -14   11.40    6.20   2 
  -1   1   8    0.14    4.98  -1 
   1  -1  -8    0.14    4.98   2 
   3   2 -11   10.91    6.49  -1 
   2   3   8   10.91    6.49   2 
  -1   6   1  187.37    9.05  -1 
   6  -1  -4  187.37    9.05   2 
  -1   1   6    7.15    3.98  -1 
   1  -1  -6    7.15    3.98   2 
  -1   1   7  267.31    6.59  -1 
   1  -1  -7  267.31    6.59   2 
  -1   3  12   79.62    6.70  -1 
   3  -1 -13   79.62    6.70   2 
   3   1 -10   37.03    6.57  -1 
   1   3   8   37.03    6.57   2 
   6  -4  -5   40.98    7.31  -1 
  -4   6   4   40.98    7.31   2 
   0   2  16   49.29    8.46  -1 
   2   0 -17   49.29    8.46   2 
   2   3 -10  603.02   10.87  -1 
   3   2   7  603.02   10.87   2 
   1  -1  -2   40.31    5.53  -1 
  -1   1   2   40.31    5.53   2 
   5   0 -12  188.59    8.52  -1 
   0   5   9  188.59    8.52   2 
  -1   3  11   46.27    6.77  -1 
   3  -1 -12   46.27    6.77   2 
  -1   3   1 1229.74   13.88  -1 
   3  -1  -2 1229.74   13.88   2 
  -1   6   2  518.65   10.79  -1 
   6  -1  -5  518.65   10.79   2 
   2   0  -7 2343.31   14.71  -1 
   0   2   6 2343.31   14.71   2 
   4  -4  -2  644.68   10.07  -1 
  -4   4   2  644.68   10.07   2 
   6  -1 -12   96.53    8.25  -1 
  -1   6   9   96.53    8.25   2 
   0   0  13    2.49    6.01  -1 
   0   0 -13    2.49    6.01   2 
  -1   6   6   28.05    7.43  -1 
   6  -1  -9   28.05    7.43   2 
  -1   6   3  505.08   10.18  -1 
   6  -1  -6  505.08   10.18   2 
   2  -2  -3  121.93    5.54  -1 
  -2   2   3  121.93    5.54   2 
   3  -3  -3  463.67    7.86  -1 
  -3   3   3  463.67    7.86   2 
   5  -5   0  202.64    8.95  -1 
  -5   5   0  202.64    8.95   2 
   5  -3  -7   24.58    6.44  -1 
  -3   5   6   24.58    6.44   2 
   2  -2  16  175.75    9.72  -1 
  -2   2 -16  175.75    9.72   2 
   1  -1  15   36.94    7.11  -1 
  -1   1 -15   36.94    7.11   2 
   0   2  15  187.50    8.42  -1 
   2   0 -16  187.50    8.42   2 
  -1   3  10  208.19    6.73  -1 
   3  -1 -11  208.19    6.73   2 
   1   1  -6   27.34    5.94  -1 
   1   1   5   27.34    5.94   2 
   6  -4  -6   88.50    7.97  -1 
  -4   6   5   88.50    7.97   2 
   0   0  12    7.30    5.43  -1 
   0   0 -12    7.30    5.43   2 
  -1   3   9  403.67    8.70  -1 
   3  -1 -10  403.67    8.70   2 
   3  -1  -8 1288.22   10.66  -1 
  -1   3   7 1288.22   10.66   2 
   4  -2  -8   77.27    5.90  -1 
  -2   4   7   77.27    5.90   2 
   6  -6   4  138.94   14.45  -1 
  -6   6  -4  138.94   14.45   2 
  -1   3   2 2627.02   17.58  -1 
   3  -1  -3 2627.02   17.58   2 
  -1   3   8  993.64   10.54  -1 
   3  -1  -9  993.64   10.54   2 
   0   2  14  150.33    7.86  -1 
   2   0 -15  150.33    7.86   2 
   5  -5  -1    4.81    6.93  -1 
  -5   5   1    4.81    6.93   2 
   1  -1  14  416.57    9.43  -1 
  -1   1 -14  416.57    9.43   2 
   5   0 -13  141.42    8.52  -1 
   0   5  10  141.42    8.52   2 
   3   2 -12   20.56    6.85  -1 
   2   3   9   20.56    6.85   2 
  -1   3   7 1092.45   10.80  -1 
   3  -1  -8 1092.45   10.80   2 
   4  -4  -3  271.25    7.50  -1 
  -4   4   3  271.25    7.50   2 
   5  -3  -8   21.95    6.78  -1 
  -3   5   7   21.95    6.78   2 
   6  -6   3   32.51   10.81  -1 
  -6   6  -3   32.51   10.81   2 
   2  -2  15  511.03   12.30  -1 
  -2   2 -15  511.03   12.30   2 
   6  -1 -13   12.49    8.10  -1 
  -1   6  10   12.49    8.10   2 
   0   0  11  170.70    5.71  -1 
   0   0 -11  170.70    5.71   2 
   4   1 -13   11.02    6.88  -1 
   1   4  10   11.02    6.88   2 
  -1   3   6  413.91    8.47  -1 
   3  -1  -7  413.91    8.47   2 
  -1   3   3 2033.72   15.01  -1 
   3  -1  -4 2033.72   15.01   2 
   1   1  16   88.53    9.62  -1 
   1   1 -17   88.53    9.62   2 
   3  -3  -4  203.04    6.57  -1 
  -3   3   4  203.04    6.57   2 
   5  -1 -12   73.49    7.75  -1 
  -1   5  10   73.49    7.75   2 
   6  -4  -7   17.88    7.72  -1 
  -4   6   6   17.88    7.72   2 
   3  -3  15    6.90    9.72  -1 
  -3   3 -15    6.90    9.72   2 
   0   2  13   52.93    7.34  -1 
   2   0 -14   52.93    7.34   2 
  -1   3   5   14.29    5.25  -1 
   3  -1  -6   14.29    5.25   2 
  -1   3   4   15.93    5.01  -1 
   3  -1  -5   15.93    5.01   2 
   2   3 -11  343.31   10.21  -1 
   3   2   8  343.31   10.21   2 
   2  -2  -4    8.84    4.37  -1 
  -2   2   4    8.84    4.37   2 
   2   0  -8  174.50    6.42  -1 
   0   2   7  174.50    6.42   2 
   4  -2  -9   58.47    6.49  -1 
  -2   4   8   58.47    6.49   2 
   6  -6   2   20.18   10.86  -1 
  -6   6  -2   20.18   10.86   2 
   1  -1  13  347.91    8.35  -1 
  -1   1 -13  347.91    8.35   2 
   0   0  10  529.24    8.52  -1 
   0   0 -10  529.24    8.52   2 
   3  -1  -9 1041.34   10.55  -1 
  -1   3   8 1041.34   10.55   2 
   5  -5  -2  997.31   12.87  -1 
  -5   5   2  997.31   12.87   2 
   2  -2  14  213.94    9.57  -1 
  -2   2 -14  213.94    9.57   2 
   5  -2 -11   18.21    7.16  -1 
  -2   5   9   18.21    7.16   2 
   1  -1  -3 1162.52   13.16  -1 
  -1   1   3 1162.52   13.16   2 
   0   2  -4   12.81    8.77  -1 
   2   0   3   12.81    8.77   2 
   0   2  12  204.75    8.02  -1 
   2   0 -13  204.75    8.02   2 
   4  -4  -4  243.75    6.99  -1 
  -4   4   4  243.75    6.99   2 
   5  -3  -9   56.02    7.30  -1 
  -3   5   8   56.02    7.30   2 
   6  -6   1   26.93   11.14  -1 
  -6   6  -1   26.93   11.14   2 
   0   0   9   70.68    5.77  -1 
   0   0  -9   70.68    5.77   2 
   5   0 -14  157.57    9.21  -1 
   0   5  11  157.57    9.21   2 
   1   1  15   10.20    6.80  -1 
   1   1 -16   10.20    6.80   2 
   1   4  -9 1106.14   17.14  -1 
   4   1   6 1106.14   17.14   2 
   1   1  -7  255.95    7.78  -1 
   1   1   6  255.95    7.78   2 
   3   1 -12  235.44    8.27  -1 
   1   3  10  235.44    8.27   2 
   6  -4  -8   42.12    8.25  -1 
  -4   6   7   42.12    8.25   2 
   1  -1  12  758.72   10.94  -1 
  -1   1 -12  758.72   10.94   2 
   3   2 -13   24.02    7.30  -1 
   2   3  10   24.02    7.30   2 
   0   5  10  211.35    8.83  -1 
   5   0 -13  211.35    8.83   2 
   0   7   5   58.21    8.01  -1 
   7   0  -9   58.21    8.01   2 
   0   7   4   64.48    8.77  -1 
   7   0  -8   64.48    8.77   2 
   3  -3  -5   18.75    5.37  -1 
  -3   3   5   18.75    5.37   2 
   5  -5  -3  570.92   10.52  -1 
  -5   5   3  570.92   10.52   2 
   6  -6   0  159.15   12.03  -1 
  -6   6   0  159.15   12.03   2 
   0   2  11  123.90    7.38  -1 
   2   0 -12  123.90    7.38   2 
   2   2 -11   67.07    7.69  -1 
   2   2   9   67.07    7.69   2 
   4  -2 -10   95.04    6.77  -1 
  -2   4   9   95.04    6.77   2 
   2  -2  -5   70.77    4.83  -1 
  -2   2   5   70.77    4.83   2 
   4  -1 -12   13.50    7.33  -1 
  -1   4  10   13.50    7.33   2 
   0   0   8  289.52    6.48  -1 
   0   0  -8  289.52    6.48   2 
   2   0  16   83.54    9.32  -1 
   0   2 -17   83.54    9.32   2 
   1   1  14  168.97    8.57  -1 
   1   1 -15  168.97    8.57   2 
   0   5   9  215.23    8.47  -1 
   5   0 -12  215.23    8.47   2 
   2   0  -9  103.34    5.99  -1 
   0   2   8  103.34    5.99   2 
   3  -1 -10  363.87    7.73  -1 
  -1   3   9  363.87    7.73   2 
   4  -4  -5  956.02   10.50  -1 
  -4   4   5  956.02   10.50   2 
   5  -3 -10   15.88    7.29  -1 
  -3   5   9   15.88    7.29   2 
   6  -4  -9   -3.74    8.06  -1 
  -4   6   8   -3.74    8.06   2 
   2  -2  13   50.06    6.98  -1 
  -2   2 -13   50.06    6.98   2 
   5   0 -15   60.51    8.73  -1 
   0   5  12   60.51    8.73   2 
   5  -5  -4  312.15    8.67  -1 
  -5   5   4  312.15    8.67   2 
   6  -6  -1  229.38   12.15  -1 
  -6   6   1  229.38   12.15   2 
   1  -1  11  340.75    8.04  -1 
  -1   1 -11  340.75    8.04   2 
   0   0   7  139.46    6.09  -1 
   0   0  -7  139.46    6.09   2 
   0   2  10 1108.16   11.09  -1 
   2   0 -11 1108.16   11.09   2 
   2   3 -12  262.86    8.87  -1 
   3   2   9  262.86    8.87   2 
   1   4  13  146.44    9.09  -1 
   4   1 -16  146.44    9.09   2 
   1  -1  -4  244.17    7.26  -1 
  -1   1   4  244.17    7.26   2 
   3  -3  -6  202.57    6.26  -1 
  -3   3   6  202.57    6.26   2 
   1   1  13  453.68    9.71  -1 
   1   1 -14  453.68    9.71   2 
   4  -4  -6  870.88   10.44  -1 
  -4   4   6  870.88   10.44   2 
   4  -2 -11   59.58    6.36  -1 
  -2   4  10   59.58    6.36   2 
   6  -6  -2   57.74    8.97  -1 
  -6   6   2   57.74    8.97   2 
   0   0   6 7296.82   28.14  -1 
   0   0  -6 7296.82   28.14   2 
   2   0  15  239.56    9.40  -1 
   0   2 -16  239.56    9.40   2 
   4   1 -15  100.12    8.74  -1 
   1   4  12  100.12    8.74   2 
   3   2 -14    0.42    7.10  -1 
   2   3  11    0.42    7.10   2 
   0   2   9 1708.14   12.64  -1 
   2   0 -10 1708.14   12.64   2 
   2  -2  -6   29.65    4.77  -1 
  -2   2   6   29.65    4.77   2 
   3  -1  16   31.66    9.18  -1 
  -1   3 -17   31.66    9.18   2 
   5  -5  -5   60.41    7.10  -1 
  -5   5   5   60.41    7.10   2 
   5  -3 -11    7.14    6.53  -1 
  -3   5  10    7.14    6.53   2 
   6  -4 -10   27.32    8.68  -1 
  -4   6   9   27.32    8.68   2 
   1   4  12  143.55    8.23  -1 
   4   1 -15  143.55    8.23   2 
   1   1  -8 2163.00   15.38  -1 
   1   1   7 2163.00   15.38   2 
   2   0 -10 1414.05   12.58  -1 
   0   2   9 1414.05   12.58   2 
   3  -1 -11  147.58    7.23  -1 
  -1   3  10  147.58    7.23   2 
   6  -6  -3    3.00    9.35  -1 
  -6   6   3    3.00    9.35   2 
   1  -1  10  179.71    6.62  -1 
  -1   1 -10  179.71    6.62   2 
   0   0   5 3844.53   21.48  -1 
   0   0  -5 3844.53   21.48   2 
   3  -3  -7  434.03    7.61  -1 
  -3   3   7  434.03    7.61   2 
   1   1  12  631.06   10.41  -1 
   1   1 -13  631.06   10.41   2 
   0   2   8   95.19    6.44  -1 
   2   0  -9   95.19    6.44   2 
   4  -4  -7  725.62    9.44  -1 
  -4   4   7  725.62    9.44   2 
   4  -2 -12   27.25    7.27  -1 
  -2   4  11   27.25    7.27   2 
   5  -5  -6    7.20    6.65  -1 
  -5   5   6    7.20    6.65   2 
   2   0  14  146.52    8.65  -1 
   0   2 -15  146.52    8.65   2 
   1   4  11   46.71    7.46  -1 
   4   1 -14   46.71    7.46   2 
   0   5   5  247.23    7.84  -1 
   5   0  -8  247.23    7.84   2 
   0   5  -4  268.48   13.08  -1 
   5   0   1  268.48   13.08   2 
   1  -1  -5  585.59    8.55  -1 
  -1   1   5  585.59    8.55   2 
   2   3 -13    3.94    8.06  -1 
   3   2  10    3.94    8.06   2 
   5  -3 -12   26.90    8.30  -1 
  -3   5  11   26.90    8.30   2 
   2  -2  -7  253.29    6.74  -1 
  -2   2   7  253.29    6.74   2 
   3  -1  15    3.06    8.00  -1 
  -1   3 -16    3.06    8.00   2 
   4  -1 -14    9.89    7.76  -1 
  -1   4  12    9.89    7.76   2 
   0   0   4 4306.40   25.48  -1 
   0   0  -4 4306.40   25.48   2 
   4   1 -16   91.83    9.29  -1 
   1   4  13   91.83    9.29   2 
   3   2 -15    2.76    7.23  -1 
   2   3  12    2.76    7.23   2 
   3  -1 -12   70.16    6.88  -1 
  -1   3  11   70.16    6.88   2 
   2  -2  11  488.08   10.29  -1 
  -2   2 -11  488.08   10.29   2 
   1  -1   9 1238.58   11.78  -1 
  -1   1  -9 1238.58   11.78   2 
   0   2   7  179.41    6.95  -1 
   2   0  -8  179.41    6.95   2 
   1   1  11  272.95    7.96  -1 
   1   1 -12  272.95    7.96   2 
   2   0 -11 1366.59   12.01  -1 
   0   2  10 1366.59   12.01   2 
   3  -3  -8 1115.10   10.80  -1 
  -3   3   8 1115.10   10.80   2 
   4  -4  -8   52.30    5.69  -1 
  -4   4   8   52.30    5.69   2 
   5  -5  -7   53.34    7.13  -1 
  -5   5   7   53.34    7.13   2 
   0   0   3    6.61    5.86  -1 
   0   0  -3    6.61    5.86   2 
   1   4  10   25.04    6.79  -1 
   4   1 -13   25.04    6.79   2 
   0   2  -5   61.61    8.98  -1 
   2   0   4   61.61    8.98   2 
   1   1  -9  871.70   10.30  -1 
   1   1   8  871.70   10.30   2 
   4  -2 -13   23.90    7.51  -1 
  -2   4  12   23.90    7.51   2 
   2   0  13  149.60    8.34  -1 
   0   2 -14  149.60    8.34   2 
   3   0 -14  175.30    8.59  -1 
   0   3  12  175.30    8.59   2 
   5  -3 -13   48.08    9.03  -1 
  -3   5  12   48.08    9.03   2 
   2  -2  -8   12.95    5.16  -1 
  -2   2   8   12.95    5.16   2 
   1  -1  -6    7.38    3.98  -1 
  -1   1   6    7.38    3.98   2 
   4  -1 -15    1.58    7.85  -1 
  -1   4  13    1.58    7.85   2 
   0   0   2    1.51    6.16  -1 
   0   0  -2    1.51    6.16   2 
   0   2   6 2037.08   14.38  -1 
   2   0  -7 2037.08   14.38   2 
   0   5   2   15.13    6.98  -1 
   5   0  -5   15.13    6.98   2 
   3  -3  -9  471.74    7.62  -1 
  -3   3   9  471.74    7.62   2 
   4  -4  -9  275.38    7.69  -1 
  -4   4   9  275.38    7.69   2 
   5  -5  -8  219.17    8.49  -1 
  -5   5   8  219.17    8.49   2 
   1  -1   8 1925.09   15.16  -1 
  -1   1  -8 1925.09   15.16   2 
   3  -1  14    3.97    7.56  -1 
  -1   3 -15    3.97    7.56   2 
   1   6   6  138.73    8.36  -1 
   6   1 -10  138.73    8.36   2 
   1   1  10  114.87    6.67  -1 
   1   1 -11  114.87    6.67   2 
   2   3 -14   78.67    8.34  -1 
   3   2  11   78.67    8.34   2 
   3  -1 -13  101.75    6.68  -1 
  -1   3  12  101.75    6.68   2 
   3   2 -16    1.16    8.49  -1 
   2   3  13    1.16    8.49   2 
   2  -2  10 1443.17   14.51  -1 
  -2   2 -10 1443.17   14.51   2 
   0   5  -1   15.57    7.14  -1 
   5   0  -2   15.57    7.14   2 
   0   5  -2   41.88    7.77  -1 
   5   0  -1   41.88    7.77   2 
   1   3 -11    4.55    8.12  -1 
   3   1   9    4.55    8.12   2 
   2   0 -12  210.15    8.04  -1 
   0   2  11  210.15    8.04   2 
   4  -2 -14   -1.36    6.76  -1 
  -2   4  13   -1.36    6.76   2 
   0   2   5 1670.26   13.36  -1 
   2   0  -6 1670.26   13.36   2 
   1   1 -10  251.16    7.25  -1 
   1   1   9  251.16    7.25   2 
   2  -2  -9   27.83    4.66  -1 
  -2   2   9   27.83    4.66   2 
   2   0  12    1.74    7.27  -1 
   0   2 -13    1.74    7.27   2 
   3  -5   0   13.74    9.12  -1 
  -5   3   1   13.74    9.12   2 
   3  -5   1  463.21   11.73  -1 
  -5   3   0  463.21   11.73   2 
   3  -5   2  584.99   13.37  -1 
  -5   3  -1  584.99   13.37   2 
   5  -5  -9   73.54    8.09  -1 
  -5   5   9   73.54    8.09   2 
   4  -4  11   73.15   11.77  -1 
  -4   4 -11   73.15   11.77   2 
   4  -4 -10  287.04    7.69  -1 
  -4   4  10  287.04    7.69   2 
   1  -1  -7  234.28    6.79  -1 
  -1   1   7  234.28    6.79   2 
   1   2 -11  127.86    6.89  -1 
   2   1   9  127.86    6.89   2 
   2  -4   1 1412.30   16.50  -1 
  -4   2   0 1412.30   16.50   2 
   3  -5  -1  596.43   11.44  -1 
  -5   3   2  596.43   11.44   2 
   3  -5   3  900.48   17.70  -1 
  -5   3  -2  900.48   17.70   2 
   3  -3 -10   31.59    4.87  -1 
  -3   3  10   31.59    4.87   2 
   4  -2  14   25.63    9.22  -1 
  -2   4 -15   25.63    9.22   2 
   1   1   9  295.00    7.74  -1 
   1   1 -10  295.00    7.74   2 
   2  -4   0 3091.38   21.71  -1 
  -4   2   1 3091.38   21.71   2 
   2  -4   2  363.78   11.79  -1 
  -4   2  -1  363.78   11.79   2 
   3  -1 -14  194.21    8.63  -1 
  -1   3  13  194.21    8.63   2 
   3  -1  13    2.70    7.20  -1 
  -1   3 -14    2.70    7.20   2 
   2   1 -14  113.42    8.22  -1 
   1   2  12  113.42    8.22   2 
   0   2   4 2152.77   16.09  -1 
   2   0  -5 2152.77   16.09   2 
   2  -4  -1 1142.02   13.15  -1 
  -4   2   2 1142.02   13.15   2 
   2   0 -13  138.05    7.31  -1 
   0   2  12  138.05    7.31   2 
   3  -5  -2   36.65    6.96  -1 
  -5   3   3   36.65    6.96   2 
   4  -2 -15   15.96    8.68  -1 
  -2   4  14   15.96    8.68   2 
   5  -5 -10   14.72    5.83  -1 
  -5   5  10   14.72    5.83   2 
   4  -4 -11  254.34    8.13  -1 
  -4   4  11  254.34    8.13   2 
   1  -1   7 5585.27   24.82  -1 
  -1   1  -7 5585.27   24.82   2 
   2   3 -15   47.90    7.46  -1 
   3   2  12   47.90    7.46   2 
   2   5   9  191.34    8.86  -1 
   5   2 -13  191.34    8.86   2 
   0   2  -6  274.91    9.78  -1 
   2   0   5  274.91    9.78   2 
   2  -4  -2   67.47    6.64  -1 
  -4   2   3   67.47    6.64   2 
   2  -2 -10  434.92    7.77  -1 
  -2   2  10  434.92    7.77   2 
   3  -5  -3   65.30    8.81  -1 
  -5   3   4   65.30    8.81   2 
   3  -3 -11   66.39    5.95  -1 
  -3   3  11   66.39    5.95   2 
   1  -1  -8   -0.16    4.17  -1 
  -1   1   8   -0.16    4.17   2 
   2   0  11   76.50    6.98  -1 
   0   2 -12   76.50    6.98   2 
   1   1 -11   59.89    6.68  -1 
   1   1  10   59.89    6.68   2 
   1   3 -12    5.66    7.27  -1 
   3   1  10    5.66    7.27   2 
   2  -4   3  277.08   14.30  -1 
  -4   2  -2  277.08   14.30   2 
   2  -2   9 1592.37   15.07  -1 
  -2   2  -9 1592.37   15.07   2 
   0   0  -2    1.98    5.25  -1 
   0   0   2    1.98    5.25   2 
   0   2   3  913.83   11.67  -1 
   2   0  -4  913.83   11.67   2 
   2  -4  -3  272.38    7.54  -1 
  -4   2   4  272.38    7.54   2 
   3  -5  -4   90.45    7.31  -1 
  -5   3   5   90.45    7.31   2 
   3  -1 -15   38.73    7.24  -1 
  -1   3  14   38.73    7.24   2 
   4  -6  -2    6.79    8.57  -1 
  -6   4   3    6.79    8.57   2 
   1   1   8  914.28   10.83  -1 
   1   1  -9  914.28   10.83   2 
   1   4 -12  323.68   11.19  -1 
   4   1   9  323.68   11.19   2 
   2  -2 -11  627.72    8.67  -1 
  -2   2  11  627.72    8.67   2 
   2   0 -14   48.82    7.06  -1 
   0   2  13   48.82    7.06   2 
   3  -3 -12  291.73    8.02  -1 
  -3   3  12  291.73    8.02   2 
   4  -6  -3   11.98    7.59  -1 
  -6   4   4   11.98    7.59   2 
   4  -4 -12  104.42    7.21  -1 
  -4   4  12  104.42    7.21   2 
   2  -4  -4  744.10   10.02  -1 
  -4   2   5  744.10   10.02   2 
   4  -2  13    0.76    8.35  -1 
  -2   4 -14    0.76    8.35   2 
   0   4  -4 1384.05   26.79  -1 
   4   0   2 1384.05   26.79   2 
   3   4  11  165.88    9.36  -1 
   4   3 -15  165.88    9.36   2 
   0   0  -3    4.71    5.70  -1 
   0   0   3    4.71    5.70   2 
   1  -1  -9    4.89    4.17  -1 
  -1   1   9    4.89    4.17   2 
   3  -5  -5   96.21    7.64  -1 
  -5   3   6   96.21    7.64   2 
   3  -1  12   12.36    6.53  -1 
  -1   3 -13   12.36    6.53   2 
   4  -6  -4   33.04    8.60  -1 
  -6   4   5   33.04    8.60   2 
   4  -4  10   46.65   10.86  -1 
  -4   4 -10   46.65   10.86   2 
   0   2  -7   73.32    7.37  -1 
   2   0   6   73.32    7.37   2 
   1   1 -12  277.23    8.27  -1 
   1   1  11  277.23    8.27   2 
   2  -4  -5  689.84    9.72  -1 
  -4   2   6  689.84    9.72   2 
   3  -1 -16    8.11    7.13  -1 
  -1   3  15    8.11    7.13   2 
   1  -1   6  944.38   11.98  -1 
  -1   1  -6  944.38   11.98   2 
   0   2   2  417.09    9.42  -1 
   2   0  -3  417.09    9.42   2 
   2   0  10  348.15    8.19  -1 
   0   2 -11  348.15    8.19   2 
   3  -5  -6   31.31    8.01  -1 
  -5   3   7   31.31    8.01   2 
   4  -4 -13    6.36    6.24  -1 
  -4   4  13    6.36    6.24   2 
   3  -3 -13  335.95    8.10  -1 
  -3   3  13  335.95    8.10   2 
   2  -2 -12   15.64    5.99  -1 
  -2   2  12   15.64    5.99   2 
   0   0  -4 3917.60   24.47  -1 
   0   0   4 3917.60   24.47   2 
   1  -1 -10   75.24    5.15  -1 
  -1   1  10   75.24    5.15   2 
   1   3 -13  184.10    8.76  -1 
   3   1  11  184.10    8.76   2 
   2  -4  -6  989.40   10.85  -1 
  -4   2   7  989.40   10.85   2 
   2   0 -15  147.91    8.73  -1 
   0   2  14  147.91    8.73   2 
   4  -6  -6    4.28    8.18  -1 
  -6   4   7    4.28    8.18   2 
   1   1   7 1770.53   13.48  -1 
   1   1  -8 1770.53   13.48   2 
   3   4  10   20.69    7.98  -1 
   4   3 -14   20.69    7.98   2 
   3  -5  -7   -0.03    7.68  -1 
  -5   3   8   -0.03    7.68   2 
   0   0  -5 3417.30   21.20  -1 
   0   0   5 3417.30   21.20   2 
   4   3  12    0.95    8.61  -1 
   3   4 -16    0.95    8.61   2 
   1  -3  -3 1892.30   14.69  -1 
  -3   1   4 1892.30   14.69   2 
   1  -3  -2 2506.79   17.35  -1 
  -3   1   3 2506.79   17.35   2 
   1  -3  -1 1135.61   13.01  -1 
  -3   1   2 1135.61   13.01   2 
   1   1 -13  668.83   10.49  -1 
   1   1  12  668.83   10.49   2 
   2  -4  -7   89.97    7.34  -1 
  -4   2   8   89.97    7.34   2 
   4  -6  -7    5.89    8.48  -1 
  -6   4   8    5.89    8.48   2 
   3  -3 -14  124.21    6.92  -1 
  -3   3  14  124.21    6.92   2 
   4  -2  12    8.83    7.98  -1 
  -2   4 -13    8.83    7.98   2 
   3  -1  11    2.19    7.40  -1 
  -1   3 -12    2.19    7.40   2 
   0   2  -8    8.84    5.40  -1 
   2   0   7    8.84    5.40   2 
   1  -3  -4   21.38    5.66  -1 
  -3   1   5   21.38    5.66   2 
   1  -3   0  194.39    8.41  -1 
  -3   1   1  194.39    8.41   2 
   2  -2 -13   -2.14    4.86  -1 
  -2   2  13   -2.14    4.86   2 
   3  -5  -8   32.97    7.07  -1 
  -5   3   9   32.97    7.07   2 
   3  -3   9  329.84   11.30  -1 
  -3   3  -9  329.84   11.30   2 
   1  -1 -11   39.34    4.68  -1 
  -1   1  11   39.34    4.68   2 
   0   2   1 2141.64   19.56  -1 
   2   0  -2 2141.64   19.56   2 
   0   0  -6 6080.83   26.21  -1 
   0   0   6 6080.83   26.21   2 
   2  -4  -8   45.36    7.38  -1 
  -4   2   9   45.36    7.38   2 
   2   0 -16  214.85    9.66  -1 
   0   2  15  214.85    9.66   2 
   1  -3  -5   10.23    6.20  -1 
  -3   1   6   10.23    6.20   2 
   2   0   9  417.66    8.73  -1 
   0   2 -10  417.66    8.73   2 
   3   4   9   33.06    7.54  -1 
   4   3 -13   33.06    7.54   2 
   3  -5  -9   16.69    6.86  -1 
  -5   3  10   16.69    6.86   2 
   1  -3  -6  376.04    8.31  -1 
  -3   1   7  376.04    8.31   2 
   3  -3 -15    2.98    6.67  -1 
  -3   3  15    2.98    6.67   2 
   5  -3  12  109.55   11.46  -1 
  -3   5 -13  109.55   11.46   2 
   0   2  -9  215.49    8.34  -1 
   2   0   8  215.49    8.34   2 
   1   1 -14  357.32   10.01  -1 
   1   1  13  357.32   10.01   2 
   1   1   6  335.78    7.93  -1 
   1   1  -7  335.78    7.93   2 
   2  -2 -14   69.67    5.92  -1 
  -2   2  14   69.67    5.92   2 
   5  -5   9   16.62   13.22  -1 
  -5   5  -9   16.62   13.22   2 
   2  -4  -9   81.76    6.54  -1 
  -4   2  10   81.76    6.54   2 
   1  -1 -12   55.67    5.29  -1 
  -1   1  12   55.67    5.29   2 
   0   0  -7  117.62    5.52  -1 
   0   0   7  117.62    5.52   2 
   2   5   5 1001.52   11.30  -1 
   5   2  -9 1001.52   11.30   2 
   1  -3   1  179.25   10.26  -1 
  -3   1   0  179.25   10.26   2 
   3  -5 -10   10.50    7.84  -1 
  -5   3  11   10.50    7.84   2 
   1  -3  -7 1133.12   10.86  -1 
  -3   1   8 1133.12   10.86   2 
   1  -1   5  411.36    9.29  -1 
  -1   1  -5  411.36    9.29   2 
   2   0 -17   64.35    9.52  -1 
   0   2  16   64.35    9.52   2 
   2  -4 -10   42.10    7.12  -1 
  -4   2  11   42.10    7.12   2 
   4  -4   9    7.18    9.98  -1 
  -4   4  -9    7.18    9.98   2 
   0   0  -8  272.08    6.74  -1 
   0   0   8  272.08    6.74   2 
   2  -2 -15  159.56    7.76  -1 
  -2   2  15  159.56    7.76   2 
   3  -5 -11   28.45    8.41  -1 
  -5   3  12   28.45    8.41   2 
   3  -1  10  121.70    7.25  -1 
  -1   3 -11  121.70    7.25   2 
   4  -2  11  134.70    9.31  -1 
  -2   4 -12  134.70    9.31   2 
   1  -3  -8  902.71    9.66  -1 
  -3   1   9  902.71    9.66   2 
   1  -1 -13   22.03    5.30  -1 
  -1   1  13   22.03    5.30   2 
   0   2 -10  289.82    8.35  -1 
   2   0   9  289.82    8.35   2 
   0   2   0 5734.83   33.67  -1 
   2   0  -1 5734.83   33.67   2 
   1   1 -15  214.08    9.17  -1 
   1   1  14  214.08    9.17   2 
   2  -4 -11   16.53    7.34  -1 
  -4   2  12   16.53    7.34   2 
   0   0  -9   66.58    6.03  -1 
   0   0   9   66.58    6.03   2 
   4   3  10  240.62    9.55  -1 
   3   4 -14  240.62    9.55   2 
   1  -3  -9  332.01    7.54  -1 
  -3   1  10  332.01    7.54   2 
   2   0   8  176.20    7.01  -1 
   0   2  -9  176.20    7.01   2 
   3  -5 -12   27.47    8.55  -1 
  -5   3  13   27.47    8.55   2 
   1   1   5   43.83    6.30  -1 
   1   1  -6   43.83    6.30   2 
   2  -2 -16  179.44    8.29  -1 
  -2   2  16  179.44    8.29   2 
   2  -4 -12   22.57    7.94  -1 
  -4   2  13   22.57    7.94   2 
   1  -1 -14   32.03    5.36  -1 
  -1   1  14   32.03    5.36   2 
   0   0 -10  465.10    8.08  -1 
   0   0  10  465.10    8.08   2 
   0   2 -11  304.27    9.05  -1 
   2   0  10  304.27    9.05   2 
   1  -3 -10  196.23    6.64  -1 
  -3   1  11  196.23    6.64   2 
   1   1 -16    8.66    6.70  -1 
   1   1  15    8.66    6.70   2 
   5  -3  11  164.68   11.29  -1 
  -3   5 -12  164.68   11.29   2 
   3  -3   8  487.01   12.26  -1 
  -3   3  -8  487.01   12.26   2 
   5   2  11   17.47    8.66  -1 
   2   5 -15   17.47    8.66   2 
   0   4  -7  220.75   20.74  -1 
   4   0   5  220.75   20.74   2 
   1  -3 -11   29.60    5.81  -1 
  -3   1  12   29.60    5.81   2 
   1  -1 -15   10.53    6.18  -1 
  -1   1  15   10.53    6.18   2 
   2  -4 -13    1.15    6.66  -1 
  -4   2  14    1.15    6.66   2 
   0   0 -11  159.33    6.38  -1 
   0   0  11  159.33    6.38   2 
   0   2 -12  158.56    8.12  -1 
   2   0  11  158.56    8.12   2 
   0   4  -8   15.68   11.68  -1 
   4   0   6   15.68   11.68   2 
   3  -1   9   42.20    6.42  -1 
  -1   3 -10   42.20    6.42   2 
   4  -2  10   70.60    8.66  -1 
  -2   4 -11   70.60    8.66   2 
   0  -2  -5 1803.43   13.59  -1 
  -2   0   6 1803.43   13.59   2 
   1  -3 -12   73.27    6.54  -1 
  -3   1  13   73.27    6.54   2 
   1   1 -17   57.89    9.38  -1 
   1   1  16   57.89    9.38   2 
   2  -4 -14   19.99    7.50  -1 
  -4   2  15   19.99    7.50   2 
   0  -2  -4 2014.01   15.80  -1 
  -2   0   5 2014.01   15.80   2 
   0  -2  -6 1962.97   14.28  -1 
  -2   0   7 1962.97   14.28   2 
   0  -2  -7  159.82    6.79  -1 
  -2   0   8  159.82    6.79   2 
   0   0 -12   -0.31    5.52  -1 
   0   0  12   -0.31    5.52   2 
   3   4   6  613.48    9.51  -1 
   4   3 -10  613.48    9.51   2 
   1  -3   2 2568.13   33.37  -1 
  -3   1  -1 2568.13   33.37   2 
   1  -1 -16    4.72    6.22  -1 
  -1   1  16    4.72    6.22   2 
   2   0   7    8.93    5.64  -1 
   0   2  -8    8.93    5.64   2 
   5  -1  11   92.52    9.91  -1 
  -1   5 -13   92.52    9.91   2 
   0  -2  -8   85.85    6.44  -1 
  -2   0   9   85.85    6.44   2 
   5   2  10   -3.34    8.11  -1 
   2   5 -14   -3.34    8.11   2 
   0  -2  -3  974.21   12.04  -1 
  -2   0   4  974.21   12.04   2 
   0   2 -13    6.39    6.99  -1 
   2   0  12    6.39    6.99   2 
   0   4  -9    9.44    9.51  -1 
   4   0   7    9.44    9.51   2 
   4   0  10   46.51    7.95  -1 
   0   4 -12   46.51    7.95   2 
   1  -3 -13  215.32    7.65  -1 
  -3   1  14  215.32    7.65   2 
   0  -2  -9 1597.53   12.33  -1 
  -2   0  10 1597.53   12.33   2 
   0   0 -13   -5.82    5.86  -1 
   0   0  13   -5.82    5.86   2 
   1   1 -18   95.89   10.13  -1 
   1   1  17   95.89   10.13   2 
   1   1   4  311.78    7.84  -1 
   1   1  -5  311.78    7.84   2 
   5  -5   8  140.79   14.60  -1 
  -5   5  -8  140.79   14.60   2 
   4  -4   8   34.32    9.18  -1 
  -4   4  -8   34.32    9.18   2 
   0   2  -1  389.15   12.77  -1 
   2   0   0  389.15   12.77   2 
   0   4 -10 1332.18   20.62  -1 
   4   0   8 1332.18   20.62   2 
   1  -1 -17   61.31    7.75  -1 
  -1   1  17   61.31    7.75   2 
   5  -3  10   19.92    8.37  -1 
  -3   5 -11   19.92    8.37   2 
   1  -3 -14   37.91    6.77  -1 
  -3   1  15   37.91    6.77   2 
   0  -2 -10 1054.56   10.40  -1 
  -2   0  11 1054.56   10.40   2 
   0  -2  -2  473.27    9.85  -1 
  -2   0   3  473.27    9.85   2 
   0   2 -14  138.95    8.05  -1 
   2   0  13  138.95    8.05   2 
   0  -2 -11  132.32    7.27  -1 
  -2   0  12  132.32    7.27   2 
   0   0 -14   13.79    6.25  -1 
   0   0  14   13.79    6.25   2 
   1  -3 -15   12.61    7.95  -1 
  -3   1  16   12.61    7.95   2 
   5   2   9    7.46    7.91  -1 
   2   5 -13    7.46    7.91   2 
   0   4 -11  361.98   12.23  -1 
   4   0   9  361.98   12.23   2 
   3  -1   8  135.90    7.15  -1 
  -1   3  -9  135.90    7.15   2 
   0  -2 -12  164.16    7.38  -1 
  -2   0  13  164.16    7.38   2 
   4  -2   9   71.48    8.09  -1 
  -2   4 -10   71.48    8.09   2 
   6   1  10   -2.87    9.09  -1 
   1   6 -14   -2.87    9.09   2 
   0   0 -15   13.58    6.50  -1 
   0   0  15   13.58    6.50   2 
   0   2 -15  112.92    8.05  -1 
   2   0  14  112.92    8.05   2 
   4   0   9  342.38    9.03  -1 
   0   4 -11  342.38    9.03   2 
   3  -3   7  307.60   10.04  -1 
  -3   3  -7  307.60   10.04   2 
   0   4 -12   58.27    9.76  -1 
   4   0  10   58.27    9.76   2 
   2   0   6   52.58    5.89  -1 
   0   2  -7   52.58    5.89   2 
   0  -2 -13   46.66    6.00  -1 
  -2   0  14   46.66    6.00   2 
   0   0 -16   11.46    6.89  -1 
   0   0  16   11.46    6.89   2 
   0  -2 -14  118.88    6.96  -1 
  -2   0  15  118.88    6.96   2 
   0  -2  -1 2200.04   18.94  -1 
  -2   0   2 2200.04   18.94   2 
   0   2 -16  266.48   10.56  -1 
   2   0  15  266.48   10.56   2 
   3   1   7 1248.15   11.49  -1 
   1   3  -9 1248.15   11.49   2 
   1   1   3  181.75    8.35  -1 
   1   1  -4  181.75    8.35   2 
   5  -3   9   22.34   10.25  -1 
  -3   5 -10   22.34   10.25   2 
   0  -2 -15  143.02    8.53  -1 
  -2   0  16  143.02    8.53   2 
   0   0 -17   17.01    7.23  -1 
   0   0  17   17.01    7.23   2 
   0   2 -17   17.91    8.98  -1 
   2   0  16   17.91    8.98   2 
   0  -2 -16   50.55    8.06  -1 
  -2   0  17   50.55    8.06   2 
   3  -1   7  891.15   10.57  -1 
  -1   3  -8  891.15   10.57   2 
   4   0   8 1144.50   11.35  -1 
   0   4 -10 1144.50   11.35   2 
   1  -6  -8  263.64    9.99  -1 
  -6   1  11  263.64    9.99   2 
   1  -6  -7  263.02    9.99  -1 
  -6   1  10  263.02    9.99   2 
   4  -2   8  567.47   10.10  -1 
  -2   4  -9  567.47   10.10   2 
   1  -6  -6   26.39    7.64  -1 
  -6   1   9   26.39    7.64   2 
   4  -4   7    2.98    8.87  -1 
  -4   4  -7    2.98    8.87   2 
  -1  -1  -8  823.37   10.26  -1 
  -1  -1   9  823.37   10.26   2 
  -1  -1  -9  231.31    7.31  -1 
  -1  -1  10  231.31    7.31   2 
  -1  -1 -10   89.67    6.30  -1 
  -1  -1  11   89.67    6.30   2 
  -1   1  -8 1685.25   13.86  -1 
   1  -1   8 1685.25   13.86   2 
  -1   1  -9  974.21   10.82  -1 
   1  -1   9  974.21   10.82   2 
  -1   1 -10  131.44    6.23  -1 
   1  -1  10  131.44    6.23   2 
  -1   1 -11  266.62    7.25  -1 
   1  -1  11  266.62    7.25   2 
   1  -6  -9   89.36    8.10  -1 
  -6   1  12   89.36    8.10   2 
   1  -6  -5   34.62    7.17  -1 
  -6   1   8   34.62    7.17   2 
  -1  -1  -7 1907.98   13.70  -1 
  -1  -1   8 1907.98   13.70   2 
  -1  -1 -11  237.84    7.60  -1 
  -1  -1  12  237.84    7.60   2 
   5   2   7   66.85    8.09  -1 
   2   5 -11   66.85    8.09   2 
  -1   1 -12  642.24    9.36  -1 
   1  -1  12  642.24    9.36   2 
   2  -7  -3    8.73    7.89  -1 
  -7   2   6    8.73    7.89   2 
   2   0   5  251.82    7.72  -1 
   0   2  -6  251.82    7.72   2 
   3   1   6 1002.38   10.35  -1 
   1   3  -8 1002.38   10.35   2 
   1  -6  -4  237.94    8.89  -1 
  -6   1   7  237.94    8.89   2 
   5  -5   7  130.70   12.85  -1 
  -5   5  -7  130.70   12.85   2 
  -1  -1  -6  290.69    7.78  -1 
  -1  -1   7  290.69    7.78   2 
  -1  -1 -12  578.48    9.69  -1 
  -1  -1  13  578.48    9.69   2 
  -1   1  -7 4799.52   23.09  -1 
   1  -1   7 4799.52   23.09   2 
   6   1   8   23.05    8.20  -1 
   1   6 -12   23.05    8.20   2 
   4   3   5  226.98    7.85  -1 
   3   4  -9  226.98    7.85   2 
  -1  -1 -13  387.61    9.02  -1 
  -1  -1  14  387.61    9.02   2 
  -1   1 -13  282.92    8.04  -1 
   1  -1  13  282.92    8.04   2 
   0  -5  -7  169.74    8.08  -1 
  -5   0  10  169.74    8.08   2 
   0  -5  -8   13.86    7.15  -1 
  -5   0  11   13.86    7.15   2 
   0  -5  -9  147.77    8.58  -1 
  -5   0  12  147.77    8.58   2 
  -1  -1 -14  154.37    7.87  -1 
  -1  -1  15  154.37    7.87   2 
  -1   1 -14  318.57    8.37  -1 
   1  -1  14  318.57    8.37   2 
  -1  -1  -5   39.34    5.32  -1 
  -1  -1   6   39.34    5.32   2 
  -1   1  -6  819.36   10.98  -1 
   1  -1   6  819.36   10.98   2 
   0  -5 -10  126.70    8.76  -1 
  -5   0  13  126.70    8.76   2 
   0  -2   0 5807.37   34.26  -1 
  -2   0   1 5807.37   34.26   2 
   5  -3   8  354.21   10.93  -1 
  -3   5  -9  354.21   10.93   2 
   0  -5  -6  208.63    8.54  -1 
  -5   0   9  208.63    8.54   2 
   0  -5 -11  155.55    9.29  -1 
  -5   0  14  155.55    9.29   2 
   4   0   7   25.45    6.60  -1 
   0   4  -9   25.45    6.60   2 
   0  -5  -5  217.06    8.16  -1 
  -5   0   8  217.06    8.16   2 
   0  -5 -12   43.14    7.73  -1 
  -5   0  15   43.14    7.73   2 
   3  -3   6    3.47    6.82  -1 
  -3   3  -6    3.47    6.82   2 
  -1  -1 -15   19.25    7.58  -1 
  -1  -1  16   19.25    7.58   2 
  -1   1 -15   26.56    6.56  -1 
   1  -1  15   26.56    6.56   2 
   1  -6  -2  399.61   11.48  -1 
  -6   1   5  399.61   11.48   2 
  -1   1 -16   37.86    7.30  -1 
   1  -1  16   37.86    7.30   2 
   1   1   2   87.41    6.71  -1 
   1   1  -3   87.41    6.71   2 
   2  -7  -1  243.33   11.36  -1 
  -7   2   4  243.33   11.36   2 
   0  -5  -4  126.14    7.45  -1 
  -5   0   7  126.14    7.45   2 
   6   1   7   19.03    8.18  -1 
   1   6 -11   19.03    8.18   2 
  -1  -1  -4  284.38    7.69  -1 
  -1  -1   5  284.38    7.69   2 
   3  -1   6  417.82    8.29  -1 
  -1   3  -7  417.82    8.29   2 
   4  -2   7    3.04    6.67  -1 
  -2   4  -8    3.04    6.67   2 
  -1  -1 -17   83.32    9.00  -1 
  -1  -1  18   83.32    9.00   2 
  -1   1 -17   27.09    7.59  -1 
   1  -1  17   27.09    7.59   2 
   1  -6  -1  157.74    9.85  -1 
  -6   1   4  157.74    9.85   2 
   0  -5  -3   69.39    7.04  -1 
  -5   0   6   69.39    7.04   2 
  -1   1  -5  369.22    9.11  -1 
   1  -1   5  369.22    9.11   2 
   0   2  -2  150.90   12.10  -1 
   2   0   1  150.90   12.10   2 
  -1  -4  -8  243.11    8.07  -1 
  -4  -1  11  243.11    8.07   2 
  -1  -4  -9   43.69    6.40  -1 
  -4  -1  12   43.69    6.40   2 
  -1  -4 -10   12.78    6.43  -1 
  -4  -1  13   12.78    6.43   2 
  -1  -4 -11   35.84    7.69  -1 
  -4  -1  14   35.84    7.69   2 
  -1  -4 -12   78.80    7.56  -1 
  -4  -1  15   78.80    7.56   2 
  -1   3 -13    4.56    8.46  -1 
   3  -1  12    4.56    8.46   2 
  -1   3 -12    5.81    8.71  -1 
   3  -1  11    5.81    8.71   2 
  -1  -4  -7   48.27    7.13  -1 
  -4  -1  10   48.27    7.13   2 
  -1  -4 -13  104.35    9.02  -1 
  -4  -1  16  104.35    9.02   2 
   7   0   7  183.54   10.81  -1 
   0   7 -11  183.54   10.81   2 
   5   2   5   19.57    7.24  -1 
   2   5  -9   19.57    7.24   2 
  -1   3 -14    0.61    9.31  -1 
   3  -1  13    0.61    9.31   2 
  -1   3 -11   52.42    7.36  -1 
   3  -1  10   52.42    7.36   2 
   2  -7   0  513.03   14.00  -1 
  -7   2   3  513.03   14.00   2 
   2   0   4   52.79    6.10  -1 
   0   2  -5   52.79    6.10   2 
   5  -1   7  384.41    9.46  -1 
  -1   5  -9  384.41    9.46   2 
   0  -5  -2   13.39    7.20  -1 
  -5   0   5   13.39    7.20   2 
  -1  -4  -6   11.95    6.69  -1 
  -4  -1   9   11.95    6.69   2 
  -1   3 -15    4.04    9.95  -1 
   3  -1  14    4.04    9.95   2 
  -1   3 -10   23.51    8.20  -1 
   3  -1   9   23.51    8.20   2 
   6  -1   7    5.88    7.95  -1 
  -1   6 -10    5.88    7.95   2 
  -1  -1  -3  149.92    7.33  -1 
  -1  -1   4  149.92    7.33   2 
   5  -3   7  764.93   13.05  -1 
  -3   5  -8  764.93   13.05   2 
  -1   3 -16    0.57    8.11  -1 
   3  -1  15    0.57    8.11   2 
   6  -4   7   21.10    9.60  -1 
  -4   6  -8   21.10    9.60   2 
   1  -6   0   79.58    8.97  -1 
  -6   1   3   79.58    8.97   2 
   4  -4   6   13.19    7.87  -1 
  -4   4  -6   13.19    7.87   2 
   7  -2   7   41.21    9.00  -1 
  -2   7 -10   41.21    9.00   2 
  -1   3 -17   20.24   10.16  -1 
   3  -1  16   20.24   10.16   2 
  -1   3  -9  144.59    9.21  -1 
   3  -1   8  144.59    9.21   2 
   5  -5   6  329.96   15.02  -1 
  -5   5  -6  329.96   15.02   2 
  -1  -4  -4   49.56    6.71  -1 
  -4  -1   7   49.56    6.71   2 
  -2  -2 -11  111.67    7.09  -1 
  -2  -2  13  111.67    7.09   2 
  -2   0 -11   99.95    6.88  -1 
   0  -2  12   99.95    6.88   2 
  -2   0 -12    4.45    6.62  -1 
   0  -2  13    4.45    6.62   2 
  -2   0 -13  130.66    7.72  -1 
   0  -2  14  130.66    7.72   2 
   0  -5  -1   80.33    7.65  -1 
  -5   0   4   80.33    7.65   2 
  -2   0 -10  284.63    7.97  -1 
   0  -2  11  284.63    7.97   2 
  -2   0 -14  122.70    8.19  -1 
   0  -2  15  122.70    8.19   2 
   7   0   6  284.93   10.42  -1 
   0   7 -10  284.93   10.42   2 
   5   2   4   10.91    6.96  -1 
   2   5  -8   10.91    6.96   2 
  -2  -3 -11    0.78    7.01  -1 
  -3  -2  14    0.78    7.01   2 
  -2   0  -9  392.41    8.47  -1 
   0  -2  10  392.41    8.47   2 
  -2   0 -15  253.74    9.31  -1 
   0  -2  16  253.74    9.31   2 
  -1   1  -4  624.02   11.51  -1 
   1  -1   4  624.02   11.51   2 
  -2  -3 -12   -3.68    6.19  -1 
  -3  -2  15   -3.68    6.19   2 
  -2  -2  -8   99.07    5.84  -1 
  -2  -2  10   99.07    5.84   2 
   3  -1   5  118.56    6.10  -1 
  -1   3  -6  118.56    6.10   2 
   4  -2   6  196.54    7.12  -1 
  -2   4  -7  196.54    7.12   2 
   6   1   5  382.26    8.64  -1 
   1   6  -9  382.26    8.64   2 
  -2  -3  -9   33.91    6.59  -1 
  -3  -2  12   33.91    6.59   2 
  -2  -3 -13   12.54    7.84  -1 
  -3  -2  16   12.54    7.84   2 
  -2   0 -16   60.35    8.69  -1 
   0  -2  17   60.35    8.69   2 
  -2  -3 -14    6.14    7.04  -1 
  -3  -2  17    6.14    7.04   2 
  -1  -6  -9    1.10    8.23  -1 
  -6  -1  13    1.10    8.23   2 
  -2  -3  -8    9.80    6.51  -1 
  -3  -2  11    9.80    6.51   2 
   6  -1   6   31.01    7.84  -1 
  -1   6  -9   31.01    7.84   2 
  -2   0  -8  156.63    6.81  -1 
   0  -2   9  156.63    6.81   2 
  -1   3  -8  708.79   14.97  -1 
   3  -1   7  708.79   14.97   2 
   1   1   1 4590.83   27.51  -1 
   1   1  -2 4590.83   27.51   2 
   3  -3   5  152.77    8.17  -1 
  -3   3  -5  152.77    8.17   2 
   7  -2   6    7.90    8.55  -1 
  -2   7  -9    7.90    8.55   2 
   5   0   5   11.28    6.93  -1 
   0   5  -8   11.28    6.93   2 
  -2   0  -7   13.93    5.34  -1 
   0  -2   8   13.93    5.34   2 
  -1  -1  -2   83.52    6.80  -1 
  -1  -1   3   83.52    6.80   2 
  -1  -6  -6  114.41    8.66  -1 
  -6  -1  10  114.41    8.66   2 
   1  -6   1  416.84   12.40  -1 
  -6   1   2  416.84   12.40   2 
   7   0   5  109.59    9.18  -1 
   0   7  -9  109.59    9.18   2 
  -2   2 -14  199.18    8.49  -1 
   2  -2  14  199.18    8.49   2 
  -2   2 -13   49.32    7.22  -1 
   2  -2  13   49.32    7.22   2 
   5  -3   6  729.08   12.44  -1 
  -3   5  -7  729.08   12.44   2 
   7  -3   6  127.95   10.68  -1 
  -3   7  -8  127.95   10.68   2 
  -2   2 -12   57.86    7.05  -1 
   2  -2  12   57.86    7.05   2 
  -2   2 -15  341.72   10.78  -1 
   2  -2  15  341.72   10.78   2 
  -2   2 -16  152.81    9.47  -1 
   2  -2  16  152.81    9.47   2 
   2   0   3    9.97    6.47  -1 
   0   2  -4    9.97    6.47   2 
   2   2   1  326.62    8.78  -1 
   2   2  -3  326.62    8.78   2 
   6  -4   6    0.35    9.22  -1 
  -4   6  -7    0.35    9.22   2 
  -1  -6  -5    7.23    7.65  -1 
  -6  -1   9    7.23    7.65   2 
  -2  -5 -10  159.96    9.78  -1 
  -5  -2  14  159.96    9.78   2 
  -2  -5 -11   62.73    9.47  -1 
  -5  -2  15   62.73    9.47   2 
   6   1   4  465.48    9.18  -1 
   1   6  -8  465.48    9.18   2 
   4   3   1   10.45    6.56  -1 
   3   4  -5   10.45    6.56   2 
  -2   2 -17   24.15    8.53  -1 
   2  -2  17   24.15    8.53   2 
  -2   2 -11  389.85    8.64  -1 
   2  -2  11  389.85    8.64   2 
  -2  -5  -9  157.29    9.01  -1 
  -5  -2  13  157.29    9.01   2 
  -2  -3  -5  938.04   10.39  -1 
  -3  -2   8  938.04   10.39   2 
  -2   0  -6   48.49    5.73  -1 
   0  -2   7   48.49    5.73   2 
  -2  -5  -8  157.62    8.37  -1 
  -5  -2  12  157.62    8.37   2 
   6  -1   5   13.11    7.78  -1 
  -1   6  -8   13.11    7.78   2 
  -2   2 -10 1209.94   12.62  -1 
   2  -2  10 1209.94   12.62   2 
  -2  -5  -7   25.78    7.64  -1 
  -5  -2  11   25.78    7.64   2 
  -3  -2 -12   54.82    7.54  -1 
  -2  -3  15   54.82    7.54   2 
  -3  -2 -13   42.99    8.25  -1 
  -2  -3  16   42.99    8.25   2 
  -3  -2 -14   14.05    8.15  -1 
  -2  -3  17   14.05    8.15   2 
   7  -2   5   50.83    8.80  -1 
  -2   7  -8   50.83    8.80   2 
   7   0   4    6.67    6.76  -1 
   0   7  -8    6.67    6.76   2 
   0  -7  -2   10.29    7.53  -1 
  -7   0   6   10.29    7.53   2 
;
_shelx_hkl_checksum              14283
loop_
_space_group_symop_operation_xyz
'x, y, z'
'-x, -y, -z'
loop_
_atom_site_label
_atom_site_type_symbol
_atom_site_fract_x
_atom_site_fract_y
_atom_site_fract_z
_atom_site_U_iso_or_equiv
_atom_site_adp_type
_atom_site_occupancy
_atom_site_site_symmetry_order
_atom_site_calc_flag
_atom_site_refinement_flags_posn
_atom_site_refinement_flags_adp
Co1 Co 0.30091(10) 0.15632(10) 0.91921(5) 0.0352(3) Uani 1 1 d . .
S1 S 0.6017(2) 0.2601(2) 0.88373(10) 0.0385(4) Uani 1 1 d . .
S2 S 0.1689(2) -0.15882(19) 0.88921(10) 0.0393(4) Uani 1 1 d . .
N1 N 0.3175(8) 0.2267(8) 1.0606(4) 0.0429(11) Uani 1 1 d D .
H13 H 0.190(11) 0.219(12) 1.079(6) 0.079(14) Uiso 1 1 d D .
H14 H 0.321(12) 0.358(11) 1.078(6) 0.079(14) Uiso 1 1 d D .
H15 H 0.415(12) 0.169(12) 1.089(6) 0.079(14) Uiso 1 1 d D .
N2 N 0.1049(9) 0.3384(9) 0.8702(5) 0.0478(13) Uani 1 1 d . .
H16 H 0.133(11) 0.461(13) 0.887(6) 0.06(2) Uiso 1 1 d . .
H17 H 0.090(14) 0.317(13) 0.814(7) 0.08(3) Uiso 1 1 d . .
H18 H -0.011(12) 0.323(11) 0.888(5) 0.06(2) Uiso 1 1 d . .
C1 C 0.5670(8) 0.2700(8) 0.7631(4) 0.0364(12) Uani 1 1 d . .
C2 C 0.6728(8) 0.4071(8) 0.7254(5) 0.0411(14) Uani 1 1 d . .
H2 H 0.7626 0.4979 0.7652 0.049 Uiso 1 1 calc R U
C3 C 0.6495(9) 0.4135(9) 0.6319(5) 0.0461(14) Uani 1 1 d . .
H3 H 0.7239 0.5080 0.6080 0.055 Uiso 1 1 calc R U
C4 C 0.5194(9) 0.2845(9) 0.5722(5) 0.0478(14) Uani 1 1 d . .
H4 H 0.5035 0.2899 0.5075 0.057 Uiso 1 1 calc R U
C5 C 0.4132(9) 0.1478(10) 0.6078(5) 0.0486(15) Uani 1 1 d . .
H5 H 0.3226 0.0586 0.5676 0.058 Uiso 1 1 calc R U
C6 C 0.4378(9) 0.1398(9) 0.7020(5) 0.0459(15) Uani 1 1 d . .
H6 H 0.3649 0.0435 0.7254 0.055 Uiso 1 1 calc R U
C7 C 0.0971(8) -0.1928(7) 0.7675(4) 0.0378(12) Uani 1 1 d . .
C8 C 0.1921(8) -0.3208(8) 0.7067(4) 0.0427(13) Uani 1 1 d . .
H8 H 0.2893 -0.3976 0.7308 0.051 Uiso 1 1 calc R U
C9 C 0.1460(9) -0.3367(9) 0.6119(5) 0.0485(15) Uani 1 1 d . .
H9 H 0.2116 -0.4249 0.5715 0.058 Uiso 1 1 calc R U
C10 C 0.0053(9) -0.2258(9) 0.5750(5) 0.0493(15) Uani 1 1 d . .
H10 H -0.0223 -0.2332 0.5097 0.059 Uiso 1 1 calc R U
C11 C -0.0941(9) -0.1043(9) 0.6351(4) 0.0472(14) Uani 1 1 d . .
H11 H -0.1934 -0.0301 0.6107 0.057 Uiso 1 1 calc R U
C12 C -0.0512(8) -0.0892(8) 0.7298(4) 0.0415(13) Uani 1 1 d . .
H12 H -0.1235 -0.0074 0.7699 0.050 Uiso 1 1 calc R U
loop_
_atom_site_aniso_label
_atom_site_aniso_U_11
_atom_site_aniso_U_22
_atom_site_aniso_U_33
_atom_site_aniso_U_23
_atom_site_aniso_U_13
_atom_site_aniso_U_12
Co1 0.0323(4) 0.0318(4) 0.0422(5) 0.0062(3) 0.0061(3) 0.0025(3)
S1 0.0330(7) 0.0408(8) 0.0427(8) 0.0089(6) 0.0066(6) 0.0011(5)
S2 0.0387(8) 0.0327(7) 0.0465(8) 0.0073(6) 0.0043(6) 0.0008(5)
N1 0.044(3) 0.041(3) 0.045(3) 0.006(2) 0.009(2) 0.007(2)
N2 0.040(3) 0.038(3) 0.065(4) 0.012(3) 0.004(3) 0.001(2)
C1 0.031(3) 0.034(3) 0.046(3) 0.007(2) 0.008(2) 0.006(2)
C2 0.037(3) 0.036(3) 0.052(4) 0.008(3) 0.009(3) 0.000(2)
C3 0.046(3) 0.045(3) 0.051(4) 0.015(3) 0.009(3) -0.001(3)
C4 0.045(3) 0.055(4) 0.046(3) 0.015(3) 0.006(3) 0.003(3)
C5 0.045(3) 0.052(4) 0.046(4) 0.006(3) 0.001(3) -0.007(3)
C6 0.041(3) 0.045(3) 0.052(4) 0.012(3) 0.008(3) -0.005(3)
C7 0.037(3) 0.028(3) 0.048(3) 0.004(2) 0.009(3) -0.001(2)
C8 0.038(3) 0.035(3) 0.056(4) 0.006(3) 0.010(3) 0.002(2)
C9 0.049(3) 0.042(3) 0.053(4) -0.001(3) 0.016(3) -0.004(3)
C10 0.051(4) 0.050(4) 0.045(3) 0.004(3) 0.005(3) -0.009(3)
C11 0.042(3) 0.045(3) 0.053(4) 0.011(3) -0.001(3) -0.001(3)
C12 0.037(3) 0.036(3) 0.051(3) 0.004(3) 0.005(3) 0.002(2)
loop_
_atom_type_symbol
_atom_type_description
_atom_type_scat_dispersion_real
_atom_type_scat_dispersion_imag
_atom_type_scat_source
C C 0.0033 0.0016 'International Tables Vol C Tables 4.2.6.8 and 6.1.1.4'
H H 0.0000 0.0000 'International Tables Vol C Tables 4.2.6.8 and 6.1.1.4'
N N 0.0061 0.0033 'International Tables Vol C Tables 4.2.6.8 and 6.1.1.4'
S S 0.1246 0.1234 'International Tables Vol C Tables 4.2.6.8 and 6.1.1.4'
Co Co 0.3494 0.9721 'International Tables Vol C Tables 4.2.6.8 and 6.1.1.4'
loop_
_geom_angle_atom_site_label_1
_geom_angle_atom_site_label_2
_geom_angle_atom_site_label_3
_geom_angle
N1 Co1 N2 104.6(3)
N1 Co1 S1 104.35(16)
N2 Co1 S1 106.07(19)
N1 Co1 S2 103.81(16)
N2 Co1 S2 110.16(19)
S1 Co1 S2 125.87(6)
C1 S1 Co1 104.90(18)
C7 S2 Co1 102.45(18)
C6 C1 C2 117.3(6)
C6 C1 S1 121.9(4)
C2 C1 S1 120.8(4)
C3 C2 C1 121.2(6)
C2 C3 C4 120.9(6)
C5 C4 C3 118.9(6)
C4 C5 C6 120.3(6)
C5 C6 C1 121.4(6)
C12 C7 C8 118.1(6)
C12 C7 S2 121.3(4)
C8 C7 S2 120.6(5)
C9 C8 C7 120.6(6)
C8 C9 C10 120.9(6)
C11 C10 C9 118.7(6)
C12 C11 C10 121.0(6)
C11 C12 C7 120.7(5)
loop_
_geom_bond_atom_site_label_1
_geom_bond_atom_site_label_2
_geom_bond_distance
Co1 N1 2.046(5)
Co1 N2 2.047(6)
Co1 S1 2.3025(15)
Co1 S2 2.3059(15)
S1 C1 1.774(6)
S2 C7 1.778(6)
C1 C6 1.390(8)
C1 C2 1.394(8)
C2 C3 1.372(9)
C3 C4 1.381(9)
C4 C5 1.376(9)
C5 C6 1.385(10)
C7 C12 1.395(8)
C7 C8 1.396(7)
C8 C9 1.380(9)
C9 C10 1.385(9)
C10 C11 1.383(9)
C11 C12 1.376(9)
