#------------------------------------------------------------------------------
#$Date: 2017-03-05 07:22:10 +0200 (Sun, 05 Mar 2017) $
#$Revision: 193853 $
#$URL: file:///home/coder/svn-repositories/cod/cif/7/04/19/7041928.cif $
#------------------------------------------------------------------------------
#
# This file is available in the Crystallography Open Database (COD),
# http://www.crystallography.net/
#
# All data on this site have been placed in the public domain by the
# contributors.
#
data_7041928
loop_
_publ_author_name
'Tatikonda, Rajendhraprasad'
'Bertula, Kia'
'Nonappa, ?'
'Hietala, Sami'
'Rissanen, Kari'
'Haukka, Matti'
_publ_section_title
;
 Bipyridine based metallogels: an unprecedented difference in
 photochemical and chemical reduction in the in situ nanoparticle
 formation.
;
_journal_issue                   9
_journal_name_full
'Dalton transactions (Cambridge, England : 2003)'
_journal_page_first              2793
_journal_page_last               2802
_journal_paper_doi               10.1039/c6dt04253h
_journal_volume                  46
_journal_year                    2017
_chemical_formula_moiety         'C22 H18 N4 O2'
_chemical_formula_sum            'C22 H18 N4 O2'
_chemical_formula_weight         370.40
_space_group_crystal_system      triclinic
_space_group_IT_number           2
_space_group_name_Hall           '-P 1'
_space_group_name_H-M_alt        'P -1'
_symmetry_space_group_name_Hall  '-P 1'
_symmetry_space_group_name_H-M   'P -1'
_atom_sites_solution_hydrogens   geom
_audit_creation_date             2016-07-19
_audit_creation_method
;
Olex2 1.2
(compiled 2015.09.30 svn.r3233 for OlexSys, GUI svn.r5103)
;
_audit_update_record
;
2016-08-23 deposited with the CCDC.
2017-02-02 downloaded from the CCDC.
;
_cell_angle_alpha                77.653(5)
_cell_angle_beta                 89.013(4)
_cell_angle_gamma                80.097(6)
_cell_formula_units_Z            1
_cell_length_a                   3.8257(2)
_cell_length_b                   9.9197(7)
_cell_length_c                   11.9058(5)
_cell_measurement_reflns_used    2650
_cell_measurement_temperature    120
_cell_measurement_theta_max      28.9830
_cell_measurement_theta_min      3.5020
_cell_volume                     434.71(4)
_computing_cell_refinement
;
CrysAlisPro, Agilent Technologies,
Version 1.171.36.32 (release 02-08-2013 CrysAlis171 .NET)
(compiled Aug  2 2013,16:46:58)
;
_computing_data_collection
;
CrysAlisPro, Agilent Technologies,
Version 1.171.36.32 (release 02-08-2013 CrysAlis171 .NET)
(compiled Aug  2 2013,16:46:58)
;
_computing_data_reduction
;
CrysAlisPro, Agilent Technologies,
Version 1.171.36.32 (release 02-08-2013 CrysAlis171 .NET)
(compiled Aug  2 2013,16:46:58)
;
_computing_molecular_graphics    'Olex2 (Dolomanov et al., 2009)'
_computing_publication_material  'Olex2 (Dolomanov et al., 2009)'
_computing_structure_refinement  'ShelXL (Sheldrick, 2015)'
_computing_structure_solution    'ShelXS (Sheldrick, 2008)'
_diffrn_ambient_temperature      120
_diffrn_detector_area_resol_mean 8.0053
_diffrn_measured_fraction_theta_full 0.997
_diffrn_measured_fraction_theta_max 0.996
_diffrn_measurement_details
;
#__ type_ start__ end____ width___ exp.time_
  1 omega   10.00   51.00   1.0000   25.0000
omega____ theta____ kappa____ phi______ frames
    -      -23.4518   77.0000 -120.0000 41

#__ type_ start__ end____ width___ exp.time_
  2 omega  -54.00   -6.00   1.0000   25.0000
omega____ theta____ kappa____ phi______ frames
    -      -23.4518   77.0000 -120.0000 48

#__ type_ start__ end____ width___ exp.time_
  3 omega  -58.00   48.00   1.0000   25.0000
omega____ theta____ kappa____ phi______ frames
    -      -23.4518   77.0000  -60.0000 106

#__ type_ start__ end____ width___ exp.time_
  4 omega  -59.00   50.00   1.0000   25.0000
omega____ theta____ kappa____ phi______ frames
    -      -23.4518   77.0000   60.0000 109

#__ type_ start__ end____ width___ exp.time_
  5 omega   24.00   51.00   1.0000   25.0000
omega____ theta____ kappa____ phi______ frames
    -      -23.4518   77.0000 -180.0000 27

#__ type_ start__ end____ width___ exp.time_
  6 omega  -49.00   46.00   1.0000   25.0000
omega____ theta____ kappa____ phi______ frames
    -      -23.4518   77.0000  150.0000 95

#__ type_ start__ end____ width___ exp.time_
  7 omega  -11.00   98.00   1.0000   25.0000
omega____ theta____ kappa____ phi______ frames
    -       24.3893   77.0000 -180.0000 109

#__ type_ start__ end____ width___ exp.time_
  8 omega   -9.00   91.00   1.0000   25.0000
omega____ theta____ kappa____ phi______ frames
    -       24.3893   77.0000  -60.0000 100

#__ type_ start__ end____ width___ exp.time_
  9 omega  -11.00   96.00   1.0000   25.0000
omega____ theta____ kappa____ phi______ frames
    -       24.3893   77.0000   60.0000 107
;
_diffrn_measurement_device_type  'SuperNova, Single source at offset, Eos'
_diffrn_measurement_method       '\w scans'
_diffrn_orient_matrix_UB_11      0.0752478000
_diffrn_orient_matrix_UB_12      0.0591779000
_diffrn_orient_matrix_UB_13      0.0046504000
_diffrn_orient_matrix_UB_21      0.0400399000
_diffrn_orient_matrix_UB_22      0.0111233000
_diffrn_orient_matrix_UB_23      -0.0593150000
_diffrn_orient_matrix_UB_31      -0.1678452000
_diffrn_orient_matrix_UB_32      0.0435438000
_diffrn_orient_matrix_UB_33      -0.0134548000
_diffrn_radiation_monochromator  mirror
_diffrn_radiation_type           MoK\a
_diffrn_radiation_wavelength     0.71073
_diffrn_reflns_av_R_equivalents  0.0166
_diffrn_reflns_av_unetI/netI     0.0179
_diffrn_reflns_Laue_measured_fraction_full 0.997
_diffrn_reflns_Laue_measured_fraction_max 0.996
_diffrn_reflns_limit_h_max       4
_diffrn_reflns_limit_h_min       -4
_diffrn_reflns_limit_k_max       12
_diffrn_reflns_limit_k_min       -12
_diffrn_reflns_limit_l_max       14
_diffrn_reflns_limit_l_min       -14
_diffrn_reflns_number            5155
_diffrn_reflns_point_group_measured_fraction_full 0.997
_diffrn_reflns_point_group_measured_fraction_max 0.996
_diffrn_reflns_theta_full        25.242
_diffrn_reflns_theta_max         25.995
_diffrn_reflns_theta_min         3.504
_diffrn_source                   'SuperNova (Mo) X-ray Source'
_exptl_absorpt_coefficient_mu    0.094
_exptl_absorpt_correction_T_max  0.995
_exptl_absorpt_correction_T_min  0.983
_exptl_absorpt_correction_type   gaussian
_exptl_absorpt_process_details
;
CrysAlisPro, Agilent Technologies,
Version 1.171.36.32 (release 02-08-2013 CrysAlis171 .NET)
(compiled Aug  2 2013,16:46:58)
Numerical absorption correction based on gaussian integration over
            a multifaceted crystal model
;
_exptl_crystal_colour            'clear colourless'
_exptl_crystal_colour_lustre     clear
_exptl_crystal_colour_primary    colourless
_exptl_crystal_density_diffrn    1.415
_exptl_crystal_description       block
_exptl_crystal_F_000             194
_exptl_crystal_size_max          0.2338
_exptl_crystal_size_mid          0.1216
_exptl_crystal_size_min          0.0601
_refine_diff_density_max         0.243
_refine_diff_density_min         -0.233
_refine_diff_density_rms         0.042
_refine_ls_extinction_method     none
_refine_ls_goodness_of_fit_ref   1.057
_refine_ls_hydrogen_treatment    constr
_refine_ls_matrix_type           full
_refine_ls_number_parameters     127
_refine_ls_number_reflns         1703
_refine_ls_number_restraints     0
_refine_ls_restrained_S_all      1.057
_refine_ls_R_factor_all          0.0400
_refine_ls_R_factor_gt           0.0353
_refine_ls_shift/su_max          0.000
_refine_ls_shift/su_mean         0.000
_refine_ls_structure_factor_coef Fsqd
_refine_ls_weighting_details
'w=1/[\s^2^(Fo^2^)+(0.0442P)^2^+0.1734P] where P=(Fo^2^+2Fc^2^)/3'
_refine_ls_weighting_scheme      calc
_refine_ls_wR_factor_gt          0.0929
_refine_ls_wR_factor_ref         0.0959
_reflns_Friedel_coverage         0.000
_reflns_number_gt                1502
_reflns_number_total             1703
_reflns_threshold_expression     'I > 2\s(I)'
_cod_data_source_file            c6dt04253h2.cif
_cod_data_source_block           2
_cod_depositor_comments
'Adding full bibliography for 7041926--7041928.cif.'
_cod_original_cell_volume        434.70(5)
_cod_database_code               7041928
_chemical_oxdiff_formula         'C22 H18 O2 N4'
_chemical_oxdiff_usercomment     'Colorless, Block, 0.07 0.1 0.2'
_shelx_space_group_comment
;
The symmetry employed for this shelxl refinement is uniquely defined
by the following loop, which should always be used as a source of
symmetry information in preference to the above space-group names.
They are only intended as comments.
;
_reflns_odcompleteness_completeness 99.74
_reflns_odcompleteness_iscentric 1
_reflns_odcompleteness_theta     27.04
_olex2_refinement_description
;
1. Fixed Uiso
 At 1.2 times of:
  All C(H) groups, All C(H,H) groups
2.a Secondary CH2 refined with riding coordinates:
 C6(H6A,H6B)
2.b Aromatic/amide H refined with riding coordinates:
 C5(H5), C11(H11), C3(H3), C9(H9), C2(H2), C10(H10), C8(H8)
;
_shelx_res_file
;
    exp_1173_g.res created by SHELXL-2014/7

TITL exp_1173_g in P-1 #2
REM reset to P-1 #2
CELL 0.71073 3.825671 9.919659 11.905768 77.6527 89.0131 80.0974
ZERR 1 0.00023 0.000703 0.000531 0.0048 0.0042 0.0055
LATT 1
SFAC C H N O
UNIT 22 18 4 2

L.S. 4 0 0
PLAN  20
TEMP -153.15
BOND
fmap 2 53
acta
OMIT -2 52
OMIT 3 0 3
REM <olex2.extras>
REM <HklSrc "%.\\exp_1173_g.hkl">
REM </olex2.extras>

WGHT    0.044200    0.173400
FVAR       8.46460
O1    4    0.468127    0.191500    0.649745    11.00000    0.03014    0.01677 =
         0.01017   -0.00014    0.00282    0.00437
N2    3    0.382110    0.392185    0.358708    11.00000    0.02226    0.01681 =
         0.01434   -0.00137    0.00016   -0.00132
N1    3    0.229312    0.170606    0.994044    11.00000    0.02216    0.01843 =
         0.01447   -0.00363    0.00197    0.00180
C6    1    0.336298    0.312870    0.562728    11.00000    0.01782    0.01385 =
         0.01265   -0.00039    0.00037    0.00008
AFIX  23
H6A   2    0.421983    0.395909    0.578242    11.00000   -1.20000
H6B   2    0.073573    0.331332    0.561842    11.00000   -1.20000
AFIX   0
C5    1    0.509002    0.070979    0.841099    11.00000    0.01701    0.01606 =
         0.01504   -0.00444    0.00116   -0.00091
AFIX  43
H5    2    0.651166   -0.006129    0.817582    11.00000   -1.20000
AFIX   0
C1    1    0.430473    0.064174    0.955931    11.00000    0.01460    0.01727 =
         0.01443   -0.00369    0.00002   -0.00284
C7    1    0.469589    0.284587    0.448792    11.00000    0.01359    0.01616 =
         0.01362   -0.00257   -0.00041   -0.00389
C4    1    0.376990    0.192168    0.760702    11.00000    0.01738    0.01936 =
         0.01197   -0.00338    0.00185   -0.00427
C11   1    0.666064    0.156872    0.438120    11.00000    0.01885    0.01666 =
         0.01548   -0.00101   -0.00057   -0.00144
AFIX  43
H11   2    0.724095    0.083150    0.503891    11.00000   -1.20000
AFIX   0
C3    1    0.167869    0.303180    0.797241    11.00000    0.01952    0.01546 =
         0.01543   -0.00154    0.00009   -0.00038
AFIX  43
H3    2    0.071710    0.387314    0.744673    11.00000   -1.20000
AFIX   0
C9    1    0.688549    0.247917    0.236165    11.00000    0.02206    0.02639 =
         0.01391   -0.00690    0.00259   -0.00520
AFIX  43
H9    2    0.760137    0.238617    0.161001    11.00000   -1.20000
AFIX   0
C2    1    0.106312    0.285027    0.914572    11.00000    0.02323    0.01704 =
         0.01786   -0.00465    0.00215    0.00305
AFIX  43
H2    2   -0.035479    0.360614    0.940264    11.00000   -1.20000
AFIX   0
C10   1    0.776501    0.138362    0.330122    11.00000    0.01904    0.01865 =
         0.02155   -0.00752    0.00186   -0.00080
AFIX  43
H10   2    0.910674    0.051673    0.320771    11.00000   -1.20000
AFIX   0
C8    1    0.492957    0.371401    0.255326    11.00000    0.02659    0.02082 =
         0.01279   -0.00024   -0.00001   -0.00238
AFIX  43
H8    2    0.432948    0.446717    0.190812    11.00000   -1.20000
AFIX   0
HKLF 4

REM  exp_1173_g in P-1 #2
REM R1 =  0.0353 for    1502 Fo > 4sig(Fo)  and  0.0400 for all    1703 data
REM    127 parameters refined using      0 restraints

END

WGHT      0.0442      0.1734

REM Highest difference peak  0.243,  deepest hole -0.233,  1-sigma level  0.042
Q1    1   0.4067  0.2997  0.5029  11.00000  0.05    0.24
Q2    1   0.5745  0.0178  1.0034  11.00000  0.05    0.18
Q3    1   0.4782  0.0639  0.9006  11.00000  0.05    0.18
Q4    1   0.5198  0.3453  0.4158  11.00000  0.05    0.17
Q5    1   0.5000  0.0000  1.0000  10.50000  0.05    0.17
Q6    1   0.4836  0.2124  0.4416  11.00000  0.05    0.16
Q7    1   0.5244  0.1558  0.8051  11.00000  0.05    0.16
Q8    1   0.3327  0.2624  0.7826  11.00000  0.05    0.16
Q9    1   0.1229  0.1721  1.0630  11.00000  0.05    0.16
Q10   1   0.2381  0.3059  0.8609  11.00000  0.05    0.15
Q11   1   0.3540  0.1183  0.7993  11.00000  0.05    0.14
Q12   1   0.0605  0.2798  0.8510  11.00000  0.05    0.13
Q13   1   0.7816  0.0175  0.3336  11.00000  0.05    0.13
Q14   1   0.2271  0.4611  0.3751  11.00000  0.05    0.13
Q15   1  -0.1520  0.3238  0.9548  11.00000  0.05    0.13
Q16   1   0.6373  0.2382  0.4483  11.00000  0.05    0.12
Q17   1   0.4998  0.2932  0.2437  11.00000  0.05    0.12
Q18   1   0.7756  0.1597  0.3853  11.00000  0.05    0.12
Q19   1   0.6857  0.3172  0.2571  11.00000  0.05    0.12
Q20   1   0.8239  0.2127  0.2864  11.00000  0.05    0.12
;
_shelx_res_checksum              24139
_shelx_shelxl_version_number     2014/7
_ins_header
;
TITL 2 in P-1 
REM P-1 (#2 in standard setting)
CELL 0.71073   3.825671   9.919659  11.905768  77.6527  89.0131  80.0974
ZERR    1.00   0.000230   0.000703   0.000531   0.0048   0.0042   0.0055
LATT  1
SFAC C H N O
UNIT 22.00 18.00 4.00 2.00
TREF
HKLF 4
END
;
_olex2_submission_special_instructions 'No special instructions were received'
loop_
_space_group_symop_operation_xyz
'x, y, z'
'-x, -y, -z'
loop_
_atom_site_label
_atom_site_type_symbol
_atom_site_fract_x
_atom_site_fract_y
_atom_site_fract_z
_atom_site_U_iso_or_equiv
_atom_site_adp_type
_atom_site_occupancy
_atom_site_site_symmetry_order
_atom_site_calc_flag
_atom_site_refinement_flags_posn
O1 O 0.4681(2) 0.19150(9) 0.64975(7) 0.0205(2) Uani 1 1 d .
N2 N 0.3821(3) 0.39219(11) 0.35871(9) 0.0183(3) Uani 1 1 d .
N1 N 0.2293(3) 0.17061(11) 0.99404(9) 0.0190(3) Uani 1 1 d .
C6 C 0.3363(3) 0.31287(13) 0.56273(10) 0.0155(3) Uani 1 1 d .
H6A H 0.4220 0.3959 0.5782 0.019 Uiso 1 1 calc R
H6B H 0.0736 0.3313 0.5618 0.019 Uiso 1 1 calc R
C5 C 0.5090(3) 0.07098(13) 0.84110(10) 0.0161(3) Uani 1 1 d .
H5 H 0.6512 -0.0061 0.8176 0.019 Uiso 1 1 calc R
C1 C 0.4305(3) 0.06417(12) 0.95593(10) 0.0154(3) Uani 1 1 d .
C7 C 0.4696(3) 0.28459(13) 0.44879(10) 0.0144(3) Uani 1 1 d .
C4 C 0.3770(3) 0.19217(13) 0.76070(10) 0.0161(3) Uani 1 1 d .
C11 C 0.6661(3) 0.15687(13) 0.43812(11) 0.0176(3) Uani 1 1 d .
H11 H 0.7241 0.0831 0.5039 0.021 Uiso 1 1 calc R
C3 C 0.1679(3) 0.30318(13) 0.79724(10) 0.0174(3) Uani 1 1 d .
H3 H 0.0717 0.3873 0.7447 0.021 Uiso 1 1 calc R
C9 C 0.6885(3) 0.24792(14) 0.23616(11) 0.0203(3) Uani 1 1 d .
H9 H 0.7601 0.2386 0.1610 0.024 Uiso 1 1 calc R
C2 C 0.1063(3) 0.28503(14) 0.91457(11) 0.0200(3) Uani 1 1 d .
H2 H -0.0355 0.3606 0.9403 0.024 Uiso 1 1 calc R
C10 C 0.7765(3) 0.13836(14) 0.33012(11) 0.0196(3) Uani 1 1 d .
H10 H 0.9107 0.0517 0.3208 0.023 Uiso 1 1 calc R
C8 C 0.4930(4) 0.37140(14) 0.25533(11) 0.0208(3) Uani 1 1 d .
H8 H 0.4329 0.4467 0.1908 0.025 Uiso 1 1 calc R
loop_
_atom_site_aniso_label
_atom_site_aniso_U_11
_atom_site_aniso_U_22
_atom_site_aniso_U_33
_atom_site_aniso_U_23
_atom_site_aniso_U_13
_atom_site_aniso_U_12
O1 0.0301(5) 0.0168(5) 0.0102(4) -0.0001(3) 0.0028(4) 0.0044(4)
N2 0.0223(6) 0.0168(5) 0.0143(5) -0.0014(4) 0.0002(4) -0.0013(4)
N1 0.0222(6) 0.0184(6) 0.0145(5) -0.0036(4) 0.0020(4) 0.0018(4)
C6 0.0178(6) 0.0138(6) 0.0126(6) -0.0004(5) 0.0004(5) 0.0001(5)
C5 0.0170(6) 0.0161(6) 0.0150(6) -0.0044(5) 0.0012(5) -0.0009(5)
C1 0.0146(6) 0.0173(6) 0.0144(6) -0.0037(5) 0.0000(5) -0.0028(5)
C7 0.0136(6) 0.0162(6) 0.0136(6) -0.0026(5) -0.0004(4) -0.0039(5)
C4 0.0174(6) 0.0194(6) 0.0120(6) -0.0034(5) 0.0018(5) -0.0043(5)
C11 0.0189(6) 0.0167(6) 0.0155(6) -0.0010(5) -0.0006(5) -0.0014(5)
C3 0.0195(6) 0.0155(6) 0.0154(6) -0.0015(5) 0.0001(5) -0.0004(5)
C9 0.0221(7) 0.0264(7) 0.0139(6) -0.0069(5) 0.0026(5) -0.0052(5)
C2 0.0232(7) 0.0170(6) 0.0179(6) -0.0047(5) 0.0022(5) 0.0030(5)
C10 0.0190(6) 0.0187(6) 0.0216(6) -0.0075(5) 0.0019(5) -0.0008(5)
C8 0.0266(7) 0.0208(7) 0.0128(6) -0.0002(5) 0.0000(5) -0.0024(5)
loop_
_atom_type_symbol
_atom_type_description
_atom_type_scat_dispersion_real
_atom_type_scat_dispersion_imag
_atom_type_scat_source
C C 0.0033 0.0016 'International Tables Vol C Tables 4.2.6.8 and 6.1.1.4'
H H 0.0000 0.0000 'International Tables Vol C Tables 4.2.6.8 and 6.1.1.4'
N N 0.0061 0.0033 'International Tables Vol C Tables 4.2.6.8 and 6.1.1.4'
O O 0.0106 0.0060 'International Tables Vol C Tables 4.2.6.8 and 6.1.1.4'
loop_
_exptl_crystal_face_index_h
_exptl_crystal_face_index_k
_exptl_crystal_face_index_l
_exptl_crystal_face_perp_dist
_exptl_oxdiff_crystal_face_indexfrac_h
_exptl_oxdiff_crystal_face_indexfrac_k
_exptl_oxdiff_crystal_face_indexfrac_l
_exptl_oxdiff_crystal_face_x
_exptl_oxdiff_crystal_face_y
_exptl_oxdiff_crystal_face_z
0 -1 16 0.0541 0.0000 -1.0000 16.0000 0.0152 -0.9602 -0.2588
0 1 -16 0.0582 -0.0000 1.0000 -16.0000 -0.0152 0.9602 0.2588
4 -5 5 0.1038 4.0000 -5.0000 5.0000 0.0284 -0.1920 -0.9564
-4 6 1 0.0897 -4.0000 6.0000 1.0000 0.0587 -0.1527 0.9192
-5 -9 -5 0.0381 -5.0000 -9.0000 -5.0000 -0.9321 -0.0037 0.5146
5 9 5 0.0220 5.0000 9.0000 5.0000 0.9321 0.0037 -0.5146
-1 -14 -3 0.1063 -1.0000 -14.0000 -3.0000 -0.9177 -0.0178 -0.4014
0 14 2 0.0794 -0.0000 14.0000 2.0000 0.8378 0.0371 0.5827
4 -7 -8 0.1105 4.0000 -7.0000 -8.0000 -0.1505 0.5568 -0.8685
loop_
_geom_angle_atom_site_label_1
_geom_angle_atom_site_label_2
_geom_angle_atom_site_label_3
_geom_angle
_geom_angle_site_symmetry_3
C4 O1 C6 118.28(9) .
C8 N2 C7 116.87(11) .
C2 N1 C1 116.39(10) .
O1 C6 C7 107.69(9) .
C1 C5 C4 119.10(11) .
N1 C1 C5 122.90(11) .
N1 C1 C1 116.83(13) 2_657
C5 C1 C1 120.27(13) 2_657
N2 C7 C6 114.79(10) .
N2 C7 C11 122.79(11) .
C11 C7 C6 122.42(11) .
O1 C4 C5 115.70(11) .
O1 C4 C3 124.98(11) .
C3 C4 C5 119.33(11) .
C10 C11 C7 119.05(11) .
C4 C3 C2 116.71(11) .
C8 C9 C10 117.75(11) .
N1 C2 C3 125.57(12) .
C9 C10 C11 119.04(12) .
N2 C8 C9 124.50(12) .
loop_
_geom_bond_atom_site_label_1
_geom_bond_atom_site_label_2
_geom_bond_distance
_geom_bond_site_symmetry_2
O1 C6 1.4328(14) .
O1 C4 1.3615(14) .
N2 C7 1.3422(15) .
N2 C8 1.3408(16) .
N1 C1 1.3514(16) .
N1 C2 1.3331(16) .
C6 C7 1.5062(16) .
C5 C1 1.3847(17) .
C5 C4 1.3900(17) .
C1 C1 1.490(2) 2_657
C7 C11 1.3871(18) .
C4 C3 1.3899(18) .
C11 C10 1.3860(17) .
C3 C2 1.3910(17) .
C9 C10 1.3831(18) .
C9 C8 1.3823(19) .
loop_
_hkl_oxdiff_h
_hkl_oxdiff_k
_hkl_oxdiff_l
_hkl_oxdiff_f2
_hkl_oxdiff_sig
_hkl_oxdiff_ba
0 0 2 4310.98 78.6190 8
0 0 2 4528.50 86.4572 9
0 0 -2 4308.63 81.2341 6
0 0 2 4268.63 79.8243 3
0 0 -3 12529.8 187.955 8
0 0 3 12732.4 203.053 9
0 0 3 12341.2 191.840 3
0 0 -3 12582.5 195.885 6
0 0 4 7352.53 153.923 9
0 0 -4 7020.39 150.429 4
0 0 -4 7329.11 138.746 8
0 0 -4 7333.06 147.464 6
0 0 4 7190.67 142.205 3
0 0 -5 31277.2 431.617 8
0 0 -5 30477.3 445.676 6
0 0 -5 30941.7 454.067 4
0 0 5 32173.1 461.101 9
0 0 5 31339.5 440.393 3
0 0 -6 48.1896 24.9698 8
0 0 -6 25.3606 24.0876 6
0 0 6 23.8112 33.2421 9
0 0 -6 39.9716 27.7159 4
0 0 6 33.5090 22.2356 3
0 0 7 4049.34 139.277 9
0 0 -7 3663.80 116.780 8
0 0 7 3699.91 122.658 3
0 0 -7 3873.71 134.115 4
0 0 -7 3697.45 127.064 6
0 0 -8 329.520 48.7741 4
0 0 -8 251.208 38.6238 6
0 0 -8 293.167 36.8968 8
0 0 8 304.534 41.0955 3
0 0 8 330.399 49.8793 9
0 0 -9 25941.4 428.167 8
0 0 -9 26299.3 474.968 4
0 0 9 25840.5 448.114 3
0 0 -9 27129.1 463.429 6
0 0 9 26480.0 484.586 9
0 0 10 30052.4 555.020 9
0 0 10 30601.9 516.009 3
0 0 -10 31175.3 536.829 6
0 0 -10 30822.2 494.193 8
0 0 -10 30629.7 551.150 4
0 0 -11 4548.52 174.519 6
0 0 -11 4530.39 187.565 4
0 0 11 4333.61 188.024 9
0 0 12 5174.05 215.705 9
0 0 -12 5023.26 209.412 4
0 0 -13 84.0061 52.8775 4
0 0 13 -12.9874 48.2246 9
0 0 -14 1631.29 134.558 4
0 0 14 1837.71 145.017 9
0 0 15 2845.78 187.224 9
0 0 -15 2924.31 184.761 4
0 -1 14 34.8428 55.7628 9
0 1 -14 126.226 56.7609 4
0 1 -13 218.506 60.3318 4
0 -1 13 189.957 61.1459 9
0 -1 12 114.161 58.8378 9
0 1 -12 124.366 54.6029 4
0 -1 11 5011.89 205.930 9
0 1 -11 4674.61 196.147 4
0 -1 10 103.290 45.5926 9
0 1 -10 186.731 45.5797 4
0 1 -9 1268.65 67.1582 8
0 -1 9 1398.91 98.1504 9
0 -1 9 1184.15 70.6938 3
0 1 -9 1125.30 89.9610 4
0 1 -8 231.809 30.0407 8
0 1 -8 281.242 45.8235 6
0 -1 8 222.893 33.1392 3
0 1 -8 188.962 41.5258 4
0 -1 8 212.827 49.1367 9
0 -1 7 503.585 54.3840 9
0 -1 7 312.549 34.1843 3
0 1 -7 416.719 49.2692 4
0 1 -7 426.589 47.7110 6
0 1 -7 367.845 33.3139 8
0 1 -6 168.305 24.5401 8
0 1 -6 168.897 33.7494 6
0 1 -6 140.622 35.0251 4
0 -1 6 198.911 39.5060 9
0 -1 6 169.823 24.2782 3
0 1 -5 1489.90 52.0697 8
0 1 -5 1505.09 74.5859 4
0 -1 5 1483.52 55.7926 3
0 -1 5 1629.51 80.4057 9
0 1 -5 1356.64 71.6981 6
0 -1 4 1504.33 66.9401 9
0 1 -4 1344.70 65.1822 6
0 -1 4 1413.27 46.3897 8
0 1 -4 1387.57 64.6451 4
0 1 -4 1385.85 44.4472 8
0 -1 4 1401.45 46.9016 3
0 1 -3 1339.45 58.0782 6
0 -1 3 1302.44 56.1397 9
0 -1 3 1445.45 38.4496 8
0 -1 3 1361.79 38.0417 3
0 1 -3 1355.66 35.6249 8
0 1 -3 1387.78 56.6491 4
0 1 -2 11831.3 186.485 4
0 -1 2 11796.5 185.737 9
0 1 2 92931.7 1094.42 3
0 -1 -2 92088.7 1066.28 6
0 1 2 93796.7 1079.64 9
0 -1 -2 93140.4 1089.16 8
0 -1 -2 95771.7 1078.50 9
0 1 3 22427.2 312.697 9
0 -1 -3 22542.7 319.475 8
0 -1 -3 22338.0 296.826 6
0 1 3 22325.1 324.417 3
0 1 4 4383.91 111.695 9
0 -1 -4 4412.11 99.8881 6
0 1 4 4251.81 114.967 3
0 -1 -4 4421.20 112.308 8
0 -1 -5 284.994 34.6057 8
0 1 5 327.157 39.4206 3
0 -1 -5 382.501 34.3470 6
0 1 5 340.840 39.6071 9
0 -1 -6 69998.4 893.567 8
0 -1 -6 69966.8 874.331 6
0 1 6 67977.3 905.582 3
0 1 6 68907.4 901.857 9
0 1 7 3665.93 133.161 3
0 -1 -7 4033.51 123.807 6
0 -1 -7 3671.13 125.782 8
0 1 7 3907.05 135.651 9
0 1 8 1728.06 94.8649 9
0 -1 -8 1782.37 87.3788 6
0 -1 -8 1722.00 88.9903 8
0 1 8 1724.35 93.3859 3
0 -1 -9 1669.34 91.0577 6
0 1 9 1614.35 98.2805 9
0 -1 -9 1583.42 87.8222 8
0 -1 -9 1694.26 99.5786 4
0 1 9 1577.19 94.8065 3
0 -1 -10 778.859 68.3828 6
0 -1 -10 748.157 77.4858 4
0 -1 -10 866.421 71.1906 8
0 1 10 803.624 73.6508 3
0 1 10 1042.58 85.5707 9
0 -1 -11 850.669 76.1183 6
0 1 11 948.114 91.8968 9
0 1 11 708.495 74.1110 3
0 -1 -11 813.747 72.5098 8
0 -1 -11 798.682 82.3776 4
0 -1 -12 1977.24 128.575 4
0 1 12 2000.43 123.047 3
0 1 12 2033.51 134.434 9
0 -1 -13 410.291 69.6585 4
0 1 13 394.413 72.1701 9
0 -1 -14 638.913 88.6273 4
0 1 14 722.033 99.8832 9
0 1 15 3696.65 210.604 9
0 -1 -15 3872.79 209.059 4
0 2 -14 1886.81 155.204 4
0 -2 14 2116.05 162.829 9
0 -2 13 2491.06 166.520 9
0 2 -13 2721.34 171.641 4
0 2 -12 1422.67 120.540 4
0 -2 12 1586.48 129.333 9
0 -2 11 844.191 93.0315 9
0 2 -11 607.351 79.3691 4
0 -2 10 6096.76 222.708 9
0 2 -10 6236.23 224.576 4
0 -2 9 106496. 1433.02 9
0 2 -9 106609. 1430.64 4
0 -2 8 490.821 37.2884 3
0 2 -8 481.783 61.6782 4
0 -2 8 609.891 68.9929 9
0 2 -7 4828.80 100.537 8
0 2 -7 4472.09 158.619 4
0 -2 7 4727.90 163.812 9
0 -2 7 4620.67 107.359 3
0 2 -6 332.997 44.9012 4
0 2 -6 298.752 21.5010 8
0 -2 6 289.244 22.9942 3
0 -2 6 278.332 46.0672 9
0 -2 5 192.500 16.8051 3
0 2 -5 193.333 37.6534 4
0 2 -5 208.456 15.9753 8
0 -2 5 218.937 17.3801 8
0 -2 5 244.218 42.1609 9
0 -2 4 35913.0 515.570 9
0 2 -4 35661.1 517.356 4
0 -2 3 8511.29 174.386 9
0 2 -3 8421.84 176.190 4
0 -2 2 45.5015 18.7740 9
0 2 -2 1.03240 19.3125 4
0 -2 1 292.168 14.5825 8
0 -2 1 309.200 27.2760 9
0 2 -1 310.968 16.1442 3
0 2 -1 322.264 29.0238 4
0 2 -1 295.789 15.5312 8
0 2 0 199094. 2250.74 8
0 2 0 199080. 2270.18 4
0 2 0 203022. 2253.28 3
0 -2 0 199527. 2248.70 8
0 2 0 201049. 2265.71 7
0 -2 -1 66945.8 803.717 8
0 2 1 67797.0 784.992 7
0 2 1 68889.5 810.483 3
0 2 1 68428.9 805.769 4
0 -2 -1 65369.1 785.493 7
0 -2 -2 2017.44 47.0033 7
0 -2 -2 2111.32 69.1877 8
0 2 2 2218.44 73.5696 3
0 -2 -2 2148.35 48.2145 5
0 2 2 2097.35 47.4323 7
0 -2 -3 7305.44 134.824 6
0 2 3 7457.96 161.519 3
0 2 3 7604.31 115.287 7
0 -2 -3 7453.09 157.310 8
0 -2 -4 12.4018 15.6993 6
0 2 4 -4.32840 21.2501 3
0 2 4 12.9226 12.2405 7
0 -2 -4 26.6299 23.4956 8
0 2 5 22361.6 355.338 9
0 -2 -5 22911.0 331.601 6
0 2 5 22503.7 378.588 3
0 2 5 22338.1 311.807 7
0 -2 -5 22619.8 368.890 8
0 2 6 64485.6 876.781 3
0 -2 -6 64063.4 815.467 6
0 -2 -6 64362.1 862.099 8
0 2 6 64538.5 850.680 9
0 2 7 -50.7308 31.1103 9
0 2 7 2.79416 25.9859 3
0 -2 -7 3.49188 26.6195 8
0 -2 -7 -15.4258 23.7322 6
0 2 8 482.359 53.9849 3
0 2 8 569.089 58.3593 9
0 -2 -8 447.140 50.8144 8
0 -2 -8 566.257 49.9139 6
0 -2 -9 287.865 45.6405 8
0 2 9 250.719 49.6774 3
0 -2 -9 300.859 40.4139 6
0 2 9 322.695 52.4100 9
0 -2 -10 684.545 60.9213 6
0 2 10 441.703 61.8951 9
0 -2 -10 621.731 66.7331 8
0 2 10 601.532 69.2403 3
0 -2 -11 6129.34 213.983 4
0 2 11 6079.97 216.827 9
0 2 11 6434.46 225.864 3
0 -2 -11 6102.94 205.562 8
0 -2 -11 6207.06 194.426 6
0 2 12 661.677 76.0095 3
0 2 12 797.624 87.7824 9
0 -2 -12 922.660 90.5030 4
0 -2 -12 829.337 78.9747 8
0 2 13 51.6602 36.1994 3
0 -2 -13 159.480 59.4819 4
0 2 13 57.1790 53.0886 9
0 -2 -14 889.899 96.8286 4
0 2 14 765.081 99.1096 9
0 2 15 608.532 94.1842 9
0 -2 -15 448.492 85.9925 4
0 -3 14 1654.77 165.048 1
0 3 -13 234.957 64.6887 4
0 -3 13 100.306 56.9583 9
0 3 -12 49.5201 47.3537 4
0 -3 12 83.7915 55.9912 9
0 3 -11 -23.6123 44.4947 4
0 -3 11 22.3919 46.0604 9
0 3 -10 206.220 56.6307 4
0 -3 10 176.819 58.8518 9
0 -3 9 7372.74 245.941 9
0 3 -9 7736.80 247.301 4
0 3 -8 29625.6 538.584 4
0 -3 8 29558.9 536.390 9
0 3 -7 2706.87 129.432 4
0 -3 7 2710.49 128.449 9
0 3 -6 5494.84 176.482 4
0 -3 6 5717.32 177.797 9
0 3 -5 13762.0 287.946 4
0 -3 5 13674.1 283.138 9
0 3 -4 7278.45 185.924 4
0 -3 4 7386.86 183.450 9
0 -3 3 42701.9 590.251 9
0 3 -3 41990.5 596.634 4
0 3 -2 26520.8 400.533 4
0 -3 2 26529.8 394.172 9
0 -3 1 13821.7 193.423 8
0 3 -1 14203.2 242.390 4
0 -3 1 13974.8 237.357 9
0 3 -1 13601.1 197.654 8
0 3 -1 13854.2 198.662 3
0 3 0 340.336 30.0980 3
0 3 0 288.365 34.7300 4
0 -3 0 298.994 26.8255 8
0 3 0 316.968 34.8907 7
0 -3 0 297.714 33.3423 9
0 3 1 11175.1 197.511 3
0 3 1 10939.8 184.201 7
0 -3 -1 10695.4 189.771 8
0 3 1 11235.9 198.949 4
0 3 2 32763.7 462.178 3
0 3 2 32273.9 413.307 7
0 3 2 32064.7 446.721 4
0 -3 -2 32375.5 454.112 8
0 3 3 46461.3 638.114 3
0 3 3 45986.7 559.878 7
0 -3 -3 46663.8 559.966 7
0 -3 -3 46186.3 628.540 8
0 3 4 15724.0 219.479 7
0 -3 -4 14976.7 254.393 6
0 3 4 15838.5 219.590 5
0 3 4 16023.2 298.491 3
0 -3 -4 15741.1 219.723 7
0 -3 -4 15719.3 288.180 8
0 -3 -5 6493.51 147.132 6
0 3 5 6530.72 120.457 7
0 3 5 6919.08 186.673 3
0 -3 -5 6501.40 175.943 8
0 -3 -6 39777.2 551.548 6
0 -3 -6 40744.9 608.720 8
0 3 6 40459.1 625.420 3
0 3 6 40232.5 514.654 7
0 -3 -7 2666.70 119.047 8
0 3 7 2400.37 78.1017 7
0 3 7 2596.98 123.131 3
0 -3 -7 2542.22 94.1420 6
0 3 8 1655.94 105.031 3
0 -3 -8 2007.19 107.050 8
0 3 8 1926.52 76.5025 7
0 -3 -8 2072.91 89.0851 6
0 3 9 3552.04 113.622 7
0 -3 -9 3754.82 153.968 8
0 3 9 3576.19 160.985 3
0 -3 -9 3679.40 127.852 6
0 3 10 472.392 67.1847 3
0 -3 -10 408.672 59.0873 8
0 -3 -10 452.100 50.5886 6
0 -3 -11 635.631 72.8007 8
0 -3 -11 858.049 70.2010 6
0 3 11 773.903 84.4686 3
0 3 12 15318.8 405.544 3
0 -3 -12 15775.8 379.655 8
0 -3 -13 517.305 71.4882 8
0 -3 -13 425.597 71.3135 4
0 3 13 361.020 67.5016 3
0 -3 -14 497.380 76.7690 8
0 3 14 713.823 94.1527 3
0 -3 -14 656.569 87.9463 4
0 -3 -15 2593.43 168.826 4
0 -4 13 5912.37 269.662 9
0 4 -13 6425.07 282.795 4
0 -4 13 6827.76 315.706 1
0 -4 12 1102.85 117.969 9
0 4 -12 1116.93 113.625 4
0 -4 11 182.815 57.2251 9
0 4 -11 136.181 53.8653 4
0 4 -10 1671.02 126.515 4
0 -4 10 1596.69 126.377 9
0 4 -9 6492.84 235.745 4
0 -4 9 6812.94 241.382 9
0 -4 8 5327.63 198.027 9
0 4 -8 4945.35 195.224 4
0 -4 7 7816.83 234.872 9
0 4 -7 8063.15 241.834 4
0 -4 6 2706.59 127.481 9
0 4 -6 2914.21 133.224 4
0 4 -5 1979.63 106.485 4
0 -4 5 2039.66 103.087 9
0 -4 4 9250.93 224.213 9
0 4 -4 9593.93 233.070 4
0 4 -3 67648.3 907.035 4
0 -4 3 67428.3 897.247 9
0 4 -2 17842.5 243.233 3
0 -4 2 18493.3 317.624 9
0 -4 2 18043.8 234.341 8
0 4 -2 17259.8 243.622 8
0 4 -2 17873.9 323.570 4
0 4 -1 68.3084 18.1255 3
0 -4 1 132.083 20.7607 8
0 4 -1 131.398 34.0493 4
0 -4 1 84.8100 30.9172 9
0 4 0 11666.1 229.126 4
0 -4 0 11506.5 199.018 8
0 4 0 11291.9 204.952 3
0 -4 0 11873.8 227.051 9
0 4 1 22583.6 341.841 7
0 -4 -1 21937.4 341.191 8
0 4 1 23249.2 360.917 4
0 4 1 22052.2 350.045 3
0 -4 -2 17896.2 304.866 8
0 4 2 18020.3 304.337 4
0 4 2 17750.6 311.547 3
0 4 2 17803.0 275.592 7
0 4 3 278.179 43.3191 3
0 -4 -3 224.294 37.5140 8
0 -4 -3 267.732 27.8500 5
0 4 3 277.604 28.2477 7
0 -4 -4 2890.98 113.521 8
0 4 4 2802.04 118.228 3
0 4 4 2654.12 73.1653 7
0 4 5 1302.10 48.4515 7
0 -4 -5 1264.67 79.2066 8
0 4 5 1192.98 81.6412 3
0 -4 -5 1289.93 68.2805 6
0 4 6 6204.85 196.287 3
0 -4 -6 5837.41 153.304 6
0 4 6 6002.38 118.795 7
0 -4 -6 5870.16 182.852 8
0 -4 -7 1586.98 96.9068 8
0 -4 -7 1516.98 76.9547 6
0 4 7 1622.99 103.303 3
0 4 7 1614.98 59.3048 7
0 4 8 1063.72 93.6233 3
0 -4 -8 758.812 59.0305 6
0 4 8 784.881 46.5753 7
0 -4 -8 1037.64 86.1026 8
0 4 9 8916.75 274.363 3
0 -4 -9 9019.58 215.586 6
0 -4 -9 8984.69 261.135 8
0 4 10 553.953 73.5892 3
0 -4 -10 586.379 55.4803 6
0 -4 -10 674.323 74.4050 8
0 -4 -11 707.760 81.2426 8
0 4 11 458.376 73.0036 3
0 4 12 649.272 87.2436 3
0 -4 -12 687.534 82.7874 8
0 -4 -13 -33.7531 45.9447 8
0 4 13 93.2614 57.3864 3
0 -4 -14 -14.0001 44.6384 4
0 4 14 62.7720 53.3124 3
0 -4 -14 74.6804 46.5538 8
0 4 15 392.039 84.8642 1
0 -4 -15 522.121 81.1055 4
0 4 15 451.388 84.9181 3
0 -5 13 583.669 102.450 1
0 -5 12 1344.54 140.630 1
0 5 -12 1585.48 141.593 4
0 -5 12 1271.11 128.256 9
0 -5 11 2604.71 171.618 9
0 5 -11 2492.85 166.784 4
0 5 -10 526.136 83.4622 4
0 -5 10 634.366 90.7797 9
0 -5 9 136.340 52.6052 9
0 5 -9 161.157 55.4102 4
0 5 -8 11879.2 332.410 4
0 -5 8 11908.9 325.418 9
0 -5 7 5918.15 210.077 9
0 5 -7 6052.17 217.337 4
0 -5 6 3180.79 144.698 9
0 5 -6 2935.32 144.384 4
0 5 -5 2475.46 124.756 4
0 -5 5 2363.18 120.282 9
0 -5 4 2828.16 126.687 9
0 5 -4 2921.05 131.201 4
0 -5 3 14487.8 288.960 9
0 5 -3 14545.3 300.789 4
0 -5 2 13399.7 279.810 9
0 5 -2 13701.3 211.711 3
0 5 -2 13566.2 290.970 4
0 -5 2 13475.6 200.555 8
0 -5 1 5089.29 154.731 9
0 5 -1 5024.69 122.820 3
0 -5 1 5133.49 115.802 8
0 5 -1 5315.65 160.668 4
0 -5 1 5114.19 105.073 1
0 5 0 1003.70 60.3641 3
0 -5 0 983.219 55.2336 8
0 5 0 925.561 69.8880 4
0 -5 0 1046.81 72.7700 9
0 -5 -1 6.33358 21.6328 8
0 5 1 -22.6078 26.0407 7
0 5 1 17.1185 29.7642 4
0 5 1 18.9441 25.0143 3
0 5 2 10649.6 237.775 3
0 5 2 10755.4 236.290 4
0 5 2 10883.4 212.255 7
0 -5 -2 11194.6 232.269 8
0 5 3 81063.5 1049.92 3
0 -5 -3 78853.5 968.114 5
0 5 3 80057.4 1027.55 4
0 -5 -3 77065.7 1028.11 8
0 5 3 78265.7 972.762 7
0 5 4 6250.23 133.433 1
0 -5 -4 6456.62 184.504 8
0 5 4 6033.31 134.259 7
0 -5 -4 6374.56 136.020 5
0 5 4 6123.02 189.083 3
0 5 5 66.3400 32.3353 3
0 -5 -5 96.4241 32.6956 8
0 5 5 85.0805 19.8054 7
0 -5 -6 1029.09 79.1473 8
0 5 6 1058.94 48.7453 7
0 5 6 1114.53 88.1800 3
0 -5 -6 1100.10 69.2666 6
0 5 7 256.163 53.8521 3
0 5 7 309.773 29.1894 7
0 -5 -7 331.913 42.4677 6
0 -5 -7 320.038 49.4589 8
0 5 8 47784.8 804.072 3
0 -5 -8 47739.7 773.625 8
0 -5 -8 50042.4 703.442 6
0 5 9 37.0671 37.4745 3
0 -5 -9 31.8571 27.8087 6
0 -5 -9 -7.81028 35.9426 8
0 -5 -10 5659.34 219.369 8
0 -5 -10 5778.84 177.258 6
0 5 10 5603.67 228.988 3
0 5 11 482.385 75.9960 3
0 -5 -11 591.670 78.2658 8
0 5 12 2333.43 159.261 3
0 -5 -12 1987.60 137.312 8
0 -5 -13 -13.2968 42.3196 8
0 5 13 20.1442 43.8899 3
0 -5 -14 295.032 65.6424 8
0 5 14 370.728 78.5739 3
0 5 14 330.966 80.1784 1
0 5 15 340.843 76.1694 3
0 5 15 601.133 100.339 1
0 -5 -15 500.147 83.6475 8
0 -6 12 2424.69 183.238 1
0 6 -11 4773.02 239.161 4
0 -6 11 4885.74 247.237 1
0 -6 11 4244.27 225.651 9
0 -6 10 307.204 66.8817 1
0 -6 10 241.934 67.5536 9
0 6 -10 43.4201 48.2335 4
0 -6 9 1514.77 125.756 1
0 6 -9 1570.83 130.792 4
0 -6 9 1446.39 120.304 9
0 -6 8 336.248 68.5842 9
0 6 -8 377.757 70.2531 4
0 -6 7 468.757 69.9246 9
0 6 -7 652.005 81.1804 4
0 6 -6 340.859 67.8500 4
0 -6 6 314.537 57.0556 9
0 6 -5 3178.18 154.848 4
0 -6 5 2799.39 138.738 9
0 -6 4 272.372 50.1344 9
0 6 -4 343.606 57.4021 4
0 -6 3 860.151 72.8415 9
0 -6 3 789.681 54.1055 1
0 6 -3 773.743 74.8078 4
0 6 -2 9467.60 177.457 3
0 -6 2 9630.08 185.415 1
0 -6 2 9272.39 239.577 9
0 -6 2 9593.95 166.250 8
0 6 -2 9519.09 251.862 4
0 -6 1 3974.76 145.960 9
0 6 -1 3844.91 114.738 3
0 -6 1 3571.34 84.0497 1
0 -6 1 3949.26 107.110 8
0 6 -1 3983.85 150.599 4
0 6 0 4132.45 154.418 4
0 6 0 4366.39 137.792 3
0 -6 0 4313.27 153.712 9
0 -6 0 4341.99 126.894 8
0 -6 -1 2315.94 95.6693 8
0 6 1 2283.14 102.090 3
0 6 1 2118.13 106.477 4
0 -6 -1 2101.41 102.830 9
0 -6 -2 128.378 31.4484 8
0 6 2 146.446 39.2890 4
0 6 2 74.4054 23.8796 7
0 6 2 127.194 34.1636 3
0 6 3 10029.4 243.049 4
0 -6 -3 10267.4 244.276 8
0 6 3 10169.7 255.979 3
0 6 3 9853.88 208.396 7
0 6 4 3324.93 105.147 7
0 -6 -4 3307.92 134.881 8
0 6 4 3050.66 80.2232 1
0 -6 -4 3280.03 102.772 5
0 6 4 3182.29 142.023 3
0 6 5 1139.19 91.1449 3
0 6 5 1268.53 59.8583 1
0 6 5 1018.90 56.7354 7
0 -6 -5 1238.43 86.8188 8
0 -6 -6 78.2349 38.8024 8
0 6 6 77.6253 22.5553 7
0 -6 -6 29.6761 30.2288 6
0 6 6 80.1325 41.9690 3
0 6 6 35.7321 23.1099 1
0 -6 -7 18841.3 364.356 6
0 -6 -7 19113.4 414.382 8
0 6 7 19709.1 439.256 3
0 6 8 66.7267 44.5617 3
0 -6 -8 210.787 42.1710 6
0 -6 -8 146.430 50.5626 8
0 -6 -9 27673.0 555.042 8
0 6 9 28268.2 585.680 3
0 -6 -9 27736.1 476.401 6
0 -6 -10 8229.86 224.776 6
0 6 10 7937.72 290.884 3
0 -6 -10 8209.39 278.281 8
0 6 11 43.0209 45.3819 3
0 -6 -11 33.3768 43.1382 8
0 6 12 93.7875 52.1111 1
0 6 12 -22.4609 44.6734 3
0 -6 -12 -27.0940 46.2481 8
0 6 13 417.887 77.1235 1
0 -6 -13 333.367 71.6341 8
0 6 13 284.867 70.0734 3
0 6 14 2026.00 168.758 3
0 6 14 2043.36 165.545 1
0 -6 -14 1982.76 150.137 8
0 6 15 160.357 62.9774 3
0 6 15 124.235 61.1096 1
0 -6 -15 229.218 72.9830 8
0 -7 10 1116.80 125.437 9
0 7 -10 1155.01 122.298 4
0 -7 9 409.948 79.0284 9
0 7 -9 721.821 97.8183 4
0 7 -8 489.209 83.4715 4
0 -7 8 393.479 71.1622 9
0 7 -7 547.204 80.1539 4
0 -7 7 540.765 77.6533 9
0 -7 6 6563.19 237.415 9
0 7 -6 6878.25 252.724 4
0 -7 5 129.030 50.1847 9
0 7 -5 24.5953 39.8860 4
0 -7 4 321.109 58.4650 9
0 7 -4 257.899 59.9601 4
0 -7 3 -17.4895 36.7284 9
0 7 -3 -29.0296 39.5069 4
0 -7 2 15858.9 348.170 9
0 7 -2 15262.8 357.748 4
0 -7 1 41523.7 568.449 8
0 7 -1 41165.4 670.585 4
0 -7 1 41521.2 659.292 9
0 7 -1 40839.0 590.909 3
0 7 0 2340.26 106.683 3
0 -7 0 1952.85 114.025 9
0 7 0 1788.36 113.203 4
0 -7 0 2014.64 90.8176 8
0 -7 -1 9373.40 220.962 8
0 -7 -1 9381.97 246.124 9
0 7 1 9248.60 234.794 3
0 7 1 9740.44 255.503 4
0 7 2 277.625 49.7400 4
0 7 2 316.640 48.3199 3
0 -7 -2 244.805 40.6533 8
0 -7 -3 2855.50 126.362 8
0 7 3 2856.08 130.696 4
0 7 3 2565.49 129.309 3
0 7 4 46.0359 26.9375 7
0 -7 -4 83.6220 37.5150 8
0 -7 -4 19.2027 23.9697 5
0 7 4 24.6991 31.1269 3
0 -7 -5 57.6359 28.3752 5
0 -7 -5 66.2133 43.3048 8
0 7 5 72.2677 40.1102 3
0 7 5 61.3707 24.7010 7
0 7 6 4594.49 195.798 3
0 -7 -6 4079.41 173.755 8
0 -7 -7 106.481 44.2239 8
0 -7 -7 60.9043 36.9305 6
0 7 7 187.821 54.5313 3
0 7 8 26662.3 470.952 1
0 -7 -8 27821.5 553.666 8
0 7 8 26817.8 574.416 3
0 -7 -8 27212.3 484.607 6
0 7 9 39257.1 649.146 1
0 -7 -9 38878.7 715.219 8
0 -7 -9 38863.2 634.093 6
0 7 9 40379.2 756.712 3
0 -7 -10 9982.33 267.644 6
0 -7 -10 11380.9 340.180 8
0 7 10 10657.9 298.782 1
0 7 10 11054.4 358.940 3
0 -7 -11 136.654 50.3540 8
0 7 11 74.1846 49.4289 3
0 7 12 575.067 94.2646 3
0 -7 -12 749.507 94.8215 8
0 7 13 198.968 64.6527 3
0 -7 -13 218.732 62.5448 8
0 7 14 2290.91 185.965 3
0 -7 -14 2516.77 176.123 8
0 8 -9 645.591 99.0019 4
0 -8 9 496.932 86.9175 9
0 8 -8 821.770 108.775 4
0 -8 8 865.760 102.551 9
0 -8 7 1004.76 106.608 9
0 8 -7 651.059 93.4754 4
0 -8 6 2949.93 167.038 9
0 8 -6 2951.74 174.710 4
0 -8 5 3333.76 170.718 9
0 8 -5 3673.82 188.733 4
0 8 -4 1108.24 107.241 4
0 -8 4 847.755 90.3878 9
0 8 -3 3190.32 166.721 4
0 -8 3 3229.11 159.524 9
0 -8 2 22139.6 455.754 9
0 8 -2 22370.8 474.672 4
0 -8 1 7.56491 37.6438 9
0 8 -1 -0.77164 44.3894 4
0 -8 0 10680.7 287.307 9
0 8 0 10642.9 293.705 4
0 8 0 10875.2 257.921 3
0 -8 0 10938.2 239.434 8
0 8 1 5629.99 203.221 4
0 -8 -1 5477.97 170.677 8
0 8 1 5481.30 183.815 3
0 -8 -1 5317.51 194.050 9
0 8 2 957.867 87.6202 4
0 -8 -2 941.607 81.9401 9
0 -8 -2 1050.32 79.7861 8
0 8 2 942.797 82.3936 3
0 -8 -3 655.188 69.6493 8
0 8 3 526.974 66.5337 3
0 8 3 665.890 73.4000 4
0 8 4 1643.24 115.657 3
0 -8 -4 1640.23 107.608 8
0 -8 -4 1507.28 86.4949 5
0 -8 -5 1919.76 120.632 8
0 -8 -5 1730.11 88.7415 5
0 8 5 1775.09 123.903 3
0 -8 -6 35.4623 36.8316 8
0 8 6 -14.9836 40.0478 3
0 8 7 5876.90 240.737 3
0 -8 -7 5580.81 221.724 8
0 8 8 3788.09 201.709 3
0 -8 -8 3965.87 191.187 8
0 -8 -8 3698.85 160.493 6
0 -8 -9 3793.04 192.871 8
0 -8 -9 3380.54 153.534 6
0 8 9 3523.36 201.050 3
0 8 10 78.0360 49.9818 3
0 -8 -10 160.362 65.8436 8
0 -8 -11 1644.11 137.105 8
0 8 11 1469.84 142.583 3
0 8 12 144.199 65.3483 3
0 -8 -12 149.869 62.3147 8
0 -8 -13 3297.51 203.913 8
0 8 13 3372.05 223.633 3
0 -9 8 1577.70 141.758 9
0 9 -8 1481.07 147.353 4
0 -9 7 82.7844 59.1565 9
0 9 -7 1.91965 51.5301 4
0 -9 6 629.044 91.0808 9
0 9 -6 662.141 94.6258 4
0 9 -5 126.288 53.1344 4
0 -9 5 88.0481 49.4519 9
0 9 -4 251.886 64.4755 4
0 -9 4 377.382 74.5851 9
0 -9 3 2393.71 144.921 9
0 9 -3 2452.42 156.632 4
0 -9 2 3198.24 164.699 9
0 9 -2 3184.73 171.720 4
0 9 -1 16931.9 413.619 4
0 -9 1 16502.2 397.230 9
0 -9 0 23784.1 487.681 9
0 9 0 23218.4 496.814 4
0 -9 -1 31142.7 525.719 8
0 9 1 31796.8 600.053 4
0 -9 -1 31589.4 586.912 9
0 9 1 31145.2 554.160 3
0 9 2 1174.22 94.7998 3
0 -9 -2 997.668 89.9182 9
0 -9 -2 1138.99 85.5484 8
0 9 2 1065.69 98.1058 4
0 9 3 332.464 60.9766 3
0 9 3 290.783 62.3056 4
0 -9 -3 328.438 57.9146 8
0 9 4 187.868 55.6391 3
0 -9 -4 131.352 38.6752 5
0 -9 -4 176.960 48.5892 8
0 9 5 2473.14 152.118 3
0 -9 -5 2720.26 149.836 8
0 -9 -6 2077.91 136.800 8
0 9 6 1873.24 139.264 3
0 9 7 201.646 60.7437 3
0 -9 -7 362.585 69.9814 8
0 9 8 2091.40 155.655 3
0 -9 -8 1780.64 121.116 6
0 -9 -8 1677.08 131.215 8
0 -9 -9 2849.87 153.779 6
0 9 9 3640.84 210.330 3
0 -9 -9 3585.97 196.665 8
0 9 10 -59.7724 58.2721 3
0 -9 -10 29.2581 48.3356 8
0 9 11 640.005 101.979 3
0 -9 -11 694.127 101.381 8
0 9 12 853.274 119.094 3
0 -9 -12 769.249 114.276 8
0 10 -6 1396.71 140.137 4
0 -10 6 1534.05 136.998 9
0 -10 5 1371.12 126.439 9
0 10 -5 1353.04 134.281 4
0 10 -4 802.203 106.019 4
0 -10 4 930.654 101.823 9
0 10 -3 -1.40991 47.2091 4
0 -10 3 12.0904 45.5006 9
0 -10 2 1137.04 109.983 9
0 10 -2 1148.39 113.657 4
0 -10 1 152.043 47.4458 9
0 10 -1 168.570 61.3793 4
0 10 0 1691.99 131.261 4
0 -10 0 1400.51 116.964 9
0 10 1 3088.45 172.321 4
0 -10 -1 2984.02 164.002 9
0 -10 -2 5485.95 225.290 9
0 10 2 5794.80 234.049 4
0 -10 -2 5528.50 197.649 8
0 10 2 5849.53 217.899 3
0 10 3 115.601 45.9537 4
0 10 3 90.3892 40.9685 3
0 -10 -3 135.180 44.7888 8
0 -10 -3 213.006 59.6532 9
0 10 4 10611.2 328.429 3
0 -10 -4 10178.9 298.673 8
0 -10 -5 3383.51 173.544 8
0 10 5 3672.70 194.109 3
0 10 6 2267.98 158.630 3
0 -10 -6 2136.07 143.932 8
0 -10 -7 5538.49 239.391 8
0 10 7 6235.16 272.595 3
0 10 8 28.9858 47.1872 3
0 -10 -8 90.8898 57.8258 6
0 -10 -8 -11.9514 45.5187 8
0 10 9 272.131 76.2480 3
0 -10 -9 210.960 68.4067 8
0 10 10 34.9256 52.4951 3
0 -10 -10 184.682 70.3952 8
0 10 11 3599.54 232.358 3
0 -10 -11 4181.26 231.119 8
0 11 -4 2394.18 178.940 4
0 -11 4 2241.20 165.857 9
0 -11 3 805.263 107.704 9
0 11 -3 785.258 107.498 4
0 -11 2 72.2298 58.2672 9
0 11 -2 -44.3061 49.5706 4
0 11 -1 -55.7991 49.2087 4
0 -11 1 22.2743 45.7938 9
0 -11 0 543.084 86.8479 9
0 11 0 476.373 83.9896 4
0 11 1 2594.42 170.679 4
0 -11 -1 2695.41 165.002 9
0 -11 -2 38.6776 45.4432 9
0 11 2 87.5955 50.0881 4
0 11 3 224.894 68.5435 4
0 -11 -3 211.953 59.0860 9
0 -11 -4 -9.29936 43.1229 9
0 11 4 11.9813 39.8335 3
0 -11 -4 110.219 51.3404 8
0 11 5 634.508 90.9903 3
0 -11 -5 659.363 84.1907 8
0 11 6 224.847 66.2059 3
0 -11 -6 194.841 53.5881 8
0 11 7 1633.46 145.244 3
0 -11 -7 1422.72 126.721 8
0 -11 -8 107.518 62.2997 8
0 -11 -8 106.117 52.6763 6
0 11 8 -1.75120 54.5200 3
0 -11 -9 2579.67 179.229 8
0 11 9 2746.31 202.459 3
0 -11 -10 509.678 92.5975 8
0 11 10 583.766 103.232 3
0 12 -2 5965.20 288.028 4
0 -12 2 6563.63 280.016 9
0 -12 1 137.960 64.4948 9
0 12 -1 -39.4787 58.7861 4
0 12 0 610.704 97.8134 4
0 -12 0 747.966 98.4343 9
0 -12 -1 1966.58 150.326 9
0 12 1 2347.16 170.286 4
0 12 2 641.403 98.4882 4
0 -12 -2 757.345 97.3703 9
0 -12 -3 515.464 86.6892 9
0 12 3 230.484 65.7870 4
0 -12 -4 4916.87 233.697 9
0 -12 -5 185.892 63.5530 9
0 -12 -5 91.9625 49.3066 8
0 12 5 117.270 60.4247 3
0 -12 -6 1943.48 149.059 8
0 12 6 1687.30 152.069 3
0 12 7 165.397 70.8361 3
0 -12 -7 12.5257 46.7413 8
0 -12 -8 2232.84 165.145 8
0 12 8 1952.66 172.227 3
0 13 2 890.840 116.167 4
0 -13 -2 693.709 102.088 9
0 13 3 1042.69 127.951 4
0 -13 -3 943.211 113.616 9
0 -13 -4 139.692 65.5687 9
0 -13 -5 1146.81 119.063 9
0 -13 -6 1520.95 139.606 9
0 -13 -7 2022.93 160.561 9
0 13 7 2228.09 183.365 3
-1 12 7 2114.94 178.186 3
1 -12 -7 1941.90 159.189 8
-1 12 6 915.429 116.916 3
1 -12 -6 922.861 112.688 8
1 -12 -4 1926.20 159.113 9
1 -12 -3 2862.39 192.720 9
-1 11 9 33.6767 57.6164 3
-1 11 8 570.355 99.5648 3
1 -11 -8 440.847 82.8433 8
-1 11 7 1635.92 152.945 3
1 -11 -7 1331.48 132.371 8
-1 11 6 2992.68 194.162 3
1 -11 -6 3092.64 187.100 8
-1 11 5 115.950 55.0525 3
1 -11 -5 157.095 55.9842 8
1 -11 -4 1684.00 146.244 9
1 -11 -4 1619.14 128.187 8
1 -11 -3 67.9097 57.5519 9
-1 11 3 35.6923 59.5752 4
1 -11 -2 368.353 76.5119 9
-1 11 2 421.515 86.1512 4
1 -11 -1 456.486 89.6761 9
-1 11 1 511.202 91.4870 4
-1 11 0 1079.07 123.935 4
1 -11 0 1082.82 122.021 9
-1 11 -1 3479.02 214.497 4
1 -11 1 3237.53 196.704 9
1 -11 2 72.9739 65.0367 9
-1 11 -2 124.115 66.1539 4
-1 10 10 3206.55 217.392 3
1 -10 -10 3567.13 219.677 8
-1 10 9 90.3377 60.5805 3
1 -10 -9 99.1791 67.0472 8
1 -10 -8 644.094 96.8781 8
-1 10 8 724.723 104.147 3
1 -10 -7 5349.71 247.015 8
-1 10 7 5328.34 256.691 3
1 -10 -6 300.289 67.3300 8
-1 10 6 370.680 75.1593 3
1 -10 -5 2668.50 163.349 8
-1 10 5 3114.01 182.221 3
-1 10 4 1379.81 122.071 3
1 -10 -4 1371.49 115.604 8
1 -10 -3 7737.34 263.154 8
-1 10 3 7906.36 277.588 3
1 -10 -3 7539.83 283.585 9
-1 10 3 7357.64 285.299 4
1 -10 -2 45.1557 46.6332 9
-1 10 2 62.5020 54.6527 4
1 -10 -1 498.336 85.4266 9
-1 10 1 417.200 81.4370 4
-1 10 0 3635.79 203.371 4
1 -10 0 3709.98 199.373 9
1 -10 1 324.786 78.0183 9
-1 10 -1 333.672 80.0558 4
1 -10 2 137.287 57.4752 9
-1 10 -2 29.3126 48.9752 4
1 -10 3 6953.68 283.295 9
-1 10 -3 6996.52 298.681 4
-1 10 -4 262.294 79.0287 4
1 -10 4 322.862 75.7148 9
-1 10 -5 2444.28 184.352 4
1 -9 -11 1844.46 158.228 8
-1 9 11 1692.54 158.900 3
-1 9 10 776.382 108.411 3
1 -9 -10 712.841 100.649 8
-1 9 9 1160.11 123.437 3
1 -9 -9 1335.23 130.049 8
1 -9 -8 1990.39 152.475 8
-1 9 8 1704.89 145.000 3
-1 9 7 965.165 108.650 3
1 -9 -7 906.801 103.553 8
-1 9 6 1577.32 133.401 3
1 -9 -6 1797.60 135.110 8
-1 9 5 1060.46 110.551 3
1 -9 -5 1146.49 107.258 8
-1 9 4 202.664 53.6095 3
1 -9 -4 165.518 55.9389 8
-1 9 3 16.6648 43.1888 4
-1 9 3 -3.03229 37.0776 3
1 -9 -3 40.9624 35.5688 8
1 -9 -2 1998.46 122.439 8
-1 9 2 1597.46 115.124 3
1 -9 -2 1584.04 122.336 9
-1 9 2 1552.33 127.322 4
-1 9 1 2530.57 159.386 4
1 -9 -1 2527.83 155.115 9
1 -9 -1 2656.71 133.278 8
-1 9 0 2694.74 163.671 4
1 -9 0 2549.79 156.948 9
-1 9 -1 4601.07 218.966 4
1 -9 1 4624.26 214.300 9
-1 9 -2 212.434 62.5528 4
1 -9 2 175.074 59.6074 9
-1 9 -3 4.43584 51.1930 4
1 -9 3 37.0006 53.9284 9
1 -9 4 778.497 94.7330 9
-1 9 -4 977.691 109.310 4
-1 9 -5 2454.92 172.967 4
1 -9 5 2402.35 163.559 9
-1 9 -6 463.567 91.8476 4
1 -9 6 429.291 85.6558 9
1 -8 -12 7536.79 316.742 8
-1 8 12 7114.77 324.340 3
1 -8 -11 90.0808 61.0052 8
-1 8 11 -7.83717 53.0416 3
1 -8 -10 1976.75 154.967 8
-1 8 10 1737.77 154.644 3
-1 8 9 1.35054 50.8547 3
1 -8 -9 -81.9973 53.6383 8
1 -8 -8 621.748 89.7218 8
-1 8 8 697.166 96.1199 3
-1 8 7 148.543 50.0212 3
1 -8 -7 220.418 61.3405 8
-1 8 6 4280.25 206.288 3
1 -8 -6 4495.48 205.097 8
1 -8 -5 3884.07 183.466 8
-1 8 5 3591.79 181.506 3
1 -8 -4 4455.19 189.664 8
-1 8 4 4554.07 198.418 3
1 -8 -3 10548.5 294.623 8
-1 8 3 10461.3 310.753 4
-1 8 3 10979.4 307.868 3
1 -8 -2 1152.40 90.3500 8
-1 8 2 1033.05 97.9725 4
-1 8 2 1238.05 96.6781 3
1 -8 -1 15184.4 335.280 8
-1 8 1 14172.7 376.904 4
1 -8 -1 14214.0 366.738 9
-1 8 1 15054.9 344.076 3
1 -8 0 6132.01 190.096 8
-1 8 0 6554.57 200.957 3
-1 8 0 6003.38 236.723 4
1 -8 0 6351.52 232.465 9
-1 8 -1 797.522 96.1927 4
1 -8 1 899.541 90.7773 9
-1 8 -2 2921.09 166.185 4
1 -8 2 2874.77 161.885 9
1 -8 3 2997.32 164.758 9
-1 8 -3 3240.23 179.095 4
1 -8 4 386.017 69.7762 9
-1 8 -4 278.746 64.4608 4
-1 8 -5 382.527 71.6548 4
1 -8 5 424.276 76.7784 9
-1 8 -6 1152.53 120.401 4
1 -8 6 993.993 110.092 9
-1 8 -7 1672.68 151.023 4
1 -8 7 1604.69 137.119 9
-1 8 -8 830.374 115.007 4
1 -8 8 1056.82 118.823 9
-1 7 13 190.972 62.8282 3
1 -7 -13 479.594 87.0862 8
-1 7 12 1325.93 137.205 3
1 -7 -12 1208.24 122.728 8
-1 7 11 1408.24 134.566 3
1 -7 -11 1166.72 121.284 8
1 -7 -10 1272.44 120.931 8
-1 7 10 1002.50 113.391 3
-1 7 9 343.323 68.9576 3
1 -7 -9 302.554 71.0421 8
-1 7 8 15706.2 425.890 3
1 -7 -8 15099.6 408.322 8
-1 7 7 2273.81 148.902 3
1 -7 -7 2393.21 148.166 8
1 -7 -6 -33.8044 40.0597 8
-1 7 6 33.0055 38.6649 3
1 -7 -5 3515.27 166.451 8
-1 7 5 3425.04 168.649 3
1 -7 -4 1101.16 92.3794 8
-1 7 4 1030.96 92.7198 3
-1 7 3 3.90327 37.1422 4
1 -7 -3 4.34576 34.2533 8
-1 7 3 44.9751 33.5839 3
-1 7 2 -6.48943 30.3405 3
1 -7 -2 30.6817 28.8024 8
-1 7 1 -23.0530 33.1710 3
1 -7 -1 36.4105 30.3755 8
-1 7 1 -56.3204 47.0195 4
-1 7 0 30768.2 513.818 3
1 -7 0 31639.9 511.863 8
-1 7 0 30171.4 572.167 4
1 -7 0 30243.3 563.564 9
1 -7 1 51556.3 824.390 9
-1 7 -1 52465.1 738.474 3
-1 7 -1 51664.8 837.162 4
1 -7 1 52479.8 735.659 8
1 -7 2 17262.8 396.180 9
-1 7 -2 17186.7 405.002 4
1 -7 3 1711.43 122.942 9
-1 7 -3 1690.12 125.165 4
-1 7 -4 5902.48 232.987 4
1 -7 4 6108.37 229.474 9
1 -7 5 661.429 88.3951 9
-1 7 -5 812.422 93.2551 4
-1 7 -6 341.820 70.5599 4
1 -7 6 245.195 62.4916 9
1 -7 7 1066.92 109.745 9
-1 7 -7 1042.52 112.124 4
-1 7 -8 159.713 62.8890 4
1 -7 8 148.375 58.7376 9
-1 7 -9 563.710 92.4747 4
1 -7 9 501.273 94.3882 9
1 -6 -14 5019.83 253.930 8
-1 6 14 5110.26 270.705 3
-1 6 14 4496.93 244.105 1
-1 6 13 2735.68 191.040 3
1 -6 -13 2764.17 182.561 8
-1 6 13 2655.74 177.049 1
-1 6 12 3330.83 188.364 1
1 -6 -12 3297.51 193.445 8
-1 6 12 3176.73 197.976 3
-1 6 11 401.428 80.1802 3
1 -6 -11 349.463 74.1914 8
-1 6 11 263.787 57.7679 1
-1 6 10 7519.65 258.215 1
-1 6 10 7690.59 294.065 3
1 -6 -10 7718.98 285.722 8
-1 6 9 272.179 69.6336 3
1 -6 -9 310.031 64.8265 8
-1 6 9 276.548 52.3435 1
-1 6 8 9321.91 257.847 1
-1 6 8 8559.60 296.273 3
1 -6 -8 9160.43 294.518 8
-1 6 7 10357.0 257.314 1
1 -6 -7 9927.33 303.246 8
-1 6 7 10606.3 317.413 3
-1 6 6 7189.79 246.887 3
1 -6 -6 6961.58 239.658 8
-1 6 6 7227.40 194.199 1
-1 6 5 145.504 45.5660 3
1 -6 -5 147.071 44.9343 8
-1 6 4 1062.53 57.4489 2
-1 6 4 1213.16 94.0193 3
1 -6 -4 1364.61 97.6075 8
-1 6 3 2000.07 114.867 4
1 -6 -3 1977.17 111.653 8
-1 6 3 1839.10 109.187 3
-1 6 3 1960.68 70.6416 2
-1 6 2 1104.08 85.6735 4
-1 6 2 1118.15 80.8621 3
-1 6 2 923.855 46.4220 2
1 -6 -2 1106.76 80.1190 8
-1 6 1 3207.87 145.690 4
-1 6 1 3046.22 128.893 3
1 -6 -1 3224.08 131.147 8
1 -6 0 2093.46 98.8427 8
1 -6 0 2041.27 116.098 9
-1 6 0 1913.31 96.5549 3
-1 6 0 2036.17 115.697 4
-1 6 -1 11785.7 301.145 4
-1 6 -1 11887.2 247.765 3
1 -6 1 11566.3 294.160 9
1 -6 1 12415.9 252.755 8
-1 6 -2 2962.23 100.661 3
-1 6 -2 2889.41 144.581 4
1 -6 2 2737.07 136.014 9
1 -6 2 2904.97 102.668 8
1 -6 3 24341.4 478.367 9
-1 6 -3 24966.0 496.054 4
-1 6 -4 1959.79 127.728 4
1 -6 4 2061.69 125.442 9
1 -6 5 124.601 51.0591 9
-1 6 -5 48.9575 42.6796 4
-1 6 -6 3785.67 185.357 4
1 -6 6 3659.99 172.546 9
-1 6 -7 4084.50 199.877 4
1 -6 7 4084.36 192.387 9
-1 6 -8 121.988 53.8317 4
1 -6 8 110.864 56.6182 9
1 -6 9 2111.11 149.366 9
-1 6 -9 2132.99 157.746 4
1 -6 10 334.042 74.6494 9
-1 6 -10 291.135 71.2410 4
-1 5 15 754.339 114.322 3
-1 5 15 688.706 107.806 1
1 -5 -15 602.684 95.2065 8
-1 5 14 2463.62 182.769 1
1 -5 -14 2683.15 180.581 8
-1 5 14 2599.74 185.298 3
-1 5 13 2163.07 165.805 3
-1 5 13 1801.63 150.095 1
1 -5 -13 2180.89 157.831 8
-1 5 12 610.151 91.3029 3
1 -5 -12 495.203 82.4143 8
-1 5 12 414.644 76.0937 1
1 -5 -11 568.929 81.2957 8
-1 5 11 661.522 88.5746 3
-1 5 11 541.306 80.1545 1
-1 5 10 216.899 65.4490 3
-1 5 10 75.0261 43.3691 1
1 -5 -10 102.063 49.2551 8
-1 5 9 14384.1 391.009 3
1 -5 -9 14012.7 376.156 8
-1 5 9 14600.0 357.820 1
-1 5 8 70053.6 1009.56 1
1 -5 -8 69263.3 1057.61 8
-1 5 8 69497.9 1074.21 3
-1 5 7 14823.8 375.598 3
-1 5 7 15589.6 334.860 1
1 -5 -7 15514.5 264.976 6
1 -5 -7 14896.4 370.398 8
-1 5 6 79.6516 39.7064 3
-1 5 6 104.950 32.9324 1
1 -5 -6 40.9476 37.9454 8
1 -5 -5 9336.54 263.330 8
-1 5 5 9363.70 264.668 3
-1 5 5 9361.56 216.744 1
1 -5 -4 1714.14 104.700 8
-1 5 4 1795.52 106.323 3
1 -5 -3 2269.95 115.432 8
-1 5 3 2173.97 111.917 3
-1 5 3 2294.92 80.3646 2
-1 5 2 9063.12 169.334 2
-1 5 2 8752.35 233.660 4
-1 5 2 8330.58 224.150 3
1 -5 -2 8756.03 228.114 8
-1 5 1 52.7434 33.9185 4
-1 5 1 52.1498 19.5070 2
1 -5 -1 33.8709 23.0337 8
-1 5 1 55.6256 26.4332 3
-1 5 0 13157.0 300.460 4
-1 5 0 13248.7 268.966 3
1 -5 0 13623.7 273.673 8
-1 5 -1 1771.81 102.349 4
1 -5 1 1703.22 81.0136 8
-1 5 -1 1693.02 78.7770 3
1 -5 1 1852.64 101.428 9
1 -5 2 23520.2 438.028 9
1 -5 2 23825.8 375.108 8
-1 5 -2 24611.0 368.321 3
-1 5 -2 23761.4 448.402 4
-1 5 -3 14631.4 238.625 3
1 -5 3 14537.5 247.049 8
1 -5 3 15183.3 329.829 9
-1 5 -3 14117.6 330.539 4
-1 5 -4 97.9080 43.6324 4
1 -5 4 129.215 42.7509 9
1 -5 5 332.030 58.4684 9
-1 5 -5 350.653 62.7375 4
-1 5 -6 144.086 51.9266 4
1 -5 6 158.940 51.8285 9
1 -5 7 6939.23 240.268 9
-1 5 -7 7536.18 256.622 4
1 -5 8 1389.12 112.755 9
-1 5 -8 1289.79 111.537 4
1 -5 9 834.034 93.7463 9
-1 5 -9 584.061 88.4407 4
-1 5 -10 168.527 54.3651 4
1 -5 10 45.3736 50.3287 9
1 -5 11 2523.16 168.965 9
-1 5 -11 2449.24 171.460 4
-1 4 15 236.380 65.2436 3
1 -4 -15 298.875 77.8777 8
-1 4 15 317.001 83.5325 1
-1 4 14 180.975 67.3038 1
-1 4 14 187.243 62.2144 3
1 -4 -14 301.626 72.6957 8
1 -4 -13 1736.59 138.620 8
-1 4 13 2150.49 162.404 1
-1 4 13 2013.65 154.975 3
1 -4 -12 327.969 66.3461 8
-1 4 12 368.769 74.7517 1
-1 4 12 422.826 74.5121 3
-1 4 11 169.205 53.8681 1
-1 4 11 47.1644 39.8205 3
1 -4 -11 191.891 57.1294 8
-1 4 10 132.945 47.1641 3
1 -4 -10 15.9788 41.5659 8
-1 4 10 48.3051 39.7604 1
1 -4 -9 2570.79 145.330 8
-1 4 9 2641.50 146.369 1
-1 4 9 2335.48 144.620 3
-1 4 8 40615.7 673.915 1
1 -4 -8 39109.0 689.204 8
-1 4 8 40780.2 707.097 3
1 -4 -7 39.9513 17.5277 6
-1 4 7 41.5968 40.3953 3
-1 4 7 51.0333 36.6985 1
1 -4 -7 38.0213 30.6202 8
1 -4 -6 18533.0 278.112 6
-1 4 6 17730.6 353.890 1
-1 4 6 18453.4 394.630 3
1 -4 -6 18089.8 388.581 8
-1 4 5 1694.13 86.7982 1
-1 4 5 1634.68 102.296 3
1 -4 -5 1446.59 94.9022 8
-1 4 4 3770.66 119.237 1
1 -4 -4 3602.59 143.135 8
-1 4 4 3654.50 144.165 3
-1 4 3 5298.64 170.623 3
1 -4 -3 5490.98 173.904 8
-1 4 2 17852.8 341.277 3
1 -4 -2 17729.6 339.609 8
-1 4 2 18316.1 284.684 2
-1 4 2 17693.5 342.330 4
-1 4 1 1400.57 78.0269 3
-1 4 1 1317.99 58.5731 2
1 -4 -1 1422.61 80.5311 8
-1 4 1 1490.26 87.4815 4
-1 4 0 9897.46 190.126 2
1 -4 0 10264.1 221.694 8
-1 4 0 10049.5 215.652 3
-1 4 0 10013.2 238.179 4
-1 4 -1 4077.59 117.521 3
1 -4 1 3857.30 137.725 9
1 -4 1 4030.00 122.881 8
-1 4 -1 4110.61 143.840 4
-1 4 -2 9448.47 235.369 4
-1 4 -2 9639.27 184.439 3
1 -4 2 9610.69 234.256 9
1 -4 2 9803.24 195.503 8
1 -4 3 4131.73 149.526 9
-1 4 -3 4449.69 106.096 3
1 -4 3 4487.01 114.118 8
-1 4 -3 4252.70 155.201 4
1 -4 4 6603.82 136.002 8
-1 4 -4 6847.23 206.034 4
1 -4 4 7204.04 203.945 9
-1 4 -5 118.198 39.5110 4
1 -4 5 188.349 46.8744 9
1 -4 6 2289.18 123.610 9
-1 4 -6 2074.57 119.781 4
1 -4 7 648.042 75.8223 9
-1 4 -7 445.937 68.6307 4
1 -4 8 113.263 51.1171 9
-1 4 -8 77.6030 46.1310 4
-1 4 -9 76.9076 46.3533 4
1 -4 9 33.4138 45.2064 9
-1 4 -10 1449.11 122.862 4
1 -4 10 1647.08 126.970 9
1 -4 11 623.380 87.3990 9
-1 4 -11 483.062 82.5420 4
1 -4 12 1875.20 151.261 9
-1 4 -12 2129.77 158.931 4
1 -3 -15 962.717 114.820 4
-1 3 15 736.572 112.406 1
-1 3 14 85.0308 52.8272 3
1 -3 -14 0.63233 43.2660 8
-1 3 14 80.1245 56.2038 1
-1 3 13 686.282 91.5228 3
-1 3 13 567.640 95.6625 1
1 -3 -13 834.544 97.3407 8
-1 3 12 889.886 104.537 1
-1 3 12 828.892 98.2363 3
1 -3 -12 935.767 96.3034 8
1 -3 -11 3116.96 164.408 8
-1 3 11 2966.50 167.371 3
-1 3 11 3069.76 176.893 1
-1 3 10 93.2424 44.2455 3
-1 3 10 57.8562 40.0226 1
1 -3 -10 91.6087 46.3617 8
-1 3 9 11308.4 318.724 1
1 -3 -9 11676.3 313.265 8
-1 3 9 11211.2 313.788 3
-1 3 8 55.6489 33.6337 1
-1 3 8 -19.2247 30.3867 3
1 -3 -8 58.0779 37.4686 8
1 -3 -7 26068.8 342.850 6
-1 3 7 26341.5 496.413 3
-1 3 7 26323.0 482.896 1
1 -3 -7 26341.2 491.131 8
1 -3 -6 1428.55 45.6486 6
-1 3 6 1378.28 93.3523 3
1 -3 -6 1471.49 96.2526 8
-1 3 6 1566.17 92.3984 1
1 -3 -5 3673.29 146.159 8
-1 3 5 3787.79 135.302 1
1 -3 -5 4014.14 84.6102 6
-1 3 5 3835.70 148.322 3
-1 3 4 2548.74 101.417 1
1 -3 -4 2476.46 114.259 8
-1 3 4 2497.99 113.718 3
1 -3 -3 1917.02 97.2072 8
1 -3 -3 1853.04 48.4829 7
-1 3 3 1861.29 96.7639 3
1 -3 -2 125697. 1522.82 8
-1 3 2 120381. 1511.26 3
-1 3 1 7324.68 181.567 4
-1 3 1 7511.47 179.756 3
1 -3 -1 7388.06 182.536 8
-1 3 1 7259.73 152.337 2
-1 3 0 73.7007 31.5574 4
-1 3 0 112.713 26.3947 2
-1 3 0 72.9140 25.5584 3
1 -3 0 122.310 28.8164 8
-1 3 -1 1474.56 64.8038 3
1 -3 1 1342.10 74.2987 9
1 -3 1 1488.44 68.5028 8
-1 3 -1 1409.47 77.2329 4
1 -3 2 21113.8 360.146 9
1 -3 2 21126.4 325.281 8
-1 3 -2 20899.6 313.807 3
-1 3 -2 21361.7 366.859 4
1 -3 3 19756.3 352.756 9
-1 3 -3 19722.9 359.440 4
1 -3 4 14880.0 299.186 9
-1 3 -4 14510.3 304.618 4
-1 3 -5 9944.49 246.456 4
1 -3 5 9840.50 240.755 9
-1 3 -6 488.964 60.3094 4
1 -3 6 612.394 60.8563 9
1 -3 7 1542.08 99.3702 9
-1 3 -7 1525.44 101.053 4
1 -3 8 8329.04 249.663 9
-1 3 -8 8432.39 255.117 4
1 -3 9 8469.87 262.416 9
-1 3 -9 8349.72 265.284 4
1 -3 10 1065.66 100.569 9
-1 3 -10 1150.27 105.011 4
-1 3 -11 440.902 76.0295 4
1 -3 11 432.518 74.8266 9
-1 3 -12 1913.14 146.119 4
1 -3 12 2138.48 152.384 9
-1 3 -13 1294.51 127.551 4
1 -3 13 878.714 109.012 9
-1 2 15 7.39490 48.7488 1
1 -2 -15 34.4585 50.6545 4
1 -2 -14 1003.75 106.212 4
-1 2 14 1137.61 130.158 1
-1 2 13 497.501 87.0167 1
-1 2 13 393.852 70.3923 3
1 -2 -13 400.412 65.8480 8
-1 2 12 94.7599 56.0123 1
-1 2 12 18.7294 35.9597 3
1 -2 -12 82.5172 38.5285 8
-1 2 11 639.821 79.2949 3
-1 2 11 594.971 89.1904 1
1 -2 -11 655.132 77.4680 8
1 -2 -10 1164.31 96.8641 8
-1 2 10 1066.54 101.499 1
-1 2 10 1084.22 94.2645 3
1 -2 -9 2184.22 123.084 8
-1 2 9 1868.82 116.728 3
-1 2 9 2115.39 132.925 1
1 -2 -8 9291.45 155.075 6
-1 2 8 9746.01 278.175 1
-1 2 8 9401.41 263.480 3
1 -2 -8 9451.63 260.390 8
-1 2 7 110.788 34.4619 3
-1 2 7 67.9822 35.3902 1
1 -2 -7 69.0423 11.7609 6
1 -2 -7 90.5739 31.5522 8
-1 2 6 4492.18 158.879 1
-1 2 6 4300.09 78.1488 5
1 -2 -6 4365.26 156.377 8
-1 2 6 4351.83 77.2980 7
-1 2 6 4406.34 159.684 3
-1 2 5 17916.7 229.044 7
1 -2 -5 20165.3 367.956 8
-1 2 5 19507.4 364.992 3
-1 2 5 19892.8 356.966 1
-1 2 4 66.8008 27.4999 1
-1 2 4 79.6015 32.9966 3
1 -2 -4 66.0534 31.1337 8
-1 2 3 7417.16 173.643 1
1 -2 -3 7370.67 110.223 7
-1 2 3 7206.09 185.182 3
1 -2 -3 7294.43 121.431 6
1 -2 -3 7277.17 188.984 8
1 -2 -3 7535.25 110.975 5
1 -2 -2 861.824 36.8121 7
1 -2 -2 950.696 62.7010 8
-1 2 2 839.911 58.0414 3
1 -2 -1 5878.26 150.327 8
-1 2 1 6005.16 133.796 2
-1 2 1 5740.97 145.301 3
-1 2 1 6003.39 144.871 4
1 -2 0 14584.7 254.529 8
-1 2 0 14514.3 240.185 2
-1 2 0 14217.3 247.461 3
-1 2 0 14574.2 254.370 4
-1 2 -1 4044.79 111.431 2
-1 2 -1 3750.96 116.221 6
-1 2 -1 4118.01 105.665 3
1 -2 1 4178.92 115.038 9
-1 2 -1 4074.25 117.023 4
-1 2 -2 6.11972 16.5344 3
-1 2 -2 29.2405 27.3150 4
-1 2 -2 8.94010 24.8758 6
1 -2 2 0.25184 22.5581 9
-1 2 -3 7465.18 192.266 6
-1 2 -3 7174.33 174.319 4
1 -2 3 7411.69 172.384 9
-1 2 -4 81438.9 1088.70 6
1 -2 4 82049.1 1048.04 9
-1 2 -4 82446.2 1055.01 4
-1 2 -5 2710.31 123.415 6
1 -2 5 2577.08 107.484 9
-1 2 -5 2390.42 105.131 4
-1 2 -6 1359.10 94.2759 6
1 -2 6 1277.43 81.0801 9
-1 2 -6 1261.22 81.1837 4
1 -2 7 3446.39 140.003 9
-1 2 -7 3595.71 159.093 6
-1 2 -7 3490.43 144.031 4
-1 2 -8 16062.3 359.025 4
-1 2 -8 16023.8 384.389 6
1 -2 8 17247.0 360.596 9
1 -2 9 17200.5 382.387 9
-1 2 -9 17133.0 412.984 6
-1 2 -9 17545.1 389.851 4
1 -2 10 7663.51 251.785 9
-1 2 -10 7437.59 267.423 6
-1 2 -10 7451.00 251.299 4
-1 2 -11 471.375 72.0891 4
1 -2 11 502.416 79.5422 9
-1 2 -12 66.7675 52.2038 4
1 -2 12 98.5320 57.4892 9
1 -2 13 1967.80 150.740 9
-1 2 -13 1859.00 144.155 4
1 -2 14 2745.63 184.189 9
-1 2 -14 3115.80 193.998 4
-1 1 14 5108.63 240.649 9
1 -1 -14 5009.02 234.193 4
-1 1 14 5385.88 281.698 1
-1 1 13 398.013 81.2591 1
1 -1 -13 469.830 76.6647 4
-1 1 13 470.232 81.9026 9
-1 1 12 96.0589 37.8350 3
-1 1 12 19.6586 50.4959 9
1 -1 -12 -47.3495 44.7221 4
1 -1 -12 14.8124 35.7955 8
-1 1 12 110.558 55.2645 1
-1 1 11 17216.0 410.113 9
-1 1 11 17573.0 404.165 3
1 -1 -11 17439.4 393.150 8
-1 1 11 17086.6 456.114 1
-1 1 10 29.1402 29.7517 3
-1 1 10 23.4885 44.7162 9
1 -1 -10 4.67096 31.9220 8
-1 1 10 49.4294 42.5362 1
1 -1 -9 441.256 58.1622 8
-1 1 9 438.542 59.2156 3
-1 1 9 384.212 61.9996 9
-1 1 9 508.705 71.8272 1
-1 1 8 2728.03 128.244 9
-1 1 8 2599.40 139.994 1
-1 1 8 2610.23 126.909 3
1 -1 -8 2594.44 123.281 8
-1 1 7 5557.07 175.814 9
-1 1 7 5391.28 98.4401 6
-1 1 7 5607.64 195.869 1
-1 1 7 5457.50 179.488 3
1 -1 -7 5595.13 178.896 8
-1 1 6 12134.2 266.056 9
1 -1 -6 12842.5 278.341 8
-1 1 6 12400.9 292.701 1
-1 1 6 12289.9 274.683 3
-1 1 5 60165.6 832.806 3
1 -1 -5 60112.8 836.749 8
-1 1 5 60986.9 846.367 1
-1 1 4 9065.73 144.062 7
1 -1 -4 9043.04 212.189 8
-1 1 4 9137.21 145.793 5
-1 1 4 8902.45 209.947 3
-1 1 4 9175.60 212.823 1
1 -1 -4 9088.28 146.692 7
1 -1 -3 6919.34 114.971 7
-1 1 3 6954.16 114.970 7
-1 1 3 6912.13 168.885 1
-1 1 3 6620.68 167.209 3
1 -1 -3 6570.70 168.686 8
-1 1 2 38554.1 475.741 7
1 -1 -2 39105.7 545.448 8
1 -1 -2 38284.9 476.170 7
-1 1 2 38146.9 539.798 3
1 -1 -2 38809.7 459.388 6
-1 1 1 6987.67 124.353 6
-1 1 1 7039.22 156.866 3
1 -1 -1 6238.95 123.707 7
-1 1 0 10475.8 181.811 4
-1 1 0 10277.3 188.585 2
-1 1 0 10146.8 178.123 6
-1 1 0 9990.47 186.213 3
-1 1 -1 501.469 40.4412 2
-1 1 -1 553.723 36.4890 4
1 -1 1 549.097 35.6147 9
-1 1 -1 495.652 35.6841 3
-1 1 -1 495.466 39.3487 6
1 -1 2 7209.92 146.253 9
-1 1 -2 7319.49 168.010 6
-1 1 -2 7380.62 150.338 4
-1 1 -3 10187.2 217.508 6
1 -1 3 10152.9 191.049 9
-1 1 -3 9743.99 191.441 4
-1 1 -4 34343.4 533.495 6
-1 1 -4 35305.7 502.373 4
1 -1 4 35306.4 498.411 9
-1 1 -5 6870.84 173.450 4
-1 1 -5 6995.68 195.972 6
1 -1 5 7006.05 172.064 9
1 -1 6 3403.30 122.699 9
-1 1 -6 3352.69 138.525 6
-1 1 -6 3292.31 122.784 4
-1 1 -7 2779.05 133.528 6
1 -1 7 2959.09 121.024 9
-1 1 -7 2942.41 122.338 4
-1 1 -8 4370.08 175.221 6
-1 1 -8 4118.62 156.814 4
1 -1 8 4484.18 162.281 9
-1 1 -9 17955.9 381.781 4
-1 1 -9 17677.4 406.281 6
1 -1 9 17792.6 379.062 9
1 -1 10 9215.72 271.072 9
-1 1 -10 9034.34 266.975 4
-1 1 -10 8969.57 284.802 6
1 -1 11 3067.74 160.406 9
-1 1 -11 3234.45 175.395 6
-1 1 -11 3213.89 162.329 4
1 -1 12 129.000 60.9015 9
-1 1 -12 204.678 59.1636 4
-1 1 -12 43.7078 43.1712 6
-1 1 -13 12.9688 45.4760 4
-1 1 -13 93.1929 48.0767 6
1 -1 13 -15.3959 53.6642 9
-1 1 -14 393.020 80.6775 4
1 -1 14 450.589 83.7429 9
-1 0 14 702.859 104.877 1
-1 0 14 822.715 107.202 9
1 0 -14 598.194 92.4611 4
1 0 -13 174.894 60.1218 4
-1 0 13 85.2460 61.8346 1
-1 0 13 235.556 72.1323 9
1 0 -12 334.749 67.9923 4
-1 0 12 165.562 58.0909 9
-1 0 12 377.226 82.5651 1
-1 0 11 722.458 75.1598 3
1 0 -11 717.531 82.8386 4
-1 0 11 676.517 82.1904 9
-1 0 11 509.423 81.4790 1
1 0 -11 689.505 69.8306 8
-1 0 10 9022.56 270.307 9
1 0 -10 8963.39 247.803 8
1 0 -10 9154.18 267.197 4
-1 0 10 8648.83 250.984 3
-1 0 10 9075.85 302.991 1
-1 0 9 119.731 44.7083 9
-1 0 9 74.9310 28.0911 3
-1 0 9 49.1734 34.2813 1
1 0 -9 54.6064 29.2298 8
-1 0 8 297.325 52.2971 9
-1 0 8 241.590 42.5908 3
1 0 -8 250.456 43.0415 8
-1 0 8 309.016 56.1958 1
-1 0 7 945.243 70.0861 3
-1 0 7 856.538 70.5850 9
-1 0 7 1065.22 87.1195 1
1 0 -7 1072.88 75.0969 8
-1 0 6 614.387 58.0800 9
-1 0 6 571.951 53.0170 3
1 0 -6 664.937 56.6690 8
-1 0 6 636.165 62.9114 1
-1 0 5 68942.8 950.763 1
-1 0 5 69631.0 905.631 9
-1 0 5 71020.8 803.436 6
1 0 -5 69670.6 918.720 8
-1 0 5 68277.2 912.986 3
-1 0 4 3624.64 113.175 9
1 0 -4 3358.88 117.166 8
-1 0 4 3617.10 127.712 1
-1 0 4 3522.24 61.4974 6
-1 0 4 3578.54 117.089 3
1 0 -4 3681.53 95.2611 7
-1 0 3 1137.67 66.4569 1
-1 0 3 1005.60 53.6180 9
-1 0 3 1014.63 44.6233 5
1 0 -3 980.282 58.6756 8
-1 0 3 1021.55 57.7165 3
1 0 -3 1149.91 47.6399 7
1 0 -2 3778.66 87.8986 7
-1 0 2 3927.53 90.1343 5
-1 0 2 3890.48 65.8003 6
-1 0 2 3910.06 115.215 1
-1 0 2 3699.86 106.491 3
1 0 -1 8141.71 145.379 7
-1 0 1 8251.67 129.511 6
1 0 -1 8329.85 129.729 6
-1 0 1 8380.89 164.724 3
1 0 0 233843. 2655.88 7
-1 0 0 237230. 2667.45 3
-1 0 0 234137. 2641.45 6
-1 0 0 231705. 2673.93 2
-1 0 -1 239738. 2639.07 4
1 0 1 236241. 2634.98 9
-1 0 -1 229922. 2684.74 2
-1 0 -1 232101. 2670.72 6
1 0 1 232943. 2678.21 7
-1 0 -2 3414.91 103.384 2
-1 0 -2 3376.81 99.6038 6
1 0 2 3344.56 76.4740 9
-1 0 -2 3352.42 79.3487 4
1 0 3 453.386 31.8233 9
-1 0 -3 415.064 41.3357 6
-1 0 -3 468.848 32.9346 4
1 0 4 2738.39 86.2299 9
-1 0 -4 2807.94 106.706 6
-1 0 -4 2724.38 87.6362 4
-1 0 -5 6932.98 161.956 4
-1 0 -5 6817.60 184.622 6
1 0 5 7046.48 162.261 9
-1 0 -6 35.2779 28.0855 6
-1 0 -6 10.8660 25.8228 4
1 0 6 24.7687 27.0207 9
-1 0 -7 557.409 53.7045 4
-1 0 -7 756.259 68.8562 6
1 0 7 602.160 55.8029 9
1 0 8 6526.06 191.822 9
-1 0 -8 6644.51 193.732 4
-1 0 -8 6581.43 211.021 6
-1 0 -9 2897.89 145.319 6
1 0 9 2519.96 115.116 3
1 0 9 2659.86 127.290 9
-1 0 -9 2582.81 125.674 4
-1 0 -10 87110.5 1188.47 4
-1 0 -10 84941.0 1224.83 6
1 0 10 83454.9 1146.06 3
1 0 10 85442.0 1184.34 9
1 0 11 4455.50 186.759 9
-1 0 -11 4192.90 191.491 6
-1 0 -11 4521.23 187.613 4
-1 0 -12 -55.9684 45.0646 4
-1 0 -12 17.6798 38.4573 6
1 0 12 -56.6495 45.8780 9
1 0 13 1663.66 129.603 9
-1 0 -13 1524.50 126.222 6
-1 0 -13 1578.78 122.792 4
-1 0 -14 1184.21 116.019 4
-1 0 -14 1200.87 120.877 6
1 0 14 1328.18 122.186 9
1 0 15 3219.73 194.702 9
-1 0 -15 3447.39 202.644 4
1 1 -14 4863.96 236.695 4
-1 -1 14 5025.90 245.497 9
-1 -1 14 5336.41 284.460 1
1 1 -13 -10.0836 54.0452 4
-1 -1 13 -37.3377 60.5277 9
-1 -1 13 21.7417 47.0658 1
1 1 -12 377.729 68.4693 4
-1 -1 12 353.786 72.7626 9
-1 -1 12 425.083 80.7140 1
1 1 -11 811.549 88.4330 4
-1 -1 11 822.586 92.9473 9
-1 -1 11 981.798 108.707 1
1 1 -10 43.9022 51.3781 4
-1 -1 10 0.09578 29.9334 3
-1 -1 10 60.9703 48.7767 1
1 1 -10 84.4607 34.5092 8
-1 -1 10 2.37634 53.5862 9
1 1 -9 20.0623 38.5190 4
-1 -1 9 10.4548 42.4557 9
1 1 -9 9.42577 26.1477 8
-1 -1 9 12.2276 35.9316 1
-1 -1 9 40.0365 33.4474 3
-1 -1 8 3281.24 144.269 9
-1 -1 8 3440.62 164.732 1
-1 -1 8 3357.78 128.613 3
1 1 -8 3361.40 141.510 4
1 1 -8 3450.18 128.659 8
-1 -1 7 512.373 64.4320 1
1 1 -7 626.413 59.4639 4
-1 -1 7 579.202 61.1124 9
1 1 -7 550.279 50.5798 8
-1 -1 7 539.627 51.6861 3
-1 -1 6 519.739 61.8303 1
-1 -1 6 466.191 43.4405 3
1 1 -6 497.231 53.9461 4
1 1 -6 510.075 49.2223 8
-1 -1 6 432.810 55.0764 9
-1 -1 5 50341.3 742.188 1
-1 -1 5 50471.4 697.123 9
-1 -1 5 49831.1 678.285 3
1 1 -5 50659.3 687.994 8
-1 -1 4 825.398 65.5794 1
-1 -1 4 960.081 60.9985 9
-1 -1 4 897.494 55.3632 3
1 1 -4 842.874 54.9628 8
1 1 -4 853.025 52.6194 7
-1 -1 3 1700.23 81.1614 1
-1 -1 3 1724.05 68.8776 9
1 1 -3 1669.24 67.9732 7
-1 -1 3 1653.25 67.9199 3
-1 -1 2 7702.84 143.134 9
-1 -1 2 7770.89 154.457 5
1 1 -2 7610.87 152.437 7
-1 -1 2 7667.86 173.755 1
-1 -1 2 7482.79 153.945 3
-1 -1 1 129027. 1473.10 6
1 1 -1 127705. 1496.34 7
-1 -1 1 126764. 1464.86 9
-1 -1 1 127817. 1500.85 5
-1 -1 1 132364. 1507.15 3
1 1 0 74987.4 913.581 7
-1 -1 0 74489.5 897.276 6
1 1 0 76478.5 856.851 9
-1 -1 0 73200.9 921.035 2
1 1 1 15658.3 252.116 7
-1 -1 -1 15235.5 242.123 6
-1 -1 -1 15764.7 253.782 2
-1 -1 -2 39488.6 538.826 2
1 1 2 39965.9 534.464 7
-1 -1 -2 39284.2 530.281 6
1 1 2 39503.0 467.703 9
-1 -1 -2 39663.1 469.156 4
1 1 2 40594.4 466.255 4
-1 -1 -2 40218.9 468.030 9
1 1 3 4715.18 125.953 7
-1 -1 -3 4533.34 124.001 6
1 1 3 4711.63 92.8105 9
-1 -1 -3 4635.39 94.3174 4
-1 -1 -4 0.36131 16.9132 4
1 1 4 -10.9473 26.6935 7
1 1 4 -1.31253 19.1943 9
-1 -1 -4 29.8425 28.1590 6
-1 -1 -5 139.095 36.3890 6
-1 -1 -5 115.703 29.2414 4
1 1 5 212.698 36.2735 9
-1 -1 -6 3462.82 129.438 6
-1 -1 -6 3476.37 111.487 4
1 1 6 3398.71 110.046 9
-1 -1 -7 81.5368 30.2732 4
1 1 7 111.055 35.5401 9
-1 -1 -7 177.567 40.3983 6
-1 -1 -8 463.640 51.4749 4
-1 -1 -8 434.751 56.5121 6
1 1 8 390.994 49.9949 9
-1 -1 -9 162.030 40.2606 4
1 1 9 239.591 47.8005 9
-1 -1 -9 214.523 47.0056 6
1 1 9 226.341 44.8507 3
-1 -1 -10 316.029 56.5999 4
-1 -1 -10 336.704 56.0213 6
1 1 10 243.925 52.1071 9
1 1 10 215.109 50.3728 3
1 1 11 1247.11 100.082 9
-1 -1 -11 1058.20 100.210 6
1 1 11 1126.94 93.8984 3
-1 -1 -11 1020.71 90.0300 4
-1 -1 -12 1506.77 116.014 6
-1 -1 -12 1647.34 116.796 4
1 1 12 1670.34 118.632 9
-1 -1 -13 141.258 53.3551 4
1 1 13 -9.09292 53.1995 9
-1 -1 -13 86.6314 42.6637 6
-1 -1 -14 241.462 60.1870 4
-1 -1 -14 155.684 53.2737 6
1 1 14 238.235 65.7917 9
-1 -1 -15 106.333 50.2396 4
1 1 15 106.668 55.8314 9
-1 -2 14 2662.74 207.027 1
-1 -2 14 2653.96 183.543 9
1 2 -14 2646.55 178.301 4
-1 -2 13 387.765 82.4043 1
1 2 -13 537.439 82.8895 4
-1 -2 13 441.633 81.2391 9
1 2 -12 256.873 64.0300 4
-1 -2 12 279.068 72.6696 9
-1 -2 12 249.365 70.1508 1
-1 -2 11 2943.11 164.149 9
1 2 -11 2775.73 159.583 4
-1 -2 11 2831.97 179.778 1
-1 -2 10 8532.11 270.088 9
-1 -2 10 8412.73 301.650 1
1 2 -10 8568.94 268.068 4
-1 -2 9 43574.4 720.992 9
-1 -2 9 43806.6 779.407 1
1 2 -9 44000.7 715.705 4
1 2 -8 25967.1 472.854 4
-1 -2 8 25236.3 475.838 9
-1 -2 8 24737.6 409.487 3
1 2 -8 25204.5 413.530 8
-1 -2 8 25544.0 519.378 1
-1 -2 7 1172.04 66.0880 3
1 2 -7 1197.10 69.4940 8
-1 -2 7 1290.22 88.6614 9
1 2 -7 1295.48 86.4353 4
-1 -2 7 1193.46 93.6180 1
1 2 -6 5207.44 143.555 8
-1 -2 6 5374.84 167.466 9
-1 -2 6 5526.35 190.550 1
1 2 -6 5562.01 166.568 4
-1 -2 6 5116.43 136.884 3
1 2 -5 -15.4310 29.4703 4
-1 -2 5 -20.3473 19.2436 3
-1 -2 5 4.03669 31.7301 1
-1 -2 5 19.0548 30.4465 9
1 2 -5 7.74083 17.4202 8
-1 -2 4 5907.64 154.244 9
-1 -2 4 6000.18 176.311 1
1 2 -4 5810.22 149.427 4
1 2 -4 5832.48 142.237 8
-1 -2 4 5836.16 134.872 3
1 2 -4 5874.77 156.692 7
-1 -2 3 4515.50 139.420 1
-1 -2 3 4435.28 118.653 9
1 2 -3 4085.06 112.333 4
-1 -2 3 4216.55 108.397 3
1 2 -3 4410.08 126.943 7
1 2 -2 4697.55 125.219 7
-1 -2 2 4588.29 108.426 9
-1 -2 2 4560.89 130.062 1
-1 -2 2 4603.22 112.993 3
1 2 -2 4527.45 105.555 4
1 2 -1 2409.68 84.2370 7
-1 -2 1 2366.04 63.6336 9
-1 -2 1 2319.91 83.3406 5
1 2 -1 2428.85 63.4855 4
1 2 0 47584.3 525.795 9
-1 -2 0 44139.0 593.501 5
-1 -2 0 44515.1 525.598 9
-1 -2 0 44939.3 585.146 2
1 2 0 44821.8 526.331 4
1 2 0 44406.0 587.239 7
1 2 1 999999. 11040.0 7
-1 -2 -1 992221. 11035.1 6
-1 -2 -1 990936. 11032.0 2
-1 -2 -2 9529.34 187.830 6
1 2 2 9414.83 187.234 7
-1 -2 -2 9595.02 185.665 2
1 2 3 2462.51 88.0601 7
-1 -2 -3 2356.31 55.8487 9
-1 -2 -3 2393.51 89.8865 6
1 2 3 2344.20 56.8109 9
1 2 4 7858.53 177.719 7
-1 -2 -4 7834.34 182.118 6
1 2 4 7868.12 142.980 9
1 2 5 4416.30 133.260 7
-1 -2 -5 4218.47 131.881 8
-1 -2 -5 4137.33 133.031 6
-1 -2 -5 4059.51 106.481 4
1 2 5 4295.12 110.366 9
-1 -2 -6 33566.8 472.720 4
1 2 6 32832.8 509.395 7
1 2 6 33494.1 476.127 9
-1 -2 -6 33533.0 521.980 6
-1 -2 -6 32693.1 505.984 8
-1 -2 -7 32.5716 25.4970 4
-1 -2 -7 12.9748 29.6967 6
1 2 7 8.55569 26.1137 7
1 2 7 57.7225 24.7749 9
-1 -2 -7 15.5508 25.0154 8
1 2 8 1076.01 77.3350 7
-1 -2 -8 932.367 75.4247 6
-1 -2 -8 917.333 69.2639 8
-1 -2 -8 909.475 66.1474 4
1 2 8 1023.71 70.5104 9
1 2 9 1386.14 87.0315 9
-1 -2 -9 1389.85 98.4205 6
1 2 9 1599.89 101.251 3
-1 -2 -9 1436.15 90.2193 8
1 2 9 1469.71 95.6314 7
-1 -2 -9 1531.01 89.6803 4
1 2 10 11038.4 280.404 7
-1 -2 -10 10653.5 289.370 6
1 2 10 10083.2 289.881 3
1 2 10 10916.9 272.852 9
-1 -2 -10 10863.8 269.614 8
-1 -2 -10 10700.2 268.411 4
1 2 11 13514.3 333.029 7
1 2 11 13407.4 344.602 3
-1 -2 -11 13510.5 348.913 6
1 2 11 13401.5 327.092 9
-1 -2 -11 13118.4 320.701 4
-1 -2 -11 13694.3 320.267 8
-1 -2 -12 1332.63 110.076 6
1 2 12 966.360 94.5909 3
1 2 12 1198.96 100.371 9
-1 -2 -12 1228.68 100.350 4
1 2 12 1362.88 104.648 7
1 2 13 3096.46 161.791 7
1 2 13 3071.32 164.241 9
-1 -2 -13 2941.69 165.400 6
-1 -2 -13 3070.70 161.046 4
-1 -2 -14 130.404 49.8616 4
1 2 14 157.565 57.9470 9
1 2 15 1928.42 144.793 9
-1 -2 -15 2070.77 148.072 4
1 3 -13 652.333 95.4682 4
-1 -3 13 545.904 103.616 1
-1 -3 13 729.029 98.7431 9
1 3 -12 -40.2036 47.5517 4
-1 -3 12 -39.2250 57.3919 1
-1 -3 12 -34.2622 49.3270 9
1 3 -11 56.2449 52.5372 4
-1 -3 11 187.114 62.6667 1
-1 -3 11 4.14944 51.7454 9
-1 -3 10 5773.08 225.194 9
1 3 -10 6260.63 229.895 4
-1 -3 10 6060.88 257.460 1
-1 -3 9 5451.87 208.854 9
1 3 -9 5888.63 211.945 4
-1 -3 9 5561.37 233.453 1
1 3 -8 371.472 57.4567 4
-1 -3 8 462.618 68.9344 9
-1 -3 8 467.962 69.4585 1
1 3 -7 224.094 47.1600 4
-1 -3 7 252.238 52.3359 1
-1 -3 7 193.382 46.7230 9
-1 -3 7 187.818 27.4600 3
1 3 -7 244.480 32.0873 8
-1 -3 6 106.577 22.5594 3
-1 -3 6 124.473 37.2726 1
-1 -3 6 97.2197 36.0121 9
1 3 -6 126.932 34.3525 4
1 3 -6 123.857 25.9559 8
1 3 -5 -21.4205 28.0938 4
-1 -3 5 11.0305 14.8040 3
-1 -3 5 51.4556 32.4516 1
-1 -3 5 -23.7748 34.3294 9
1 3 -5 16.5752 16.5842 8
-1 -3 4 2616.30 115.308 1
1 3 -4 2496.49 100.287 4
-1 -3 4 2658.17 105.026 9
1 3 -4 2560.84 110.640 7
1 3 -3 4755.61 130.741 4
-1 -3 3 4518.80 144.065 1
-1 -3 3 4594.28 127.251 9
1 3 -3 4650.47 143.613 7
-1 -3 2 1431.24 72.3384 1
-1 -3 2 1488.86 65.0554 9
1 3 -2 1520.44 65.4974 4
1 3 -2 1355.53 75.9699 7
-1 -3 1 1739.57 59.8956 9
1 3 -1 1732.84 61.3442 4
1 3 -1 1644.07 78.2280 7
-1 -3 0 4009.67 84.5502 9
1 3 0 3913.50 117.110 7
-1 -3 0 3811.26 117.966 5
-1 -3 0 3782.32 103.726 2
1 3 0 3978.40 85.9070 4
1 3 1 6839.02 158.189 7
1 3 1 6894.77 113.559 4
-1 -3 -1 6949.53 110.998 9
-1 -3 -1 6593.86 159.501 5
-1 -3 -1 6715.38 143.232 2
-1 -3 -1 6899.13 111.202 4
1 3 2 5993.97 146.109 7
-1 -3 -2 5864.73 135.407 2
-1 -3 -2 5787.25 149.093 6
-1 -3 -2 6057.38 100.871 4
1 3 3 9223.79 192.503 7
-1 -3 -3 8872.21 196.594 6
1 3 4 4326.18 127.910 7
-1 -3 -4 4331.15 135.334 8
-1 -3 -4 4557.77 137.970 6
-1 -3 -5 4923.15 150.195 8
1 3 5 4882.34 142.027 7
-1 -3 -5 5068.46 152.280 6
1 3 6 2281.83 85.4309 9
1 3 6 2301.59 99.6020 7
-1 -3 -6 2412.40 105.871 8
-1 -3 -6 2323.30 104.831 6
1 3 7 27320.3 430.268 9
1 3 7 27962.6 453.305 7
-1 -3 -7 28035.0 471.198 6
-1 -3 -7 27341.5 466.355 8
1 3 8 7429.09 193.062 9
1 3 8 7620.08 204.861 7
-1 -3 -8 7559.01 212.163 8
-1 -3 -8 7692.33 218.106 6
-1 -3 -9 1988.98 99.7090 4
1 3 9 2069.27 109.148 7
-1 -3 -9 2108.83 114.964 8
-1 -3 -9 2052.77 114.527 6
1 3 9 2112.59 124.947 3
1 3 9 2142.09 107.494 9
-1 -3 -10 201.285 42.3413 4
1 3 10 325.744 55.5714 7
-1 -3 -10 165.239 46.0352 8
-1 -3 -10 235.803 46.6039 6
1 3 10 241.859 48.7340 9
1 3 10 195.435 50.4092 3
1 3 11 1573.51 105.017 9
-1 -3 -11 1308.31 102.501 8
1 3 11 1542.81 103.358 7
-1 -3 -11 1734.46 116.741 6
1 3 11 1716.88 122.974 3
-1 -3 -11 1547.89 103.689 4
1 3 12 4067.39 172.770 7
1 3 12 3777.90 189.522 3
-1 -3 -12 3771.12 176.998 6
1 3 12 3875.15 171.923 9
-1 -3 -12 3652.30 168.398 8
-1 -3 -12 3870.81 170.283 4
-1 -3 -13 1173.84 99.9897 4
1 3 13 1391.80 121.037 3
-1 -3 -13 1261.86 107.508 6
1 3 13 1337.31 108.672 9
-1 -3 -13 1256.04 107.064 8
-1 -3 -14 313.259 63.9150 4
1 3 14 210.498 63.3368 9
-1 -3 -15 1242.22 115.460 4
1 3 15 1391.51 124.641 9
1 4 -13 215.616 60.2089 4
-1 -4 13 358.140 80.7869 1
-1 -4 13 320.355 74.4792 9
-1 -4 12 3135.49 207.481 1
-1 -4 12 2915.59 181.104 9
1 4 -12 3305.78 191.102 4
1 4 -11 758.441 91.6732 4
-1 -4 11 648.481 93.0580 1
-1 -4 11 867.395 103.513 9
1 4 -10 695.197 87.0622 4
-1 -4 10 716.066 92.8049 1
-1 -4 10 735.200 88.0329 9
1 4 -9 4200.88 185.919 4
-1 -4 9 3516.72 172.906 9
-1 -4 9 3484.33 186.601 1
1 4 -8 76866.9 1097.23 4
-1 -4 8 75239.2 1140.90 1
-1 -4 8 74495.8 1090.61 9
1 4 -7 7192.13 224.104 4
-1 -4 7 7191.57 224.104 9
-1 -4 7 7056.85 241.273 1
1 4 -6 498.405 58.7131 4
-1 -4 6 341.071 56.9498 1
-1 -4 6 619.048 63.3385 9
1 4 -6 352.545 33.2273 8
1 4 -5 21.6310 27.4707 4
-1 -4 5 -10.2027 34.2167 9
-1 -4 5 -5.04055 27.4526 1
1 4 -5 1.70574 14.6428 8
1 4 -4 300.059 46.4157 7
1 4 -4 272.513 41.3269 4
-1 -4 4 302.360 44.2612 9
-1 -4 4 324.627 45.8835 1
-1 -4 3 39347.8 595.123 1
-1 -4 3 40593.9 572.349 9
1 4 -3 40050.1 577.837 4
1 4 -3 40484.1 613.661 7
-1 -4 2 1693.15 73.3868 9
-1 -4 2 1687.96 80.2303 1
1 4 -2 1639.12 75.0076 4
1 4 -2 1618.60 88.5721 7
1 4 -1 1134.73 72.9921 7
-1 -4 1 903.260 52.7083 9
1 4 -1 939.759 53.8814 4
-1 -4 0 228.960 30.1447 2
1 4 0 215.993 39.9145 7
1 4 0 220.695 29.5436 4
-1 -4 0 287.620 30.4228 9
-1 -4 0 186.323 40.2568 5
1 4 1 31091.6 417.557 4
1 4 1 30669.1 470.087 7
-1 -4 -1 30738.2 473.083 5
-1 -4 -1 31641.0 411.739 9
-1 -4 -1 31142.1 428.452 2
1 4 2 6418.12 163.250 7
-1 -4 -2 6080.53 136.555 2
1 4 2 6363.58 126.385 4
-1 -4 -2 6049.87 160.649 5
1 4 3 2073.02 88.6646 7
-1 -4 -3 1917.04 90.4348 8
-1 -4 -3 2176.58 97.7060 6
1 4 4 1295.16 73.9100 7
-1 -4 -4 1347.82 79.4365 6
-1 -4 -4 1313.15 78.8933 8
1 4 5 345.117 43.1711 7
-1 -4 -5 314.282 45.4665 6
-1 -4 -5 323.914 48.4405 8
1 4 6 17767.0 325.088 7
-1 -4 -6 18426.4 347.942 6
-1 -4 -6 17588.5 348.627 8
1 4 7 22710.2 390.279 7
-1 -4 -7 22314.8 412.294 6
-1 -4 -7 22191.4 415.273 8
-1 -4 -8 114.558 39.0394 6
1 4 8 78.4975 33.0377 7
-1 -4 -8 107.693 40.3817 8
1 4 9 60.7740 41.0205 3
1 4 9 62.6188 33.4919 7
-1 -4 -9 77.9619 41.4484 8
-1 -4 -9 95.6857 40.2648 6
1 4 10 1160.58 82.7646 7
-1 -4 -10 1180.74 90.8576 6
1 4 10 1080.70 101.237 3
-1 -4 -10 1081.87 93.5762 8
1 4 11 1122.17 86.1578 7
-1 -4 -11 1106.53 89.2304 4
-1 -4 -11 1322.77 100.668 6
1 4 11 1165.02 108.366 3
-1 -4 -11 1248.90 100.039 8
-1 -4 -12 4199.54 186.750 6
-1 -4 -12 3863.86 183.680 8
1 4 12 4079.28 202.239 3
-1 -4 -12 4381.39 178.287 4
1 4 13 340.608 69.7513 3
-1 -4 -13 447.285 69.2880 4
-1 -4 -13 446.507 72.4008 6
-1 -4 -13 281.448 61.2795 8
1 4 14 279.026 73.8619 3
-1 -4 -14 433.480 76.4742 4
-1 -4 -14 295.168 61.9377 8
-1 -4 -15 1327.89 116.519 4
-1 -5 13 890.548 124.602 1
1 5 -12 23.0926 57.2286 4
-1 -5 12 111.944 58.6791 1
-1 -5 12 -62.5430 63.8233 9
1 5 -11 648.409 88.4529 4
-1 -5 11 610.238 95.6862 1
-1 -5 11 674.457 92.7816 9
-1 -5 10 54.4947 54.7530 9
1 5 -10 -18.1450 53.2739 4
-1 -5 10 19.8118 39.9700 1
1 5 -9 616.361 80.5851 4
-1 -5 9 667.100 88.8653 1
-1 -5 9 616.225 84.1108 9
-1 -5 8 2213.27 143.690 1
-1 -5 8 1837.15 127.074 9
1 5 -8 2091.64 131.079 4
-1 -5 7 25819.4 523.863 1
-1 -5 7 25816.8 496.367 9
1 5 -7 25814.5 501.677 4
-1 -5 6 1306.97 97.1413 1
-1 -5 6 1306.27 93.7567 9
1 5 -6 1384.88 95.4959 4
-1 -5 5 2388.22 116.718 9
-1 -5 5 2343.63 120.998 1
1 5 -5 2331.70 117.740 4
1 5 -4 12038.2 295.779 7
-1 -5 4 11789.4 274.988 1
-1 -5 4 12193.3 267.697 9
1 5 -4 12168.8 273.617 4
-1 -5 3 1463.19 81.4066 9
-1 -5 3 1629.70 86.3376 1
1 5 -3 1508.27 85.2334 4
1 5 -3 1497.05 95.6856 7
1 5 -2 15697.5 295.582 4
-1 -5 2 15640.8 286.442 9
1 5 -2 15128.5 321.154 7
-1 -5 2 15521.5 287.865 1
-1 -5 1 22752.9 361.782 9
1 5 -1 22698.3 371.551 4
1 5 -1 23383.1 410.838 7
-1 -5 0 7286.09 152.305 2
-1 -5 0 7526.12 163.393 9
1 5 0 7638.82 171.096 4
1 5 0 7406.68 195.058 7
1 5 1 240.917 44.6821 7
1 5 1 171.005 30.2449 4
-1 -5 -1 195.589 26.7147 2
-1 -5 -1 123.778 25.6916 9
-1 -5 -1 167.701 38.1450 5
1 5 2 5059.30 151.686 7
1 5 2 4955.03 124.698 4
-1 -5 -2 4957.45 147.494 8
-1 -5 -2 4805.83 116.211 2
-1 -5 -2 4747.97 149.555 5
-1 -5 -2 4995.28 122.875 9
1 5 3 29316.7 461.972 7
-1 -5 -3 30088.1 473.599 8
-1 -5 -3 29138.7 468.545 5
-1 -5 -4 13788.1 294.423 6
-1 -5 -4 13661.7 287.745 8
1 5 4 14095.1 273.498 7
1 5 5 7055.39 179.884 7
-1 -5 -5 6779.13 196.380 6
-1 -5 -5 7209.84 201.359 8
1 5 6 929.420 65.7895 7
-1 -5 -6 902.864 72.3039 6
-1 -5 -6 1053.43 80.8374 8
-1 -5 -7 7799.22 221.868 6
-1 -5 -7 7742.14 229.494 8
1 5 7 7697.74 197.058 7
-1 -5 -8 710.378 76.0333 8
1 5 8 806.606 64.2226 7
-1 -5 -8 705.246 72.1872 6
1 5 8 729.755 86.7985 3
1 5 9 4.98951 31.3673 7
-1 -5 -9 5.79415 39.7751 8
-1 -5 -9 -16.5994 37.8026 6
1 5 9 41.3075 40.7706 3
1 5 10 2194.84 111.438 7
-1 -5 -10 2348.72 129.448 6
1 5 10 2297.21 148.797 3
-1 -5 -10 2251.57 134.781 8
1 5 11 46.4598 43.3568 3
-1 -5 -11 45.1789 43.1665 6
-1 -5 -11 29.5836 39.7270 8
-1 -5 -12 2383.43 147.280 8
1 5 12 2313.68 158.732 3
-1 -5 -12 2133.58 133.656 6
1 5 13 8478.82 318.245 3
-1 -5 -13 8316.43 279.110 6
-1 -5 -13 8600.08 294.306 8
-1 -5 -13 8392.60 268.467 4
1 5 14 854.825 106.280 3
-1 -5 -14 910.257 95.8338 4
-1 -5 -14 803.721 99.9236 8
1 5 15 240.670 70.0985 3
-1 -5 -15 266.153 69.8641 8
-1 -6 12 6699.90 316.052 1
-1 -6 11 83.7233 55.9424 9
1 6 -11 166.536 61.8082 4
-1 -6 11 116.414 51.6517 1
-1 -6 10 398.911 79.1116 1
1 6 -10 482.769 81.7338 4
-1 -6 10 411.770 81.7331 9
-1 -6 9 2656.07 167.806 1
-1 -6 9 2269.22 149.090 9
1 6 -9 2244.43 148.485 4
-1 -6 8 3559.49 183.186 1
1 6 -8 3758.18 182.030 4
-1 -6 8 3661.50 178.742 9
1 6 -7 691.797 79.5597 4
-1 -6 7 748.541 84.4513 1
-1 -6 7 730.616 84.4181 9
-1 -6 6 897.089 84.9092 1
1 6 -6 925.077 86.9583 4
-1 -6 6 888.986 83.9495 9
-1 -6 5 1242.48 90.7982 9
1 6 -5 1318.98 95.7384 4
-1 -6 5 1384.22 94.8809 1
1 6 -4 654.653 66.3191 4
-1 -6 4 756.523 67.5566 1
-1 -6 4 707.479 66.8092 9
1 6 -3 8130.42 220.156 4
-1 -6 3 8095.48 211.760 9
-1 -6 3 7910.21 205.781 1
1 6 -3 7828.34 237.793 7
-1 -6 2 18500.4 340.487 9
1 6 -2 18328.0 353.224 4
1 6 -2 17916.0 378.452 7
-1 -6 1 10183.2 226.754 9
1 6 -1 10834.4 242.059 4
1 6 -1 10701.2 265.524 7
1 6 0 4.11800 31.8038 7
-1 -6 0 19.9103 18.6604 2
1 6 0 42.2614 29.4710 4
-1 -6 0 4.98727 21.8841 9
1 6 1 5473.59 150.591 4
-1 -6 -1 5381.29 144.362 9
-1 -6 -1 5170.39 170.700 5
-1 -6 -1 5507.01 118.117 2
1 6 1 5249.22 170.636 7
1 6 2 5891.47 155.015 4
1 6 2 5806.47 175.432 7
-1 -6 -2 5991.08 151.264 9
-1 -6 -2 5753.58 175.603 5
-1 -6 -2 5658.22 167.331 8
-1 -6 -3 17557.2 342.538 5
1 6 3 17643.0 310.165 4
1 6 3 18047.9 341.473 7
-1 -6 -3 17889.4 342.724 8
1 6 4 38.2107 32.8967 7
-1 -6 -4 -10.6173 28.5032 8
1 6 5 221.525 40.3606 7
-1 -6 -5 206.196 48.8772 6
-1 -6 -5 182.808 43.2214 8
1 6 6 1472.81 82.7425 7
-1 -6 -6 1511.43 97.6973 6
-1 -6 -6 1505.71 101.334 8
-1 -6 -7 66.6035 40.1031 8
-1 -6 -7 70.6030 41.7492 6
1 6 7 116.119 37.9974 7
1 6 7 188.265 59.0041 3
1 6 8 812.795 67.1204 7
1 6 8 776.923 92.5576 3
-1 -6 -8 721.109 76.0959 6
-1 -6 -8 854.460 89.4378 8
1 6 9 1932.35 103.178 7
-1 -6 -9 2141.28 124.471 6
1 6 9 2005.35 141.740 3
-1 -6 -9 2178.36 133.472 8
1 6 10 3552.69 191.163 3
-1 -6 -10 3290.32 156.283 6
-1 -6 -10 3559.57 174.673 8
1 6 11 14.5512 46.6771 3
-1 -6 -11 -5.04394 41.9969 8
-1 -6 -11 -0.26809 40.2784 6
1 6 12 457.249 81.1083 3
-1 -6 -12 295.312 64.4956 8
-1 -6 -12 356.245 67.3233 6
1 6 13 266.649 73.7576 3
-1 -6 -13 307.471 67.8236 8
1 6 14 34.1945 48.9200 3
-1 -6 -14 -9.96735 52.4177 8
1 6 15 23.9167 57.3949 3
-1 -6 -15 6.73422 47.6481 8
-1 -7 10 1754.79 150.759 9
1 7 -10 1951.76 151.444 4
1 7 -9 209.393 64.6659 4
-1 -7 9 236.825 66.6580 9
-1 -7 9 275.425 63.3167 1
1 7 -8 213.565 63.7016 4
-1 -7 8 246.809 59.5835 1
-1 -7 8 23.6594 46.0436 9
-1 -7 7 8850.27 281.552 9
-1 -7 7 9437.57 290.356 1
1 7 -7 8693.82 287.634 4
-1 -7 6 3883.42 170.818 1
-1 -7 6 3800.65 172.499 9
1 7 -6 3693.33 176.061 4
1 7 -5 2410.22 135.929 4
-1 -7 5 2512.44 133.828 9
-1 -7 5 2330.95 124.238 1
-1 -7 4 1702.32 99.0246 1
-1 -7 4 1521.61 101.613 9
1 7 -4 1641.70 109.347 4
-1 -7 3 -8.93114 23.9385 1
1 7 -3 25.5412 32.4697 4
-1 -7 3 27.0034 36.1657 9
-1 -7 2 7875.47 217.354 9
1 7 -2 8218.00 231.310 4
1 7 -2 8157.99 250.621 7
-1 -7 1 8514.95 218.771 9
1 7 -1 8579.79 250.738 7
1 7 -1 8578.14 228.764 4
1 7 0 60.3474 36.3387 7
-1 -7 0 38.2322 15.9372 2
1 7 0 62.1470 29.2515 4
-1 -7 0 33.3532 26.1079 9
1 7 1 -6.94609 34.1722 7
1 7 1 39.3752 27.6144 4
-1 -7 -1 28.1718 14.1556 2
-1 -7 -1 71.3123 30.2304 9
-1 -7 -1 5.90398 33.5590 5
-1 -7 -2 281.237 46.5384 8
1 7 2 243.487 49.2882 7
-1 -7 -2 204.196 37.2636 9
1 7 2 283.841 44.2629 4
-1 -7 -2 240.725 44.5016 5
1 7 3 6773.80 182.261 4
1 7 3 6480.08 196.074 7
-1 -7 -3 6636.53 199.695 5
-1 -7 -3 6563.45 195.282 8
-1 -7 -4 22771.7 419.507 5
-1 -7 -4 23755.0 437.017 8
1 7 4 22521.3 416.331 7
1 7 5 4651.92 157.849 7
-1 -7 -5 4656.57 180.869 6
-1 -7 -5 4685.85 177.070 8
1 7 6 1238.99 82.0485 7
-1 -7 -6 1119.73 95.5282 6
1 7 6 1258.31 106.526 3
-1 -7 -6 1108.85 91.8402 8
-1 -7 -7 357.810 62.1265 6
1 7 7 337.793 51.5629 7
-1 -7 -7 263.810 57.3126 8
1 7 7 292.165 62.6190 3
1 7 8 704.070 86.6594 3
1 7 8 676.516 63.4928 7
-1 -7 -8 620.681 76.1880 6
-1 -7 -8 786.739 87.0472 8
-1 -7 -9 52120.1 829.044 6
1 7 9 52260.7 907.491 3
-1 -7 -9 51280.8 858.121 8
-1 -7 -10 420.869 68.2703 6
1 7 10 435.548 78.0083 3
-1 -7 -10 412.529 75.6739 8
-1 -7 -11 1540.83 118.226 6
1 7 11 1400.45 132.363 3
-1 -7 -11 1521.83 125.862 8
1 7 12 496.370 88.9246 3
-1 -7 -12 468.369 80.9605 8
-1 -7 -12 440.524 71.9215 6
1 7 13 1132.99 126.514 3
-1 -7 -13 917.694 106.756 8
1 7 14 462.559 91.6099 3
-1 -7 -14 486.317 86.9165 8
1 8 -9 0.70683 50.1774 4
-1 -8 9 -54.0412 52.6320 9
-1 -8 8 708.052 92.8241 9
1 8 -8 833.835 101.841 4
1 8 -7 237.822 61.7315 4
-1 -8 7 173.906 52.6058 9
-1 -8 6 2036.31 135.848 9
1 8 -6 2248.06 145.557 4
1 8 -5 -45.7261 38.8759 4
-1 -8 5 -31.2226 43.2403 9
-1 -8 4 1654.78 112.956 9
1 8 -4 1560.23 114.413 4
1 8 -3 670.970 73.9105 4
-1 -8 3 688.591 73.8357 9
1 8 -2 672.721 73.2759 4
-1 -8 2 711.849 71.7638 9
1 8 -1 4995.64 182.859 4
1 8 -1 4946.39 162.923 3
-1 -8 1 4841.91 170.421 9
1 8 -1 5013.97 200.169 7
1 8 0 703.063 78.6057 7
1 8 0 630.360 67.8506 4
-1 -8 0 578.263 61.2853 9
1 8 1 533.168 68.3551 7
-1 -8 -1 447.358 53.6080 9
1 8 1 404.132 56.0187 4
-1 -8 -1 565.246 70.3344 5
1 8 2 26.5335 36.9438 7
1 8 2 65.9478 36.0226 4
-1 -8 -2 -14.1797 28.2346 9
-1 -8 -2 33.6047 34.3100 8
-1 -8 -2 63.5251 40.5856 5
1 8 3 465.010 54.9373 4
1 8 3 457.113 66.4980 3
-1 -8 -3 523.429 66.0993 5
1 8 3 413.545 58.7458 7
-1 -8 -3 429.331 58.3614 8
-1 -8 -3 410.186 51.0718 9
-1 -8 -4 1884.13 108.821 5
1 8 4 1877.68 124.132 3
-1 -8 -4 1857.76 111.777 8
1 8 4 1634.77 100.735 7
-1 -8 -5 1076.76 92.1809 8
1 8 5 1099.23 102.038 3
1 8 5 1022.74 80.4717 7
1 8 6 197.229 56.1849 3
1 8 6 244.521 49.9117 7
-1 -8 -6 175.731 54.6128 6
-1 -8 -6 226.379 53.6598 8
1 8 7 903.480 74.6750 7
-1 -8 -7 1054.61 100.076 6
1 8 7 1230.84 112.543 3
-1 -8 -7 1090.75 99.5160 8
-1 -8 -8 11147.1 329.625 8
-1 -8 -8 11625.4 320.948 6
1 8 8 11499.4 361.528 3
-1 -8 -9 18.7944 41.7195 6
1 8 9 -15.4728 46.5629 3
-1 -8 -9 81.8733 53.6071 8
-1 -8 -10 10198.1 307.351 6
1 8 10 10118.5 356.026 3
-1 -8 -10 10287.3 328.121 8
-1 -8 -11 8598.07 305.881 8
1 8 11 8187.29 325.856 3
-1 -8 -11 8427.71 279.618 6
-1 -8 -12 195.391 55.2949 6
1 8 12 193.803 65.3241 3
-1 -8 -12 130.568 56.1789 8
1 8 13 181.651 68.3052 3
-1 -8 -13 273.654 74.0494 8
1 9 -8 483.369 90.0118 4
-1 -9 8 661.376 99.4067 9
-1 -9 7 243.502 70.9499 9
1 9 -7 43.7835 52.7717 4
1 9 -6 261.253 67.8375 4
-1 -9 6 277.936 66.4525 9
-1 -9 5 3857.20 186.130 9
1 9 -5 4317.43 209.084 4
1 9 -4 898.527 97.3329 4
-1 -9 4 825.926 89.5584 9
1 9 -3 967.987 97.2484 4
-1 -9 3 1071.97 95.3271 9
-1 -9 2 584.291 72.0043 9
1 9 -2 539.733 75.0503 4
-1 -9 1 13115.1 318.794 9
1 9 -1 12905.8 333.144 4
-1 -9 0 39330.8 645.956 9
1 9 0 39279.8 643.600 3
1 9 0 39186.5 665.393 4
1 9 0 39388.3 696.997 7
1 9 1 175.175 50.9129 3
1 9 1 150.340 49.9030 7
1 9 1 131.737 41.5620 4
-1 -9 -1 104.401 41.7317 9
-1 -9 -1 121.563 48.8048 5
1 9 2 4070.78 180.373 3
1 9 2 4542.43 174.573 4
-1 -9 -2 4830.66 172.635 9
-1 -9 -2 4202.14 180.468 5
1 9 2 4518.30 183.954 7
1 9 3 500.318 72.1571 3
1 9 3 424.917 65.3730 7
1 9 3 412.703 58.7825 4
-1 -9 -3 407.989 56.0948 9
-1 -9 -3 461.367 67.4489 5
-1 -9 -3 405.953 65.0588 8
1 9 4 202.550 55.3106 3
1 9 4 320.249 58.0947 7
-1 -9 -4 338.922 52.3962 9
-1 -9 -4 293.864 55.2637 5
-1 -9 -4 379.882 62.2609 8
1 9 5 789.292 92.4155 3
1 9 5 846.077 79.9858 7
-1 -9 -5 870.532 88.0893 8
1 9 6 28.1441 37.9291 7
-1 -9 -6 -0.21867 48.3116 6
-1 -9 -6 35.3397 44.3873 8
1 9 6 63.6185 46.5276 3
1 9 7 777.870 100.651 3
-1 -9 -7 834.024 92.1056 6
-1 -9 -7 765.730 90.6701 8
1 9 8 775.791 100.884 3
-1 -9 -8 648.065 83.1636 6
-1 -9 -8 729.146 88.3163 8
1 9 9 22095.3 550.582 3
-1 -9 -9 20736.2 482.691 6
-1 -9 -9 21781.6 507.826 8
1 9 10 12133.9 403.150 3
-1 -9 -10 11062.6 336.199 6
-1 -9 -10 12032.0 368.996 8
-1 -9 -11 5860.08 240.198 6
1 9 11 5463.68 274.208 3
-1 -9 -11 5983.26 262.904 8
1 9 12 54.8069 53.2618 3
-1 -9 -12 29.4189 61.0655 8
1 10 -7 138.492 59.1699 4
-1 -10 7 146.545 62.5337 9
1 10 -6 1113.91 121.832 4
-1 -10 6 1027.19 110.332 9
-1 -10 5 1210.66 112.584 9
1 10 -5 1354.34 125.411 4
-1 -10 4 1765.82 131.040 9
1 10 -4 1608.98 133.964 4
1 10 -3 1543.41 127.503 4
-1 -10 3 1521.91 117.529 9
-1 -10 2 2878.14 155.271 9
1 10 -2 2949.95 166.309 4
1 10 -1 9030.57 288.007 4
-1 -10 1 9257.67 277.551 9
1 10 0 944.555 95.2918 4
-1 -10 0 765.853 81.5973 9
1 10 1 7021.67 243.269 4
-1 -10 -1 7294.78 258.385 5
-1 -10 -1 7124.27 232.617 9
1 10 1 7018.38 253.751 7
1 10 2 6118.38 228.818 3
1 10 2 6317.91 223.491 4
-1 -10 -2 5841.30 226.055 5
-1 -10 -2 6048.94 210.366 9
1 10 2 5879.43 225.882 7
1 10 3 -16.6291 41.4148 3
1 10 3 -3.50286 39.0303 7
1 10 3 -5.60399 39.2915 4
-1 -10 -3 34.4381 39.6425 9
-1 -10 -3 98.7264 45.4475 8
-1 -10 -3 117.788 48.0786 5
1 10 4 598.309 80.6445 3
1 10 4 563.450 74.4891 7
-1 -10 -4 545.830 64.3878 9
-1 -10 -4 648.318 76.8910 5
-1 -10 -4 635.940 79.5582 8
1 10 5 1186.29 97.4836 7
1 10 5 1215.17 115.674 3
-1 -10 -5 1230.37 94.1846 9
-1 -10 -5 1360.02 110.283 8
-1 -10 -5 1271.77 100.776 5
1 10 6 2017.17 151.100 3
-1 -10 -6 2151.85 142.089 8
1 10 7 64.0857 47.8778 3
-1 -10 -7 -10.1546 48.8650 6
-1 -10 -7 86.8480 52.1875 8
-1 -10 -8 1962.21 140.201 6
1 10 8 1500.95 143.240 3
-1 -10 -8 1653.53 136.209 8
1 10 9 949.159 119.591 3
-1 -10 -9 869.138 99.4842 6
-1 -10 -9 956.310 106.628 8
1 10 10 678.924 105.500 3
-1 -10 -10 648.333 90.3389 6
-1 -10 -10 613.473 95.8383 8
1 10 11 116.234 57.9692 3
-1 -10 -11 -26.4242 52.3346 6
-1 -10 -11 15.5842 54.4488 8
1 11 -5 50.3141 49.5433 4
-1 -11 5 -15.1061 47.4275 9
1 11 -4 1215.56 124.180 4
-1 -11 4 1194.60 115.223 9
1 11 -3 228.429 66.6374 4
-1 -11 3 208.437 66.8991 9
1 11 -2 268.301 68.4113 4
-1 -11 2 469.198 82.4126 9
1 11 -1 2188.17 147.744 4
-1 -11 1 1922.77 133.396 9
1 11 0 9412.14 305.343 4
-1 -11 0 8982.55 283.938 9
-1 -11 0 9435.74 319.243 5
1 11 1 4905.52 214.211 4
-1 -11 -1 4853.02 203.343 9
-1 -11 -1 5052.41 223.512 5
1 11 2 17287.2 420.007 4
-1 -11 -2 16736.4 402.028 9
-1 -11 -2 17909.2 438.092 5
1 11 3 2338.13 144.345 4
1 11 3 2071.11 143.010 3
-1 -11 -3 2502.53 150.135 5
-1 -11 -3 2384.83 140.752 9
1 11 3 2296.89 145.742 7
1 11 4 231.092 55.6102 7
1 11 4 382.969 74.0436 3
-1 -11 -4 293.281 60.7108 9
-1 -11 -4 265.789 59.4016 8
-1 -11 -4 281.544 64.0224 5
1 11 5 326.114 70.8219 3
-1 -11 -5 359.034 70.4805 8
1 11 6 2971.79 190.358 3
-1 -11 -6 3195.00 179.035 8
1 11 7 886.020 109.605 3
-1 -11 -7 819.633 103.413 6
-1 -11 -7 857.694 101.107 8
-1 -11 -8 475.277 85.7572 6
1 11 8 575.970 98.6938 3
-1 -11 -8 404.944 79.0280 8
1 11 9 229.664 71.9165 3
-1 -11 -9 268.188 66.9724 6
-1 -11 -9 308.360 74.6337 8
-1 -11 -10 40.8289 53.1800 6
-1 -11 -10 -60.7982 54.4011 8
1 12 -4 1053.25 124.117 4
-1 -12 4 1166.31 120.709 9
1 12 -3 656.351 98.4559 4
-1 -12 3 677.940 98.6493 9
1 12 -2 248.364 68.3129 4
-1 -12 2 287.016 67.9216 9
1 12 -1 52.2297 49.8571 4
-1 -12 1 179.226 60.4674 9
1 12 0 65.0236 53.3517 4
-1 -12 0 -83.7353 55.8028 9
-1 -12 0 -108.984 66.3185 5
1 12 1 2307.56 156.696 4
-1 -12 -1 2451.46 168.707 5
-1 -12 -1 2363.42 150.975 9
-1 -12 -2 1260.01 120.522 5
-1 -12 -3 1533.28 127.233 5
1 12 5 4966.16 250.485 3
-1 -12 -5 6026.95 247.588 8
1 12 6 1292.91 135.263 3
-1 -12 -6 1509.81 129.732 8
1 12 7 542.239 95.3827 3
-1 -12 -7 643.556 101.877 6
-1 -12 -7 589.381 92.4780 8
-1 -12 -8 4311.16 232.564 6
1 12 8 4132.00 247.305 3
-1 -12 -8 4459.41 233.101 8
1 12 9 -2.52848 58.7687 3
-1 -12 -9 -67.0424 64.3843 6
-1 -12 -10 184.184 69.6249 6
-1 -13 0 347.926 86.9020 5
-1 -13 -1 56.6636 52.6324 5
1 13 6 473.631 97.3388 3
-1 -13 -6 731.693 99.0374 8
1 13 7 92.1875 62.3227 3
-1 -13 -7 -0.83165 55.6539 8
-2 11 6 1311.00 138.201 3
2 -11 -6 1516.64 145.526 8
2 -11 -5 10668.9 372.459 8
-2 10 8 1014.14 127.472 3
-2 10 7 4154.33 239.401 3
2 -10 -7 4274.23 237.766 8
-2 10 6 563.461 95.1277 3
2 -10 -6 420.580 85.8512 8
-2 10 5 395.024 79.0798 3
2 -10 -5 558.830 87.8099 8
-2 10 4 237.814 70.7107 3
2 -10 -4 169.850 55.8140 8
2 -10 -3 -18.9243 49.5341 9
2 -10 -2 3757.42 217.398 9
-2 10 2 3653.24 218.488 4
-2 10 1 2682.21 191.607 4
2 -10 -1 2968.41 194.482 9
-2 10 0 1123.73 130.140 4
2 -10 0 1273.36 133.263 9
2 -10 1 125.902 60.1645 9
-2 10 -1 61.8540 57.6152 4
-2 9 9 190.542 64.5226 3
2 -9 -9 61.7948 52.9557 8
-2 9 8 648.207 99.9583 3
2 -9 -8 852.004 112.551 8
-2 9 7 741.758 102.154 3
2 -9 -7 629.577 92.9632 8
-2 9 6 956.541 113.493 3
2 -9 -6 721.756 99.8623 8
-2 9 5 2144.30 157.563 3
2 -9 -5 1998.26 152.723 8
2 -9 -4 354.298 71.7515 8
-2 9 4 370.767 71.8329 3
2 -9 -3 2215.36 150.204 8
-2 9 3 2111.75 146.439 3
-2 9 2 62.1429 50.4464 4
2 -9 -2 19.9295 48.8182 9
2 -9 -2 -53.7788 44.2175 8
-2 9 1 -17.7228 47.3605 4
2 -9 -1 72.1794 48.1233 9
-2 9 0 97.5548 68.1060 4
2 -9 0 90.2184 55.6873 9
-2 9 -1 1274.05 131.966 4
2 -9 1 1361.15 127.416 9
-2 9 -2 1810.52 152.777 4
2 -9 2 1900.34 147.829 9
-2 9 -3 293.915 76.0635 4
2 -9 3 179.616 65.4628 9
-2 9 -4 1969.88 167.104 4
2 -9 4 2480.88 173.746 9
-2 8 10 5500.50 281.615 3
2 -8 -10 5220.71 268.295 8
2 -8 -9 2131.32 167.360 8
-2 8 9 2238.37 175.437 3
-2 8 8 20.4317 54.6427 3
2 -8 -8 142.218 63.0251 8
-2 8 7 461.549 87.9120 3
2 -8 -7 523.305 89.8911 8
2 -8 -6 8298.76 310.330 8
-2 8 6 8301.72 313.860 3
-2 8 5 79.0212 51.8683 3
2 -8 -5 -31.5500 49.4662 8
-2 8 4 4558.27 215.031 3
2 -8 -4 4282.03 208.997 8
2 -8 -3 5221.58 224.476 8
-2 8 3 4964.81 217.965 3
-2 8 2 4894.62 224.192 4
-2 8 2 4997.34 210.745 3
2 -8 -2 5077.93 214.115 8
-2 8 1 51.5004 40.3984 3
-2 8 1 -48.6161 52.0347 4
2 -8 -1 -14.1601 43.5849 9
2 -8 -1 40.3123 33.6904 8
-2 8 0 80.1909 52.5367 4
2 -8 0 -27.1403 54.9112 9
-2 8 -1 3927.83 208.450 4
2 -8 1 4000.61 202.439 9
-2 8 -2 76.7636 51.3513 4
2 -8 2 6.82323 49.0423 9
-2 8 -3 177.977 51.7475 4
2 -8 3 -49.3406 51.8133 9
-2 8 -4 4211.63 224.175 4
2 -8 4 3800.88 203.458 9
-2 8 -5 1173.19 124.422 4
2 -8 5 1122.13 119.587 9
-2 8 -6 3767.06 221.060 4
2 -8 6 3837.32 214.544 9
-2 7 11 986.290 122.539 3
2 -7 -11 838.604 117.161 8
2 -7 -10 2338.19 173.436 8
-2 7 10 2171.27 173.279 3
-2 7 9 643.855 99.0096 3
2 -7 -9 496.911 90.2419 8
-2 7 8 557.817 91.5143 3
2 -7 -8 539.819 88.0110 8
-2 7 7 192.525 63.7593 3
2 -7 -7 12.1797 45.7652 8
-2 7 6 2076.17 151.849 3
2 -7 -6 1838.78 141.599 8
2 -7 -5 2195.32 150.882 8
-2 7 5 2247.44 150.435 3
-2 7 4 1303.16 111.179 3
2 -7 -4 1434.17 119.250 8
-2 7 3 124.612 48.7814 3
2 -7 -3 48.3859 41.1419 8
-2 7 2 271.837 55.2481 3
-2 7 2 287.661 68.6458 4
2 -7 -2 331.376 63.8098 8
2 -7 -1 3381.98 164.465 8
-2 7 1 3136.75 170.667 4
-2 7 1 3338.69 158.536 3
-2 7 0 9084.73 301.193 4
2 -7 0 9398.90 296.645 9
2 -7 0 9933.29 281.981 8
-2 7 0 9748.76 270.066 3
-2 7 -1 154.901 53.8701 4
2 -7 1 183.301 55.7542 9
-2 7 -2 11048.7 336.681 4
2 -7 2 10601.7 322.737 9
-2 7 -3 733.280 94.5006 4
2 -7 3 655.984 86.8783 9
-2 7 -4 162.667 63.5460 4
2 -7 4 140.759 51.0180 9
-2 7 -5 625.181 91.5478 4
2 -7 5 658.347 90.6459 9
2 -7 6 1720.89 141.057 9
-2 7 -6 1599.98 140.150 4
-2 7 -7 47.9710 51.6679 4
2 -7 7 105.486 54.6780 9
-2 7 -8 1021.39 123.496 4
2 -7 8 1066.89 121.151 9
-2 6 12 2429.43 185.974 3
2 -6 -12 2843.08 193.951 8
-2 6 11 6031.74 284.338 3
2 -6 -11 5430.79 264.125 8
2 -6 -10 25.0757 60.0104 8
-2 6 10 122.410 70.2749 3
-2 6 9 -42.1656 62.3136 3
2 -6 -9 44.9604 47.3822 8
-2 6 8 107.126 63.0331 3
2 -6 -8 199.068 68.1738 8
-2 6 7 2288.89 157.716 3
2 -6 -7 2519.32 164.915 8
2 -6 -6 1547.71 127.141 8
-2 6 6 1472.93 124.309 3
-2 6 5 2050.49 111.499 2
-2 6 5 1941.09 134.884 3
2 -6 -5 1851.50 134.517 8
-2 6 4 4139.10 192.010 3
2 -6 -4 4333.77 198.424 8
-2 6 4 4274.19 153.422 2
2 -6 -3 4364.36 192.942 8
-2 6 3 4500.13 192.231 3
-2 6 3 4084.90 147.435 2
-2 6 2 6218.90 231.875 4
-2 6 2 6651.95 227.356 3
2 -6 -2 6098.44 224.197 8
-2 6 2 6121.17 181.465 2
-2 6 1 1022.58 74.2175 2
-2 6 1 1106.92 100.781 4
-2 6 1 1115.61 89.9510 3
2 -6 -1 1092.01 94.6982 8
-2 6 0 21421.7 468.566 4
2 -6 0 21354.7 460.480 9
2 -6 0 22303.0 450.564 8
-2 6 0 22032.6 431.725 3
-2 6 -1 9632.12 294.066 4
2 -6 1 9760.73 267.688 8
-2 6 -1 10103.7 255.585 3
2 -6 1 9650.20 287.187 9
-2 6 -2 684.981 85.5773 4
-2 6 -2 697.391 63.3099 3
2 -6 2 599.638 78.4190 9
2 -6 2 712.831 70.4136 8
-2 6 -3 9731.45 304.745 4
2 -6 3 9877.20 295.880 9
-2 6 -4 4042.97 194.939 4
2 -6 4 3933.45 185.071 9
-2 6 -5 922.213 99.1116 4
2 -6 5 945.975 93.7458 9
-2 6 -6 71.1809 52.8819 4
2 -6 6 9.65243 50.0130 9
-2 6 -7 651.083 92.3642 4
2 -6 7 598.141 83.5217 9
2 -6 8 1347.46 124.031 9
-2 6 -8 1468.60 136.166 4
-2 6 -9 402.929 85.4513 4
2 -6 9 235.717 71.9864 9
-2 5 14 1499.59 155.880 1
-2 5 13 226.850 78.3718 1
-2 5 13 425.561 92.6395 3
2 -5 -13 322.911 81.1863 8
-2 5 12 -0.70091 49.9846 3
-2 5 12 3.51298 49.9969 1
2 -5 -12 6.99256 48.3959 8
-2 5 11 203.146 56.0154 1
-2 5 11 311.075 71.1068 3
2 -5 -11 319.182 73.7612 8
-2 5 10 681.074 95.3973 3
-2 5 10 529.804 83.7126 1
2 -5 -10 859.840 104.152 8
-2 5 9 1387.16 117.255 1
-2 5 9 1662.67 137.817 3
2 -5 -9 1368.86 122.969 8
-2 5 8 2667.29 168.241 3
2 -5 -8 2680.47 170.086 8
-2 5 7 26184.1 569.878 3
2 -5 -7 25538.9 564.803 8
-2 5 6 522.019 78.0139 3
2 -5 -6 532.048 78.9407 8
-2 5 5 1167.56 102.243 3
2 -5 -5 1077.05 103.565 8
-2 5 4 3506.03 140.915 2
-2 5 4 3905.46 176.896 3
2 -5 -4 3389.42 170.766 8
2 -5 -3 696.101 54.6327 7
-2 5 3 733.057 64.2710 2
-2 5 3 778.814 80.1623 3
2 -5 -3 826.537 85.6734 8
-2 5 2 -2.48332 33.7142 3
-2 5 2 -5.68471 31.0564 2
2 -5 -2 -22.6037 35.1261 8
-2 5 1 95.8187 35.7467 3
-2 5 1 61.4248 41.2230 4
-2 5 1 81.7692 33.6858 2
2 -5 -1 89.7528 40.5201 8
-2 5 0 706.683 75.5880 4
-2 5 0 775.093 68.6737 3
-2 5 0 596.685 62.9057 2
2 -5 0 633.047 69.3417 8
-2 5 -1 14697.2 354.260 4
2 -5 1 15146.3 339.254 8
2 -5 1 15024.3 350.261 9
-2 5 -1 15080.8 321.529 3
-2 5 -2 56830.3 886.836 4
2 -5 2 57297.8 876.743 9
2 -5 2 58390.5 845.896 8
-2 5 -2 57673.0 816.933 3
-2 5 -3 10310.5 294.107 4
2 -5 3 9898.56 281.715 9
2 -5 3 10912.2 262.087 8
-2 5 -3 10327.1 239.579 3
-2 5 -4 311.735 60.8729 4
2 -5 4 254.151 55.1102 9
2 -5 5 6041.66 221.656 9
-2 5 -5 6285.73 237.517 4
2 -5 6 1311.51 106.708 9
-2 5 -6 1339.05 115.478 4
2 -5 7 1516.47 118.739 9
-2 5 -7 1658.76 132.384 4
-2 5 -8 1018.02 106.661 4
2 -5 8 1208.42 111.635 9
-2 5 -9 93.2333 53.9878 4
2 -5 9 196.215 64.8915 9
-2 5 -10 -39.6112 55.0907 4
2 -5 10 -55.8324 58.7807 9
-2 5 -11 -95.7651 55.7406 4
-2 4 14 1178.58 129.525 3
2 -4 -14 1074.09 121.322 8
-2 4 14 1355.18 148.114 1
-2 4 13 5347.93 277.352 1
-2 4 13 5429.30 269.333 3
2 -4 -13 5218.99 258.359 8
-2 4 12 1359.58 132.584 3
-2 4 12 1461.19 141.039 1
2 -4 -12 1557.90 138.776 8
-2 4 11 1972.39 153.745 1
-2 4 11 2275.48 164.970 3
2 -4 -11 1937.82 147.231 8
-2 4 10 1018.88 108.951 3
-2 4 10 1008.31 110.027 1
2 -4 -10 975.710 109.027 8
2 -4 -9 14975.2 414.407 8
-2 4 9 14471.4 398.121 1
-2 4 9 15286.7 418.916 3
-2 4 8 5400.90 230.812 3
-2 4 8 5126.44 215.387 1
2 -4 -8 5359.59 232.104 8
-2 4 7 11997.6 348.759 3
2 -4 -7 12206.6 352.276 8
2 -4 -6 14933.7 391.052 8
-2 4 6 15875.3 393.950 3
2 -4 -5 3981.39 185.499 8
-2 4 5 4064.49 180.940 3
2 -4 -4 37.5473 21.9589 7
-2 4 4 76.3979 42.4093 3
-2 4 4 17.2636 30.8984 2
2 -4 -4 31.8708 33.9412 8
2 -4 -3 484.457 43.7579 7
-2 4 3 399.708 54.7345 2
-2 4 3 348.911 56.2482 3
2 -4 -3 498.287 68.5849 8
2 -4 -2 1191.89 70.5722 7
-2 4 2 1325.22 93.4337 3
-2 4 2 1266.46 81.7971 2
2 -4 -2 1397.24 101.420 8
-2 4 1 312.280 50.5177 3
-2 4 1 339.584 56.2774 4
-2 4 1 276.674 42.3095 2
2 -4 -1 267.063 50.6233 8
-2 4 0 1460.12 87.0734 2
-2 4 0 1306.62 92.6138 4
2 -4 0 1365.90 93.3960 8
-2 4 0 1418.81 90.6184 3
-2 4 -1 11.9706 25.9687 3
-2 4 -1 7.77714 37.2271 4
2 -4 1 57.9396 31.3756 9
-2 4 -1 71.8351 36.5221 2
2 -4 1 72.6669 33.9451 8
-2 4 -2 10445.6 273.801 4
2 -4 2 10501.5 266.627 9
2 -4 2 10383.0 257.069 8
-2 4 -2 10096.6 239.827 3
-2 4 -3 6831.85 220.013 4
2 -4 3 7161.73 202.781 8
2 -4 3 7120.82 218.167 9
-2 4 -3 7454.62 194.611 3
2 -4 4 11894.1 296.363 9
2 -4 4 12082.1 270.845 8
-2 4 -4 11905.1 307.044 4
2 -4 5 673.720 74.8198 9
-2 4 -5 601.981 73.6360 4
-2 4 -6 16.2278 37.9340 4
2 -4 6 13.9684 36.6530 9
-2 4 -7 2428.20 146.141 4
2 -4 7 2494.92 139.292 9
2 -4 8 3125.07 163.464 9
-2 4 -8 3004.99 169.018 4
-2 4 -9 325.248 64.9501 4
2 -4 9 235.921 63.1687 9
2 -4 10 2478.50 160.585 9
-2 4 -10 2688.93 173.551 4
-2 4 -11 210.050 71.1925 4
2 -4 11 255.749 73.4207 9
-2 4 -12 4686.42 243.286 4
-2 3 14 1639.98 165.480 1
-2 3 14 1950.07 163.562 3
2 -3 -14 1268.52 131.065 8
2 -3 -13 1422.91 134.185 8
-2 3 13 1371.07 144.062 1
-2 3 13 1597.24 142.330 3
-2 3 12 1252.96 124.539 3
-2 3 12 1163.67 126.835 1
2 -3 -12 1097.74 114.219 8
-2 3 11 673.107 91.5048 3
2 -3 -11 672.666 91.9705 8
-2 3 11 716.480 100.671 1
-2 3 10 164.467 55.8181 1
-2 3 10 146.305 52.5757 3
2 -3 -10 157.051 57.7575 8
-2 3 9 -0.50945 41.8814 1
-2 3 9 77.9110 51.2645 3
2 -3 -9 58.6853 47.2480 8
-2 3 8 11766.3 341.826 1
-2 3 8 12533.3 351.695 3
2 -3 -8 11754.5 345.423 8
-2 3 7 70554.7 1074.81 3
-2 3 7 69484.7 1061.37 1
2 -3 -7 71003.4 1084.40 8
-2 3 6 3462.83 167.136 3
2 -3 -6 3291.32 167.972 8
2 -3 -5 104.023 19.5894 7
-2 3 5 118.556 44.6650 3
2 -3 -5 26.6200 35.1798 8
2 -3 -4 6583.39 139.438 7
2 -3 -4 6654.39 227.952 8
-2 3 4 6616.79 218.730 3
2 -3 -3 5344.07 134.350 7
-2 3 3 5040.79 170.484 2
-2 3 3 5194.08 186.890 3
2 -3 -3 5251.10 195.116 8
2 -3 -2 10053.6 211.623 7
-2 3 2 9918.93 244.346 2
-2 3 2 10132.6 261.765 3
2 -3 -2 10232.0 272.280 8
-2 3 1 11690.4 275.499 4
2 -3 -1 12017.2 252.285 7
2 -3 -1 12116.9 294.644 8
-2 3 1 11887.6 279.302 3
-2 3 1 11962.8 269.169 2
2 -3 0 40.3417 26.2554 7
-2 3 0 60.6074 33.2051 4
-2 3 0 15.0893 23.1475 3
-2 3 0 34.1533 28.5695 2
2 -3 0 5.82003 24.5248 8
-2 3 -1 5704.89 179.716 2
-2 3 -1 5821.83 181.881 4
-2 3 -1 6328.16 190.414 6
2 -3 1 5897.65 177.330 9
2 -3 1 6247.64 192.063 8
-2 3 -1 5963.23 176.517 3
-2 3 -2 1253.79 83.7404 4
-2 3 -2 1345.41 91.4409 6
2 -3 2 1245.13 80.0702 9
-2 3 -2 1253.00 77.7019 3
-2 3 -3 8658.94 250.788 6
2 -3 3 8346.49 222.996 9
-2 3 -3 8803.99 233.157 4
-2 3 -4 10303.1 290.438 6
2 -3 4 10406.1 255.976 9
-2 3 -4 10427.4 266.751 4
-2 3 -5 86.1093 43.8003 4
2 -3 5 68.1113 41.3570 9
-2 3 -5 78.3308 45.9366 6
-2 3 -6 1961.47 131.871 6
2 -3 6 1798.99 109.950 9
-2 3 -6 1849.19 116.040 4
-2 3 -7 875.326 86.5952 4
-2 3 -7 931.855 99.1432 6
2 -3 7 830.894 80.0792 9
-2 3 -8 5876.11 249.760 6
2 -3 8 5832.41 214.158 9
-2 3 -8 5910.59 223.863 4
-2 3 -9 2816.57 178.407 6
2 -3 9 2689.27 149.991 9
-2 3 -9 2703.33 156.010 4
2 -3 10 701.237 88.7754 9
-2 3 -10 776.239 90.9845 4
-2 3 -11 -3.38837 45.8995 4
2 -3 11 112.273 59.6503 9
2 -3 12 3152.51 187.053 9
-2 3 -12 2620.48 175.782 4
-2 2 14 127.173 69.0396 1
-2 2 13 163.381 66.6682 1
-2 2 13 62.9058 44.4681 3
2 -2 -13 34.5571 54.4629 8
-2 2 12 1232.59 130.031 1
-2 2 12 1293.87 121.492 3
2 -2 -12 1344.26 121.187 8
-2 2 11 25.3558 43.6889 1
2 -2 -11 97.8260 46.0584 8
-2 2 10 792.317 91.2569 3
-2 2 10 934.065 106.323 1
2 -2 -10 908.845 97.9083 8
-2 2 9 42.2270 41.2727 1
-2 2 9 65.7989 39.7913 3
2 -2 -9 83.9667 38.5325 8
-2 2 8 33.2891 35.9340 3
-2 2 8 76.4865 45.8388 1
2 -2 -8 98.2033 47.1521 8
-2 2 7 29720.4 578.158 1
-2 2 7 29942.5 570.030 3
2 -2 -7 28763.2 570.984 8
2 -2 -6 258.318 26.4956 7
-2 2 6 305.302 57.3748 1
-2 2 6 227.025 50.4466 3
2 -2 -6 234.297 49.7805 8
2 -2 -5 5143.07 118.056 7
-2 2 5 4990.83 189.149 3
2 -2 -5 5057.81 196.206 8
2 -2 -4 2955.66 89.2580 7
-2 2 4 2978.62 139.994 3
2 -2 -4 3079.56 147.669 8
2 -2 -3 1740.25 72.3536 7
2 -2 -3 1653.82 105.003 8
-2 2 3 1636.20 99.9656 3
2 -2 -2 5841.28 149.320 7
-2 2 2 5529.93 176.515 2
-2 2 2 5431.81 179.201 3
2 -2 -2 5681.62 190.939 8
2 -2 -1 9668.82 212.535 7
-2 2 1 9703.37 207.323 6
-2 2 1 9299.95 234.079 2
-2 2 1 9496.44 237.465 3
-2 2 0 4918.96 150.796 4
2 -2 0 4703.32 148.227 7
-2 2 0 4710.31 145.190 6
-2 2 0 4682.07 157.027 3
-2 2 0 4775.07 158.731 2
-2 2 -1 11097.9 243.570 4
2 -2 1 10791.5 249.839 7
-2 2 -1 10788.9 246.987 6
-2 2 -1 10390.9 243.985 3
-2 2 -1 10476.8 251.706 2
-2 2 -2 660.531 58.1471 4
-2 2 -2 757.979 66.9075 6
-2 2 -2 647.774 64.1891 2
2 -2 2 693.422 56.7612 9
-2 2 -2 667.623 58.6551 3
-2 2 -3 6322.06 199.842 6
2 -2 3 6516.12 177.945 9
-2 2 -3 6631.67 184.251 4
-2 2 -4 199.355 40.6718 4
-2 2 -4 259.735 48.5829 6
2 -2 4 321.356 43.8646 9
-2 2 -5 8064.53 252.134 6
2 -2 5 8290.14 216.998 9
-2 2 -5 8440.42 227.216 4
-2 2 -6 51.9238 36.6947 6
-2 2 -6 85.3485 35.0283 4
2 -2 6 110.626 38.9269 9
-2 2 -7 235.084 49.3245 4
-2 2 -7 238.121 58.2516 6
2 -2 7 189.828 44.8874 9
-2 2 -8 175.872 50.4776 4
2 -2 8 82.2748 41.6884 9
-2 2 -8 206.564 61.4770 6
-2 2 -9 451.087 67.6654 4
2 -2 9 647.265 78.2536 9
-2 2 -9 822.853 95.5459 6
-2 2 -10 43.9043 41.1823 4
-2 2 -10 71.3222 51.2419 6
2 -2 11 1105.58 104.956 9
-2 2 -11 1186.16 125.704 6
-2 2 -11 1163.31 109.633 4
-2 2 -12 229.661 59.1222 4
2 -2 12 219.560 63.9891 9
-2 2 -12 311.872 82.6034 6
2 -2 13 256.965 61.5086 9
-2 2 -13 203.234 64.0274 4
-2 1 13 123.223 60.7402 1
2 -1 -13 161.741 64.8612 4
-2 1 12 730.055 106.917 1
-2 1 12 864.289 96.5484 3
2 -1 -12 742.711 94.8916 8
-2 1 11 3487.79 208.891 1
-2 1 11 3394.41 179.309 3
2 -1 -11 3452.77 181.235 8
-2 1 10 3598.95 203.521 1
-2 1 10 3515.79 178.295 3
2 -1 -10 3298.93 176.101 8
-2 1 9 -11.4276 36.9306 3
-2 1 9 91.9492 55.8608 1
2 -1 -9 -26.1642 40.9037 8
-2 1 8 10694.4 330.175 1
-2 1 8 10558.2 302.474 3
2 -1 -8 10662.5 311.016 8
-2 1 7 27.5791 35.4562 3
-2 1 7 31.0844 34.9538 1
2 -1 -7 94.6111 44.0894 8
2 -1 -7 38.7830 20.9397 7
-2 1 6 8585.29 266.160 1
-2 1 6 8319.92 248.024 3
2 -1 -6 8256.32 255.849 8
2 -1 -6 8493.93 177.551 7
-2 1 5 4524.00 171.815 3
2 -1 -5 4486.93 178.518 8
2 -1 -5 4463.38 120.000 7
2 -1 -4 4574.63 121.285 7
-2 1 4 4542.45 167.252 3
2 -1 -4 4417.59 172.422 8
2 -1 -3 5297.45 136.026 7
-2 1 3 5458.34 111.080 6
-2 1 3 4941.70 170.604 3
2 -1 -3 5263.83 183.378 8
2 -1 -2 1097.70 62.5812 7
-2 1 2 1247.28 56.8921 6
-2 1 2 1130.21 80.0528 2
-2 1 2 1250.26 82.9838 3
2 -1 -1 71886.6 934.329 7
-2 1 1 73000.9 913.169 6
-2 1 1 70127.0 975.800 2
-2 1 1 72489.4 974.982 3
2 -1 0 2156.10 96.5900 7
-2 1 0 2198.73 92.4833 6
-2 1 0 2136.39 102.369 3
-2 1 0 2253.72 108.321 2
2 -1 1 10.3892 29.9160 7
-2 1 -1 -40.1927 26.1195 4
-2 1 -1 11.7611 25.0308 3
-2 1 -1 64.7571 33.0598 2
-2 1 -1 7.80745 24.4451 6
-2 1 -2 1744.95 80.2074 4
-2 1 -2 1526.51 92.5365 2
2 -1 2 1742.95 95.0522 7
-2 1 -2 1717.51 92.4108 6
2 -1 2 1728.01 77.0281 9
2 -1 3 21430.4 406.141 7
-2 1 -3 22096.3 408.640 6
2 -1 3 21767.6 352.724 9
-2 1 -3 21216.0 360.022 4
-2 1 -4 16011.7 346.897 6
2 -1 4 16024.2 292.793 9
-2 1 -4 15556.0 300.174 4
2 -1 5 7127.20 182.910 9
-2 1 -5 6990.47 225.411 6
-2 1 -5 6973.63 189.970 4
-2 1 -6 8504.85 261.172 6
2 -1 6 8474.80 213.281 9
-2 1 -6 8495.23 221.858 4
-2 1 -7 551.978 60.7444 4
-2 1 -7 488.971 73.7854 6
2 -1 7 547.042 61.9519 9
-2 1 -8 -37.6063 33.1892 4
2 -1 8 6.40059 36.0152 9
-2 1 -8 20.6313 39.9587 6
-2 1 -9 8224.00 289.746 6
2 -1 9 8214.21 244.361 9
-2 1 -9 8439.73 252.962 4
-2 1 -10 2724.88 170.625 6
2 -1 10 2520.55 140.152 9
-2 1 -10 2507.00 140.019 4
2 -1 11 1022.36 100.395 9
-2 1 -11 1051.85 99.5085 4
-2 1 -11 1386.46 127.961 6
-2 1 -12 28.0940 42.2508 4
2 -1 12 13.5309 50.6772 9
-2 1 -12 -11.0519 47.9068 6
-2 1 -13 580.780 82.8968 4
2 -1 13 625.817 91.6018 9
-2 1 -13 633.994 98.1420 6
2 0 -13 850.295 102.229 4
-2 0 13 986.919 127.785 1
2 0 -12 987.945 103.643 4
-2 0 12 957.429 122.923 1
-2 0 11 618.921 96.9150 1
-2 0 11 695.484 80.4569 3
2 0 -11 626.009 82.2424 8
-2 0 10 566.190 86.7727 1
-2 0 10 496.037 72.4951 3
2 0 -10 565.392 76.1374 8
-2 0 9 836.765 84.8143 3
-2 0 9 1037.64 108.644 1
2 0 -9 953.706 93.1026 8
-2 0 8 1713.86 129.286 1
-2 0 8 1781.69 91.1890 5
-2 0 8 1932.31 118.883 3
2 0 -8 1856.28 120.294 8
-2 0 7 1889.59 127.586 1
-2 0 7 1882.56 90.4100 5
-2 0 7 2023.20 117.593 3
2 0 -7 1931.69 121.697 8
2 0 -7 1777.02 86.8594 7
-2 0 6 1595.63 102.577 3
-2 0 6 1513.09 110.849 1
-2 0 6 1534.26 77.9917 5
2 0 -6 1429.48 100.532 8
2 0 -6 1471.97 76.3058 7
-2 0 5 6664.25 225.827 1
-2 0 5 6725.94 207.110 3
2 0 -5 6632.83 213.807 8
2 0 -5 6947.78 168.403 7
2 0 -4 16811.1 290.117 7
-2 0 4 15807.0 218.662 6
2 0 -4 16650.9 353.798 8
-2 0 4 16306.9 338.551 3
2 0 -3 916.535 58.0627 7
-2 0 3 1016.97 42.7072 6
-2 0 3 931.448 72.5760 3
2 0 -2 3853.33 123.461 7
-2 0 2 4201.41 103.937 6
-2 0 2 3891.26 142.042 3
2 0 -1 1040.30 65.7101 7
-2 0 1 1040.57 57.0328 6
-2 0 1 1017.87 77.7103 2
-2 0 1 1040.60 72.0022 3
2 0 0 2529.94 106.304 7
-2 0 0 2511.12 94.4684 6
-2 0 0 2615.70 116.686 2
-2 0 0 2513.62 110.362 3
-2 0 -1 205.825 42.5572 2
2 0 1 307.028 47.4435 7
-2 0 -1 239.383 30.3486 4
-2 0 -1 180.080 34.6501 6
2 0 2 38.7517 30.1987 7
-2 0 -2 64.2527 21.7652 4
-2 0 -2 62.4008 28.9883 6
-2 0 -2 88.7845 38.1836 2
2 0 2 63.6276 19.6576 9
2 0 3 70.7155 34.5966 7
-2 0 -3 83.0308 21.6037 4
-2 0 -3 135.022 36.9083 6
2 0 3 125.344 23.7129 9
-2 0 -3 113.516 37.7474 2
-2 0 -4 486.427 55.3537 6
2 0 4 528.133 61.9583 7
-2 0 -4 405.742 39.6524 4
2 0 4 552.734 43.3491 9
2 0 5 33107.5 572.096 7
-2 0 -5 34018.2 575.604 6
2 0 5 33662.9 489.685 9
-2 0 -5 33173.2 498.957 4
-2 0 -6 -0.28514 25.0582 4
2 0 6 19.5579 39.2294 7
-2 0 -6 -21.8953 35.4317 6
2 0 6 0.19801 24.1621 9
-2 0 -7 100.214 32.5353 4
2 0 7 215.694 52.2599 7
-2 0 -7 162.860 51.3714 6
2 0 7 97.4189 33.8416 9
2 0 8 1536.23 116.033 7
-2 0 -8 1523.93 116.308 6
2 0 8 1397.01 89.9573 9
-2 0 -8 1703.18 97.3037 4
2 0 9 13914.7 370.401 7
2 0 9 13343.1 311.265 9
-2 0 -9 13768.8 377.013 6
-2 0 -9 13578.6 317.297 4
2 0 10 28758.7 599.245 7
-2 0 -10 30206.1 621.017 6
2 0 10 27848.3 524.916 9
-2 0 -10 29046.9 536.754 4
2 0 11 5853.54 249.826 7
-2 0 -11 5678.96 250.580 6
2 0 11 5828.45 214.050 9
-2 0 -11 5453.00 211.026 4
-2 0 -12 61.9883 43.5326 4
2 0 12 -5.75154 51.1105 7
2 0 12 31.0373 55.5571 9
-2 0 -12 56.1822 48.3694 6
2 0 13 113.725 58.5731 7
-2 0 -13 150.815 56.1560 6
2 0 14 1840.52 157.946 7
-2 0 -14 1767.95 157.171 6
-2 -1 13 5197.01 283.672 1
-2 -1 13 5137.52 247.765 9
2 1 -13 5341.37 244.493 4
2 1 -12 210.565 54.5168 4
-2 -1 12 98.5036 56.1415 9
-2 -1 12 154.788 53.4219 1
-2 -1 11 57.3525 47.8559 1
2 1 -11 54.6462 42.7270 4
-2 -1 11 0.73859 53.0553 9
-2 -1 10 12211.9 389.974 1
-2 -1 10 11791.0 335.228 9
2 1 -10 11081.1 317.755 8
2 1 -10 12379.2 334.028 4
-2 -1 10 11924.1 319.369 3
2 1 -9 655.026 73.0337 4
-2 -1 9 541.835 84.2749 1
-2 -1 9 574.210 70.9914 3
-2 -1 9 507.716 70.4959 9
-2 -1 9 588.911 62.4749 5
2 1 -9 434.619 63.7056 8
-2 -1 8 48.8949 34.6756 3
-2 -1 8 30.8407 38.2110 9
-2 -1 8 24.0792 32.2261 5
-2 -1 8 30.9522 43.3976 1
2 1 -8 14.3156 31.5842 8
-2 -1 7 684.103 71.1091 9
2 1 -7 682.066 60.0631 7
-2 -1 7 720.175 85.7645 1
-2 -1 7 631.418 64.6248 3
-2 -1 7 754.721 64.3035 5
2 1 -7 767.589 77.1666 8
-2 -1 6 5397.31 174.904 9
-2 -1 6 5309.93 210.427 1
-2 -1 6 5065.93 159.617 5
2 1 -6 5448.02 193.595 8
-2 -1 6 5374.29 179.448 3
2 1 -6 5382.18 161.802 7
-2 -1 5 17020.4 243.062 6
-2 -1 5 17112.7 330.040 9
-2 -1 5 17475.0 324.839 5
-2 -1 5 16939.8 389.630 1
2 1 -5 17244.9 365.035 8
-2 -1 5 17346.6 349.685 3
2 1 -5 17532.0 323.839 7
-2 -1 4 23451.1 321.398 6
-2 -1 4 23112.6 394.869 5
-2 -1 4 23103.4 419.134 3
2 1 -4 23746.3 393.091 7
2 1 -3 2353.99 98.9301 7
-2 -1 3 2339.31 72.7034 6
-2 -1 3 2367.46 111.283 3
2 1 -2 46.0519 28.7931 7
-2 -1 2 32.3188 21.3727 6
-2 -1 2 -7.98985 27.3704 3
2 1 -1 3206.01 117.772 7
-2 -1 1 3235.25 101.331 6
-2 -1 1 2955.43 127.947 2
-2 -1 1 3336.14 127.891 3
2 1 0 28.2944 31.0547 7
-2 -1 0 -0.28729 34.9032 2
-2 -1 0 -6.46170 24.1537 6
2 1 1 3985.74 138.242 7
-2 -1 -1 3619.16 121.192 6
-2 -1 -1 3548.50 138.692 2
2 1 2 325.725 48.8512 7
-2 -1 -2 260.691 25.1006 4
2 1 2 283.220 24.7188 9
-2 -1 -2 334.316 45.0473 6
-2 -1 -2 268.057 48.0361 2
-2 -1 -3 368.783 29.5681 4
2 1 3 302.009 47.9994 7
-2 -1 -3 300.019 45.9583 6
2 1 3 277.829 25.2701 9
-2 -1 -3 314.075 49.8208 2
2 1 4 1025.65 78.0969 7
-2 -1 -4 983.452 75.1537 6
2 1 4 907.393 45.4667 9
-2 -1 -4 1119.75 52.1080 4
2 1 5 12289.4 293.227 7
-2 -1 -5 11844.3 287.110 6
2 1 5 11959.7 216.157 9
-2 -1 -5 11975.9 221.826 4
2 1 6 1895.62 113.937 7
-2 -1 -6 2050.48 116.862 6
2 1 6 1879.25 81.1852 9
-2 -1 -6 1939.51 83.1508 4
-2 -1 -7 153.043 33.5723 4
2 1 7 211.084 50.0049 7
2 1 7 106.534 33.4334 9
-2 -1 -7 58.2229 34.7777 6
-2 -1 -8 101.721 32.7370 4
2 1 8 136.929 51.6910 7
-2 -1 -8 67.0353 38.5008 6
2 1 8 47.9062 34.4991 9
2 1 9 3798.39 181.641 7
-2 -1 -9 3985.80 190.321 6
2 1 9 3812.31 148.051 9
-2 -1 -9 3781.79 147.661 4
2 1 10 6898.55 255.918 7
-2 -1 -10 6909.63 264.105 6
2 1 10 6798.53 213.067 9
-2 -1 -10 6527.80 210.465 4
2 1 11 3485.53 186.118 7
2 1 11 3399.52 157.456 9
-2 -1 -11 3715.67 199.623 6
-2 -1 -11 3685.83 165.073 4
2 1 12 6490.71 267.075 7
-2 -1 -12 6803.20 278.138 6
2 1 12 5715.44 218.168 9
2 1 13 161.651 66.4551 7
-2 -1 -13 130.983 53.8071 6
2 1 14 148.204 64.9314 7
-2 -1 -14 243.660 72.4209 6
2 2 -13 906.647 110.281 4
-2 -2 13 817.467 107.544 9
-2 -2 13 858.363 128.283 1
2 2 -12 16.9222 47.5537 4
-2 -2 12 -0.18597 60.0607 9
-2 -2 12 -86.9341 50.1847 1
-2 -2 11 1129.65 124.811 1
2 2 -11 1182.99 108.397 4
-2 -2 11 1182.41 115.429 9
2 2 -10 -41.3467 45.8085 4
-2 -2 10 58.9911 62.3859 1
-2 -2 10 38.2183 51.2771 9
2 2 -9 11806.5 309.726 8
-2 -2 9 12471.8 330.785 9
-2 -2 9 11640.0 372.364 1
2 2 -9 12620.1 325.936 4
-2 -2 9 12760.2 306.128 3
-2 -2 8 1671.22 132.725 1
-2 -2 8 1662.24 111.485 9
2 2 -8 1853.75 112.755 4
2 2 -8 1443.19 103.144 8
-2 -2 8 1539.93 99.5306 3
-2 -2 7 1377.04 96.0055 9
-2 -2 7 1239.75 111.845 1
-2 -2 7 1202.45 87.6904 5
2 2 -7 1183.20 86.6928 4
2 2 -7 1202.55 93.3749 8
-2 -2 7 1552.12 94.5542 3
2 2 -7 1324.10 88.2452 7
2 2 -6 236.389 43.5219 4
2 2 -6 207.484 39.8882 7
-2 -2 6 220.541 40.7234 3
-2 -2 6 179.901 43.7749 5
-2 -2 6 271.598 57.1377 1
2 2 -6 156.907 40.9712 8
-2 -2 6 197.675 47.4742 9
-2 -2 5 1687.17 90.3872 9
-2 -2 5 1573.50 91.8283 5
-2 -2 5 1993.57 124.116 1
2 2 -5 1717.44 101.820 8
-2 -2 5 1878.83 98.8479 3
2 2 -5 1772.67 95.6203 7
-2 -2 4 26319.2 384.220 6
-2 -2 4 26448.4 423.947 9
-2 -2 4 26132.1 447.436 5
-2 -2 4 26733.7 452.327 3
2 2 -4 26540.7 447.606 7
2 2 -3 585.344 55.8482 7
-2 -2 3 564.461 42.2014 6
-2 -2 3 559.921 47.4048 9
-2 -2 3 514.767 55.7328 3
-2 -2 3 558.352 57.3274 5
2 2 -2 1854.90 93.6431 7
-2 -2 2 1679.82 73.0921 6
-2 -2 2 1856.34 96.4609 5
-2 -2 2 1678.83 93.4236 3
-2 -2 1 45.5767 37.0159 2
2 2 -1 62.5712 31.5071 7
-2 -2 1 37.8208 25.9477 6
2 2 0 2100.81 99.4952 7
-2 -2 0 2044.43 87.2727 6
-2 -2 0 2021.67 103.358 2
2 2 1 180805. 1737.10 7
-2 -2 -1 181366. 1703.89 6
-2 -2 -1 176369. 1752.69 2
2 2 2 61846.9 860.478 7
-2 -2 -2 62330.3 841.196 6
-2 -2 -2 61718.6 864.313 2
2 2 3 5602.12 171.138 7
-2 -2 -3 5559.78 172.009 2
-2 -2 -3 5497.37 162.070 6
2 2 4 1715.32 98.8733 7
-2 -2 -4 1668.39 95.1198 6
2 2 4 1477.60 48.3449 9
-2 -2 -4 1719.98 52.9694 4
2 2 5 484.948 61.2711 7
2 2 5 490.428 34.5289 9
-2 -2 -5 431.077 56.2948 6
-2 -2 -5 530.866 34.8811 4
-2 -2 -6 204.476 29.4723 4
2 2 6 249.334 53.6918 7
-2 -2 -6 206.754 49.3061 6
2 2 6 188.316 29.5023 9
-2 -2 -7 403.971 42.1942 4
2 2 7 348.655 59.4254 7
-2 -2 -7 429.287 62.3221 6
2 2 7 348.585 40.2448 9
-2 -2 -8 413.489 46.8171 4
2 2 8 407.861 64.5757 7
-2 -2 -8 642.529 76.4573 6
2 2 8 427.089 47.9265 9
2 2 9 2719.52 150.235 7
-2 -2 -9 2806.15 155.600 6
2 2 9 2294.30 109.396 9
-2 -2 -9 2699.24 116.305 4
2 2 10 8134.11 274.052 7
-2 -2 -10 7887.61 277.678 6
2 2 10 7429.12 217.622 9
-2 -2 -10 7980.49 224.537 4
2 2 11 45097.1 800.886 7
-2 -2 -11 45755.6 825.793 6
2 2 12 1675.20 132.921 7
-2 -2 -12 1692.93 136.214 6
2 2 13 444.965 88.7749 7
-2 -2 -13 296.544 70.4645 6
2 2 14 767.323 104.602 7
-2 -2 -14 642.957 97.7990 6
2 3 -13 2978.45 188.877 4
-2 -3 12 113.854 60.6603 1
2 3 -12 378.876 80.3463 4
-2 -3 12 295.630 76.6919 9
2 3 -11 444.576 78.3074 4
-2 -3 11 643.461 100.386 1
-2 -3 11 343.883 76.3159 9
2 3 -10 -34.3444 42.2307 4
-2 -3 10 23.5081 43.1117 1
-2 -3 10 29.5722 45.7247 9
2 3 -9 283.304 59.1876 4
-2 -3 9 268.971 66.1141 1
-2 -3 9 354.279 66.4045 9
-2 -3 8 1291.20 118.381 1
-2 -3 8 1210.73 98.7243 9
2 3 -8 1387.22 97.4616 8
2 3 -8 1352.99 100.189 4
-2 -3 8 1386.90 91.5530 3
-2 -3 7 4066.94 163.763 9
-2 -3 7 3788.57 191.401 1
2 3 -7 3962.84 157.094 4
2 3 -7 3715.21 156.141 8
-2 -3 7 3957.11 149.128 3
2 3 -7 3710.82 158.357 7
2 3 -6 18.7152 34.5990 7
2 3 -6 -19.3041 30.0543 4
-2 -3 6 35.3258 26.3489 3
-2 -3 6 67.1276 38.6659 9
-2 -3 6 27.2563 35.0897 5
-2 -3 6 42.8982 40.2873 1
2 3 -6 40.6316 30.9575 8
2 3 -5 -19.4825 29.3179 4
2 3 -5 45.0285 33.4024 7
-2 -3 5 -53.1652 43.6687 1
-2 -3 5 -19.5311 25.6628 3
-2 -3 5 -41.7538 33.3828 9
-2 -3 5 16.4673 34.2484 5
2 3 -4 15060.7 284.038 4
-2 -3 4 14523.8 288.742 9
-2 -3 4 15080.7 325.741 5
-2 -3 4 15217.2 307.251 3
2 3 -4 15222.8 323.547 7
2 3 -3 566.435 59.8358 7
-2 -3 3 539.362 47.6752 9
-2 -3 3 549.699 60.6761 5
2 3 -3 469.504 45.3132 4
2 3 -2 472.275 54.9058 7
-2 -3 2 513.911 41.4355 9
-2 -3 2 497.044 48.7234 6
-2 -3 2 505.390 57.5767 5
2 3 -2 506.428 38.7592 4
2 3 -1 -24.2009 15.1785 4
-2 -3 1 -5.65866 30.4990 2
2 3 -1 -18.4177 32.2822 7
-2 -3 1 -27.9693 30.7444 6
-2 -3 1 11.4345 16.5454 9
-2 -3 1 -27.1451 32.2156 5
2 3 0 39228.7 587.814 7
-2 -3 0 39481.8 563.964 6
2 3 0 37574.5 462.420 9
-2 -3 0 39784.9 597.660 2
2 3 0 36946.0 464.076 4
2 3 1 44330.4 658.479 7
-2 -3 -1 44166.2 637.342 6
-2 -3 -1 43627.8 660.912 2
2 3 2 3527.24 137.326 7
-2 -3 -2 3568.91 131.601 6
-2 -3 -2 3705.32 139.992 2
-2 -3 -3 24443.7 434.467 2
2 3 3 24531.8 436.072 7
-2 -3 -3 24082.0 427.491 6
2 3 4 253.448 44.8417 7
-2 -3 -4 223.345 42.5230 6
2 3 5 380.305 54.7864 7
-2 -3 -5 322.877 53.8541 6
-2 -3 -5 400.054 26.2713 4
-2 -3 -6 2.21376 15.2500 4
2 3 6 -8.66668 34.1866 7
-2 -3 -6 -7.88956 36.8768 6
2 3 6 10.2587 17.8307 9
2 3 7 3564.67 156.976 7
-2 -3 -7 3572.79 159.919 6
2 3 7 3523.47 107.782 9
-2 -3 -7 3623.87 109.534 4
-2 -3 -8 70.1416 26.7177 4
2 3 8 109.100 45.1885 7
-2 -3 -8 87.1571 43.7214 6
2 3 8 89.4132 32.4896 9
2 3 9 11.6245 43.0057 7
-2 -3 -9 1.48021 37.6359 6
2 3 9 48.7118 31.2739 9
2 3 10 84.0532 54.4811 7
-2 -3 -10 27.0167 41.3866 6
2 3 11 134.296 51.5673 7
-2 -3 -11 64.2402 52.8651 6
2 3 12 1564.46 126.905 7
-2 -3 -12 1845.50 140.927 6
2 3 13 79.6324 53.8455 7
-2 -3 -13 35.1209 47.6816 6
-2 -3 -14 47.4103 52.6016 6
-2 -3 -15 -36.4760 62.3686 6
2 4 -12 10.7494 52.9440 4
-2 -4 12 61.4122 69.4507 9
2 4 -11 316.416 70.6067 4
-2 -4 11 342.746 85.3695 1
-2 -4 11 418.965 79.4305 9
-2 -4 10 288.434 75.5789 1
-2 -4 10 228.106 62.4084 9
-2 -4 9 7615.96 301.345 1
-2 -4 9 7259.72 255.817 9
2 4 -9 7242.38 250.669 4
-2 -4 8 37245.7 741.568 1
-2 -4 8 38606.2 672.075 9
2 4 -8 39766.3 670.658 4
-2 -4 7 9739.51 270.908 9
-2 -4 7 9463.46 312.964 1
2 4 -7 9913.78 266.758 4
2 4 -7 9703.53 280.960 7
-2 -4 6 4464.13 166.594 9
-2 -4 6 4537.44 201.327 1
2 4 -6 4369.04 161.168 4
2 4 -6 4203.78 158.087 8
2 4 -6 4601.59 181.879 7
-2 -4 5 1811.11 98.4244 9
-2 -4 5 1755.13 113.245 5
-2 -4 5 1999.19 128.902 1
2 4 -5 1991.52 102.077 4
2 4 -5 2123.35 120.524 7
2 4 -4 113.391 38.7010 7
2 4 -4 116.052 32.5121 4
-2 -4 4 119.887 33.9237 9
-2 -4 4 190.390 45.6613 5
2 4 -3 50.1254 33.7563 7
2 4 -3 -3.91339 23.6847 4
-2 -4 3 -2.83487 25.8985 9
-2 -4 3 -37.7967 32.6851 5
-2 -4 2 2065.88 79.9695 9
-2 -4 2 1836.16 106.948 5
2 4 -2 2143.07 81.9419 4
2 4 -2 1931.65 108.038 7
-2 -4 1 531.339 56.8542 2
2 4 -1 569.381 61.7271 7
-2 -4 1 437.056 56.0543 5
2 4 -1 523.344 36.3222 4
-2 -4 1 545.512 37.6961 9
2 4 0 795.205 70.3138 7
-2 -4 0 808.398 64.9392 6
-2 -4 0 729.244 34.9125 9
-2 -4 0 797.331 73.0534 5
-2 -4 0 782.529 65.8679 2
2 4 0 782.293 35.7373 4
2 4 1 24537.4 436.074 7
-2 -4 -1 24629.5 423.427 6
-2 -4 -1 23537.1 425.880 2
2 4 2 165821. 2054.02 7
-2 -4 -2 169024. 2045.69 6
-2 -4 -2 168219. 2038.41 2
2 4 3 9591.13 246.204 7
-2 -4 -3 9387.84 237.395 2
-2 -4 -3 9719.39 244.759 6
2 4 4 249.467 48.4571 7
-2 -4 -4 148.457 40.7918 6
2 4 5 1303.23 92.1254 7
-2 -4 -5 1095.43 85.5638 6
-2 -4 -5 894.881 34.7504 4
2 4 6 785.885 77.7839 7
-2 -4 -6 700.309 73.5037 6
-2 -4 -6 697.827 39.4318 4
2 4 7 21979.6 440.731 7
-2 -4 -7 22022.3 449.259 6
2 4 8 -72.3873 45.1573 7
-2 -4 -8 43.8428 39.0705 6
2 4 9 -66.7507 46.3122 7
-2 -4 -9 -30.2654 41.2790 6
2 4 10 1395.04 111.194 7
-2 -4 -10 1547.15 122.359 6
2 4 11 1859.18 132.047 7
-2 -4 -11 1637.00 129.132 6
2 4 12 5269.22 222.356 7
-2 -4 -12 4734.13 223.341 6
2 4 13 192.947 65.5024 3
2 4 13 77.6981 51.2672 7
-2 -4 -13 125.205 56.0167 6
-2 -4 -14 687.608 102.195 6
-2 -4 -15 83.3924 64.5041 6
2 5 -12 928.243 110.091 4
-2 -5 12 1101.04 121.756 9
-2 -5 12 894.034 125.242 1
2 5 -11 -66.1835 55.3086 4
-2 -5 11 -18.2233 60.3648 9
-2 -5 11 -87.0025 62.5406 1
2 5 -10 46.4928 50.8139 4
-2 -5 10 5.22900 52.0109 9
-2 -5 10 6.10669 48.4960 1
-2 -5 9 3551.61 205.925 1
-2 -5 9 3323.86 175.161 9
2 5 -9 3311.13 171.839 4
-2 -5 8 11720.3 325.702 9
-2 -5 8 12814.5 384.532 1
2 5 -8 12291.4 330.413 4
2 5 -7 130.716 46.8184 4
-2 -5 7 188.417 53.6216 9
-2 -5 7 172.797 57.3383 1
2 5 -6 194.280 51.7473 7
2 5 -6 348.677 53.6225 4
-2 -5 6 179.806 51.8343 1
-2 -5 6 347.891 55.4525 9
2 5 -5 52.6000 42.8073 7
2 5 -5 34.8702 36.7824 4
-2 -5 5 4.02958 35.8147 9
-2 -5 5 -14.0817 40.3473 1
2 5 -4 237.170 51.8245 7
2 5 -4 351.067 49.4476 4
-2 -5 4 379.361 53.1189 9
-2 -5 4 254.849 53.9158 5
-2 -5 3 1359.96 78.5154 9
-2 -5 3 1475.66 107.356 5
2 5 -3 1487.07 80.6544 4
2 5 -3 1623.69 105.762 7
-2 -5 2 2109.54 86.9900 9
-2 -5 2 2074.61 118.425 5
2 5 -2 2263.47 90.3769 4
2 5 -2 2043.36 116.986 7
-2 -5 1 1393.62 63.7036 9
-2 -5 1 1439.20 88.1018 2
-2 -5 1 1340.01 96.3278 5
2 5 -1 1354.41 63.9474 4
2 5 -1 1365.23 95.4958 7
2 5 0 84.2013 41.4332 7
-2 -5 0 92.0066 30.7618 2
2 5 0 48.5592 17.9789 4
-2 -5 0 90.6228 20.0179 9
-2 -5 0 114.692 46.1031 5
2 5 1 4869.53 99.2903 4
2 5 1 5170.70 177.471 7
-2 -5 -1 5141.12 172.620 6
-2 -5 -1 4519.75 93.2687 9
-2 -5 -1 5188.40 182.526 5
-2 -5 -1 4771.60 157.981 2
2 5 2 443.827 59.5068 7
-2 -5 -2 455.907 60.1780 6
-2 -5 -2 381.062 49.2547 2
2 5 3 1686.17 101.820 7
-2 -5 -3 1607.31 92.4181 2
-2 -5 -3 1716.21 104.277 6
2 5 4 50.4695 37.1412 7
-2 -5 -4 -12.7334 36.7963 6
2 5 5 129.860 43.1033 7
-2 -5 -5 114.413 45.0277 6
2 5 6 1591.60 105.509 7
-2 -5 -6 1697.45 111.213 6
2 5 7 1303.20 97.8503 7
-2 -5 -7 1377.72 109.732 6
2 5 8 5997.80 213.433 7
-2 -5 -8 6519.65 232.200 6
2 5 9 5179.37 202.151 7
-2 -5 -9 5361.26 217.643 6
2 5 10 734.354 83.6280 7
-2 -5 -10 714.358 85.8589 6
2 5 11 92.9359 51.7935 7
-2 -5 -11 27.6102 43.3906 6
2 5 12 443.135 75.9682 7
2 5 12 437.253 82.6710 3
-2 -5 -12 537.437 77.7719 6
-2 -5 -13 6590.91 273.890 6
2 5 13 5630.55 270.590 3
2 5 14 146.107 65.7948 3
-2 -5 -14 205.384 64.4111 6
-2 -5 -15 331.195 82.9397 6
-2 -6 11 2302.26 185.737 1
-2 -6 11 2722.45 179.323 9
2 6 -11 2086.56 160.449 4
-2 -6 10 256.303 81.7298 1
2 6 -10 215.544 62.6231 4
-2 -6 10 158.570 67.0935 9
-2 -6 9 77.6461 51.7773 1
2 6 -9 179.491 57.6339 4
-2 -6 9 92.6650 52.0234 9
-2 -6 8 1705.98 126.345 9
-2 -6 8 1618.08 137.114 1
2 6 -8 1527.06 119.374 4
-2 -6 7 32661.1 606.822 9
-2 -6 7 33680.8 673.411 1
2 6 -7 33954.0 616.314 4
-2 -6 6 8897.61 258.478 9
-2 -6 6 8917.05 298.603 1
2 6 -6 9041.54 261.673 4
2 6 -6 9447.88 298.785 7
2 6 -5 378.007 65.9065 7
2 6 -5 347.935 52.6737 4
-2 -6 5 463.837 65.7303 9
2 6 -4 -13.0273 40.0806 7
2 6 -4 15.1230 30.8685 4
-2 -6 4 -5.74009 36.1863 9
-2 -6 4 41.5934 41.7502 5
2 6 -3 467.537 68.5308 7
2 6 -3 396.469 48.8967 4
-2 -6 3 544.033 55.1912 9
-2 -6 3 441.477 73.6728 5
-2 -6 2 25291.4 406.768 9
-2 -6 2 24650.7 494.131 5
2 6 -2 25103.4 415.143 4
2 6 -2 24739.4 490.962 7
2 6 -1 51.7544 38.1670 7
-2 -6 1 -1.60895 27.8400 2
2 6 -1 85.9438 30.1621 4
-2 -6 1 49.9578 24.5533 9
-2 -6 1 31.8573 44.6554 5
2 6 0 381.259 58.7391 7
-2 -6 0 552.369 55.7894 2
-2 -6 0 532.365 41.2454 9
-2 -6 0 552.322 71.3514 5
2 6 0 579.417 44.8645 4
2 6 1 158.768 44.9816 7
2 6 1 72.3209 21.3861 4
-2 -6 -1 119.645 35.4850 2
-2 -6 -1 104.678 21.2389 9
-2 -6 -1 99.5726 43.0827 5
2 6 2 1601.75 103.996 7
2 6 2 1619.32 59.1921 4
-2 -6 -2 1660.56 108.829 6
-2 -6 -2 1695.05 55.3617 9
-2 -6 -2 1754.72 93.7992 2
2 6 3 873.387 79.3893 7
-2 -6 -3 1026.61 75.7988 2
-2 -6 -3 945.550 90.6838 6
2 6 4 2233.05 123.315 7
-2 -6 -4 2443.85 132.013 6
2 6 5 234.937 53.5265 7
-2 -6 -5 224.268 52.9792 6
2 6 6 126.219 48.2883 7
-2 -6 -6 97.9267 43.2691 6
2 6 7 9135.05 264.992 7
-2 -6 -7 9157.72 280.765 6
2 6 8 5827.78 211.084 7
-2 -6 -8 5610.99 222.687 6
2 6 9 97.5364 49.4769 7
-2 -6 -9 101.513 46.7753 6
2 6 10 40.2226 40.0733 7
-2 -6 -10 -49.0730 50.1380 6
2 6 11 1519.56 117.408 7
-2 -6 -11 1426.21 123.437 6
-2 -6 -12 848.776 99.7737 6
2 6 12 703.435 105.295 3
-2 -6 -13 2521.48 169.928 6
2 6 13 2171.19 172.941 3
2 6 14 1.58460 49.2292 3
-2 -6 -14 169.084 68.5051 6
2 7 -10 716.811 96.6413 4
-2 -7 10 898.296 118.927 1
-2 -7 10 572.100 92.1381 9
2 7 -9 27.0104 41.8144 4
-2 -7 9 60.1333 53.9767 9
-2 -7 9 114.156 61.8756 1
-2 -7 8 1053.73 115.868 1
-2 -7 8 1022.26 103.573 9
2 7 -8 1175.67 111.497 4
2 7 -7 83.9321 46.2154 4
-2 -7 7 134.483 54.2774 9
-2 -7 7 95.5916 52.9361 1
-2 -7 6 15224.5 366.522 9
-2 -7 6 15083.3 399.303 1
2 7 -6 15301.1 371.023 4
2 7 -5 406.038 73.1574 7
2 7 -5 365.004 60.6185 4
-2 -7 5 467.022 66.6704 9
2 7 -4 503.487 80.3380 7
2 7 -4 437.039 58.1630 4
-2 -7 4 420.828 54.6563 9
-2 -7 4 381.704 76.1137 5
-2 -7 3 3966.65 147.110 9
-2 -7 3 3849.44 185.886 5
2 7 -3 3813.00 149.261 4
2 7 -3 4233.75 191.113 7
2 7 -2 -33.8950 48.9836 7
2 7 -2 109.691 34.3379 4
-2 -7 2 105.393 33.8768 9
-2 -7 2 112.031 39.3936 2
-2 -7 2 129.240 54.4237 5
-2 -7 1 4917.96 146.664 9
-2 -7 1 4831.28 200.747 5
-2 -7 1 4982.38 168.143 2
2 7 -1 5384.82 160.872 4
2 7 -1 5247.92 204.271 7
-2 -7 0 8138.28 184.380 9
-2 -7 0 8751.75 268.770 5
-2 -7 0 8397.56 217.307 2
2 7 0 8302.88 196.050 4
2 7 0 8252.67 257.839 7
2 7 1 1010.22 60.0726 4
-2 -7 -1 1043.61 57.1698 9
-2 -7 -1 1047.62 97.3204 5
-2 -7 -1 983.915 72.9375 2
2 7 1 1067.16 93.6739 7
2 7 2 1197.77 97.7860 7
-2 -7 -2 1143.85 76.4579 2
-2 -7 -2 1131.62 97.0872 6
-2 -7 -2 1294.08 103.100 5
2 7 3 1993.74 122.641 7
-2 -7 -3 2100.88 104.612 2
-2 -7 -3 2082.17 130.278 6
2 7 4 15309.9 358.434 7
-2 -7 -4 16057.6 379.692 6
2 7 5 1303.90 101.390 7
-2 -7 -5 1472.70 112.253 6
2 7 6 2746.27 141.565 7
-2 -7 -6 2482.92 146.008 6
2 7 7 205.910 56.1429 7
-2 -7 -7 75.7563 50.5309 6
2 7 8 945.510 92.5295 7
-2 -7 -8 859.152 95.2122 6
2 7 9 1508.30 110.495 7
-2 -7 -9 1457.79 122.933 6
2 7 10 508.231 74.6453 7
-2 -7 -10 674.249 91.3652 6
2 7 11 1274.88 134.311 3
-2 -7 -11 1031.93 108.898 6
-2 -7 -12 203.980 65.9809 6
2 7 12 103.433 61.9829 3
-2 -7 -13 2304.89 165.043 6
2 7 13 2166.04 181.618 3
-2 -7 -14 2392.08 169.173 6
2 8 -9 518.965 86.0814 4
-2 -8 9 406.331 86.8139 9
-2 -8 8 1459.50 126.557 9
2 8 -8 1423.15 122.508 4
-2 -8 7 1279.67 112.136 9
2 8 -7 1306.38 113.826 4
2 8 -6 95.6755 49.3532 4
-2 -8 6 171.246 61.2673 9
2 8 -5 42.6581 41.4086 4
-2 -8 5 139.158 52.8638 9
2 8 -5 154.492 61.9149 7
2 8 -4 229.646 64.2370 7
2 8 -4 220.587 54.4994 4
-2 -8 4 194.778 49.1030 9
-2 -8 4 292.022 70.2060 5
2 8 -3 292.871 65.1578 7
2 8 -3 224.137 50.5684 4
-2 -8 3 266.277 50.4708 9
-2 -8 3 259.834 72.0943 5
-2 -8 2 3198.14 133.141 9
-2 -8 2 3470.29 182.348 5
2 8 -2 3445.11 146.522 4
2 8 -2 3560.17 181.971 7
-2 -8 1 2206.69 103.853 9
-2 -8 1 2116.98 143.166 5
2 8 -1 2332.70 113.822 4
2 8 -1 1904.91 131.589 7
-2 -8 0 3761.59 182.867 5
2 8 0 3985.51 183.957 7
2 8 0 3937.86 140.501 4
2 8 1 23.3022 44.9235 7
-2 -8 -1 164.624 51.8589 5
-2 -8 -2 2863.92 157.550 5
2 8 2 2531.61 146.809 7
2 8 3 1233.42 104.156 7
-2 -8 -3 1148.44 106.797 6
2 8 4 9292.40 278.763 7
-2 -8 -4 9570.12 296.993 6
2 8 5 467.224 71.6759 7
-2 -8 -5 403.820 72.3618 6
2 8 6 50.8122 46.3336 7
-2 -8 -6 36.7225 51.6952 6
2 8 7 578.629 75.5595 7
-2 -8 -7 543.089 83.4883 6
2 8 8 1236.90 105.051 7
-2 -8 -8 1346.52 121.232 6
2 8 9 229.946 60.0230 7
-2 -8 -9 316.243 73.1089 6
-2 -8 -10 2608.64 166.472 6
-2 -8 -11 347.616 71.8631 6
2 8 11 421.341 92.4194 3
2 8 12 117.621 63.5426 3
-2 -8 -12 161.169 68.9155 6
-2 -8 -13 59.7479 54.7585 6
-2 -8 -14 238.316 73.8590 6
2 9 -8 11.5308 47.2783 4
-2 -9 8 -28.0067 59.4441 9
2 9 -7 970.896 110.281 4
-2 -9 7 987.091 107.659 9
-2 -9 6 4319.62 200.409 9
2 9 -6 3942.61 198.750 4
-2 -9 5 2098.36 135.011 9
2 9 -5 2129.90 142.491 4
2 9 -4 449.863 70.8796 4
-2 -9 4 438.018 68.6614 9
-2 -9 4 736.630 98.5428 5
2 9 -4 650.172 92.1141 7
2 9 -3 713.210 98.6986 7
2 9 -3 726.714 80.5253 4
-2 -9 3 771.617 100.059 5
2 9 -2 88.8041 52.5784 7
-2 -9 2 178.215 64.9769 5
-2 -9 1 5234.25 230.449 5
2 9 -1 5674.54 237.541 7
-2 -9 0 7874.50 278.696 5
2 9 0 7121.51 265.081 7
2 9 1 622.489 83.2661 7
-2 -9 -1 804.410 94.7723 5
2 9 2 35.7011 47.9085 7
-2 -9 -2 -40.1927 48.1017 5
2 9 3 55.1206 45.7866 7
-2 -9 -3 -3.63083 44.4566 5
-2 -9 -4 2095.40 146.761 6
2 9 4 2165.43 138.769 7
2 9 5 3500.49 175.099 7
-2 -9 -5 3695.01 193.937 6
2 9 6 2413.06 147.125 7
-2 -9 -6 2729.74 167.648 6
2 9 7 886.800 93.3133 7
-2 -9 -7 815.515 99.6965 6
2 9 8 64.1352 45.2187 7
-2 -9 -8 30.5050 46.4720 6
-2 -9 -9 2018.00 151.194 6
2 9 9 1794.61 156.449 3
-2 -9 -10 35436.6 723.384 6
2 9 10 35436.3 776.662 3
2 9 11 1078.21 133.064 3
-2 -9 -11 1072.05 118.293 6
-2 -9 -12 212.821 71.0703 6
-2 -9 -13 131.871 67.2663 6
-2 -10 5 2789.14 196.748 5
-2 -10 4 440.668 89.2827 5
-2 -10 3 231.181 67.5491 5
2 10 -3 430.374 82.1069 7
-2 -10 2 1476.31 135.730 5
2 10 -2 1499.60 133.668 7
-2 -10 1 2696.72 175.884 5
2 10 -1 3131.40 187.941 7
2 10 0 735.331 97.3068 7
-2 -10 0 735.821 96.5356 5
2 10 1 125.683 56.2389 7
-2 -10 -1 98.2248 58.5930 5
2 10 2 -12.7229 53.0192 7
-2 -10 -2 -35.4265 49.4721 5
2 10 3 204.206 60.2809 7
-2 -10 -3 72.0284 46.1668 5
2 10 4 369.755 70.3783 7
-2 -10 -4 343.614 77.9621 6
2 10 5 280.073 65.9781 7
-2 -10 -5 147.338 58.9380 6
2 10 6 56.4821 45.4705 7
-2 -10 -6 50.7023 55.5987 6
2 10 7 232.240 57.1902 7
-2 -10 -7 230.482 72.6366 6
-2 -10 -8 2253.57 166.736 6
2 10 8 2553.11 191.947 3
-2 -10 -9 3498.05 203.346 6
2 10 9 3815.34 232.326 3
2 10 10 -140.465 74.8705 3
-2 -10 -10 -29.2556 59.8388 6
-2 -10 -11 2235.60 168.674 6
-2 -10 -12 4773.40 249.206 6
-2 -11 3 1280.44 140.037 5
-2 -11 2 940.041 119.384 5
2 11 -2 773.919 113.150 7
-2 -11 1 1458.88 140.840 5
2 11 -1 1521.72 139.203 7
-2 -11 0 8439.06 321.198 5
2 11 0 8292.36 315.840 7
-2 -11 -1 24249.1 573.635 5
2 11 1 24107.2 566.319 7
-2 -11 -2 2006.15 153.525 5
2 11 2 2255.24 161.623 7
-2 -11 -3 1463.75 130.119 5
2 11 3 1418.34 127.656 7
2 11 4 350.988 71.8389 7
-2 -11 -4 319.299 79.3456 6
2 11 5 -51.0182 48.7628 7
2 11 5 80.5184 52.4098 3
-2 -11 -5 -43.0473 59.1022 6
2 11 6 1205.16 112.272 7
-2 -11 -6 1343.26 138.845 6
2 11 6 1375.69 141.120 3
-2 -11 -7 37.8943 54.4839 6
2 11 7 -7.04417 50.7916 3
2 11 8 121.879 60.8038 3
-2 -11 -8 128.923 60.1210 6
2 11 9 1265.32 148.530 3
-2 -11 -9 1148.88 127.041 6
-2 -11 -10 9802.92 362.013 6
-2 -12 1 1637.71 153.300 5
-2 -12 0 1974.36 164.881 5
2 12 0 1758.12 152.864 7
2 12 1 737.247 103.251 7
-2 -12 -1 925.723 120.031 5
-2 -12 -2 4354.36 234.825 5
2 12 2 4389.99 229.529 7
-2 -12 -3 4241.95 226.340 5
2 12 3 4227.50 222.290 7
2 12 4 84.5426 57.4788 3
2 12 4 101.524 56.6749 7
-2 -12 -4 6.73129 60.5137 6
2 12 5 709.648 108.258 3
2 12 5 1058.25 119.178 7
-2 -12 -5 858.232 120.760 6
2 12 6 1024.65 127.182 3
-2 -12 -6 807.088 115.619 6
2 12 7 1348.28 150.026 3
-2 -12 -7 1466.15 145.667 6
2 13 2 355.450 87.1173 7
-2 -13 -2 430.970 89.6936 5
-2 -13 -3 5321.00 263.478 5
2 13 3 4913.24 249.360 7
2 13 6 512.605 100.827 3
3 -9 -5 2213.52 176.441 8
-3 9 5 1995.73 171.025 3
3 -9 -4 6190.47 290.745 8
-3 9 4 6305.43 285.021 3
3 -8 -7 2136.24 177.459 8
-3 8 7 2014.75 171.417 3
3 -8 -6 3357.34 219.956 8
-3 8 6 3909.07 230.344 3
-3 8 5 162.904 64.6689 3
3 -8 -5 155.613 69.4018 8
-3 8 4 586.405 90.1551 3
3 -8 -4 602.288 95.4534 8
-3 8 3 186.852 68.0031 3
3 -8 -3 171.808 69.8877 8
-3 8 2 966.505 105.875 3
3 -8 -2 715.805 98.8003 9
3 -8 -2 839.293 102.469 8
3 -8 -1 2182.20 162.734 9
-3 8 0 3015.62 198.723 4
3 -8 0 2825.99 186.945 9
-3 8 -1 696.924 102.494 4
3 -8 1 754.010 103.121 9
-3 8 -2 -30.7459 54.0876 4
3 -8 2 -29.9779 53.4750 9
-3 8 -3 -71.1917 73.4177 4
-3 7 8 154.353 64.4885 3
3 -7 -8 338.162 81.2282 8
3 -7 -7 1825.33 163.265 8
-3 7 7 1463.22 143.618 3
-3 7 6 88.1226 54.8924 3
3 -7 -6 79.2649 61.7306 8
-3 7 5 424.692 87.9891 3
3 -7 -5 248.342 69.3219 8
-3 7 4 479.099 83.5761 3
3 -7 -4 687.320 98.2157 8
-3 7 3 565.643 84.7587 3
3 -7 -3 666.853 94.2198 8
3 -7 -2 2399.00 164.753 8
-3 7 2 2515.34 159.815 3
-3 7 1 29.7749 39.2055 3
3 -7 -1 80.6116 48.3792 9
3 -7 -1 68.1287 51.6481 8
-3 7 0 -54.5572 49.4269 4
3 -7 0 75.1049 48.8714 9
-3 7 -1 889.021 107.669 4
3 -7 1 814.933 100.714 9
-3 7 -2 362.154 78.6031 4
3 -7 2 650.019 91.7558 9
-3 7 -3 378.255 79.8112 4
3 -7 3 574.236 92.0081 9
-3 7 -4 276.137 76.6964 4
3 -7 4 361.545 74.6734 9
-3 7 -5 1443.62 138.632 4
3 -7 5 1476.74 134.304 9
-3 6 9 6063.10 291.100 3
3 -6 -9 5375.80 281.292 8
-3 6 8 235.053 76.5291 3
3 -6 -8 319.916 83.0412 8
-3 6 7 257.183 66.2924 3
3 -6 -7 387.447 82.3571 8
-3 6 6 61.6339 52.0652 3
3 -6 -6 -39.3569 56.0292 8
3 -6 -5 6839.68 293.662 8
-3 6 5 7261.28 289.948 3
-3 6 4 388.587 77.6613 3
3 -6 -4 289.308 70.2172 8
3 -6 -3 4925.00 238.884 8
-3 6 3 4807.07 223.249 3
3 -6 -2 7484.55 292.963 8
-3 6 2 7616.94 277.812 3
-3 6 1 1288.17 110.815 3
3 -6 -1 1089.34 109.070 8
-3 6 0 267.797 68.6028 4
-3 6 0 171.102 50.2758 3
3 -6 0 212.285 68.6677 9
3 -6 0 266.464 60.1283 8
3 -6 1 -10.1051 46.1128 7
-3 6 -1 -93.9417 59.6514 4
-3 6 -1 -21.8670 34.7795 3
3 -6 1 0.24439 44.3189 9
3 -6 1 1.25847 38.1231 8
-3 6 -2 2635.70 168.290 4
3 -6 2 2489.79 156.874 9
-3 6 -3 134.128 61.5974 4
3 -6 3 98.9416 50.3441 9
-3 6 -4 422.930 76.8081 4
3 -6 4 407.508 70.8116 9
-3 6 -5 903.716 115.611 4
3 -6 5 1031.74 110.204 9
-3 6 -6 1503.80 138.414 4
3 -6 6 1382.82 125.187 9
-3 6 -7 2820.08 191.588 4
3 -6 7 2974.44 184.306 9
-3 5 10 85.3309 65.6541 3
3 -5 -10 58.4622 62.8261 8
-3 5 9 2073.12 167.927 3
3 -5 -9 1852.16 163.756 8
-3 5 8 314.205 74.7618 3
3 -5 -8 253.751 72.7504 8
-3 5 7 98.9018 54.6957 2
-3 5 7 14.4605 50.2598 3
3 -5 -7 -23.0927 46.6577 8
-3 5 6 158.602 52.1313 2
-3 5 6 67.0419 42.7339 3
3 -5 -6 69.8510 52.3636 8
-3 5 5 1180.58 116.193 3
-3 5 5 1142.41 103.010 2
3 -5 -5 1272.09 125.067 8
3 -5 -4 2904.64 183.318 8
-3 5 4 2750.68 151.275 2
-3 5 4 2761.24 168.334 3
-3 5 3 901.252 88.6302 2
-3 5 3 1089.72 108.279 3
3 -5 -3 779.881 98.1091 8
-3 5 2 231.276 55.1726 3
-3 5 2 314.259 58.4328 2
3 -5 -2 265.267 66.0671 8
3 -5 -1 403.495 60.1936 7
-3 5 1 322.229 63.0310 3
-3 5 1 522.005 70.3375 2
3 -5 -1 550.090 83.4208 8
-3 5 0 3589.86 170.631 2
-3 5 0 3472.80 175.952 4
3 -5 0 3326.51 159.918 7
3 -5 0 3112.88 162.180 9
3 -5 0 3557.46 185.604 8
-3 5 0 2938.78 156.604 3
-3 5 -1 13677.9 373.752 4
3 -5 1 14676.2 366.229 7
3 -5 1 14214.7 367.148 9
3 -5 1 13686.0 377.828 8
-3 5 -1 14506.4 359.453 3
-3 5 -2 1429.88 117.044 4
3 -5 2 1494.00 116.839 7
3 -5 2 1376.06 109.827 9
3 -5 2 1450.32 116.562 8
-3 5 -2 1482.62 108.182 3
-3 5 -3 11210.9 337.907 4
3 -5 3 11718.4 345.118 7
3 -5 3 11374.3 327.356 9
-3 5 -4 500.211 78.2105 4
3 -5 4 515.957 77.0533 9
-3 5 -5 1125.45 110.625 4
3 -5 5 1072.63 103.520 9
-3 5 -6 504.652 83.2209 4
3 -5 6 376.201 67.7199 9
-3 5 -7 721.297 102.234 4
3 -5 7 779.919 94.7859 9
-3 5 -8 200.524 78.6505 4
3 -5 8 93.6041 55.2879 9
3 -5 9 453.886 79.7948 9
3 -4 -11 2054.02 174.213 8
-3 4 11 1842.38 159.505 3
3 -4 -10 2652.13 192.567 8
-3 4 10 3075.17 202.596 3
-3 4 9 16.6949 47.3331 3
3 -4 -9 -18.5310 47.4144 8
-3 4 8 415.299 78.9717 3
3 -4 -8 629.201 94.2655 8
3 -4 -7 1551.12 140.621 8
-3 4 7 1652.09 138.657 3
-3 4 6 5562.84 230.741 2
3 -4 -6 5376.34 257.266 8
-3 4 6 5680.67 248.213 3
-3 4 5 3759.18 183.638 2
3 -4 -5 3796.78 208.739 8
-3 4 5 4070.51 205.095 3
-3 4 4 513.656 72.5845 2
-3 4 4 519.829 75.4869 3
3 -4 -4 424.356 77.1706 8
3 -4 -3 3661.04 198.936 8
-3 4 3 3732.88 174.543 2
-3 4 3 3548.08 182.256 3
3 -4 -2 3409.92 141.018 7
3 -4 -2 3088.70 180.201 8
-3 4 2 2851.94 159.857 3
-3 4 2 3015.93 154.303 2
3 -4 -1 2109.38 117.748 7
3 -4 -1 1810.18 137.015 8
-3 4 1 1729.21 124.391 3
-3 4 1 1962.86 124.451 2
3 -4 0 366.445 56.6274 7
-3 4 0 338.675 60.7838 4
-3 4 0 439.567 65.0579 3
-3 4 0 412.585 68.5973 2
3 -4 0 408.033 70.8456 8
-3 4 -1 16359.3 392.050 4
-3 4 -1 17171.2 401.249 2
3 -4 1 17532.8 398.310 7
3 -4 1 16430.5 383.207 9
3 -4 1 16497.9 412.242 8
-3 4 -1 16774.5 391.945 3
-3 4 -2 11420.3 317.445 4
3 -4 2 11389.6 322.827 7
3 -4 2 10945.3 300.355 9
3 -4 2 11498.1 328.343 8
-3 4 -2 11145.9 302.707 3
-3 4 -3 1156.91 103.343 4
3 -4 3 1274.01 110.528 7
3 -4 3 1177.38 95.5118 9
3 -4 3 1217.33 105.388 8
-3 4 -4 13978.2 366.133 4
3 -4 4 14305.3 391.394 7
3 -4 4 14061.9 352.134 9
-3 4 -5 2684.86 157.584 4
3 -4 5 3134.03 180.598 7
3 -4 5 2778.36 148.647 9
-3 4 -6 1238.69 113.186 4
3 -4 6 1240.53 105.776 9
-3 4 -7 152.048 63.0794 4
3 -4 7 110.466 48.9814 9
-3 4 -8 184.302 58.3800 4
3 -4 8 333.295 71.4887 9
-3 3 12 336.246 88.7079 3
3 -3 -12 241.253 74.1278 8
-3 3 11 81.3787 48.2761 3
3 -3 -11 227.691 76.4797 8
-3 3 10 117.652 56.6918 3
3 -3 -10 -39.5725 48.2696 8
-3 3 9 113.258 52.9838 3
3 -3 -9 139.230 71.4673 8
3 -3 -8 2046.55 160.496 8
-3 3 8 1900.28 147.872 3
3 -3 -7 6860.98 288.047 8
-3 3 7 6565.13 268.854 3
3 -3 -6 19770.0 511.211 8
-3 3 6 20857.6 497.448 3
-3 3 5 102.687 47.2499 2
-3 3 5 139.017 54.5601 3
3 -3 -5 35.5060 43.9508 8
-3 3 4 2411.37 146.927 2
3 -3 -4 2609.18 168.737 8
-3 3 4 2585.73 154.188 3
3 -3 -3 1369.75 85.2070 7
-3 3 3 1288.97 107.141 2
3 -3 -3 1362.46 120.322 8
-3 3 3 1558.96 118.609 3
3 -3 -2 624.155 63.9537 7
-3 3 2 542.909 74.6955 2
-3 3 2 634.272 78.7816 3
3 -3 -2 486.562 75.4507 8
3 -3 -1 172.657 46.0516 7
-3 3 1 294.004 59.4661 2
-3 3 1 159.264 52.9514 3
3 -3 -1 166.782 54.9323 8
3 -3 0 652.818 73.7794 7
-3 3 0 563.802 74.9621 3
-3 3 0 639.213 75.0856 2
-3 3 0 551.515 65.2470 6
3 -3 0 627.038 82.7553 8
-3 3 -1 1716.96 119.858 2
-3 3 -1 1389.60 101.267 4
3 -3 1 1476.02 107.516 7
-3 3 -1 1297.84 98.2843 6
3 -3 1 1504.25 100.655 9
-3 3 -1 1582.31 111.424 3
-3 3 -2 3164.65 152.489 4
3 -3 2 3272.97 164.150 7
-3 3 -2 2954.96 158.889 2
-3 3 -2 3083.13 157.614 6
3 -3 2 3201.51 143.098 9
-3 3 -3 37108.3 642.384 4
3 -3 3 38038.3 683.597 7
-3 3 -3 37982.4 686.069 6
3 -3 3 36583.9 620.448 9
-3 3 -4 3588.90 163.244 4
3 -3 4 3314.86 177.464 7
-3 3 -4 3522.08 181.475 6
3 -3 4 3047.36 144.895 9
3 -3 5 88.1108 55.9478 7
-3 3 -5 -19.4420 41.8962 4
-3 3 -5 -11.4623 50.9377 6
3 -3 5 -12.3567 35.6486 9
-3 3 -6 3110.26 160.999 4
3 -3 6 3396.04 190.134 7
-3 3 -6 2832.71 177.899 6
3 -3 6 3175.77 153.066 9
3 -3 7 1715.68 146.300 7
-3 3 -7 1809.15 150.017 6
3 -3 7 1617.23 115.116 9
-3 3 -7 1632.80 122.394 4
3 -3 8 3003.56 193.574 7
-3 3 -8 3041.06 197.058 6
3 -3 9 827.194 115.570 7
-3 3 -9 729.431 106.282 6
-3 2 13 875.517 116.451 3
3 -2 -13 785.085 113.522 8
3 -2 -12 3713.86 229.281 8
-3 2 12 4287.94 237.470 3
-3 2 11 647.257 100.225 3
3 -2 -11 556.296 96.5117 8
-3 2 10 663.868 99.8320 3
3 -2 -10 606.316 102.135 8
-3 2 9 1048.18 111.073 3
3 -2 -9 1029.79 116.657 8
3 -2 -8 12783.1 402.603 8
-3 2 8 13164.4 388.919 3
3 -2 -7 14870.4 430.398 8
-3 2 7 15242.9 414.994 3
3 -2 -6 8656.62 315.843 8
-3 2 6 9285.80 306.514 3
-3 2 5 12280.5 349.432 2
3 -2 -5 12122.0 374.585 8
-3 2 5 13007.0 362.052 3
-3 2 4 824.319 89.4452 2
3 -2 -4 678.435 60.4675 7
-3 2 4 777.273 87.5585 3
3 -2 -4 809.167 96.5431 8
3 -2 -3 31.3273 32.0912 7
-3 2 3 -1.04802 46.4218 2
-3 2 3 54.8540 38.2274 3
3 -2 -3 -44.8611 45.5659 8
3 -2 -2 -33.1530 34.2569 7
-3 2 2 28.6628 43.7549 2
-3 2 2 -25.2290 39.8206 3
-3 2 2 2.04658 25.1171 6
3 -2 -2 43.6775 44.5577 8
3 -2 -1 224.035 49.8782 7
-3 2 1 232.982 53.0763 2
-3 2 1 275.264 53.7945 3
-3 2 1 319.871 45.5338 6
3 -2 0 20.8558 33.6221 7
-3 2 0 31.5140 40.9986 2
-3 2 0 49.4011 43.7643 3
-3 2 0 50.8541 31.4729 6
3 -2 1 59.5649 37.2547 7
-3 2 -1 7.41894 31.7551 4
-3 2 -1 -86.4501 48.2994 2
-3 2 -1 43.5404 34.0359 3
-3 2 -1 33.7717 37.0431 6
3 -2 1 68.7038 33.9869 9
-3 2 -2 1248.01 105.099 2
-3 2 -2 1257.41 90.4517 4
3 -2 2 1275.63 103.410 7
-3 2 -2 1169.22 95.1367 6
3 -2 2 1247.43 85.4463 9
-3 2 -3 6452.80 202.705 4
3 -2 3 6046.12 227.412 7
-3 2 -3 6063.28 224.555 6
3 -2 3 6076.59 189.100 9
-3 2 -4 5546.63 192.487 4
3 -2 4 6270.31 237.085 7
-3 2 -4 5762.38 226.405 6
3 -2 4 5677.45 183.571 9
-3 2 -5 2053.50 117.906 4
3 -2 5 1832.10 134.853 7
-3 2 -5 1984.05 140.487 6
3 -2 5 1847.79 105.628 9
3 -2 6 223.372 65.1365 7
-3 2 -6 218.210 47.3455 4
-3 2 -6 262.603 67.1736 6
3 -2 6 168.137 43.6882 9
3 -2 7 60.6896 52.4356 7
-3 2 -7 160.043 62.8816 6
3 -2 8 827.628 104.896 7
-3 2 -8 900.354 111.405 6
3 -2 9 1140.56 127.281 7
-3 2 -9 1230.90 129.430 6
3 -2 10 1085.45 126.333 7
-3 2 -10 916.088 124.231 6
-3 1 12 239.137 78.1184 1
-3 1 12 104.241 53.2702 3
3 -1 -12 127.023 62.2697 8
-3 1 11 468.994 81.8182 3
3 -1 -11 409.707 83.6846 8
-3 1 10 815.758 103.887 3
3 -1 -10 925.491 113.956 8
-3 1 9 72.8433 47.9101 3
3 -1 -9 -39.6002 52.4238 8
-3 1 8 160.524 55.6549 3
3 -1 -8 184.653 63.3274 8
3 -1 -7 6169.28 262.137 8
-3 1 7 6428.22 251.279 3
3 -1 -6 42319.4 795.752 8
-3 1 6 43209.6 767.528 3
3 -1 -5 55.4351 31.7393 7
-3 1 5 14.0295 34.7199 3
3 -1 -5 94.3336 50.6328 8
-3 1 4 9.59880 44.7575 2
3 -1 -4 46.0907 34.7208 7
-3 1 4 34.7595 41.7205 3
3 -1 -4 44.8896 42.7775 8
3 -1 -3 1144.82 81.3547 7
-3 1 3 1162.62 102.699 2
3 -1 -3 1132.34 108.825 8
-3 1 3 1034.24 97.8122 3
3 -1 -2 4557.04 164.239 7
-3 1 2 4795.97 145.532 6
-3 1 2 4553.76 192.407 2
-3 1 2 4688.29 191.800 3
3 -1 -1 12960.3 303.681 7
-3 1 1 13207.1 283.186 6
-3 1 1 13557.6 342.204 2
-3 1 1 12717.1 330.073 3
3 -1 0 8076.74 235.161 7
-3 1 0 7702.08 214.427 6
-3 1 0 7283.05 243.139 2
-3 1 0 7033.24 235.530 3
3 -1 1 51.1694 41.4245 7
-3 1 -1 49.6581 45.8028 2
-3 1 -1 5.42286 32.1592 6
3 -1 1 12.3560 27.4905 9
-3 1 -2 1237.53 104.861 2
3 -1 2 1155.01 95.3908 7
-3 1 -2 978.572 75.0214 4
-3 1 -2 1138.76 90.7302 6
3 -1 2 1064.74 71.5283 9
3 -1 3 27.5942 43.5121 7
-3 1 -3 4.31211 30.4477 4
-3 1 -3 -16.5341 35.9909 6
3 -1 3 -13.3534 26.2525 9
-3 1 -3 -42.7251 41.2180 2
-3 1 -4 2142.41 108.214 4
3 -1 4 2161.40 139.136 7
-3 1 -4 2314.58 138.856 6
3 -1 4 2007.60 97.4812 9
-3 1 -5 5257.52 175.869 4
3 -1 5 5401.16 223.910 7
-3 1 -5 5477.45 223.660 6
3 -1 5 5238.80 166.338 9
3 -1 6 107.522 54.1530 7
-3 1 -6 66.1085 48.3470 6
3 -1 7 2202.71 157.386 7
-3 1 -7 2216.38 154.753 6
3 -1 8 1329.44 128.235 7
-3 1 -8 1160.12 119.534 6
3 -1 9 3540.33 207.427 7
-3 1 -9 3595.87 210.603 6
3 -1 10 2641.36 187.263 7
-3 1 -10 2842.44 196.963 6
3 -1 11 242.756 79.8727 7
-3 1 -11 184.431 67.0042 6
3 0 -12 -62.4383 53.5317 4
-3 0 11 568.211 85.9262 3
-3 0 11 590.717 102.433 1
3 0 -11 798.020 105.287 8
-3 0 10 106.890 59.3502 3
3 0 -10 57.0292 48.7835 8
3 0 -9 1660.41 141.552 8
-3 0 9 1710.43 131.693 3
-3 0 8 54.8003 45.8618 3
3 0 -8 15.7006 41.7022 8
3 0 -7 1870.68 141.467 8
-3 0 7 2042.01 138.787 3
3 0 -6 10829.5 340.509 8
-3 0 6 10956.6 320.479 3
3 0 -5 1266.68 85.5567 7
3 0 -5 1240.98 112.944 8
-3 0 5 1138.51 102.787 3
3 0 -4 116.427 40.7450 7
-3 0 4 85.5916 45.2861 3
-3 0 4 104.976 48.3668 2
3 0 -4 70.6196 49.7343 8
3 0 -3 1118.67 83.6213 7
-3 0 3 1258.75 107.477 2
-3 0 3 964.116 94.0537 3
3 0 -2 629.047 64.9285 7
-3 0 2 616.201 76.9831 2
-3 0 2 757.949 57.5542 6
-3 0 2 652.526 76.8429 3
3 0 -1 3006.64 135.873 7
-3 0 1 2808.47 115.635 6
-3 0 1 3041.34 157.035 2
-3 0 1 2841.55 146.984 3
3 0 0 3989.52 163.120 7
-3 0 0 4639.49 159.755 6
-3 0 0 4150.94 183.824 2
-3 0 0 4416.82 185.401 3
3 0 1 4198.12 171.386 7
-3 0 -1 4444.41 163.282 6
3 0 1 4193.44 127.198 9
-3 0 -1 4164.30 179.444 2
-3 0 -2 5525.64 212.774 2
3 0 2 5433.71 200.709 7
-3 0 -2 5674.10 194.392 6
3 0 2 5308.05 143.802 9
3 0 3 1018.77 99.8536 7
-3 0 -3 1459.88 82.3199 4
-3 0 -3 1276.17 113.908 2
3 0 3 1143.20 68.6128 9
3 0 4 2430.26 143.441 7
-3 0 -4 2468.08 139.406 6
3 0 5 3858.27 184.393 7
-3 0 -5 3421.31 171.271 6
3 0 6 3245.76 175.945 7
-3 0 -6 3248.38 173.824 6
3 0 7 110.482 58.7482 7
-3 0 -7 34.8581 48.5152 6
3 0 8 323.239 79.7553 7
-3 0 -8 120.184 53.2974 6
3 0 9 293.814 73.4297 7
-3 0 -9 252.860 76.5141 6
3 0 10 462.028 88.1820 7
-3 0 -10 355.301 77.9423 6
3 0 11 730.504 109.708 7
-3 0 -11 752.456 109.613 6
3 1 -12 639.176 92.1478 4
3 1 -11 685.659 91.2330 4
-3 -1 11 535.044 107.830 1
3 1 -10 5340.70 224.747 4
3 1 -10 5018.73 240.018 8
-3 -1 10 5080.48 274.527 1
-3 -1 10 5361.87 231.222 3
3 1 -9 2128.15 153.113 8
-3 -1 9 2128.18 143.548 3
-3 -1 8 83.9779 45.9390 3
3 1 -8 162.339 54.0040 8
3 1 -7 5612.69 241.211 8
-3 -1 7 5543.81 224.622 3
3 1 -6 18.0153 35.8096 7
-3 -1 6 38.3635 37.0170 3
3 1 -6 64.7717 39.2139 8
3 1 -5 2316.47 148.838 8
-3 -1 5 2258.55 137.570 3
3 1 -5 2233.47 117.583 7
3 1 -4 5963.31 192.157 7
-3 -1 4 5751.21 218.445 3
3 1 -3 2689.93 127.758 7
-3 -1 3 2720.10 98.6075 6
-3 -1 3 2648.77 152.320 2
-3 -1 3 2853.31 150.866 3
3 1 -2 3411.89 143.506 7
-3 -1 2 3353.17 117.522 6
-3 -1 2 3141.18 160.681 2
-3 -1 2 3054.72 156.566 3
3 1 -1 3177.48 142.681 7
-3 -1 1 2991.66 118.712 6
-3 -1 1 3405.95 165.027 2
-3 -1 1 3073.32 154.757 3
3 1 0 19102.2 396.136 7
-3 -1 0 18932.4 363.386 6
-3 -1 0 19139.0 423.211 2
3 1 1 122.261 45.4836 7
-3 -1 -1 149.538 47.1244 2
-3 -1 -1 171.470 41.3267 6
3 1 2 11.1328 40.1123 7
-3 -1 -2 50.1713 34.2506 6
-3 -1 -2 48.3929 48.0319 2
3 1 3 1002.63 92.2381 7
-3 -1 -3 855.858 80.5198 6
-3 -1 -3 971.292 95.6593 2
3 1 4 7765.87 256.870 7
-3 -1 -4 7522.71 260.281 2
-3 -1 -4 8159.05 253.164 6
3 1 5 10462.7 310.722 7
-3 -1 -5 10969.4 311.140 6
3 1 6 2765.20 160.818 7
-3 -1 -6 3200.24 167.790 6
3 1 7 3727.62 189.937 7
-3 -1 -7 3811.59 191.847 6
3 1 8 1694.02 134.466 7
-3 -1 -8 1467.57 127.085 6
3 1 9 836.256 104.638 7
-3 -1 -9 796.385 102.639 6
3 1 10 5777.40 263.140 7
-3 -1 -10 5825.88 270.818 6
3 1 11 207.184 75.9594 7
-3 -1 -11 383.951 86.0402 6
3 1 12 72.5894 62.4189 7
-3 -1 -12 58.3015 60.9931 6
3 2 -12 285.978 69.7065 4
3 2 -11 828.868 99.4228 4
-3 -2 11 925.303 131.990 1
3 2 -10 1764.85 131.580 4
-3 -2 10 1552.61 155.295 1
3 2 -9 781.193 85.9339 4
-3 -2 9 743.058 89.1691 3
3 2 -9 618.806 89.2308 8
3 2 -8 349.498 65.1280 4
-3 -2 8 414.327 66.5431 3
3 2 -8 332.739 72.0251 8
3 2 -7 646.656 73.9688 7
-3 -2 7 642.270 79.7124 3
-3 -2 7 709.317 80.3311 5
3 2 -7 540.400 70.7414 4
3 2 -7 627.024 84.9064 8
3 2 -6 17.4911 35.2702 7
-3 -2 6 31.2676 37.8465 3
3 2 -6 -4.39547 41.1740 8
3 2 -5 748.551 75.7637 7
-3 -2 5 722.372 79.9886 3
3 2 -4 4466.36 174.059 7
-3 -2 4 4573.56 189.212 3
3 2 -3 4688.33 176.807 7
-3 -2 3 4616.93 138.646 6
-3 -2 3 4145.32 194.378 2
-3 -2 3 4341.71 186.025 3
3 2 -2 1474.68 100.454 7
-3 -2 2 1343.43 77.7138 6
-3 -2 2 1265.70 107.840 2
3 2 -1 1778.79 109.718 7
-3 -2 1 1648.22 91.1896 6
-3 -2 1 1738.12 120.711 2
3 2 0 95.0216 43.7119 7
-3 -2 0 111.796 45.0672 2
-3 -2 0 79.5649 32.3575 6
3 2 1 1763.47 113.890 7
-3 -2 -1 1867.56 104.065 6
-3 -2 -1 1908.26 123.103 2
3 2 2 4901.02 190.428 7
-3 -2 -2 4896.97 178.044 6
-3 -2 -2 4830.04 195.255 2
3 2 3 436.159 66.1890 7
-3 -2 -3 312.563 53.5029 6
-3 -2 -3 283.012 62.9840 2
3 2 4 74.5756 55.0628 7
-3 -2 -4 -32.8056 40.3210 6
-3 -2 -4 91.0139 52.7389 2
3 2 5 -5.46225 51.2352 7
-3 -2 -5 3.92098 40.3623 6
3 2 6 9842.75 307.224 7
-3 -2 -6 10057.3 305.365 6
3 2 7 151.957 63.6278 7
-3 -2 -7 145.589 52.6748 6
3 2 8 -8.25341 46.7766 7
-3 -2 -8 -47.6745 46.9880 6
3 2 9 231.653 77.4870 7
-3 -2 -9 168.422 61.9540 6
3 2 10 5813.27 260.891 7
-3 -2 -10 5711.79 264.849 6
3 2 11 30286.7 669.516 7
-3 -2 -11 28831.7 672.817 6
3 2 12 3146.93 205.027 7
-3 -2 -12 3264.65 213.390 6
3 3 -11 60.3649 47.0364 4
-3 -3 11 141.961 66.3634 9
-3 -3 11 100.556 57.3073 1
3 3 -10 74.9872 46.6790 4
-3 -3 10 175.896 70.8183 1
-3 -3 10 18.4642 50.6534 9
-3 -3 9 4789.13 207.952 9
3 3 -9 4366.02 195.341 4
3 3 -8 917.040 90.4411 7
3 3 -8 896.757 86.5503 4
-3 -3 8 548.530 75.6439 9
-3 -3 8 756.479 86.1464 3
-3 -3 8 800.629 87.2464 5
3 3 -8 818.772 96.1817 8
3 3 -7 337.665 59.9913 4
3 3 -7 498.470 72.1570 7
-3 -3 7 323.047 62.9366 3
-3 -3 7 303.075 66.0358 5
3 3 -7 199.512 54.2981 8
3 3 -6 6.81566 37.9826 4
3 3 -6 51.3870 41.5248 7
-3 -3 6 -7.67876 36.4400 3
-3 -3 6 -18.3127 41.8995 5
3 3 -6 12.0822 40.1085 8
-3 -3 5 1702.62 118.786 5
3 3 -5 1727.01 95.0523 4
3 3 -5 1711.03 114.629 7
3 3 -4 13612.6 278.648 4
3 3 -4 13756.2 337.956 7
3 3 -3 5087.02 191.805 7
-3 -3 3 4730.11 151.478 6
-3 -3 3 5133.91 210.620 2
3 3 -3 4893.28 141.823 4
3 3 -2 409.294 62.1032 7
-3 -3 2 395.422 70.0254 2
-3 -3 2 464.046 52.0065 6
3 3 -1 371.330 60.8727 7
-3 -3 1 275.762 57.7755 2
-3 -3 1 245.475 45.3100 6
3 3 0 1443.07 105.399 7
-3 -3 0 1438.49 92.8373 6
-3 -3 0 1310.01 107.103 2
3 3 1 274.522 58.9941 7
-3 -3 -1 143.854 50.5101 2
-3 -3 -1 106.641 40.9834 6
3 3 2 2691.62 142.308 7
-3 -3 -2 2488.84 129.140 6
-3 -3 -2 2640.56 143.289 2
3 3 3 473.677 73.3847 7
-3 -3 -3 462.904 64.0409 6
-3 -3 -3 614.013 79.3240 2
3 3 4 656.348 79.4832 7
-3 -3 -4 681.281 76.2093 6
-3 -3 -4 687.575 82.0309 2
3 3 5 -53.9070 50.2362 7
-3 -3 -5 -8.59413 36.9593 6
3 3 6 3326.15 174.580 7
-3 -3 -6 3089.18 165.549 6
3 3 7 250.807 67.1075 7
-3 -3 -7 270.568 63.7309 6
3 3 8 8.86871 49.6913 7
-3 -3 -8 11.0245 43.8259 6
3 3 9 68.7933 47.1765 7
-3 -3 -9 264.016 70.1604 6
3 3 10 1577.78 137.568 7
-3 -3 -10 1344.29 128.841 6
3 3 11 3200.83 195.871 7
-3 -3 -11 2734.35 187.799 6
3 3 12 297.081 81.8431 7
-3 -3 -12 242.350 73.8008 6
3 3 13 5044.25 262.094 7
3 4 -11 -3.27272 49.9408 4
-3 -4 11 3.99548 51.6775 9
-3 -4 10 1674.91 138.689 9
3 4 -10 1649.85 130.132 4
3 4 -9 377.731 71.1937 4
-3 -4 9 454.639 74.2572 9
-3 -4 9 400.551 74.1118 5
-3 -4 8 11444.9 323.913 9
-3 -4 8 12110.6 350.261 5
3 4 -8 11995.6 324.080 4
3 4 -8 12018.6 347.648 7
-3 -4 7 2745.17 142.453 9
-3 -4 7 2644.97 156.808 5
3 4 -7 2578.16 137.755 4
3 4 -7 2724.83 163.137 8
3 4 -7 2678.60 153.581 7
3 4 -6 566.102 77.8919 7
3 4 -6 729.032 72.1665 4
-3 -4 6 714.843 75.8537 9
-3 -4 6 783.405 88.1339 5
3 4 -5 28.5003 40.7024 7
3 4 -5 39.1450 30.3515 4
-3 -4 5 70.3962 36.5641 9
-3 -4 5 56.6680 45.5701 5
3 4 -4 710.743 81.5744 7
-3 -4 4 744.480 86.1336 5
3 4 -4 707.724 61.2596 4
3 4 -3 7874.77 254.027 7
-3 -4 3 7691.83 212.413 6
-3 -4 3 8103.51 269.574 2
3 4 -2 943.298 90.1962 7
-3 -4 2 964.172 96.2630 2
-3 -4 2 912.288 74.6781 6
3 4 -1 1182.17 99.3440 7
-3 -4 1 1182.60 85.1485 6
-3 -4 1 1210.91 103.911 2
3 4 0 188.085 56.6521 7
-3 -4 0 75.4536 40.0035 2
-3 -4 0 136.731 44.3374 6
3 4 1 103.837 45.6046 7
-3 -4 -1 64.4645 50.0968 2
-3 -4 -1 113.626 44.9141 6
3 4 2 88512.9 1259.89 7
-3 -4 -2 89334.7 1230.03 6
-3 -4 -2 90269.2 1260.78 2
-3 -4 -3 8645.26 270.989 2
3 4 3 8679.20 272.068 7
-3 -4 -3 8907.27 263.220 6
3 4 4 2495.73 145.469 7
-3 -4 -4 3198.40 162.121 2
-3 -4 -4 2466.63 141.991 6
3 4 5 564.997 78.8027 7
-3 -4 -5 600.911 77.3017 6
3 4 6 838.615 94.4037 7
-3 -4 -6 716.477 85.7625 6
3 4 7 250.707 65.1997 7
-3 -4 -7 30.1504 43.7738 6
3 4 8 732.660 97.0961 7
-3 -4 -8 732.748 92.7174 6
3 4 9 111.833 67.2187 7
-3 -4 -9 147.944 60.9651 6
3 4 10 118.710 61.6949 7
-3 -4 -10 89.2308 52.5632 6
3 4 11 8647.52 322.094 7
-3 -4 -11 7908.25 321.077 6
3 4 12 16855.8 477.568 7
-3 -4 -12 15679.5 478.276 6
3 4 13 529.833 99.7954 7
3 5 -11 263.608 66.1937 4
-3 -5 11 227.739 65.0852 9
3 5 -10 586.544 88.7029 4
-3 -5 10 395.638 75.8110 9
3 5 -9 253.550 58.6771 4
-3 -5 9 478.870 78.3545 9
-3 -5 9 255.748 73.2090 5
3 5 -8 -52.4351 50.4085 7
3 5 -8 2.71317 41.2031 4
-3 -5 8 -30.0219 55.1177 9
-3 -5 8 -9.99259 49.7003 5
-3 -5 7 4294.71 208.054 5
3 5 -7 3748.37 170.429 4
3 5 -7 3667.41 191.241 7
-3 -5 6 2617.31 160.344 5
3 5 -6 2837.15 165.364 7
3 5 -5 22.4822 43.4654 7
-3 -5 5 64.0958 47.0975 5
3 5 -4 46.9608 48.1305 7
-3 -5 4 72.4610 39.8751 6
-3 -5 4 164.326 62.4943 5
-3 -5 3 3507.25 148.589 6
-3 -5 3 3462.91 180.155 2
-3 -5 3 3788.35 183.656 5
3 5 -3 3337.89 173.052 7
3 5 -2 161.994 57.4784 7
-3 -5 2 225.146 59.0208 2
-3 -5 2 289.142 52.0446 6
3 5 -1 46.7186 46.9736 7
-3 -5 1 45.8249 44.9106 2
-3 -5 1 -33.9977 35.5439 6
3 5 0 431.703 69.9292 7
-3 -5 0 381.018 65.8453 2
-3 -5 0 306.589 53.3033 6
3 5 1 5706.67 218.073 7
-3 -5 -1 5696.79 204.481 6
-3 -5 -1 6013.22 216.261 2
3 5 2 21233.1 457.296 7
-3 -5 -2 20790.5 440.087 6
-3 -5 -2 21702.6 455.839 2
3 5 3 953.916 97.0566 7
-3 -5 -3 1024.18 92.7075 6
-3 -5 -3 1048.40 95.4252 2
3 5 4 8118.61 269.388 7
-3 -5 -4 8618.19 272.725 2
-3 -5 -4 8553.32 271.934 6
3 5 5 28.9383 43.4280 7
-3 -5 -5 94.3394 51.2309 6
3 5 6 242.872 61.4459 7
-3 -5 -6 314.458 65.5425 6
3 5 7 74.1218 54.7248 7
-3 -5 -7 47.6125 47.3115 6
3 5 8 1894.42 142.657 7
-3 -5 -8 2066.39 146.980 6
3 5 9 -104.971 58.1581 7
-3 -5 -9 44.3574 54.3547 6
3 5 10 301.348 70.1628 7
-3 -5 -10 271.209 68.6668 6
3 5 11 56.3533 62.2869 7
-3 -5 -11 87.8035 52.9018 6
3 5 12 506.209 89.7517 7
-3 -5 -12 312.355 75.6869 6
3 5 13 311.026 81.1275 7
-3 -6 10 162.038 63.8515 5
-3 -6 9 167.046 69.2837 5
-3 -6 8 3881.42 213.416 5
-3 -6 7 24991.3 574.373 5
3 6 -7 24612.4 566.771 7
-3 -6 6 1336.00 125.753 5
3 6 -6 1698.60 134.753 7
-3 -6 5 2901.79 173.890 5
3 6 -5 3171.42 178.321 7
3 6 -4 50.3813 43.6475 7
-3 -6 4 53.6502 45.0631 6
-3 -6 4 120.112 57.3227 5
3 6 -3 215.140 55.9479 7
-3 -6 3 303.645 67.7172 2
-3 -6 3 295.517 55.9554 6
-3 -6 3 171.662 61.2152 5
3 6 -2 924.164 98.7408 7
-3 -6 2 973.310 98.2464 2
-3 -6 2 912.913 84.9890 6
-3 -6 2 1059.92 110.325 5
3 6 -1 1755.19 127.583 7
-3 -6 1 1652.46 115.794 6
-3 -6 1 1804.57 123.003 2
-3 -6 0 170.607 51.3383 2
-3 -6 0 77.1716 44.8529 6
3 6 1 75.0593 52.1241 7
-3 -6 -1 79.4563 43.8957 2
-3 -6 -1 57.1562 39.7744 6
3 6 2 9892.07 302.574 7
-3 -6 -2 10237.7 297.755 6
-3 -6 -2 10529.5 295.678 2
3 6 3 32270.1 617.432 7
-3 -6 -3 32667.7 598.029 2
-3 -6 -3 31725.4 606.671 6
3 6 4 3581.25 181.423 7
-3 -6 -4 3114.00 162.443 2
-3 -6 -4 3677.38 181.667 6
3 6 5 13.5533 47.1564 7
-3 -6 -5 17.6646 46.8810 6
3 6 6 18.3974 51.2801 7
-3 -6 -6 22.4659 46.9008 6
3 6 7 32.4351 52.1326 7
-3 -6 -7 -38.2049 45.9425 6
3 6 8 11976.3 363.412 7
-3 -6 -8 12149.3 372.256 6
3 6 9 -47.4283 58.6827 7
-3 -6 -9 24.6942 50.8827 6
3 6 10 145.657 60.4481 7
-3 -6 -10 228.646 70.6683 6
3 6 11 722.946 99.8415 7
-3 -6 -11 552.674 95.6359 6
3 6 12 35.6743 54.2245 7
-3 -6 -12 110.528 63.7563 6
-3 -7 9 47.4136 61.7248 5
-3 -7 8 813.672 106.838 5
-3 -7 7 9759.42 351.749 5
3 7 -7 10003.7 350.876 7
-3 -7 6 1633.46 141.023 5
3 7 -6 1791.75 148.508 7
3 7 -5 134.405 61.4713 7
-3 -7 5 143.008 59.1555 5
3 7 -4 69.6783 57.7351 7
-3 -7 4 -7.76375 42.6151 2
-3 -7 4 -4.55164 51.2297 5
3 7 -3 436.704 79.8629 7
-3 -7 3 554.753 81.0617 2
-3 -7 3 418.458 70.6126 6
-3 -7 3 628.647 96.5170 5
3 7 -2 126.983 61.0325 7
-3 -7 2 71.6126 44.7402 2
-3 -7 2 94.1139 44.2239 6
-3 -7 2 135.984 62.3717 5
3 7 -1 398.021 75.3588 7
-3 -7 1 503.578 71.1300 2
-3 -7 1 335.028 66.4772 6
-3 -7 1 696.461 96.9685 5
3 7 0 947.373 102.250 7
-3 -7 0 966.293 93.0523 2
-3 -7 0 996.962 100.563 6
3 7 1 413.565 77.9176 7
-3 -7 -1 430.354 64.7753 2
-3 -7 -1 423.093 71.5249 6
3 7 2 1312.46 116.875 7
-3 -7 -2 1177.04 108.307 6
-3 -7 -2 1369.54 103.891 2
3 7 3 139.557 58.4113 7
-3 -7 -3 220.966 58.5773 6
-3 -7 -3 143.082 45.7410 2
3 7 4 1625.75 129.698 7
-3 -7 -4 1432.99 120.627 6
3 7 5 506.771 82.3709 7
-3 -7 -5 656.195 89.7236 6
3 7 6 21.9276 51.8116 7
-3 -7 -6 95.7546 53.0632 6
3 7 7 366.512 74.7396 7
-3 -7 -7 513.485 86.3689 6
3 7 8 402.553 79.0111 7
-3 -7 -8 401.186 84.6457 6
3 7 9 1085.35 119.137 7
-3 -7 -9 1105.51 123.738 6
3 7 10 2075.60 154.971 7
-3 -7 -10 1788.36 152.416 6
3 7 11 177.892 64.8663 7
-3 -7 -11 173.069 66.2980 6
3 7 12 5.99231 52.6339 7
-3 -8 7 630.328 105.935 5
-3 -8 6 11918.9 399.385 5
3 8 -6 11780.5 394.666 7
-3 -8 5 4746.18 245.012 5
3 8 -5 4661.14 239.067 7
-3 -8 4 1415.05 136.776 5
3 8 -4 1553.79 137.284 7
3 8 -3 -57.8119 50.9555 7
-3 -8 3 -41.7852 53.6990 5
3 8 -2 639.520 91.2528 7
-3 -8 2 743.153 84.8035 2
-3 -8 2 898.402 100.464 6
-3 -8 2 954.553 111.347 5
-3 -8 1 12741.9 360.778 6
-3 -8 1 12619.6 389.568 5
-3 -8 1 12447.0 335.454 2
3 8 -1 13108.1 384.727 7
3 8 0 -24.8359 59.6418 7
-3 -8 0 12.1363 37.3704 2
-3 -8 0 16.0393 47.8699 6
-3 -8 0 15.5825 53.3712 5
3 8 1 57.6600 50.1460 7
-3 -8 -1 194.610 59.1936 6
-3 -8 -1 157.242 44.5796 2
3 8 2 110.034 58.5646 7
-3 -8 -2 24.5914 50.4735 6
-3 -8 -2 32.3140 36.9890 2
3 8 3 89.3101 56.6864 7
-3 -8 -3 104.634 57.2670 6
-3 -8 -3 3.40449 42.0606 2
3 8 4 686.672 94.2689 7
-3 -8 -4 684.363 98.4537 6
3 8 5 980.436 107.320 7
-3 -8 -5 957.334 109.193 6
3 8 6 100.346 56.1751 7
-3 -8 -6 32.1502 49.8728 6
3 8 7 24.2543 46.4882 7
-3 -8 -7 23.6805 49.7089 6
3 8 8 3333.34 190.490 7
-3 -8 -8 3011.99 192.967 6
3 8 9 1142.56 119.699 7
-3 -8 -9 1074.91 123.582 6
3 8 10 -0.28354 57.8282 7
-3 -8 -10 3.59340 58.1377 6
3 8 11 163.191 66.4571 7
-3 -9 5 7655.09 323.621 5
3 9 -5 7493.75 319.010 7
3 9 -4 39.7684 53.9489 7
-3 -9 4 122.441 67.6481 5
3 9 -3 -14.6932 58.7335 7
-3 -9 3 13.6911 59.1956 5
3 9 -2 885.108 112.831 7
-3 -9 2 923.352 117.519 5
3 9 -1 -37.0415 58.4772 7
-3 -9 1 -16.3770 56.0953 6
-3 -9 1 67.7441 66.2992 5
-3 -9 0 2459.35 163.252 6
-3 -9 0 2457.15 173.961 5
3 9 0 2472.06 168.750 7
-3 -9 -1 2051.21 150.503 6
3 9 1 1846.97 148.678 7
3 9 2 -101.367 61.4700 7
-3 -9 -2 -74.6742 56.4378 6
3 9 3 1257.50 125.992 7
-3 -9 -3 1297.60 124.993 6
3 9 4 650.332 96.2444 7
-3 -9 -4 765.977 102.949 6
3 9 5 7155.76 281.232 7
-3 -9 -5 6976.97 288.352 6
3 9 6 44.1701 49.4684 7
-3 -9 -6 153.236 72.4962 6
3 9 7 628.153 90.9137 7
-3 -9 -7 723.594 103.893 6
3 9 8 62.7801 64.0639 7
-3 -9 -8 46.0990 53.2989 6
3 9 9 58.5093 52.6516 7
-3 -9 -9 33.8034 57.6267 6
3 9 10 3345.23 197.554 7
3 10 -3 -48.4704 56.5909 7
-3 -10 3 35.2249 72.7758 5
3 10 -2 61.4766 56.1970 7
-3 -10 2 15.2095 60.3086 5
3 10 -1 678.200 103.141 7
-3 -10 1 633.699 104.979 5
3 10 0 126.120 61.4230 7
-3 -10 0 6.07929 58.2691 6
-3 -10 0 -26.9742 60.1356 5
3 10 1 1175.76 125.521 7
-3 -10 -1 1023.93 119.741 6
3 10 2 89.9097 64.0690 7
-3 -10 -2 151.309 69.9275 6
3 10 3 988.985 120.671 7
-3 -10 -3 947.754 115.814 6
3 10 4 40.5447 58.0401 7
-3 -10 -4 51.6492 60.8050 6
3 10 5 3570.98 205.336 7
-3 -10 -5 3605.54 212.315 6
3 10 6 384.515 88.1862 7
-3 -10 -6 503.494 93.8186 6
3 10 7 -14.7953 51.9377 7
-3 -10 -7 14.5553 53.5657 6
3 10 8 -18.1626 52.0902 7
-3 -10 -8 17.9260 53.6827 6
3 10 9 2071.02 159.829 7
-3 -11 0 3608.55 220.084 6
-3 -11 0 4251.50 245.873 5
3 11 0 4060.88 234.786 7
-3 -11 -1 6594.36 297.202 6
3 11 1 7147.28 307.670 7
3 11 2 915.778 119.618 7
-3 -11 -2 893.977 124.404 6
3 11 3 83.6617 58.6416 7
-3 -11 -3 124.467 68.9568 6
3 11 4 26.6937 56.1325 7
-3 -11 -4 -12.8839 58.1311 6
3 11 5 618.480 97.3570 7
-3 -11 -5 505.789 98.6997 6
3 11 6 216.873 75.8846 7
3 11 7 877.137 117.228 7
3 11 8 333.806 83.2703 7
-4 6 3 957.422 113.937 3
4 -6 -3 879.411 126.819 8
-4 6 2 74.5415 57.1077 3
4 -6 -2 -81.9269 58.4727 9
4 -6 -2 21.2480 55.1201 8
4 -6 -1 2396.51 167.664 9
4 -6 -1 2238.11 183.941 8
-4 6 1 2747.20 183.054 3
4 -6 0 458.847 79.5675 9
4 -6 0 536.519 95.4489 8
-4 5 5 210.630 77.0793 3
4 -5 -5 163.437 74.0247 8
-4 5 4 299.243 72.1066 3
4 -5 -4 271.767 77.7565 8
-4 5 3 94.0986 49.1295 3
4 -5 -3 209.170 76.3467 8
-4 5 2 163.864 60.6318 3
4 -5 -2 174.420 77.4638 8
4 -5 -1 1533.62 128.502 9
4 -5 -1 1509.46 146.387 8
-4 5 1 1618.80 142.445 3
-4 5 0 68.6208 47.5455 3
4 -5 0 75.8347 55.6568 8
4 -5 1 60.0206 58.9594 8
4 -5 3 -35.6924 55.6009 7
4 -5 4 -40.7039 64.2701 7
-4 4 8 3079.96 207.871 2
-4 4 7 98.5614 66.2384 2
-4 4 6 152.605 66.5498 2
-4 4 6 31.8773 47.6903 3
4 -4 -6 -40.1660 63.3762 8
-4 4 5 123.369 63.2200 2
-4 4 5 319.671 82.8110 3
4 -4 -5 165.835 71.6160 8
4 -4 -4 3408.07 226.830 8
-4 4 4 3472.45 202.448 2
-4 4 4 3448.22 210.307 3
4 -4 -3 1571.43 154.339 8
-4 4 3 1909.85 152.374 3
-4 4 3 1676.48 139.524 2
4 -4 -2 2912.63 200.894 8
-4 4 2 3587.71 204.755 3
-4 4 2 3118.79 189.865 2
4 -4 -1 5717.10 282.951 8
-4 4 1 6139.36 268.923 3
-4 4 1 6257.02 264.379 2
-4 4 0 16.7012 45.9384 3
-4 4 0 27.5666 47.9949 2
4 -4 0 -6.31166 50.0392 8
4 -4 1 1607.79 131.800 7
-4 4 -1 1467.03 132.906 2
4 -4 1 1158.49 124.950 8
4 -4 2 71.9944 51.9685 7
4 -4 2 -21.9779 47.6816 8
4 -4 3 2167.52 161.964 7
4 -4 4 733.161 110.510 7
4 -4 5 1418.32 140.549 7
-4 3 8 795.104 112.411 2
-4 3 7 239.102 77.0844 2
-4 3 7 282.956 75.5846 3
4 -3 -7 236.398 78.2060 8
-4 3 6 695.131 103.064 2
-4 3 6 737.203 106.495 3
4 -3 -6 649.103 109.601 8
-4 3 5 370.583 87.8968 2
-4 3 5 293.208 78.9462 3
4 -3 -5 191.368 72.3969 8
-4 3 4 140.524 61.5688 2
-4 3 4 63.2805 46.6758 3
4 -3 -4 196.835 70.1429 8
4 -3 -3 2418.54 186.426 8
-4 3 3 2989.94 186.392 2
-4 3 3 2729.89 183.913 3
-4 3 2 437.514 81.3825 2
-4 3 2 355.122 75.0969 3
4 -3 -2 465.994 91.8958 8
-4 3 1 179.675 60.5447 2
-4 3 1 238.097 66.9735 3
4 -3 -1 235.557 70.9872 8
4 -3 0 319.576 67.5582 7
-4 3 0 195.711 62.9522 3
-4 3 0 277.607 67.9664 2
4 -3 0 140.943 59.0035 8
4 -3 1 2575.22 162.437 7
-4 3 -1 2321.48 162.770 2
4 -3 1 2184.77 166.456 8
4 -3 2 11393.9 356.196 7
-4 3 -2 10823.2 363.098 2
-4 3 -2 11038.6 343.996 6
4 -3 2 10286.8 362.433 8
4 -3 3 6115.10 263.720 7
-4 3 -3 5350.70 245.113 6
4 -3 4 7198.83 294.204 7
-4 3 -4 6363.80 277.155 6
4 -3 5 194.767 75.9514 7
-4 3 -5 88.3597 56.5609 6
4 -3 6 2658.51 192.293 7
-4 3 -6 2537.13 187.048 6
-4 2 8 513.772 94.5158 2
-4 2 8 398.083 88.1292 3
4 -2 -8 375.235 85.5876 8
-4 2 7 286.030 78.5201 2
-4 2 7 429.018 86.7148 3
-4 2 6 3941.42 227.929 2
4 -2 -6 4049.32 246.393 8
-4 2 6 4488.80 236.669 3
-4 2 5 6942.82 295.683 2
4 -2 -5 7129.36 321.345 8
-4 2 5 6935.74 295.234 3
-4 2 4 3530.55 207.002 2
4 -2 -4 3523.86 223.061 8
-4 2 4 3710.30 210.297 3
-4 2 3 69.2748 48.8566 2
-4 2 3 145.561 64.0029 3
4 -2 -3 236.249 72.6706 8
4 -2 -2 2173.57 169.587 8
-4 2 2 2641.80 171.876 2
-4 2 2 2109.93 155.940 3
4 -2 -1 1406.60 113.781 7
-4 2 1 1241.26 122.195 2
4 -2 -1 1144.50 126.087 8
-4 2 1 1255.01 122.703 3
4 -2 0 129.784 54.5969 7
-4 2 0 51.7394 53.7268 2
4 -2 1 75.1091 58.6058 7
-4 2 -1 19.4942 51.2390 2
4 -2 2 8047.93 294.148 7
-4 2 -2 7637.62 299.720 2
-4 2 -2 7575.76 275.462 6
4 -2 3 10142.3 340.142 7
-4 2 -3 9554.15 322.964 6
4 -2 4 1719.49 145.773 7
-4 2 -4 1602.50 136.675 6
4 -2 5 11297.0 380.268 7
-4 2 -5 10316.7 360.767 6
4 -2 6 973.040 119.710 7
-4 2 -6 1077.50 121.755 6
-4 2 -7 757.042 110.641 6
-4 1 9 182.879 73.0748 3
4 -1 -9 192.910 67.5779 8
-4 1 8 200.637 59.2983 3
-4 1 8 119.524 67.7992 2
4 -1 -8 132.485 78.6630 8
-4 1 7 1884.64 163.391 2
4 -1 -7 1873.45 167.619 8
-4 1 7 2037.37 160.842 3
-4 1 6 8417.90 332.461 2
4 -1 -6 8873.68 356.754 8
-4 1 6 8282.72 325.321 3
-4 1 5 8122.44 323.089 2
4 -1 -5 7802.27 330.705 8
-4 1 5 8000.28 309.537 3
-4 1 4 962.404 116.823 2
-4 1 4 1008.74 112.042 3
4 -1 -4 849.124 111.414 8
4 -1 -3 2655.70 186.521 8
-4 1 3 2758.48 177.399 2
-4 1 3 2548.91 169.973 3
4 -1 -2 141.923 51.6984 7
-4 1 2 103.709 57.6576 2
-4 1 2 95.6308 52.6707 3
4 -1 -2 12.6010 53.6729 8
4 -1 -1 162.052 52.5001 7
-4 1 1 274.334 72.2296 2
-4 1 1 204.173 55.1208 3
4 -1 0 691.263 89.6220 7
-4 1 0 603.392 91.1860 2
4 -1 1 750.903 94.1471 7
-4 1 -1 677.809 100.480 2
-4 1 -1 718.554 80.1104 6
4 -1 2 953.731 108.458 7
-4 1 -2 1065.13 103.084 6
-4 1 -2 1135.81 121.114 2
4 -1 3 327.154 73.4434 7
-4 1 -3 151.994 52.1224 6
-4 1 -3 364.557 84.3360 2
4 -1 4 14801.4 427.125 7
-4 1 -4 14667.6 414.466 6
4 -1 5 688.565 102.019 7
-4 1 -5 437.115 74.3351 6
4 -1 6 212.924 73.2992 7
-4 1 -6 316.848 76.4048 6
4 -1 7 663.223 103.446 7
-4 1 -7 566.978 94.3113 6
-4 0 9 70.8503 57.0917 3
4 0 -9 -78.0866 67.1657 8
-4 0 8 432.740 86.7156 3
4 0 -8 466.882 90.3309 8
-4 0 7 6257.33 295.545 2
4 0 -7 6130.50 297.830 8
-4 0 7 6865.05 288.425 3
-4 0 6 17467.3 497.806 2
4 0 -6 16977.8 505.624 8
-4 0 6 17229.7 475.598 3
-4 0 5 3171.68 202.715 2
4 0 -5 3108.79 205.810 8
-4 0 5 3359.73 195.592 3
-4 0 4 5584.90 262.166 2
4 0 -4 5352.18 264.971 8
-4 0 4 5363.03 247.068 3
4 0 -3 76.1515 54.1564 7
-4 0 3 95.3942 56.2064 2
-4 0 3 -38.6256 43.0554 3
4 0 -2 253.507 61.9601 7
-4 0 2 298.269 80.9384 2
-4 0 2 279.740 70.6687 3
4 0 -1 40.0884 53.7633 7
-4 0 1 68.3052 56.2138 2
4 0 0 299.027 70.8842 7
-4 0 0 355.046 81.8810 2
4 0 1 205.706 62.3334 7
-4 0 -1 204.685 69.8216 2
-4 0 -1 178.829 51.8649 6
4 0 2 241.442 65.3829 7
-4 0 -2 287.076 60.8250 6
-4 0 -2 353.075 72.0187 2
4 0 3 1479.56 130.296 7
-4 0 -3 1418.34 121.314 6
-4 0 -3 1276.63 125.617 2
4 0 4 2934.65 186.432 7
-4 0 -4 3785.14 198.047 6
4 0 5 2038.70 160.213 7
-4 0 -5 2049.53 154.729 6
4 0 6 -85.6185 62.2800 7
-4 0 -6 -9.55964 51.0727 6
4 0 7 283.248 75.4090 7
-4 0 -7 160.426 65.7511 6
4 0 8 -12.1912 63.4405 7
-4 0 -8 3.11381 53.1377 6
-4 -1 10 61.2392 54.4107 3
4 1 -10 32.6216 58.6880 8
-4 -1 9 767.127 107.178 3
4 1 -9 659.673 113.958 8
-4 -1 8 239.400 69.8144 3
4 1 -8 127.471 69.6819 8
-4 -1 7 548.762 91.8863 3
-4 -1 7 684.907 107.535 2
4 1 -7 552.692 97.2693 8
-4 -1 6 2533.35 184.718 2
4 1 -6 2551.82 185.861 8
-4 -1 6 2055.65 154.658 3
-4 -1 5 16861.8 481.485 2
4 1 -5 16528.8 482.835 8
-4 -1 5 16685.7 454.084 3
4 1 -4 190.216 58.6561 7
-4 -1 4 193.197 73.2969 2
-4 -1 4 218.974 69.4643 3
4 1 -3 129.771 49.7125 7
-4 -1 3 136.444 62.2494 2
4 1 -2 27.7767 42.8598 7
-4 -1 2 -19.9594 49.8925 2
4 1 -1 2079.92 142.869 7
-4 -1 1 1997.99 150.805 2
4 1 0 8767.54 295.506 7
-4 -1 0 9772.54 331.321 2
4 1 1 1996.11 141.003 7
-4 -1 -1 2177.30 132.316 6
-4 -1 -1 2463.34 166.424 2
4 1 2 98.6314 56.2211 7
-4 -1 -2 124.914 46.6695 6
-4 -1 -2 102.155 51.4574 2
4 1 3 199.248 63.7264 7
-4 -1 -3 85.7088 44.1920 6
-4 -1 -3 119.005 62.8380 2
4 1 4 671.466 100.386 7
-4 -1 -4 644.497 86.5184 6
4 1 5 860.840 108.407 7
-4 -1 -5 910.510 105.823 6
4 1 6 2856.03 191.343 7
-4 -1 -6 2770.10 179.654 6
4 1 7 228.858 77.5736 7
-4 -1 -7 352.827 79.8348 6
4 1 8 716.372 106.359 7
-4 -1 -8 728.335 100.444 6
-4 -2 9 15.1053 46.9114 3
4 2 -9 173.296 73.8467 8
-4 -2 8 1122.13 124.783 3
4 2 -8 1406.44 147.983 8
-4 -2 7 88.1991 56.3779 3
-4 -2 7 93.1015 57.7264 2
4 2 -7 93.2185 64.0731 8
-4 -2 6 2072.21 171.445 2
4 2 -6 1738.96 159.205 8
-4 -2 6 1726.44 144.291 3
-4 -2 5 2096.36 167.398 2
4 2 -5 1806.48 154.282 8
4 2 -5 1997.39 136.332 7
4 2 -4 1334.91 113.674 7
-4 -2 4 1309.67 130.855 2
4 2 -3 112.119 51.0145 7
-4 -2 3 242.044 72.1960 2
4 2 -2 -9.29527 43.6721 7
-4 -2 2 -3.95115 49.9264 2
4 2 -1 326.877 67.4852 7
-4 -2 1 356.892 78.4407 2
4 2 0 1424.86 123.557 7
-4 -2 0 1287.85 99.5415 6
-4 -2 0 1397.61 128.908 2
4 2 1 429.841 78.8589 7
-4 -2 -1 547.525 87.7174 2
-4 -2 -1 712.466 78.8713 6
-4 -2 -2 2425.66 163.749 2
4 2 2 2286.59 158.342 7
-4 -2 -2 2286.12 139.849 6
-4 -2 -3 1443.37 136.471 2
4 2 3 1628.73 134.316 7
-4 -2 -3 1424.74 118.125 6
4 2 4 461.064 81.5001 7
-4 -2 -4 438.400 76.2273 6
-4 -2 -4 272.202 72.3545 2
4 2 5 702.522 103.637 7
-4 -2 -5 682.726 87.9760 6
4 2 6 3966.12 222.277 7
-4 -2 -6 3823.10 210.356 6
4 2 7 432.862 92.4571 7
-4 -2 -7 591.210 89.6640 6
4 2 8 8.18806 68.2683 7
-4 -2 -8 108.231 61.7771 6
-4 -2 -9 378.405 87.8444 6
4 3 -8 549.104 99.3526 8
4 3 -7 201.056 66.3101 8
-4 -3 6 1713.58 152.320 2
4 3 -6 1510.13 147.250 8
4 3 -6 1477.03 123.174 7
4 3 -5 8.17025 48.1000 7
-4 -3 5 -29.2273 63.9135 2
4 3 -4 1372.97 118.480 7
-4 -3 4 1624.81 147.110 2
4 3 -3 5320.34 227.273 7
-4 -3 3 5629.90 256.550 2
4 3 -2 1395.20 119.684 7
-4 -3 2 1202.12 121.490 2
4 3 -1 1240.45 113.629 7
-4 -3 1 1112.43 117.892 2
4 3 0 1672.10 133.213 7
-4 -3 0 1390.57 104.987 6
-4 -3 0 1569.15 133.482 2
4 3 1 2713.28 168.628 7
-4 -3 -1 2556.98 145.680 6
-4 -3 -1 2839.01 173.987 2
4 3 2 32.3331 59.9303 7
-4 -3 -2 43.2398 41.5590 6
-4 -3 -2 -33.7954 50.4432 2
4 3 3 276.269 69.0627 7
-4 -3 -3 247.277 59.8827 6
-4 -3 -3 205.845 66.7154 2
4 3 4 72.5761 53.1093 7
-4 -3 -4 129.063 54.7586 6
-4 -3 -4 -31.5587 51.5799 2
4 3 5 1054.48 119.634 7
-4 -3 -5 1075.82 109.741 6
4 3 6 6424.04 280.212 7
-4 -3 -6 6561.85 274.239 6
4 3 7 1393.36 138.465 7
-4 -3 -7 1370.23 134.018 6
4 3 8 734.433 109.149 7
-4 -3 -8 1019.11 121.794 6
4 3 9 888.036 121.840 7
-4 -3 -9 1102.93 127.284 6
-4 -4 7 -22.0182 61.6454 2
4 4 -7 139.040 67.3176 8
-4 -4 6 84.8879 62.0518 2
4 4 -6 74.9901 49.6481 7
4 4 -6 -40.8268 46.7579 8
4 4 -5 402.668 77.7919 7
-4 -4 5 467.717 89.8281 2
4 4 -4 421.433 79.6097 7
-4 -4 4 152.802 68.3774 2
4 4 -3 2222.11 152.468 7
-4 -4 3 2619.44 178.644 2
4 4 -2 562.530 86.5745 7
-4 -4 2 668.375 96.6045 2
4 4 -1 435.004 78.5314 7
-4 -4 1 287.133 72.7389 2
4 4 0 735.895 97.8096 7
-4 -4 0 894.306 110.638 2
-4 -4 0 647.707 76.4254 6
4 4 1 -5.66318 51.7688 7
-4 -4 -1 85.8535 52.6032 2
-4 -4 -1 -17.8122 38.5413 6
4 4 2 2507.61 165.671 7
-4 -4 -2 2389.35 146.839 6
-4 -4 -2 2387.17 164.241 2
-4 -4 -3 5112.32 241.296 2
4 4 3 5374.92 243.270 7
-4 -4 -3 5374.05 225.974 6
4 4 4 72.5069 54.8701 7
-4 -4 -4 84.0622 51.7536 6
-4 -4 -4 25.0828 53.0377 2
4 4 5 7.74218 55.3224 7
-4 -4 -5 -2.72263 49.5409 6
4 4 6 64.6695 62.2816 7
-4 -4 -6 -37.2907 49.8901 6
4 4 7 2634.92 187.044 7
-4 -4 -7 2698.28 181.964 6
4 4 8 197.914 70.0739 7
-4 -4 -8 207.940 73.0907 6
4 4 9 -35.4479 63.7258 7
-4 -4 -9 -11.8474 51.5358 6
4 5 -7 169.882 63.6184 7
-4 -5 7 112.509 66.2884 2
-4 -5 6 1806.57 163.101 2
4 5 -6 1511.69 133.952 7
4 5 -5 404.653 82.4234 7
-4 -5 5 339.315 76.4183 2
4 5 -4 260.203 70.5187 7
-4 -5 4 202.343 69.5217 2
-4 -5 3 7857.12 308.507 2
4 5 -3 7802.54 296.367 7
4 5 -2 352.496 76.4546 7
-4 -5 2 398.906 82.9043 2
4 5 -1 -40.5769 55.7809 7
-4 -5 1 126.290 58.0015 2
4 5 0 110.596 60.5040 7
-4 -5 0 258.530 68.5435 2
-4 -5 0 173.358 55.2683 6
4 5 1 2764.76 171.990 7
-4 -5 -1 2887.82 164.463 6
-4 -5 -1 2728.76 175.856 2
4 5 2 1615.95 140.097 7
-4 -5 -2 1683.35 127.992 6
-4 -5 -2 1448.71 125.969 2
4 5 3 1949.84 152.098 7
-4 -5 -3 2175.94 159.479 2
-4 -5 -3 2150.17 147.117 6
4 5 4 1186.01 122.615 7
-4 -5 -4 1126.96 111.837 6
-4 -5 -4 1308.39 129.338 2
4 5 5 710.379 106.949 7
-4 -5 -5 730.506 94.8653 6
4 5 6 143.000 66.0565 7
-4 -5 -6 40.5656 50.0051 6
4 5 7 419.870 89.7567 7
-4 -5 -7 663.451 97.2297 6
4 5 8 68.7122 66.5852 7
-4 -5 -8 63.9034 54.3807 6
4 5 9 -111.942 67.1025 7
4 6 -7 7894.78 318.897 7
-4 -6 6 1996.33 172.292 2
4 6 -6 2271.73 173.924 7
4 6 -5 153.211 65.5233 7
-4 -6 5 -14.1352 54.8100 2
4 6 -4 108.715 62.4328 7
-4 -6 4 166.996 73.9679 2
4 6 -3 153.932 64.9069 7
-4 -6 3 -19.3303 55.3464 2
-4 -6 2 2415.81 169.139 2
4 6 -2 2194.26 163.523 7
4 6 -1 569.568 97.6786 7
-4 -6 1 532.548 87.4690 2
-4 -6 1 501.078 74.4712 6
4 6 0 143.975 70.4865 7
-4 -6 0 180.590 65.7065 2
-4 -6 0 172.578 56.7027 6
4 6 1 325.475 82.3882 7
-4 -6 -1 398.672 76.2752 2
-4 -6 -1 300.672 67.2873 6
4 6 2 212.170 81.7931 7
-4 -6 -2 49.9798 58.8358 6
-4 -6 -2 184.130 61.5774 2
4 6 3 39463.3 772.796 7
-4 -6 -3 40160.1 769.596 2
-4 -6 -3 37423.0 733.701 6
4 6 4 299.859 77.8546 7
-4 -6 -4 405.545 80.5834 6
-4 -6 -4 321.677 74.4202 2
4 6 5 873.168 111.440 7
-4 -6 -5 1008.60 111.786 6
4 6 6 177.452 75.6002 7
-4 -6 -6 150.451 66.0777 6
4 6 7 360.231 87.8821 7
-4 -6 -7 445.330 82.2859 6
4 6 8 972.887 131.175 7
-4 -6 -8 898.097 114.776 6
-4 -7 6 3290.18 216.300 2
4 7 -5 859.076 114.269 7
-4 -7 5 1047.24 126.852 2
4 7 -4 64.5670 54.3485 7
-4 -7 4 -9.33640 50.9325 2
4 7 -3 11.3401 53.1260 7
-4 -7 3 130.097 61.8851 2
4 7 -2 558.578 94.0258 7
-4 -7 2 544.523 89.0296 2
4 7 -1 124.318 60.9457 7
-4 -7 1 115.411 57.6893 2
-4 -7 1 115.329 55.0142 6
4 7 0 -42.1203 59.5457 7
-4 -7 0 40.6198 55.3982 2
-4 -7 0 111.260 58.0361 6
4 7 1 260.888 74.5581 7
-4 -7 -1 204.516 66.2076 6
-4 -7 -1 250.888 65.2301 2
4 7 2 103.382 61.6024 7
-4 -7 -2 188.505 60.4652 6
-4 -7 -2 222.798 65.0558 2
4 7 3 8482.77 323.581 7
-4 -7 -3 7618.20 295.252 2
-4 -7 -3 8339.77 307.328 6
4 7 4 604.603 98.2911 7
-4 -7 -4 539.472 91.9679 6
-4 -7 -4 712.257 107.693 2
4 7 5 1909.98 161.269 7
-4 -7 -5 2340.80 168.800 6
4 7 6 17.2468 59.4034 7
-4 -7 -6 129.184 58.9939 6
4 7 7 256.271 80.7016 7
-4 -7 -7 167.997 69.6207 6
4 7 8 121.061 65.0950 7
4 8 -3 -52.7011 61.9774 7
-4 -8 3 19.8689 48.5887 2
4 8 -2 144.891 66.4175 7
-4 -8 2 47.9470 51.8154 2
-4 -8 1 1367.65 131.361 6
-4 -8 1 1759.69 146.002 2
4 8 -1 1558.46 149.527 7
4 8 0 1338.05 140.345 7
-4 -8 0 1204.07 122.639 6
-4 -8 0 1235.47 122.632 2
4 8 1 116.744 70.7167 7
-4 -8 -1 16.2861 47.6936 6
-4 -8 -1 149.238 57.3572 2
4 8 2 -67.7333 67.5783 7
-4 -8 -2 -79.1295 57.7107 6
-4 -8 -2 72.2597 56.1787 2
4 8 3 2953.26 200.660 7
-4 -8 -3 2950.26 185.178 2
-4 -8 -3 3158.54 195.131 6
4 8 4 6134.57 282.702 7
-4 -8 -4 5445.45 259.762 6
4 8 5 725.571 114.311 7
-4 -8 -5 805.614 110.970 6
4 8 6 119.844 59.7457 7
-4 -8 -6 183.083 69.9393 6
4 8 7 -42.8662 59.6362 7
-4 -9 1 -19.0006 54.6265 6
-4 -9 0 161.411 69.0847 6
-4 -9 -1 424.627 86.6372 6
4 9 2 286.463 84.0261 7
-4 -9 -2 393.839 87.3227 6
4 9 3 88.2519 66.4942 7
-4 -9 -3 106.015 66.0207 6
-4 -9 -4 230.852 75.2497 6
-4 -9 -5 1144.78 131.270 6
-4 -10 1 323.931 86.7224 6
-4 -10 0 3940.67 228.583 6
5 0 0 199.929 71.3588 7
5 0 1 21.0962 61.2273 7
5 0 2 33.1568 61.4079 7
5 1 -1 -2.32754 52.6781 7
5 1 0 -24.8733 59.8246 7
5 1 1 850.802 113.284 7
5 1 2 410.798 90.6356 7
5 2 -2 30.2677 58.6989 7
5 2 -1 530.216 96.1211 7
5 2 0 76.1557 69.1316 7
5 2 1 56.2318 69.0112 7
5 2 2 276.106 79.3046 7
-5 -2 -4 626.962 100.234 6
5 3 -2 450.309 84.2362 7
5 3 -1 116.265 70.7821 7
5 3 0 505.300 96.7611 7
5 3 1 4900.69 256.124 7
-5 -3 -4 19.9512 58.0024 6
5 4 -3 748.165 108.556 7
5 4 -2 79.4586 58.9992 7
5 4 -1 107.145 68.9825 7
-5 -4 -4 107.340 59.3725 6
-5 -5 -4 390.912 90.8462 6
-5 -6 -3 2736.16 189.884 6
