#------------------------------------------------------------------------------
#$Date: 2017-01-09 05:13:44 +0200 (Mon, 09 Jan 2017) $
#$Revision: 190099 $
#$URL: file:///home/coder/svn-repositories/cod/cif/7/04/10/7041005.cif $
#------------------------------------------------------------------------------
#
# This file is available in the Crystallography Open Database (COD),
# http://www.crystallography.net/
#
# All data on this site have been placed in the public domain by the
# contributors.
#
data_7041005
loop_
_publ_author_name
'Ponou, Sim\'eon'
'Lidin, Sven'
_publ_section_title
;
 Exo-bonded six-membered heterocycle in the crystal structures of
 RE7Co2Ge4 (RE = La-Nd).
;
_journal_issue                   46
_journal_name_full
'Dalton transactions (Cambridge, England : 2003)'
_journal_page_first              18522
_journal_page_last               18531
_journal_paper_doi               10.1039/c6dt03302d
_journal_volume                  45
_journal_year                    2016
_chemical_formula_sum            'Co2 Ge4 Nd7'
_chemical_formula_weight         1417.9
_space_group_IT_number           14
_symmetry_cell_setting           monoclinic
_symmetry_Int_Tables_number      14
_symmetry_space_group_name_Hall  '-P 2ybc'
_symmetry_space_group_name_H-M   'P 1 21/c 1'
_audit_update_record
;
2016-10-20 deposited with the CCDC.
2016-10-24 downloaded from the CCDC.
;
_cell_angle_alpha                90
_cell_angle_beta                 109.478(7)
_cell_angle_gamma                90
_cell_formula_units_Z            4
_cell_length_a                   9.1859(5)
_cell_length_b                   12.2022(6)
_cell_length_c                   12.2000(8)
_cell_measurement_reflns_used    4320
_cell_measurement_temperature    293
_cell_measurement_theta_max      28.82
_cell_measurement_theta_min      2.88
_cell_volume                     1289.21(14)
_computing_cell_refinement
;
CrysAlisPro, Agilent Technologies,
Version 1.171.35.6 (release 27-01-2011 CrysAlis171 .NET)
(compiled Jan 27 2011,13:34:29)
;
_computing_data_collection
;
CrysAlisPro, Agilent Technologies,
Version 1.171.35.6 (release 27-01-2011 CrysAlis171 .NET)
(compiled Jan 27 2011,13:34:29)
;
_computing_data_reduction
;
CrysAlisPro, Agilent Technologies,
Version 1.171.35.6 (release 27-01-2011 CrysAlis171 .NET)
(compiled Jan 27 2011,13:34:29)
;
_diffrn_ambient_temperature      293
_diffrn_detector_area_resol_mean 16.1367
_diffrn_measured_fraction_theta_full 0.98
_diffrn_measured_fraction_theta_max 0.93
_diffrn_measurement_device       'four-circle diffractometer'
_diffrn_measurement_device_type  'Xcalibur, Eos'
_diffrn_measurement_method       '\w scans'
_diffrn_radiation_monochromator  graphite
_diffrn_radiation_probe          x-ray
_diffrn_radiation_source         'Enhance (Mo) X-ray Source'
_diffrn_radiation_type           'Mo K\a'
_diffrn_radiation_wavelength     0.7107
_diffrn_reflns_av_R_equivalents  0.047
_diffrn_reflns_av_sigmaI/netI    0.0531
_diffrn_reflns_limit_h_max       12
_diffrn_reflns_limit_h_min       -12
_diffrn_reflns_limit_k_max       16
_diffrn_reflns_limit_k_min       -16
_diffrn_reflns_limit_l_max       16
_diffrn_reflns_limit_l_min       -16
_diffrn_reflns_number            23501
_diffrn_reflns_theta_full        28.01
_diffrn_reflns_theta_max         28.89
_diffrn_reflns_theta_min         2.88
_exptl_absorpt_coefficient_mu    39.23
_exptl_absorpt_correction_T_max  1
_exptl_absorpt_correction_T_min  0.296
_exptl_absorpt_correction_type   multi-scan
_exptl_absorpt_process_details
;
CrysAlisPro, Agilent Technologies,
Version 1.171.35.6 (release 27-01-2011 CrysAlis171 .NET)
(compiled Jan 27 2011,13:34:29)
Empirical absorption correction using spherical harmonics,
 implemented in SCALE3 ABSPACK scaling algorithm.
;
_exptl_crystal_density_diffrn    7.3052
_exptl_crystal_F_000             1204
_refine_diff_density_max         1.47
_refine_diff_density_min         -1.07
_refine_ls_extinction_coef       240(30)
_refine_ls_extinction_method
'B-C type 1 Gaussian isotropic (Becker & Coppens, 1974)'
_refine_ls_goodness_of_fit_gt    1.29
_refine_ls_goodness_of_fit_ref   1.18
_refine_ls_number_constraints    0
_refine_ls_number_parameters     122
_refine_ls_number_reflns         6741
_refine_ls_number_restraints     0
_refine_ls_R_factor_all          0.0747
_refine_ls_R_factor_gt           0.0360
_refine_ls_shift/su_max          0.0428
_refine_ls_shift/su_mean         0.0059
_refine_ls_structure_factor_coef Fsqd
_refine_ls_weighting_details     w=1/(\s^2^(I)+0.0004I^2^)
_refine_ls_weighting_scheme      sigma
_refine_ls_wR_factor_gt          0.0902
_refine_ls_wR_factor_ref         0.1087
_reflns_number_gt                3901
_reflns_number_total             6741
_reflns_threshold_expression     I>3\s(I)
_cod_data_source_file            c6dt03302d1.cif
_cod_data_source_block           I
_cod_depositor_comments
;
The following automatic conversions were performed:

'_diffrn_radiation_probe' value 'X-ray' changed to 'x-ray' according
to
/usr/data/users/saulius/crontab/automatic-downloads/rss-feeds/RSC/lib/dictionaries/cif_core.dic
dictionary named 'cif_core.dic' version 2.4.2 from 2011-04-26.

Automatic conversion script
Id: cif_fix_values 4268 2015-11-12 08:31:59Z antanas 

 Adding full bibliography for 7041002--7041005.cif.
;
_cod_original_sg_symbol_Hall     '-P 2ycb'
_cod_database_code               7041005
loop_
_space_group_symop_id
_space_group_symop_operation_xyz
1 x,y,z
2 -x,y+1/2,-z+1/2
3 -x,-y,-z
4 x,-y+1/2,z+1/2
loop_
_atom_site_label
_atom_site_type_symbol
_atom_site_fract_x
_atom_site_fract_y
_atom_site_fract_z
_atom_site_adp_type
_atom_site_U_iso_or_equiv
_atom_site_site_symmetry_multiplicity
_atom_site_occupancy
_atom_site_calc_flag
Nd1 Nd 0.00194(11) 0.61979(6) 0.34163(7) Uani 0.0097(3) 4 0.5 d
Nd2 Nd 0.00196(11) 0.39938(7) 0.10064(7) Uani 0.0090(3) 4 0.5 d
Nd3 Nd -0.00005(11) 0.34043(6) 0.37934(7) Uani 0.0101(3) 4 0.5 d
Nd4 Nd 0.64474(7) 0.49782(8) 0.16282(9) Uani 0.0081(4) 4 0.5 d
Nd5 Nd 0.36154(10) 0.24697(7) 0.09172(9) Uani 0.0085(5) 4 0.5 d
Nd6 Nd 0.63757(10) 0.25180(7) 0.41102(9) Uani 0.0085(5) 4 0.5 d
Nd7 Nd 0.36679(7) 0.49827(8) 0.34496(9) Uani 0.0087(4) 4 0.5 d
Ge1 Ge 0.25176(13) -0.00004(16) 0.06263(17) Uani 0.0094(7) 4 0.5 d
Ge2 Ge 0.29872(13) 0.50071(16) 0.07508(18) Uani 0.0091(7) 4 0.5 d
Ge3 Ge 0.7227(2) 0.25060(14) 0.17877(17) Uani 0.0093(8) 4 0.5 d
Ge4 Ge 0.2760(2) 0.25269(14) 0.31560(17) Uani 0.0089(8) 4 0.5 d
Co1 Co 0.1373(2) 0.62056(18) 0.15735(18) Uani 0.0124(8) 4 0.5 d
Co2 Co 0.1348(2) 0.12245(18) 0.41274(18) Uani 0.0123(7) 4 0.5 d
loop_
_atom_site_aniso_label
_atom_site_aniso_type_symbol
_atom_site_aniso_U_11
_atom_site_aniso_U_22
_atom_site_aniso_U_33
_atom_site_aniso_U_12
_atom_site_aniso_U_13
_atom_site_aniso_U_23
Nd1 Nd 0.0094(4) 0.0088(4) 0.0106(4) 0.0000(4) 0.0031(4) 0.0007(3)
Nd2 Nd 0.0096(3) 0.0079(4) 0.0096(4) -0.0003(3) 0.0034(4) 0.0005(3)
Nd3 Nd 0.0090(4) 0.0095(4) 0.0116(4) -0.0004(4) 0.0033(4) 0.0005(3)
Nd4 Nd 0.0077(3) 0.0056(8) 0.0110(8) -0.0004(4) 0.0030(4) -0.0001(3)
Nd5 Nd 0.0084(5) 0.0058(8) 0.0116(8) -0.0004(3) 0.0039(4) 0.0001(3)
Nd6 Nd 0.0072(5) 0.0066(8) 0.0111(8) 0.0001(3) 0.0024(4) 0.0001(3)
Nd7 Nd 0.0086(3) 0.0059(8) 0.0120(8) -0.0011(4) 0.0037(4) -0.0004(3)
Ge1 Ge 0.0108(6) 0.0086(12) 0.0081(12) -0.0005(8) 0.0022(7) 0.0006(7)
Ge2 Ge 0.0086(6) 0.0061(12) 0.0129(13) 0.0004(8) 0.0041(8) -0.0010(7)
Ge3 Ge 0.0110(9) 0.0068(13) 0.0100(13) 0.0016(7) 0.0031(8) 0.0007(6)
Ge4 Ge 0.0094(9) 0.0074(13) 0.0110(13) -0.0017(7) 0.0049(8) -0.0004(6)
Co1 Co 0.0153(10) 0.0098(12) 0.0128(12) 0.0002(9) 0.0055(9) -0.0020(8)
Co2 Co 0.0134(10) 0.0114(12) 0.0126(12) 0.0013(10) 0.0053(9) 0.0034(8)
loop_
_atom_type_symbol
_atom_type_scat_dispersion_real
_atom_type_scat_dispersion_imag
_atom_type_scat_source
Co 0.3494 0.9721 'International Tables Vol C tables 4.2.6.8 and 6.1.1.1'
Ge 0.1547 1.8001 'International Tables Vol C tables 4.2.6.8 and 6.1.1.1'
Nd -0.1943 3.0179 'International Tables Vol C tables 4.2.6.8 and 6.1.1.1'
loop_
_geom_bond_atom_site_label_1
_geom_bond_atom_site_label_2
_geom_bond_site_symmetry_2
_geom_bond_distance
Nd1 Nd2 2_555 3.4861(12)
Nd1 Nd3 . 3.4406(11)
Nd1 Nd3 2_555 3.8060(12)
Nd1 Nd3 3_566 3.4443(14)
Nd1 Nd4 1_455 3.6010(12)
Nd1 Nd7 . 3.6527(13)
Nd1 Ge3 2_655 3.071(2)
Nd1 Ge4 2_555 3.0920(19)
Nd1 Co1 . 2.909(3)
Nd1 Co2 2_555 2.934(2)
Nd2 Nd2 3_565 3.4645(13)
Nd2 Nd3 . 3.4815(14)
Nd2 Nd4 1_455 3.8008(14)
Nd2 Ge2 . 3.1022(19)
Nd2 Ge2 3_565 3.1245(17)
Nd2 Co1 . 2.955(2)
Nd2 Co1 3_565 2.986(2)
Nd2 Co2 2_555 2.979(2)
Nd2 Co2 4_554 2.946(3)
Nd3 Nd5 4_555 3.6254(13)
Nd3 Nd6 1_455 3.6412(15)
Nd3 Ge3 1_455 3.0854(19)
Nd3 Ge4 . 3.081(2)
Nd3 Co1 2_545 2.935(2)
Nd3 Co2 . 2.905(2)
Nd4 Ge1 2_655 3.162(2)
Nd4 Ge2 . 2.9968(13)
Nd4 Ge2 3_665 3.114(2)
Nd4 Ge3 . 3.091(2)
Nd4 Ge4 2_655 3.185(2)
Nd4 Co2 2_655 2.917(3)
Nd5 Ge1 . 3.161(2)
Nd5 Ge2 . 3.144(2)
Nd5 Ge3 . 3.128(2)
Nd5 Ge4 . 3.085(3)
Nd5 Co2 4_554 2.935(2)
Nd6 Nd7 . 3.8137(13)
Nd6 Ge1 2_655 3.176(2)
Nd6 Ge2 2_645 3.113(2)
Nd6 Ge3 . 3.181(3)
Nd6 Ge3 4_555 3.095(2)
Nd6 Ge4 . 3.132(2)
Nd6 Co1 2_645 2.948(3)
Nd7 Nd7 3_666 3.7587(14)
Nd7 Ge1 4_555 3.169(2)
Nd7 Ge2 . 3.140(2)
Nd7 Ge3 2_655 3.175(2)
Nd7 Ge4 . 3.099(2)
Nd7 Co1 . 2.948(2)
Ge2 Co1 . 2.518(3)
Ge2 Co2 4_554 2.542(3)
Ge3 Co1 2_645 2.541(3)
Ge4 Co2 . 2.576(3)
Co1 Co2 2_555 2.356(3)
loop_
_twin_individual_id
_twin_individual_mass_fraction_refined
_twin_individual_twin_matrix_11
_twin_individual_twin_matrix_12
_twin_individual_twin_matrix_13
_twin_individual_twin_matrix_21
_twin_individual_twin_matrix_22
_twin_individual_twin_matrix_23
_twin_individual_twin_matrix_31
_twin_individual_twin_matrix_32
_twin_individual_twin_matrix_33
1 0.491(2) 1 0 0 0 1 0 0 0 1
2 0.1777(15) 1 0 0 -0.25 0 1 0.25 -1 0
3 0.0645(7) 1 0 0 0 -1 0 0.5 0 -1
4 0.2670(15) 1 0 0 0.25 0 -1 0.25 1 0
loop_
_twin_refln_datum_id
_twin_refln_individual_id
_twin_refln_index_h
_twin_refln_index_k
_twin_refln_index_l
_twin_refln_f_squared_calc
_twin_refln_f_squared_meas
_twin_refln_f_squared_sigma
_twin_refln_include_status
1 4 2 0 0 509.60 548.00 47.84 o
1 3 2 0 0 509.60 548.00 47.84 o
1 2 2 0 0 509.60 548.00 47.84 o
1 1 2 0 0 509.60 548.00 47.84 o
2 4 3 0 0 431078.00 420271.00 2010.24 o
2 3 3 0 0 431078.00 420271.00 2010.24 o
2 2 3 0 0 431078.00 420271.00 2010.24 o
2 1 3 0 0 431078.00 420271.00 2010.24 o
3 4 4 0 0 39.42 390.26 76.10 o
3 3 4 0 0 39.42 390.26 76.10 o
3 2 4 0 0 39.42 390.26 76.10 o
3 1 4 0 0 39.42 390.26 76.10 o
4 4 5 0 0 47646.30 47860.20 825.53 o
4 3 5 0 0 47646.30 47860.20 825.53 o
4 2 5 0 0 47646.30 47860.20 825.53 o
4 1 5 0 0 47646.30 47860.20 825.53 o
5 4 6 0 0 97731.20 96704.10 1748.13 o
5 3 6 0 0 97731.20 96704.10 1748.13 o
5 2 6 0 0 97731.20 96704.10 1748.13 o
5 1 6 0 0 97731.20 96704.10 1748.13 o
6 4 7 0 0 6364.41 7142.44 499.30 o
6 3 7 0 0 6364.41 7142.44 499.30 o
6 2 7 0 0 6364.41 7142.44 499.30 o
6 1 7 0 0 6364.41 7142.44 499.30 o
7 4 8 0 0 168594.00 170432.00 2078.94 o
7 3 8 0 0 168594.00 170432.00 2078.94 o
7 2 8 0 0 168594.00 170432.00 2078.94 o
7 1 8 0 0 168594.00 170432.00 2078.94 o
8 4 9 0 0 8632.63 9543.44 514.54 o
8 3 9 0 0 8632.63 9543.44 514.54 o
8 2 9 0 0 8632.63 9543.44 514.54 o
8 1 9 0 0 8632.63 9543.44 514.54 o
9 4 10 0 0 210.49 189.15 134.80 <
9 3 10 0 0 210.49 189.15 134.80 <
9 2 10 0 0 210.49 189.15 134.80 <
9 1 10 0 0 210.49 189.15 134.80 <
10 4 11 0 0 87760.00 78162.70 2716.15 o
10 3 11 0 0 87760.00 78162.70 2716.15 o
10 2 11 0 0 87760.00 78162.70 2716.15 o
10 1 11 0 0 87760.00 78162.70 2716.15 o
11 3 1 -1 0 0.05 15.22 9.78 <
11 1 1 1 0 0.05 15.22 9.78 <
12 3 2 -1 0 2.25 48.92 17.39 <
12 1 2 1 0 2.25 48.92 17.39 <
13 3 3 -1 0 0.48 2.17 26.09 <
13 1 3 1 0 0.48 2.17 26.09 <
14 3 4 -1 0 0.39 10.87 31.53 <
14 1 4 1 0 0.39 10.87 31.53 <
15 3 5 -1 0 1.46 -13.04 33.70 <
15 1 5 1 0 1.46 -13.04 33.70 <
16 3 6 -1 0 4.40 -10.87 27.18 <
16 1 6 1 0 4.40 -10.87 27.18 <
17 3 7 -1 0 3.64 75.01 55.44 <
17 1 7 1 0 3.64 75.01 55.44 <
18 3 8 -1 0 2.81 71.75 57.62 <
18 1 8 1 0 2.81 71.75 57.62 <
19 3 9 -1 0 0.15 -33.70 71.75 <
19 1 9 1 0 0.15 -33.70 71.75 <
20 3 10 -1 0 3.43 -73.92 64.14 <
20 1 10 1 0 3.43 -73.92 64.14 <
21 3 11 -1 0 3.17 17.39 76.10 <
21 1 11 1 0 3.17 17.39 76.10 <
22 3 0 -2 0 1.09 218.50 33.70 o
22 1 0 2 0 1.09 218.50 33.70 o
23 3 1 -2 0 0.28 526.15 30.44 o
23 1 1 2 0 0.28 526.15 30.44 o
24 3 2 -2 0 11.57 245.68 33.70 o
24 1 2 2 0 11.57 245.68 33.70 o
25 3 3 -2 0 111.12 138.07 29.35 o
25 1 3 2 0 111.12 138.07 29.35 o
26 3 4 -2 0 129.48 152.20 42.40 o
26 1 4 2 0 129.48 152.20 42.40 o
27 3 5 -2 0 21.17 82.62 30.44 <
27 1 5 2 0 21.17 82.62 30.44 <
28 3 6 -2 0 88.39 159.80 47.83 o
28 1 6 2 0 88.39 159.80 47.83 o
29 3 7 -2 0 440.35 405.51 78.28 o
29 1 7 2 0 440.35 405.51 78.28 o
30 3 8 -2 0 168.75 175.02 77.18 <
30 1 8 2 0 168.75 175.02 77.18 <
31 3 9 -2 0 960.80 1157.89 193.53 o
31 1 9 2 0 960.80 1157.89 193.53 o
32 3 10 -2 0 15.95 32.61 83.71 <
32 1 10 2 0 15.95 32.61 83.71 <
33 3 11 -2 0 1436.17 1285.14 357.71 o
33 1 11 2 0 1436.17 1285.14 357.71 o
34 3 1 -3 0 5.49 48.92 15.22 o
34 1 1 3 0 5.49 48.92 15.22 o
35 3 2 -3 0 0.14 79.36 28.26 <
35 1 2 3 0 0.14 79.36 28.26 <
36 3 3 -3 0 11.05 57.62 26.09 <
36 1 3 3 0 11.05 57.62 26.09 <
37 3 4 -3 0 0.11 27.18 25.00 <
37 1 4 3 0 0.11 27.18 25.00 <
38 3 5 -3 0 2.06 46.74 36.96 <
38 1 5 3 0 2.06 46.74 36.96 <
39 3 6 -3 0 2.97 66.31 44.57 <
39 1 6 3 0 2.97 66.31 44.57 <
40 3 7 -3 0 8.75 85.88 69.57 <
40 1 7 3 0 8.75 85.88 69.57 <
41 3 8 -3 0 1.50 -50.01 65.22 <
41 1 8 3 0 1.50 -50.01 65.22 <
42 3 9 -3 0 0.10 44.57 73.92 <
42 1 9 3 0 0.10 44.57 73.92 <
43 3 10 -3 0 0.53 -129.36 105.45 <
43 1 10 3 0 0.53 -129.36 105.45 <
44 4 -9 0 -4 47845.70 48415.10 1868.58 o
44 3 -10 -4 0 47845.70 48415.10 1868.58 o
44 2 -11 0 4 47845.70 48415.10 1868.58 o
44 1 -10 4 0 47845.70 48415.10 1868.58 o
45 4 -8 0 -4 36737.80 36674.50 1575.44 o
45 3 -9 -4 0 36737.80 36674.50 1575.44 o
45 2 -10 0 4 36737.80 36674.50 1575.44 o
45 1 -9 4 0 36737.80 36674.50 1575.44 o
46 4 -7 0 -4 472.18 640.30 248.95 <
46 3 -8 -4 0 472.18 640.30 248.95 <
46 2 -9 0 4 472.18 640.30 248.95 <
46 1 -8 4 0 472.18 640.30 248.95 <
47 4 -6 0 -4 120355.00 120875.00 2673.57 o
47 3 -7 -4 0 120355.00 120875.00 2673.57 o
47 2 -8 0 4 120355.00 120875.00 2673.57 o
47 1 -7 4 0 120355.00 120875.00 2673.57 o
48 4 -5 0 -4 14352.20 15342.60 886.55 o
48 3 -6 -4 0 14352.20 15342.60 886.55 o
48 2 -7 0 4 14352.20 15342.60 886.55 o
48 1 -6 4 0 14352.20 15342.60 886.55 o
49 4 -4 0 -4 23048.60 22814.90 1014.14 o
49 3 -5 -4 0 23048.60 22814.90 1014.14 o
49 2 -6 0 4 23048.60 22814.90 1014.14 o
49 1 -5 4 0 23048.60 22814.90 1014.14 o
50 4 -3 0 -4 100154.00 100465.00 1345.79 o
50 3 -4 -4 0 100154.00 100465.00 1345.79 o
50 2 -5 0 4 100154.00 100465.00 1345.79 o
50 1 -4 4 0 100154.00 100465.00 1345.79 o
51 4 -2 0 -4 54875.60 52598.60 917.26 o
51 3 -3 -4 0 54875.60 52598.60 917.26 o
51 2 -4 0 4 54875.60 52598.60 917.26 o
51 1 -3 4 0 54875.60 52598.60 917.26 o
52 4 -1 0 -4 219902.00 224825.00 2271.52 o
52 3 -2 -4 0 219902.00 224825.00 2271.52 o
52 2 -3 0 4 219902.00 224825.00 2271.52 o
52 1 -2 4 0 219902.00 224825.00 2271.52 o
53 4 0 0 -4 344056.00 346925.00 2497.68 o
53 3 -1 -4 0 344056.00 346925.00 2497.68 o
53 2 -2 0 4 344056.00 346925.00 2497.68 o
53 1 -1 4 0 344056.00 346925.00 2497.68 o
54 4 1 0 -4 77808.70 80969.90 716.96 o
54 3 0 -4 0 77808.70 80969.90 716.96 o
54 2 -1 0 4 77808.70 80969.90 716.96 o
54 1 0 4 0 77808.70 80969.90 716.96 o
55 4 2 0 -4 344096.00 351056.00 1400.44 o
55 3 1 -4 0 344096.00 351056.00 1400.44 o
55 2 0 0 4 344096.00 351056.00 1400.44 o
55 1 1 4 0 344096.00 351056.00 1400.44 o
56 4 3 0 -4 220479.00 225910.00 1149.94 o
56 3 2 -4 0 220479.00 225910.00 1149.94 o
56 2 1 0 4 220479.00 225910.00 1149.94 o
56 1 2 4 0 220479.00 225910.00 1149.94 o
57 4 4 0 -4 55647.50 54916.80 619.71 o
57 3 3 -4 0 55647.50 54916.80 619.71 o
57 2 2 0 4 55647.50 54916.80 619.71 o
57 1 3 4 0 55647.50 54916.80 619.71 o
58 4 5 0 -4 99681.70 99692.40 921.21 o
58 3 4 -4 0 99681.70 99692.40 921.21 o
58 2 3 0 4 99681.70 99692.40 921.21 o
58 1 4 4 0 99681.70 99692.40 921.21 o
59 4 6 0 -4 22817.40 23198.90 564.68 o
59 3 5 -4 0 22817.40 23198.90 564.68 o
59 2 4 0 4 22817.40 23198.90 564.68 o
59 1 5 4 0 22817.40 23198.90 564.68 o
60 4 7 0 -4 13830.20 14278.20 481.09 o
60 3 6 -4 0 13830.20 14278.20 481.09 o
60 2 5 0 4 13830.20 14278.20 481.09 o
60 1 6 4 0 13830.20 14278.20 481.09 o
61 4 8 0 -4 119667.00 119507.00 1917.88 o
61 3 7 -4 0 119667.00 119507.00 1917.88 o
61 2 6 0 4 119667.00 119507.00 1917.88 o
61 1 7 4 0 119667.00 119507.00 1917.88 o
62 4 9 0 -4 519.33 473.99 104.37 o
62 3 8 -4 0 519.33 473.99 104.37 o
62 2 7 0 4 519.33 473.99 104.37 o
62 1 8 4 0 519.33 473.99 104.37 o
63 4 10 0 -4 36301.80 36369.30 1180.34 o
63 3 9 -4 0 36301.80 36369.30 1180.34 o
63 2 8 0 4 36301.80 36369.30 1180.34 o
63 1 9 4 0 36301.80 36369.30 1180.34 o
64 4 11 0 -4 47469.70 49027.40 2607.42 o
64 3 10 -4 0 47469.70 49027.40 2607.42 o
64 2 9 0 4 47469.70 49027.40 2607.42 o
64 1 10 4 0 47469.70 49027.40 2607.42 o
65 3 1 -5 0 4.76 9.78 32.61 <
65 1 1 5 0 4.76 9.78 32.61 <
66 3 2 -5 0 3.11 53.27 25.00 <
66 1 2 5 0 3.11 53.27 25.00 <
67 3 3 -5 0 0.02 -26.09 41.31 <
67 1 3 5 0 0.02 -26.09 41.31 <
68 3 4 -5 0 1.45 5.44 51.09 <
68 1 4 5 0 1.45 5.44 51.09 <
69 3 5 -5 0 22.52 33.70 29.35 <
69 1 5 5 0 22.52 33.70 29.35 <
70 3 6 -5 0 12.53 79.36 46.74 <
70 1 6 5 0 12.53 79.36 46.74 <
71 3 7 -5 0 1.96 13.04 47.83 <
71 1 7 5 0 1.96 13.04 47.83 <
72 3 8 -5 0 12.39 83.71 76.10 <
72 1 8 5 0 12.39 83.71 76.10 <
73 3 9 -5 0 3.02 71.75 77.18 <
73 1 9 5 0 3.02 71.75 77.18 <
74 3 10 -5 0 1.37 34.79 80.44 <
74 1 10 5 0 1.37 34.79 80.44 <
75 3 11 -5 0 0.44 28.26 132.62 <
75 1 11 5 0 0.44 28.26 132.62 <
76 3 0 -6 0 78.82 147.85 51.09 <
76 1 0 6 0 78.82 147.85 51.09 <
77 3 1 -6 0 35.33 116.32 38.05 o
77 1 1 6 0 35.33 116.32 38.05 o
78 3 2 -6 0 0.17 30.44 31.53 <
78 1 2 6 0 0.17 30.44 31.53 <
79 3 3 -6 0 0.15 20.65 41.31 <
79 1 3 6 0 0.15 20.65 41.31 <
80 3 4 -6 0 0.74 38.05 32.61 <
80 1 4 6 0 0.74 38.05 32.61 <
81 3 5 -6 0 76.58 192.41 70.66 <
81 1 5 6 0 76.58 192.41 70.66 <
82 3 6 -6 0 60.57 63.05 77.18 <
82 1 6 6 0 60.57 63.05 77.18 <
83 3 7 -6 0 495.92 479.44 94.58 o
83 1 7 6 0 495.92 479.44 94.58 o
84 3 8 -6 0 203.40 185.90 84.79 <
84 1 8 6 0 203.40 185.90 84.79 <
85 3 9 -6 0 799.56 845.83 157.64 o
85 1 9 6 0 799.56 845.83 157.64 o
86 3 10 -6 0 0.07 51.09 95.66 <
86 1 10 6 0 0.07 51.09 95.66 <
87 3 1 -7 0 0.93 46.74 27.18 <
87 1 1 7 0 0.93 46.74 27.18 <
88 3 2 -7 0 3.94 31.53 27.18 <
88 1 2 7 0 3.94 31.53 27.18 <
89 3 3 -7 0 4.79 115.23 47.83 <
89 1 3 7 0 4.79 115.23 47.83 <
90 3 4 -7 0 28.91 78.27 48.92 <
90 1 4 7 0 28.91 78.27 48.92 <
91 3 5 -7 0 0.16 64.14 81.53 <
91 1 5 7 0 0.16 64.14 81.53 <
92 3 6 -7 0 2.83 13.04 66.31 <
92 1 6 7 0 2.83 13.04 66.31 <
93 3 7 -7 0 8.35 155.45 68.49 <
93 1 7 7 0 8.35 155.45 68.49 <
94 3 8 -7 0 20.28 92.40 73.92 <
94 1 8 7 0 20.28 92.40 73.92 <
95 3 9 -7 0 0.28 127.19 85.88 <
95 1 9 7 0 0.28 127.19 85.88 <
96 3 10 -7 0 18.77 235.90 184.80 <
96 1 10 7 0 18.77 235.90 184.80 <
97 4 -7 0 -8 25.57 86.97 184.80 <
97 3 -9 -8 0 25.57 86.97 184.80 <
97 2 -11 0 8 25.57 86.97 184.80 <
97 1 -9 8 0 25.57 86.97 184.80 <
98 4 -6 0 -8 60065.70 64183.70 2337.90 o
98 3 -8 -8 0 60065.70 64183.70 2337.90 o
98 2 -10 0 8 60065.70 64183.70 2337.90 o
98 1 -8 8 0 60065.70 64183.70 2337.90 o
99 4 -5 0 -8 1521.85 1624.16 368.54 o
99 3 -7 -8 0 1521.85 1624.16 368.54 o
99 2 -9 0 8 1521.85 1624.16 368.54 o
99 1 -7 8 0 1521.85 1624.16 368.54 o
100 4 -4 0 -8 19720.80 20088.40 1152.08 o
100 3 -6 -8 0 19720.80 20088.40 1152.08 o
100 2 -8 0 8 19720.80 20088.40 1152.08 o
100 1 -6 8 0 19720.80 20088.40 1152.08 o
101 4 -3 0 -8 3382.68 3713.00 463.31 o
101 3 -5 -8 0 3382.68 3713.00 463.31 o
101 2 -7 0 8 3382.68 3713.00 463.31 o
101 1 -5 8 0 3382.68 3713.00 463.31 o
102 4 -2 0 -8 14644.10 14219.50 627.98 o
102 3 -4 -8 0 14644.10 14219.50 627.98 o
102 2 -6 0 8 14644.10 14219.50 627.98 o
102 1 -4 8 0 14644.10 14219.50 627.98 o
103 4 -1 0 -8 113450.00 115281.00 2202.58 o
103 3 -3 -8 0 113450.00 115281.00 2202.58 o
103 2 -5 0 8 113450.00 115281.00 2202.58 o
103 1 -3 8 0 113450.00 115281.00 2202.58 o
104 4 0 0 -8 13409.40 14372.10 703.25 o
104 3 -2 -8 0 13409.40 14372.10 703.25 o
104 2 -4 0 8 13409.40 14372.10 703.25 o
104 1 -2 8 0 13409.40 14372.10 703.25 o
105 4 1 0 -8 8536.03 8681.33 507.08 o
105 3 -1 -8 0 8536.03 8681.33 507.08 o
105 2 -3 0 8 8536.03 8681.33 507.08 o
105 1 -1 8 0 8536.03 8681.33 507.08 o
106 4 2 0 -8 367518.00 378236.00 2624.55 o
106 3 0 -8 0 367518.00 378236.00 2624.55 o
106 2 -2 0 8 367518.00 378236.00 2624.55 o
106 1 0 8 0 367518.00 378236.00 2624.55 o
107 4 3 0 -8 8509.79 8321.92 323.17 o
107 3 1 -8 0 8509.79 8321.92 323.17 o
107 2 -1 0 8 8509.79 8321.92 323.17 o
107 1 1 8 0 8509.79 8321.92 323.17 o
108 4 4 0 -8 13611.70 13629.00 488.93 o
108 3 2 -8 0 13611.70 13629.00 488.93 o
108 2 0 0 8 13611.70 13629.00 488.93 o
108 1 2 8 0 13611.70 13629.00 488.93 o
109 4 5 0 -8 114104.00 112994.00 1311.28 o
109 3 3 -8 0 114104.00 112994.00 1311.28 o
109 2 1 0 8 114104.00 112994.00 1311.28 o
109 1 3 8 0 114104.00 112994.00 1311.28 o
110 4 6 0 -8 15071.30 15157.50 621.76 o
110 3 4 -8 0 15071.30 15157.50 621.76 o
110 2 2 0 8 15071.30 15157.50 621.76 o
110 1 4 8 0 15071.30 15157.50 621.76 o
111 4 7 0 -8 3098.00 3321.56 317.48 o
111 3 5 -8 0 3098.00 3321.56 317.48 o
111 2 3 0 8 3098.00 3321.56 317.48 o
111 1 5 8 0 3098.00 3321.56 317.48 o
112 4 8 0 -8 19608.70 20395.50 838.38 o
112 3 6 -8 0 19608.70 20395.50 838.38 o
112 2 4 0 8 19608.70 20395.50 838.38 o
112 1 6 8 0 19608.70 20395.50 838.38 o
113 4 9 0 -8 1672.81 1423.23 243.55 o
113 3 7 -8 0 1672.81 1423.23 243.55 o
113 2 5 0 8 1672.81 1423.23 243.55 o
113 1 7 8 0 1672.81 1423.23 243.55 o
114 4 10 0 -8 59420.70 60774.60 1644.77 o
114 3 8 -8 0 59420.70 60774.60 1644.77 o
114 2 6 0 8 59420.70 60774.60 1644.77 o
114 1 8 8 0 59420.70 60774.60 1644.77 o
115 4 11 0 -8 23.81 290.25 139.15 <
115 3 9 -8 0 23.81 290.25 139.15 <
115 2 7 0 8 23.81 290.25 139.15 <
115 1 9 8 0 23.81 290.25 139.15 <
116 3 1 -9 0 5.95 122.84 45.66 <
116 1 1 9 0 5.95 122.84 45.66 <
117 3 2 -9 0 8.89 113.06 48.92 <
117 1 2 9 0 8.89 113.06 48.92 <
118 3 3 -9 0 0.00 111.97 59.79 <
118 1 3 9 0 0.00 111.97 59.79 <
119 3 4 -9 0 37.67 101.10 61.96 <
119 1 4 9 0 37.67 101.10 61.96 <
120 3 5 -9 0 1.49 27.18 85.88 <
120 1 5 9 0 1.49 27.18 85.88 <
121 3 6 -9 0 12.67 0.00 64.14 <
121 1 6 9 0 12.67 0.00 64.14 <
122 3 7 -9 0 52.94 109.79 86.97 <
122 1 7 9 0 52.94 109.79 86.97 <
123 3 8 -9 0 1.94 151.10 78.27 <
123 1 8 9 0 1.94 151.10 78.27 <
124 3 9 -9 0 8.06 81.53 97.84 <
124 1 9 9 0 8.06 81.53 97.84 <
125 3 0 -10 0 1193.82 1000.33 178.32 o
125 1 0 10 0 1193.82 1000.33 178.32 o
126 3 1 -10 0 920.12 923.08 108.73 o
126 1 1 10 0 920.12 923.08 108.73 o
127 3 2 -10 0 549.23 668.62 98.93 o
127 1 2 10 0 549.23 668.62 98.93 o
128 3 3 -10 0 235.05 304.39 71.75 o
128 1 3 10 0 235.05 304.39 71.75 o
129 3 4 -10 0 114.74 238.07 73.92 o
129 1 4 10 0 114.74 238.07 73.92 o
130 3 5 -10 0 546.32 541.41 115.24 o
130 1 5 10 0 546.32 541.41 115.24 o
131 3 6 -10 0 894.97 951.31 156.56 o
131 1 6 10 0 894.97 951.31 156.56 o
132 3 7 -10 0 66.99 40.22 101.10 <
132 1 7 10 0 66.99 40.22 101.10 <
133 3 8 -10 0 140.36 171.76 93.49 <
133 1 8 10 0 140.36 171.76 93.49 <
134 3 1 -11 0 13.80 70.66 58.70 <
134 1 1 11 0 13.80 70.66 58.70 <
135 3 2 -11 0 0.09 44.57 65.22 <
135 1 2 11 0 0.09 44.57 65.22 <
136 3 3 -11 0 3.69 -14.13 56.53 <
136 1 3 11 0 3.69 -14.13 56.53 <
137 3 4 -11 0 11.54 28.26 79.36 <
137 1 4 11 0 11.54 28.26 79.36 <
138 3 5 -11 0 10.23 146.76 102.18 <
138 1 5 11 0 10.23 146.76 102.18 <
139 3 6 -11 0 4.10 215.24 111.97 <
139 1 6 11 0 4.10 215.24 111.97 <
140 3 7 -11 0 40.90 217.42 95.66 <
140 1 7 11 0 40.90 217.42 95.66 <
141 4 -3 0 -12 2097.83 2236.23 421.81 o
141 3 -6 -12 0 2097.83 2236.23 421.81 o
141 2 -9 0 12 2097.83 2236.23 421.81 o
141 1 -6 12 0 2097.83 2236.23 421.81 o
142 4 -2 0 -12 916.96 1290.43 317.44 o
142 3 -5 -12 0 916.96 1290.43 317.44 o
142 2 -8 0 12 916.96 1290.43 317.44 o
142 1 -5 12 0 916.96 1290.43 317.44 o
143 4 -1 0 -12 5494.52 5279.50 590.48 o
143 3 -4 -12 0 5494.52 5279.50 590.48 o
143 2 -7 0 12 5494.52 5279.50 590.48 o
143 1 -4 12 0 5494.52 5279.50 590.48 o
144 4 0 0 -12 71500.70 70879.20 2052.33 o
144 3 -3 -12 0 71500.70 70879.20 2052.33 o
144 2 -6 0 12 71500.70 70879.20 2052.33 o
144 1 -3 12 0 71500.70 70879.20 2052.33 o
145 4 1 0 -12 14691.40 14291.70 865.08 o
145 3 -2 -12 0 14691.40 14291.70 865.08 o
145 2 -5 0 12 14691.40 14291.70 865.08 o
145 1 -2 12 0 14691.40 14291.70 865.08 o
146 4 2 0 -12 30529.10 30987.80 1212.62 o
146 3 -1 -12 0 30529.10 30987.80 1212.62 o
146 2 -4 0 12 30529.10 30987.80 1212.62 o
146 1 -1 12 0 30529.10 30987.80 1212.62 o
147 4 3 0 -12 92810.10 88373.00 1590.54 o
147 3 0 -12 0 92810.10 88373.00 1590.54 o
147 2 -3 0 12 92810.10 88373.00 1590.54 o
147 1 0 12 0 92810.10 88373.00 1590.54 o
148 4 4 0 -12 30611.00 29537.60 909.81 o
148 3 1 -12 0 30611.00 29537.60 909.81 o
148 2 -2 0 12 30611.00 29537.60 909.81 o
148 1 1 12 0 30611.00 29537.60 909.81 o
149 4 5 0 -12 14948.20 15357.30 678.07 o
149 3 2 -12 0 14948.20 15357.30 678.07 o
149 2 -1 0 12 14948.20 15357.30 678.07 o
149 1 2 12 0 14948.20 15357.30 678.07 o
150 4 6 0 -12 72464.70 74055.70 1512.88 o
150 3 3 -12 0 72464.70 74055.70 1512.88 o
150 2 0 0 12 72464.70 74055.70 1512.88 o
150 1 3 12 0 72464.70 74055.70 1512.88 o
151 4 7 0 -12 5479.21 5587.18 563.28 o
151 3 4 -12 0 5479.21 5587.18 563.28 o
151 2 1 0 12 5479.21 5587.18 563.28 o
151 1 4 12 0 5479.21 5587.18 563.28 o
152 4 8 0 -12 926.69 1346.98 296.79 o
152 3 5 -12 0 926.69 1346.98 296.79 o
152 2 2 0 12 926.69 1346.98 296.79 o
152 1 5 12 0 926.69 1346.98 296.79 o
153 4 9 0 -12 2321.70 2426.90 346.86 o
153 3 6 -12 0 2321.70 2426.90 346.86 o
153 2 3 0 12 2321.70 2426.90 346.86 o
153 1 6 12 0 2321.70 2426.90 346.86 o
154 3 1 -13 0 16.40 151.10 72.83 <
154 1 1 13 0 16.40 151.10 72.83 <
155 3 2 -13 0 5.89 103.27 69.57 <
155 1 2 13 0 5.89 103.27 69.57 <
156 3 3 -13 0 5.38 43.48 78.27 <
156 1 3 13 0 5.38 43.48 78.27 <
157 3 4 -13 0 2.96 -38.05 108.71 <
157 1 4 13 0 2.96 -38.05 108.71 <
158 3 5 -13 0 44.07 183.72 100.01 <
158 1 5 13 0 44.07 183.72 100.01 <
159 3 6 -13 0 34.18 198.94 164.15 <
159 1 6 13 0 34.18 198.94 164.15 <
160 3 0 -14 0 2324.52 1937.76 262.07 o
160 1 0 14 0 2324.52 1937.76 262.07 o
161 3 1 -14 0 2284.23 2045.39 217.48 o
161 1 1 14 0 2284.23 2045.39 217.48 o
162 3 2 -14 0 1659.92 1377.62 205.50 o
162 1 2 14 0 1659.92 1377.62 205.50 o
163 3 3 -14 0 1203.61 1247.06 220.71 o
163 1 3 14 0 1203.61 1247.06 220.71 o
164 3 4 -14 0 1300.82 1441.69 221.80 o
164 1 4 14 0 1300.82 1441.69 221.80 o
165 3 5 -14 0 887.20 676.23 256.58 <
165 1 5 14 0 887.20 676.23 256.58 <
166 3 1 -15 0 0.42 108.71 78.27 <
166 1 1 15 0 0.42 108.71 78.27 <
167 3 2 -15 0 9.62 -218.50 119.58 <
167 1 2 15 0 9.62 -218.50 119.58 <
168 3 3 -15 0 8.20 265.25 145.67 <
168 1 3 15 0 8.20 265.25 145.67 <
169 3 4 -15 0 19.07 -48.92 119.58 <
169 1 4 15 0 19.07 -48.92 119.58 <
170 4 2 0 -16 17504.40 17703.20 1450.51 o
170 3 -2 -16 0 17504.40 17703.20 1450.51 o
170 2 -6 0 16 17504.40 17703.20 1450.51 o
170 1 -2 16 0 17504.40 17703.20 1450.51 o
171 4 3 0 -16 17731.30 16123.40 1087.08 o
171 3 -1 -16 0 17731.30 16123.40 1087.08 o
171 2 -5 0 16 17731.30 16123.40 1087.08 o
171 1 -1 16 0 17731.30 16123.40 1087.08 o
172 4 4 0 -16 51871.70 47771.00 1862.96 o
172 3 0 -16 0 51871.70 47771.00 1862.96 o
172 2 -4 0 16 51871.70 47771.00 1862.96 o
172 1 0 16 0 51871.70 47771.00 1862.96 o
173 4 5 0 -16 17645.10 16434.70 1485.26 o
173 3 1 -16 0 17645.10 16434.70 1485.26 o
173 2 -3 0 16 17645.10 16434.70 1485.26 o
173 1 1 16 0 17645.10 16434.70 1485.26 o
174 2 1 -1 -15 267.39 402.22 264.16 <
174 1 -3 -15 1 267.39 402.22 264.16 <
175 2 2 -1 -15 944.37 839.28 346.80 <
175 1 -2 -15 1 944.37 839.28 346.80 <
176 2 3 -1 -15 365.19 452.24 200.03 <
176 1 -1 -15 1 365.19 452.24 200.03 <
177 2 4 -1 -15 46.30 95.66 158.71 <
177 1 0 -15 1 46.30 95.66 158.71 <
178 2 5 -1 -15 653.32 527.27 148.94 o
178 1 1 -15 1 653.32 527.27 148.94 o
179 2 6 -1 -15 61.91 97.84 129.36 <
179 1 2 -15 1 61.91 97.84 129.36 <
180 2 7 -1 -15 88.57 -4.35 155.45 <
180 1 3 -15 1 88.57 -4.35 155.45 <
181 4 -9 1 13 72.59 780.52 416.35 <
181 1 -6 -13 1 72.59 780.52 416.35 <
182 4 -8 1 13 706.19 532.69 181.55 <
182 1 -5 -13 1 706.19 532.69 181.55 <
183 4 -7 1 13 1.74 244.59 123.93 <
183 1 -4 -13 1 1.74 244.59 123.93 <
184 4 -6 1 13 9.37 58.70 96.75 <
184 1 -3 -13 1 9.37 58.70 96.75 <
185 4 -5 1 13 206.84 256.55 127.19 <
185 1 -2 -13 1 206.84 256.55 127.19 <
186 4 -4 1 13 1310.28 1475.38 285.94 o
186 1 -1 -13 1 1310.28 1475.38 285.94 o
187 4 -3 1 13 3212.11 2979.53 312.09 o
187 1 0 -13 1 3212.11 2979.53 312.09 o
188 4 -2 1 13 199.35 196.76 100.01 <
188 1 1 -13 1 199.35 196.76 100.01 <
189 4 -1 1 13 98.43 78.27 101.10 <
189 1 2 -13 1 98.43 78.27 101.10 <
190 4 0 1 13 10.92 84.79 142.41 <
190 1 3 -13 1 10.92 84.79 142.41 <
191 4 1 1 13 27.63 196.76 192.41 <
191 1 4 -13 1 27.63 196.76 192.41 <
192 4 2 1 13 2292.23 2331.17 449.05 o
192 1 5 -13 1 2292.23 2331.17 449.05 o
193 2 -4 -1 -11 404.92 277.22 138.06 <
193 1 -7 -11 1 404.92 277.22 138.06 <
194 2 -3 -1 -11 5110.75 5540.59 484.01 o
194 1 -6 -11 1 5110.75 5540.59 484.01 o
195 2 -2 -1 -11 116.51 252.21 120.67 <
195 1 -5 -11 1 116.51 252.21 120.67 <
196 2 -1 -1 -11 855.71 1148.08 244.62 o
196 1 -4 -11 1 855.71 1148.08 244.62 o
197 2 0 -1 -11 9103.18 9218.82 500.61 o
197 1 -3 -11 1 9103.18 9218.82 500.61 o
198 2 1 -1 -11 670.19 775.18 152.21 o
198 1 -2 -11 1 670.19 775.18 152.21 o
199 2 2 -1 -11 400.45 345.71 107.63 o
199 1 -1 -11 1 400.45 345.71 107.63 o
200 2 3 -1 -11 1631.65 1614.65 217.46 o
200 1 0 -11 1 1631.65 1614.65 217.46 o
201 2 4 -1 -11 327.11 97.84 86.97 <
201 1 1 -11 1 327.11 97.84 86.97 <
202 2 5 -1 -11 3024.86 3406.20 425.23 o
202 1 2 -11 1 3024.86 3406.20 425.23 o
203 2 6 -1 -11 4050.24 4623.67 535.13 o
203 1 3 -11 1 4050.24 4623.67 535.13 o
204 2 7 -1 -11 735.23 763.20 246.79 o
204 1 4 -11 1 735.23 763.20 246.79 o
205 2 8 -1 -11 665.03 857.77 265.27 o
205 1 5 -11 1 665.03 857.77 265.27 o
206 2 9 -1 -11 2961.85 2798.01 490.44 o
206 1 6 -11 1 2961.85 2798.01 490.44 o
207 2 10 -1 -11 795.46 1129.57 330.50 o
207 1 7 -11 1 795.46 1129.57 330.50 o
208 4 -11 1 9 883.04 591.40 219.60 <
208 1 -9 -9 1 883.04 591.40 219.60 <
209 4 -10 1 9 1010.11 1189.34 309.84 o
209 1 -8 -9 1 1010.11 1189.34 309.84 o
210 4 -9 1 9 5914.30 5888.58 479.66 o
210 1 -7 -9 1 5914.30 5888.58 479.66 o
211 4 -8 1 9 4549.80 4349.14 380.64 o
211 1 -6 -9 1 4549.80 4349.14 380.64 o
212 4 -7 1 9 5.35 86.97 57.62 <
212 1 -5 -9 1 5.35 86.97 57.62 <
213 4 -6 1 9 381.75 619.65 117.41 o
213 1 -4 -9 1 381.75 619.65 117.41 o
214 4 -5 1 9 2172.47 2323.75 222.91 o
214 1 -3 -9 1 2172.47 2323.75 222.91 o
215 4 -4 1 9 3655.52 3848.07 279.52 o
215 1 -2 -9 1 3655.52 3848.07 279.52 o
216 4 -3 1 9 5531.80 5992.07 301.34 o
216 1 -1 -9 1 5531.80 5992.07 301.34 o
217 4 -2 1 9 3755.69 3919.99 362.20 o
217 1 0 -9 1 3755.69 3919.99 362.20 o
218 4 -1 1 9 5394.45 5704.27 465.65 o
218 1 1 -9 1 5394.45 5704.27 465.65 o
219 4 0 1 9 1792.78 1894.17 294.67 o
219 1 2 -9 1 1792.78 1894.17 294.67 o
220 4 1 1 9 758.21 799.09 209.83 o
220 1 3 -9 1 758.21 799.09 209.83 o
221 4 2 1 9 591.86 712.09 173.95 o
221 1 4 -9 1 591.86 712.09 173.95 o
222 4 3 1 9 34.65 9.78 171.76 <
222 1 5 -9 1 34.65 9.78 171.76 <
223 4 4 1 9 7923.20 7385.44 748.55 o
223 1 6 -9 1 7923.20 7385.44 748.55 o
224 4 5 1 9 5609.19 5987.61 716.77 o
224 1 7 -9 1 5609.19 5987.61 716.77 o
225 4 6 1 9 999.05 1355.66 378.32 o
225 1 8 -9 1 999.05 1355.66 378.32 o
226 2 -7 -1 -7 1593.42 1520.00 353.36 o
226 1 -9 -7 1 1593.42 1520.00 353.36 o
227 2 -6 -1 -7 2439.94 2730.39 328.39 o
227 1 -8 -7 1 2439.94 2730.39 328.39 o
228 2 -5 -1 -7 971.17 1115.49 218.53 o
228 1 -7 -7 1 971.17 1115.49 218.53 o
229 2 -4 -1 -7 4.80 -70.66 81.53 <
229 1 -6 -7 1 4.80 -70.66 81.53 <
230 2 -3 -1 -7 11673.60 11700.20 561.92 o
230 1 -5 -7 1 11673.60 11700.20 561.92 o
231 2 -2 -1 -7 10892.20 11219.40 508.69 o
231 1 -4 -7 1 10892.20 11219.40 508.69 o
232 2 -1 -1 -7 870.33 929.66 94.60 o
232 1 -3 -7 1 870.33 929.66 94.60 o
233 2 0 -1 -7 6738.28 6535.83 321.13 o
233 1 -2 -7 1 6738.28 6535.83 321.13 o
234 2 1 -1 -7 3950.98 3892.98 208.90 o
234 1 -1 -7 1 3950.98 3892.98 208.90 o
235 2 2 -1 -7 1363.53 1376.72 182.69 o
235 1 0 -7 1 1363.53 1376.72 182.69 o
236 2 3 -1 -7 5097.38 5335.10 400.51 o
236 1 1 -7 1 5097.38 5335.10 400.51 o
237 2 4 -1 -7 3631.77 3792.39 372.06 o
237 1 2 -7 1 3631.77 3792.39 372.06 o
238 2 5 -1 -7 4515.64 4172.50 326.40 o
238 1 3 -7 1 4515.64 4172.50 326.40 o
239 2 6 -1 -7 9638.77 9922.17 535.74 o
239 1 4 -7 1 9638.77 9922.17 535.74 o
240 2 7 -1 -7 6543.18 7109.11 645.29 o
240 1 5 -7 1 6543.18 7109.11 645.29 o
241 2 8 -1 -7 39.25 239.16 194.59 <
241 1 6 -7 1 39.25 239.16 194.59 <
242 2 9 -1 -7 489.24 1100.19 331.58 o
242 1 7 -7 1 489.24 1100.19 331.58 o
243 2 10 -1 -7 7464.65 8205.78 832.33 o
243 1 8 -7 1 7464.65 8205.78 832.33 o
244 2 11 -1 -7 417.03 260.91 122.85 <
244 1 9 -7 1 417.03 260.91 122.85 <
245 2 12 -1 -7 89.42 300.04 261.99 <
245 1 10 -7 1 89.42 300.04 261.99 <
246 4 -11 1 5 66.10 344.60 256.55 <
246 1 -10 -5 1 66.10 344.60 256.55 <
247 4 -10 1 5 2278.77 2398.59 255.52 o
247 1 -9 -5 1 2278.77 2398.59 255.52 o
248 4 -9 1 5 6001.79 6254.61 398.12 o
248 1 -8 -5 1 6001.79 6254.61 398.12 o
249 4 -8 1 5 1228.04 1179.63 160.91 o
249 1 -7 -5 1 1228.04 1179.63 160.91 o
250 4 -7 1 5 85.91 142.41 40.22 o
250 1 -6 -5 1 85.91 142.41 40.22 o
251 4 -6 1 5 3987.39 3758.22 243.66 o
251 1 -5 -5 1 3987.39 3758.22 243.66 o
252 4 -5 1 5 414.06 645.77 105.45 o
252 1 -4 -5 1 414.06 645.77 105.45 o
253 4 -4 1 5 76.66 233.73 50.01 o
253 1 -3 -5 1 76.66 233.73 50.01 o
254 4 -3 1 5 2583.08 2459.40 147.93 o
254 1 -2 -5 1 2583.08 2459.40 147.93 o
255 4 -2 1 5 7288.33 6995.36 236.37 o
255 1 -1 -5 1 7288.33 6995.36 236.37 o
256 4 -1 1 5 10225.10 9965.07 436.06 o
256 1 0 -5 1 10225.10 9965.07 436.06 o
257 4 0 1 5 3162.27 3165.92 274.16 o
257 1 1 -5 1 3162.27 3165.92 274.16 o
258 4 1 1 5 390.26 491.41 117.42 o
258 1 2 -5 1 390.26 491.41 117.42 o
259 4 2 1 5 6.39 65.22 56.53 <
259 1 3 -5 1 6.39 65.22 56.53 <
260 4 3 1 5 240.81 408.76 101.10 o
260 1 4 -5 1 240.81 408.76 101.10 o
261 4 4 1 5 4813.37 5271.83 378.58 o
261 1 5 -5 1 4813.37 5271.83 378.58 o
262 4 5 1 5 70.49 58.70 144.58 <
262 1 6 -5 1 70.49 58.70 144.58 <
263 4 6 1 5 280.31 409.85 150.02 <
263 1 7 -5 1 280.31 409.85 150.02 <
264 4 7 1 5 12437.10 12079.90 948.06 o
264 1 8 -5 1 12437.10 12079.90 948.06 o
265 4 8 1 5 183.34 85.88 121.75 <
265 1 9 -5 1 183.34 85.88 121.75 <
266 4 9 1 5 1150.31 865.39 250.05 o
266 1 10 -5 1 1150.31 865.39 250.05 o
267 2 -9 -1 -3 1478.74 1275.34 260.94 o
267 1 -10 -3 1 1478.74 1275.34 260.94 o
268 2 -8 -1 -3 345.08 354.40 133.72 <
268 1 -9 -3 1 345.08 354.40 133.72 <
269 2 -7 -1 -3 20.25 -51.09 58.70 <
269 1 -8 -3 1 20.25 -51.09 58.70 <
270 2 -6 -1 -3 954.02 789.32 100.02 o
270 1 -7 -3 1 954.02 789.32 100.02 o
271 2 -5 -1 -3 7395.41 7413.73 348.32 o
271 1 -6 -3 1 7395.41 7413.73 348.32 o
272 2 -4 -1 -3 306.52 307.67 53.27 o
272 1 -5 -3 1 306.52 307.67 53.27 o
273 2 -3 -1 -3 3765.34 3611.56 177.37 o
273 1 -4 -3 1 3765.34 3611.56 177.37 o
274 2 -2 -1 -3 18491.50 17930.00 260.27 o
274 1 -3 -3 1 18491.50 17930.00 260.27 o
275 2 -1 -1 -3 2452.56 2463.74 95.76 o
275 1 -2 -3 1 2452.56 2463.74 95.76 o
276 2 0 -1 -3 717.65 678.60 45.67 o
276 1 -1 -3 1 717.65 678.60 45.67 o
277 2 1 -1 -3 1272.74 1320.58 81.58 o
277 1 0 -3 1 1272.74 1320.58 81.58 o
278 2 2 -1 -3 1667.27 2086.57 202.35 o
278 1 1 -3 1 1667.27 2086.57 202.35 o
279 2 3 -1 -3 8331.85 8304.15 348.96 o
279 1 2 -3 1 8331.85 8304.15 348.96 o
280 2 4 -1 -3 10994.00 11773.70 459.17 o
280 1 3 -3 1 10994.00 11773.70 459.17 o
281 2 5 -1 -3 3684.91 3546.98 263.30 o
281 1 4 -3 1 3684.91 3546.98 263.30 o
282 2 6 -1 -3 716.99 736.06 133.73 o
282 1 5 -3 1 716.99 736.06 133.73 o
283 2 7 -1 -3 6772.55 7256.96 622.52 o
283 1 6 -3 1 6772.55 7256.96 622.52 o
284 2 8 -1 -3 2067.12 2221.58 361.02 o
284 1 7 -3 1 2067.12 2221.58 361.02 o
285 2 9 -1 -3 1325.02 1596.09 324.00 o
285 1 8 -3 1 1325.02 1596.09 324.00 o
286 2 10 -1 -3 3659.59 4108.69 506.79 o
286 1 9 -3 1 3659.59 4108.69 506.79 o
287 2 11 -1 -3 6047.01 5571.60 956.16 o
287 1 10 -3 1 6047.01 5571.60 956.16 o
288 4 -11 1 1 259.24 61.96 38.05 <
288 1 -11 -1 1 259.24 61.96 38.05 <
289 4 -10 1 1 3.92 -27.18 53.27 <
289 1 -10 -1 1 3.92 -27.18 53.27 <
290 4 -9 1 1 25.10 93.49 53.27 <
290 1 -9 -1 1 25.10 93.49 53.27 <
291 4 -8 1 1 87.72 113.06 59.79 <
291 1 -8 -1 1 87.72 113.06 59.79 <
292 4 -7 1 1 1204.20 1210.12 151.13 o
292 1 -7 -1 1 1204.20 1210.12 151.13 o
293 4 -6 1 1 2135.78 2160.79 185.96 o
293 1 -6 -1 1 2135.78 2160.79 185.96 o
294 4 -5 1 1 5540.91 5486.18 265.55 o
294 1 -5 -1 1 5540.91 5486.18 265.55 o
295 4 -4 1 1 3767.31 3779.13 163.22 o
295 1 -4 -1 1 3767.31 3779.13 163.22 o
296 4 -3 1 1 115.85 465.29 56.53 o
296 1 -3 -1 1 115.85 465.29 56.53 o
297 4 -2 1 1 188.99 354.42 38.05 o
297 1 -2 -1 1 188.99 354.42 38.05 o
298 4 -1 1 1 244.04 367.51 56.54 o
298 1 -1 -1 1 244.04 367.51 56.54 o
299 4 1 1 1 17.61 609.86 66.31 o
299 1 1 -1 1 17.61 609.86 66.31 o
300 4 2 1 1 235.28 454.44 52.18 o
300 1 2 -1 1 235.28 454.44 52.18 o
301 4 3 1 1 1183.47 1286.47 105.48 o
301 1 3 -1 1 1183.47 1286.47 105.48 o
302 4 4 1 1 3232.29 3107.00 214.31 o
302 1 4 -1 1 3232.29 3107.00 214.31 o
303 4 5 1 1 3768.30 3701.89 266.52 o
303 1 5 -1 1 3768.30 3701.89 266.52 o
304 4 6 1 1 2831.49 2687.33 313.21 o
304 1 6 -1 1 2831.49 2687.33 313.21 o
305 4 7 1 1 1029.97 1245.96 253.32 o
305 1 7 -1 1 1029.97 1245.96 253.32 o
306 4 8 1 1 6180.41 5871.06 525.43 o
306 1 8 -1 1 6180.41 5871.06 525.43 o
307 4 9 1 1 326.77 172.85 70.66 <
307 1 9 -1 1 326.77 172.85 70.66 <
308 4 10 1 1 505.71 475.07 215.25 <
308 1 10 -1 1 505.71 475.07 215.25 <
309 4 11 1 1 4436.53 4135.74 631.84 o
309 1 11 -1 1 4436.53 4135.74 631.84 o
310 2 -11 -1 1 228.67 516.37 216.33 <
310 1 -11 1 1 228.67 516.37 216.33 <
311 2 -10 -1 1 3.46 38.05 70.66 <
311 1 -10 1 1 3.46 38.05 70.66 <
312 2 -9 -1 1 22.14 113.06 58.70 <
312 1 -9 1 1 22.14 113.06 58.70 <
313 2 -8 -1 1 77.37 34.79 60.88 <
313 1 -8 1 1 77.37 34.79 60.88 <
314 2 -7 -1 1 1062.20 1144.88 217.45 o
314 1 -7 1 1 1062.20 1144.88 217.45 o
315 2 -6 -1 1 1883.94 1691.01 164.21 o
315 1 -6 1 1 1883.94 1691.01 164.21 o
316 2 -5 -1 1 4887.56 4665.59 270.99 o
316 1 -5 1 1 4887.56 4665.59 270.99 o
317 2 -4 -1 1 3323.10 3942.35 327.53 o
317 1 -4 1 1 3323.10 3942.35 327.53 o
318 2 -3 -1 1 102.19 646.84 101.10 o
318 1 -3 1 1 102.19 646.84 101.10 o
319 2 -2 -1 1 166.71 278.32 42.40 o
319 1 -2 1 1 166.71 278.32 42.40 o
320 2 1 -1 1 15.54 421.79 39.14 o
320 1 1 1 1 15.54 421.79 39.14 o
321 2 2 -1 1 207.54 418.57 43.49 o
321 1 2 1 1 207.54 418.57 43.49 o
322 2 3 -1 1 1043.92 1151.62 88.08 o
322 1 3 1 1 1043.92 1151.62 88.08 o
323 2 4 -1 1 2851.16 2990.59 231.72 o
323 1 4 1 1 2851.16 2990.59 231.72 o
324 2 5 -1 1 3323.97 3272.20 262.17 o
324 1 5 1 1 3323.97 3272.20 262.17 o
325 2 6 -1 1 2497.62 2754.75 262.10 o
325 1 6 1 1 2497.62 2754.75 262.10 o
326 2 7 -1 1 908.53 985.02 180.48 o
326 1 7 1 1 908.53 985.02 180.48 o
327 2 8 -1 1 5451.66 5129.15 448.19 o
327 1 8 1 1 5451.66 5129.15 448.19 o
328 2 9 -1 1 288.24 430.50 132.63 o
328 1 9 1 1 288.24 430.50 132.63 o
329 2 10 -1 1 446.08 387.02 167.42 <
329 1 10 1 1 446.08 387.02 167.42 <
330 1 -11 2 1 318.15 239.17 104.36 <
331 1 -10 2 1 103.11 26.09 82.62 <
332 1 -9 2 1 3.37 -14.13 88.05 <
333 1 -8 2 1 71.34 109.80 66.31 <
334 1 -7 2 1 105.81 119.58 43.48 <
335 1 -6 2 1 83.45 154.37 72.84 <
336 1 -5 2 1 1093.13 1125.50 109.83 o
337 1 -4 2 1 2922.22 2929.68 126.24 o
338 1 -3 2 1 2660.47 2734.36 117.56 o
339 1 -2 2 1 212.78 213.10 20.66 o
340 1 -1 2 1 132.07 178.30 18.48 o
341 1 0 2 1 278.45 309.90 27.18 o
342 1 1 2 1 0.13 27.18 18.48 <
343 1 2 2 1 1927.44 1850.09 80.53 o
344 1 3 2 1 4242.73 4190.78 136.13 o
345 1 4 2 1 2955.42 2957.65 143.64 o
346 1 5 2 1 988.93 900.34 82.64 o
347 1 6 2 1 13.83 46.74 47.83 <
348 1 7 2 1 13.94 82.62 58.70 <
349 1 8 2 1 41.04 93.49 57.62 <
350 1 9 2 1 283.31 355.49 118.50 o
351 1 10 2 1 790.04 869.76 385.95 <
352 1 11 2 1 819.85 765.39 277.23 <
353 4 -10 1 -3 4784.10 4681.81 713.42 o
353 1 -11 3 1 4784.10 4681.81 713.42 o
354 4 -9 1 -3 1673.03 1847.23 362.05 o
354 1 -10 3 1 1673.03 1847.23 362.05 o
355 4 -8 1 -3 389.91 188.07 147.85 <
355 1 -9 3 1 389.91 188.07 147.85 <
356 4 -7 1 -3 22.73 55.44 93.49 <
356 1 -8 3 1 22.73 55.44 93.49 <
357 4 -6 1 -3 1072.68 1106.79 244.62 o
357 1 -7 3 1 1072.68 1106.79 244.62 o
358 4 -5 1 -3 8372.76 8481.54 603.03 o
358 1 -6 3 1 8372.76 8481.54 603.03 o
359 4 -4 1 -3 356.63 416.38 151.12 <
359 1 -5 3 1 356.63 416.38 151.12 <
360 4 -3 1 -3 4270.48 4023.97 347.12 o
360 1 -4 3 1 4270.48 4023.97 347.12 o
361 4 -2 1 -3 20939.40 21467.70 679.10 o
361 1 -3 3 1 20939.40 21467.70 679.10 o
362 4 -1 1 -3 2796.80 3200.47 223.09 o
362 1 -2 3 1 2796.80 3200.47 223.09 o
363 4 0 1 -3 822.81 833.03 70.69 o
363 1 -1 3 1 822.81 833.03 70.69 o
364 4 1 1 -3 1442.02 1406.52 70.71 o
364 1 0 3 1 1442.02 1406.52 70.71 o
365 4 2 1 -3 1886.56 2008.24 64.19 o
365 1 1 3 1 1886.56 2008.24 64.19 o
366 4 3 1 -3 9483.10 9551.68 254.09 o
366 1 2 3 1 9483.10 9551.68 254.09 o
367 4 4 1 -3 12511.70 12162.00 301.02 o
367 1 3 3 1 12511.70 12162.00 301.02 o
368 4 5 1 -3 4184.56 3926.70 204.55 o
368 1 4 3 1 4184.56 3926.70 204.55 o
369 4 6 1 -3 816.45 856.74 103.29 o
369 1 5 3 1 816.45 856.74 103.29 o
370 4 7 1 -3 7708.77 7815.27 403.77 o
370 1 6 3 1 7708.77 7815.27 403.77 o
371 4 8 1 -3 2358.96 2458.64 328.40 o
371 1 7 3 1 2358.96 2458.64 328.40 o
372 4 9 1 -3 1504.60 1493.89 220.71 o
372 1 8 3 1 1504.60 1493.89 220.71 o
373 4 10 1 -3 4156.50 4141.31 440.45 o
373 1 9 3 1 4156.50 4141.31 440.45 o
374 4 11 1 -3 6882.02 7194.57 995.32 o
374 1 10 3 1 6882.02 7194.57 995.32 o
375 1 -11 4 1 64.13 -9.78 79.36 <
376 1 -10 4 1 151.82 364.18 164.15 <
377 1 -9 4 1 137.40 145.67 76.10 <
378 1 -8 4 1 203.98 211.99 90.23 <
379 1 -7 4 1 464.02 565.33 94.58 o
380 1 -6 4 1 143.85 113.06 58.70 <
381 1 -5 4 1 233.40 210.91 38.05 o
382 1 -4 4 1 523.79 476.22 53.28 o
383 1 -3 4 1 114.91 109.80 36.96 <
384 1 -2 4 1 392.59 343.58 36.97 o
385 1 -1 4 1 699.08 775.37 54.37 o
386 1 0 4 1 420.81 449.06 51.10 o
387 1 1 4 1 737.00 753.62 51.11 o
388 1 2 4 1 204.53 183.73 30.44 o
389 1 3 4 1 123.28 92.41 30.44 o
390 1 4 4 1 384.97 380.52 59.80 o
391 1 5 4 1 44.26 38.05 43.48 <
392 1 6 4 1 108.56 89.14 63.05 <
393 1 7 4 1 340.99 420.73 102.19 o
394 1 8 4 1 63.77 8.70 94.58 <
395 1 9 4 1 60.06 94.58 110.88 <
396 1 10 4 1 65.99 34.79 89.14 <
397 2 -12 -1 5 114.22 -52.18 178.28 <
397 1 -11 5 1 114.22 -52.18 178.28 <
398 2 -11 -1 5 62.05 18.48 109.79 <
398 1 -10 5 1 62.05 18.48 109.79 <
399 2 -10 -1 5 2031.21 2151.77 408.83 o
399 1 -9 5 1 2031.21 2151.77 408.83 o
400 2 -9 -1 5 5329.36 5608.48 615.67 o
400 1 -8 5 1 5329.36 5608.48 615.67 o
401 2 -8 -1 5 1104.15 1019.81 229.40 o
401 1 -7 5 1 1104.15 1019.81 229.40 o
402 2 -7 -1 5 79.83 306.56 157.63 <
402 1 -6 5 1 79.83 306.56 157.63 <
403 2 -6 -1 5 3531.71 3649.44 394.86 o
403 1 -5 5 1 3531.71 3649.44 394.86 o
404 2 -5 -1 5 369.29 478.35 132.63 o
404 1 -4 5 1 369.29 478.35 132.63 o
405 2 -4 -1 5 64.40 263.08 107.62 <
405 1 -3 5 1 64.40 263.08 107.62 <
406 2 -3 -1 5 2292.48 2171.15 219.73 o
406 1 -2 5 1 2292.48 2171.15 219.73 o
407 2 -2 -1 5 6419.00 6536.77 276.68 o
407 1 -1 5 1 6419.00 6536.77 276.68 o
408 2 -1 -1 5 9036.14 8661.25 287.80 o
408 1 0 5 1 9036.14 8661.25 287.80 o
409 2 0 -1 5 2806.38 2785.14 145.79 o
409 1 1 5 1 2806.38 2785.14 145.79 o
410 2 1 -1 5 339.88 440.31 50.01 o
410 1 2 5 1 339.88 440.31 50.01 o
411 2 2 -1 5 6.34 150.02 43.48 o
411 1 3 5 1 6.34 150.02 43.48 o
412 2 3 -1 5 208.33 368.54 64.14 o
412 1 4 5 1 208.33 368.54 64.14 o
413 2 4 -1 5 4243.63 4000.11 208.87 o
413 1 5 5 1 4243.63 4000.11 208.87 o
414 2 5 -1 5 65.57 58.70 57.62 <
414 1 6 5 1 65.57 58.70 57.62 <
415 2 6 -1 5 237.50 188.07 70.66 <
415 1 7 5 1 237.50 188.07 70.66 <
416 2 7 -1 5 10984.70 11009.90 670.50 o
416 1 8 5 1 10984.70 11009.90 670.50 o
417 2 8 -1 5 165.85 293.52 152.19 <
417 1 9 5 1 165.85 293.52 152.19 <
418 2 9 -1 5 1034.41 990.41 230.48 o
418 1 10 5 1 1034.41 990.41 230.48 o
419 1 -11 6 1 28.67 -150.02 238.07 <
420 1 -10 6 1 1.75 166.32 143.49 <
421 1 -9 6 1 444.66 605.54 142.42 o
422 1 -8 6 1 1091.89 960.06 137.00 o
423 1 -7 6 1 816.81 695.83 115.25 o
424 1 -6 6 1 558.05 518.59 96.76 o
425 1 -5 6 1 8.72 109.79 50.01 <
426 1 -4 6 1 100.87 107.62 51.09 <
427 1 -3 6 1 11.21 65.22 33.70 <
428 1 -2 6 1 81.70 160.89 48.92 o
429 1 -1 6 1 2516.54 2442.66 118.60 o
430 1 0 6 1 3816.39 3681.53 170.90 o
431 1 1 6 1 449.11 589.29 79.37 o
432 1 2 6 1 35.14 54.35 29.35 <
433 1 3 6 1 171.04 218.51 51.10 o
434 1 4 6 1 349.70 370.73 60.88 o
435 1 5 6 1 76.83 111.97 67.40 <
436 1 6 6 1 357.85 335.93 77.19 o
437 1 7 6 1 737.60 867.60 146.77 o
438 1 8 6 1 579.34 683.83 131.55 o
439 1 9 6 1 2.19 9.78 95.66 <
440 1 10 6 1 43.97 -53.27 113.06 <
441 4 -8 1 -7 1830.59 1928.79 403.37 o
441 1 -10 7 1 1830.59 1928.79 403.37 o
442 4 -7 1 -7 1810.50 2134.30 429.47 o
442 1 -9 7 1 1810.50 2134.30 429.47 o
443 4 -6 1 -7 2754.41 2870.66 467.57 o
443 1 -8 7 1 2754.41 2870.66 467.57 o
444 4 -5 1 -7 1117.24 1215.52 305.51 o
444 1 -7 7 1 1117.24 1215.52 305.51 o
445 4 -4 1 -7 7.04 -22.83 81.53 <
445 1 -6 7 1 7.04 -22.83 81.53 <
446 4 -3 1 -7 13179.40 13057.10 585.88 o
446 1 -5 7 1 13179.40 13057.10 585.88 o
447 4 -2 1 -7 12426.40 12907.80 723.27 o
447 1 -4 7 1 12426.40 12907.80 723.27 o
448 4 -1 1 -7 1022.55 1103.63 210.94 o
448 1 -3 7 1 1022.55 1103.63 210.94 o
449 4 0 1 -7 7616.33 7659.24 461.56 o
449 1 -2 7 1 7616.33 7659.24 461.56 o
450 4 1 1 -7 4482.52 4987.54 341.64 o
450 1 -1 7 1 4482.52 4987.54 341.64 o
451 4 2 1 -7 1572.52 1478.94 144.63 o
451 1 0 7 1 1572.52 1478.94 144.63 o
452 4 3 1 -7 5821.15 5683.38 248.14 o
452 1 1 7 1 5821.15 5683.38 248.14 o
453 4 4 1 -7 4126.57 3952.31 181.68 o
453 1 2 7 1 4126.57 3952.31 181.68 o
454 4 5 1 -7 5133.65 4843.79 215.43 o
454 1 3 7 1 5133.65 4843.79 215.43 o
455 4 6 1 -7 10998.80 10852.10 516.15 o
455 1 4 7 1 10998.80 10852.10 516.15 o
456 4 7 1 -7 7459.42 7530.23 460.30 o
456 1 5 7 1 7459.42 7530.23 460.30 o
457 4 8 1 -7 45.55 44.57 113.06 <
457 1 6 7 1 45.55 44.57 113.06 <
458 4 9 1 -7 559.73 572.92 155.46 o
458 1 7 7 1 559.73 572.92 155.46 o
459 4 10 1 -7 8501.79 8145.94 606.02 o
459 1 8 7 1 8501.79 8145.94 606.02 o
460 4 11 1 -7 476.89 549.00 203.29 <
460 1 9 7 1 476.89 549.00 203.29 <
461 4 12 1 -7 100.72 463.10 239.16 <
461 1 10 7 1 100.72 463.10 239.16 <
462 1 -10 8 1 78.61 201.11 250.03 <
463 1 -9 8 1 255.27 136.98 111.97 <
464 1 -8 8 1 333.49 419.63 123.93 o
465 1 -7 8 1 98.15 354.39 101.10 o
466 1 -6 8 1 680.46 827.37 144.60 o
467 1 -5 8 1 286.15 514.22 103.28 o
468 1 -4 8 1 2.29 61.96 57.62 <
469 1 -3 8 1 537.20 594.71 79.37 o
470 1 -2 8 1 281.84 338.10 54.36 o
471 1 -1 8 1 261.20 263.09 55.44 o
472 1 0 8 1 848.75 783.96 90.25 o
473 1 1 8 1 169.15 256.56 59.79 o
474 1 2 8 1 427.30 388.13 91.32 o
475 1 3 8 1 207.37 325.05 83.71 o
476 1 4 8 1 22.05 15.22 69.57 <
477 1 5 8 1 335.08 418.55 123.93 o
478 1 6 8 1 248.39 242.43 96.75 <
479 1 7 8 1 7.08 -60.88 82.62 <
480 1 8 8 1 274.47 296.78 114.15 <
481 1 9 8 1 87.40 43.48 94.58 <
482 2 -11 -1 9 810.35 759.91 240.26 o
482 1 -9 9 1 810.35 759.91 240.26 o
483 2 -10 -1 9 924.43 1206.74 339.19 o
483 1 -8 9 1 924.43 1206.74 339.19 o
484 2 -9 -1 9 5290.47 6080.00 691.75 o
484 1 -7 9 1 5290.47 6080.00 691.75 o
485 2 -8 -1 9 4071.03 3666.16 492.66 o
485 1 -6 9 1 4071.03 3666.16 492.66 o
486 2 -7 -1 9 4.39 13.04 92.40 <
486 1 -5 9 1 4.39 13.04 92.40 <
487 2 -6 -1 9 350.90 532.68 164.15 o
487 1 -4 9 1 350.90 532.68 164.15 o
488 2 -5 -1 9 1924.13 2151.94 318.61 o
488 1 -3 9 1 1924.13 2151.94 318.61 o
489 2 -4 -1 9 3230.93 3454.35 352.40 o
489 1 -2 9 1 3230.93 3454.35 352.40 o
490 2 -3 -1 9 4943.53 4606.10 384.02 o
490 1 -1 9 1 4943.53 4606.10 384.02 o
491 2 -2 -1 9 3321.83 3230.40 250.17 o
491 1 0 9 1 3321.83 3230.40 250.17 o
492 2 -1 -1 9 4729.80 5131.99 273.08 o
492 1 1 9 1 4729.80 5131.99 273.08 o
493 2 0 -1 9 1577.20 1466.84 175.06 o
493 1 2 9 1 1577.20 1466.84 175.06 o
494 2 1 -1 9 663.90 752.34 188.08 o
494 1 3 9 1 663.90 752.34 188.08 o
495 2 2 -1 9 510.01 742.54 170.68 o
495 1 4 9 1 510.01 742.54 170.68 o
496 2 3 -1 9 34.52 7.61 95.66 <
496 1 5 9 1 34.52 7.61 95.66 <
497 2 4 -1 9 6953.92 6660.82 511.37 o
497 1 6 9 1 6953.92 6660.82 511.37 o
498 2 5 -1 9 4949.92 5304.56 488.36 o
498 1 7 9 1 4949.92 5304.56 488.36 o
499 2 6 -1 9 926.29 829.49 201.12 o
499 1 8 9 1 926.29 829.49 201.12 o
500 2 7 -1 9 2685.79 2404.22 516.51 o
500 1 9 9 1 2685.79 2404.22 516.51 o
501 1 -8 10 1 2151.25 2394.46 327.31 o
502 1 -7 10 1 3405.53 3473.88 326.29 o
503 1 -6 10 1 1740.33 2129.08 246.83 o
504 1 -5 10 1 1613.61 1486.44 181.59 o
505 1 -4 10 1 729.71 802.37 123.94 o
506 1 -3 10 1 656.41 792.58 113.07 o
507 1 -2 10 1 4740.77 4704.98 266.59 o
508 1 -1 10 1 4502.42 4381.70 245.91 o
509 1 0 10 1 4105.81 3893.94 213.25 o
510 1 1 10 1 6006.52 5948.12 266.66 o
511 1 2 10 1 1358.07 1388.57 150.06 o
512 1 3 10 1 474.04 497.92 100.02 o
513 1 4 10 1 1087.33 1167.74 142.43 o
514 1 5 10 1 1006.06 947.00 155.48 o
515 1 6 10 1 2900.02 2900.52 284.94 o
516 1 7 10 1 2651.09 2443.59 276.22 o
517 1 8 10 1 1154.19 1579.77 277.25 o
518 4 -4 1 -11 458.07 477.25 178.29 <
518 1 -7 11 1 458.07 477.25 178.29 <
519 4 -3 1 -11 5773.57 5978.92 652.60 o
519 1 -6 11 1 5773.57 5978.92 652.60 o
520 4 -2 1 -11 154.30 182.63 138.06 <
520 1 -5 11 1 154.30 182.63 138.06 <
521 4 -1 1 -11 975.07 1041.53 254.40 o
521 1 -4 11 1 975.07 1041.53 254.40 o
522 4 0 1 -11 10254.50 10050.30 706.29 o
522 1 -3 11 1 10254.50 10050.30 706.29 o
523 4 1 1 -11 798.55 965.45 214.18 o
523 1 -2 11 1 798.55 965.45 214.18 o
524 4 2 1 -11 463.84 684.90 159.81 o
524 1 -1 11 1 463.84 684.90 159.81 o
525 4 3 1 -11 1836.95 1916.92 269.65 o
525 1 0 11 1 1836.95 1916.92 269.65 o
526 4 4 1 -11 379.39 519.65 93.49 o
526 1 1 11 1 379.39 519.65 93.49 o
527 4 5 1 -11 3467.59 3744.43 316.48 o
527 1 2 11 1 3467.59 3744.43 316.48 o
528 4 6 1 -11 4627.92 4965.20 376.33 o
528 1 3 11 1 4627.92 4965.20 376.33 o
529 4 7 1 -11 836.79 585.99 126.11 o
529 1 4 11 1 836.79 585.99 126.11 o
530 4 8 1 -11 763.39 820.81 182.64 o
530 1 5 11 1 763.39 820.81 182.64 o
531 4 9 1 -11 3391.39 3370.01 375.17 o
531 1 6 11 1 3391.39 3370.01 375.17 o
532 4 10 1 -11 910.36 1132.83 256.57 o
532 1 7 11 1 910.36 1132.83 256.57 o
533 4 11 1 -11 269.08 403.31 194.59 <
533 1 8 11 1 269.08 403.31 194.59 <
534 1 -7 12 1 337.17 498.99 188.07 <
535 1 -6 12 1 12.05 91.31 89.14 <
536 1 -5 12 1 1.59 68.49 85.88 <
537 1 -4 12 1 191.07 233.73 100.01 <
538 1 -3 12 1 120.32 130.45 73.92 <
539 1 -2 12 1 14.18 54.35 93.49 <
540 1 -1 12 1 170.46 2.17 45.66 <
541 1 0 12 1 3.28 81.53 56.53 <
542 1 1 12 1 247.18 253.30 66.31 o
543 1 2 12 1 16.60 35.87 51.09 <
544 1 3 12 1 57.88 120.67 75.01 <
545 1 4 12 1 134.15 227.20 110.88 <
546 1 5 12 1 133.88 234.81 116.32 <
547 1 6 12 1 5.96 294.60 125.01 <
548 1 7 12 1 267.30 345.70 192.42 <
549 2 -9 -1 13 70.95 -111.97 120.67 <
549 1 -6 13 1 70.95 -111.97 120.67 <
550 2 -8 -1 13 643.53 687.07 233.73 <
550 1 -5 13 1 643.53 687.07 233.73 <
551 2 -7 -1 13 1.56 23.92 45.66 <
551 1 -4 13 1 1.56 23.92 45.66 <
552 2 -6 -1 13 9.37 -256.55 148.93 <
552 1 -3 13 1 9.37 -256.55 148.93 <
553 2 -5 -1 13 190.50 278.30 110.88 <
553 1 -2 13 1 190.50 278.30 110.88 <
554 2 -4 -1 13 1136.75 1153.56 257.67 o
554 1 -1 13 1 1136.75 1153.56 257.67 o
555 2 -3 -1 13 2846.23 2904.50 297.95 o
555 1 0 13 1 2846.23 2904.50 297.95 o
556 2 -2 -1 13 178.66 266.34 97.84 <
556 1 1 13 1 178.66 266.34 97.84 <
557 2 -1 -1 13 81.58 96.75 95.66 <
557 1 2 13 1 81.58 96.75 95.66 <
558 2 0 -1 13 10.12 202.20 142.41 <
558 1 3 13 1 10.12 202.20 142.41 <
559 2 1 -1 13 27.29 123.93 92.40 <
559 1 4 13 1 27.29 123.93 92.40 <
560 2 2 -1 13 2022.06 1782.09 335.98 o
560 1 5 13 1 2022.06 1782.09 335.98 o
561 2 3 -1 13 93.40 153.28 177.19 <
561 1 6 13 1 93.40 153.28 177.19 <
562 1 -5 14 1 1418.95 1305.83 333.80 o
563 1 -4 14 1 1706.95 1951.77 266.40 o
564 1 -3 14 1 3167.94 2877.70 366.51 o
565 1 -2 14 1 1812.89 1869.17 279.45 o
566 1 -1 14 1 5627.59 6105.70 375.35 o
567 1 0 14 1 7282.85 7212.85 404.83 o
568 1 1 14 1 2405.82 2297.80 231.63 o
569 1 2 14 1 3129.10 3095.21 278.42 o
570 1 3 14 1 2087.56 2059.53 269.67 o
571 1 4 14 1 1084.02 1314.47 228.32 o
572 1 5 14 1 2907.86 2824.24 600.30 o
573 4 1 1 -15 280.48 417.44 184.80 <
573 1 -3 15 1 280.48 417.44 184.80 <
574 4 2 1 -15 1032.07 1308.93 321.80 o
574 1 -2 15 1 1032.07 1308.93 321.80 o
575 4 3 1 -15 413.85 702.28 225.03 o
575 1 -1 15 1 413.85 702.28 225.03 o
576 4 4 1 -15 47.13 35.87 51.09 <
576 1 0 15 1 47.13 35.87 51.09 <
577 4 5 1 -15 736.23 391.37 143.50 <
577 1 1 15 1 736.23 391.37 143.50 <
578 4 6 1 -15 71.07 167.41 94.58 <
578 1 2 15 1 71.07 167.41 94.58 <
579 4 7 1 -15 102.94 158.71 52.18 o
579 1 3 15 1 102.94 158.71 52.18 o
580 4 8 1 -15 1624.05 1733.06 440.33 o
580 1 4 15 1 1624.05 1733.06 440.33 o
581 1 -2 16 1 42.65 129.36 101.10 <
582 1 -1 16 1 61.22 -40.22 147.84 <
583 1 0 16 1 56.94 71.75 126.10 <
584 1 1 16 1 120.87 -65.23 177.20 <
585 4 -8 2 14 13898.30 13724.90 1525.36 o
585 3 -4 14 -2 13898.30 13724.90 1525.36 o
585 2 -1 -2 -14 13898.30 13724.90 1525.36 o
585 1 -5 -14 2 13898.30 13724.90 1525.36 o
586 4 -7 2 14 7870.35 7984.90 1096.26 o
586 3 -3 14 -2 7870.35 7984.90 1096.26 o
586 2 0 -2 -14 7870.35 7984.90 1096.26 o
586 1 -4 -14 2 7870.35 7984.90 1096.26 o
587 4 -6 2 14 33773.10 34156.60 2145.81 o
587 3 -2 14 -2 33773.10 34156.60 2145.81 o
587 2 1 -2 -14 33773.10 34156.60 2145.81 o
587 1 -3 -14 2 33773.10 34156.60 2145.81 o
588 4 -5 2 14 9408.02 10459.10 1126.84 o
588 3 -1 14 -2 9408.02 10459.10 1126.84 o
588 2 2 -2 -14 9408.02 10459.10 1126.84 o
588 1 -2 -14 2 9408.02 10459.10 1126.84 o
589 4 -4 2 14 642.87 583.79 210.90 <
589 3 0 14 -2 642.87 583.79 210.90 <
589 2 3 -2 -14 642.87 583.79 210.90 <
589 1 -1 -14 2 642.87 583.79 210.90 <
590 4 -3 2 14 488.85 494.63 193.50 <
590 3 1 14 -2 488.85 494.63 193.50 <
590 2 4 -2 -14 488.85 494.63 193.50 <
590 1 0 -14 2 488.85 494.63 193.50 <
591 4 -2 2 14 9882.45 9205.95 784.20 o
591 3 2 14 -2 9882.45 9205.95 784.20 o
591 2 5 -2 -14 9882.45 9205.95 784.20 o
591 1 1 -14 2 9882.45 9205.95 784.20 o
592 4 -1 2 14 33241.50 33023.50 1556.72 o
592 3 3 14 -2 33241.50 33023.50 1556.72 o
592 2 6 -2 -14 33241.50 33023.50 1556.72 o
592 1 2 -14 2 33241.50 33023.50 1556.72 o
593 4 0 2 14 8079.31 7553.50 768.95 o
593 3 4 14 -2 8079.31 7553.50 768.95 o
593 2 7 -2 -14 8079.31 7553.50 768.95 o
593 1 3 -14 2 8079.31 7553.50 768.95 o
594 4 1 2 14 13344.80 11349.70 1560.01 o
594 3 5 14 -2 13344.80 11349.70 1560.01 o
594 2 8 -2 -14 13344.80 11349.70 1560.01 o
594 1 4 -14 2 13344.80 11349.70 1560.01 o
595 4 -10 2 10 11365.70 12297.00 1021.58 o
595 3 -7 10 -2 11365.70 12297.00 1021.58 o
595 2 -5 -2 -10 11365.70 12297.00 1021.58 o
595 1 -8 -10 2 11365.70 12297.00 1021.58 o
596 4 -9 2 10 20079.70 21063.90 1264.99 o
596 3 -6 10 -2 20079.70 21063.90 1264.99 o
596 2 -4 -2 -10 20079.70 21063.90 1264.99 o
596 1 -7 -10 2 20079.70 21063.90 1264.99 o
597 4 -8 2 10 82645.50 83719.10 1758.96 o
597 3 -5 10 -2 82645.50 83719.10 1758.96 o
597 2 -3 -2 -10 82645.50 83719.10 1758.96 o
597 1 -6 -10 2 82645.50 83719.10 1758.96 o
598 4 -7 2 10 27913.70 29119.30 974.06 o
598 3 -4 10 -2 27913.70 29119.30 974.06 o
598 2 -2 -2 -10 27913.70 29119.30 974.06 o
598 1 -5 -10 2 27913.70 29119.30 974.06 o
599 4 -6 2 10 19413.50 21373.20 966.86 o
599 3 -3 10 -2 19413.50 21373.20 966.86 o
599 2 -1 -2 -10 19413.50 21373.20 966.86 o
599 1 -4 -10 2 19413.50 21373.20 966.86 o
600 4 -5 2 10 54680.80 56005.20 1168.64 o
600 3 -2 10 -2 54680.80 56005.20 1168.64 o
600 2 0 -2 -10 54680.80 56005.20 1168.64 o
600 1 -3 -10 2 54680.80 56005.20 1168.64 o
601 4 -4 2 10 19884.40 19056.50 862.49 o
601 3 -1 10 -2 19884.40 19056.50 862.49 o
601 2 1 -2 -10 19884.40 19056.50 862.49 o
601 1 -2 -10 2 19884.40 19056.50 862.49 o
602 4 -3 2 10 209.72 313.09 107.62 <
602 3 0 10 -2 209.72 313.09 107.62 <
602 2 2 -2 -10 209.72 313.09 107.62 <
602 1 -1 -10 2 209.72 313.09 107.62 <
603 4 -2 2 10 187.04 169.58 128.27 <
603 3 1 10 -2 187.04 169.58 128.27 <
603 2 3 -2 -10 187.04 169.58 128.27 <
603 1 0 -10 2 187.04 169.58 128.27 <
604 4 -1 2 10 18865.80 19033.20 958.25 o
604 3 2 10 -2 18865.80 19033.20 958.25 o
604 2 4 -2 -10 18865.80 19033.20 958.25 o
604 1 1 -10 2 18865.80 19033.20 958.25 o
605 4 0 2 10 56517.80 56593.20 1735.97 o
605 3 3 10 -2 56517.80 56593.20 1735.97 o
605 2 5 -2 -10 56517.80 56593.20 1735.97 o
605 1 2 -10 2 56517.80 56593.20 1735.97 o
606 4 1 2 10 19325.40 22077.80 907.07 o
606 3 4 10 -2 19325.40 22077.80 907.07 o
606 2 6 -2 -10 19325.40 22077.80 907.07 o
606 1 3 -10 2 19325.40 22077.80 907.07 o
607 4 2 2 10 27592.20 27298.60 1358.45 o
607 3 5 10 -2 27592.20 27298.60 1358.45 o
607 2 7 -2 -10 27592.20 27298.60 1358.45 o
607 1 4 -10 2 27592.20 27298.60 1358.45 o
608 4 3 2 10 81177.50 83623.60 2522.15 o
608 3 6 10 -2 81177.50 83623.60 2522.15 o
608 2 8 -2 -10 81177.50 83623.60 2522.15 o
608 1 5 -10 2 81177.50 83623.60 2522.15 o
609 4 4 2 10 19251.70 21091.70 1337.68 o
609 3 7 10 -2 19251.70 21091.70 1337.68 o
609 2 9 -2 -10 19251.70 21091.70 1337.68 o
609 1 6 -10 2 19251.70 21091.70 1337.68 o
610 4 5 2 10 10349.40 11061.60 1008.37 o
610 3 8 10 -2 10349.40 11061.60 1008.37 o
610 2 10 -2 -10 10349.40 11061.60 1008.37 o
610 1 7 -10 2 10349.40 11061.60 1008.37 o
611 4 -11 2 6 14931.60 15747.80 1141.56 o
611 3 -9 6 -2 14931.60 15747.80 1141.56 o
611 2 -8 -2 -6 14931.60 15747.80 1141.56 o
611 1 -10 -6 2 14931.60 15747.80 1141.56 o
612 4 -10 2 6 48876.90 48469.30 1905.12 o
612 3 -8 6 -2 48876.90 48469.30 1905.12 o
612 2 -7 -2 -6 48876.90 48469.30 1905.12 o
612 1 -9 -6 2 48876.90 48469.30 1905.12 o
613 4 -9 2 6 13278.30 13217.40 567.00 o
613 3 -7 6 -2 13278.30 13217.40 567.00 o
613 2 -6 -2 -6 13278.30 13217.40 567.00 o
613 1 -8 -6 2 13278.30 13217.40 567.00 o
614 4 -8 2 6 25198.90 25941.70 920.69 o
614 3 -6 6 -2 25198.90 25941.70 920.69 o
614 2 -5 -2 -6 25198.90 25941.70 920.69 o
614 1 -7 -6 2 25198.90 25941.70 920.69 o
615 4 -7 2 6 142256.00 145439.00 2041.32 o
615 3 -5 6 -2 142256.00 145439.00 2041.32 o
615 2 -4 -2 -6 142256.00 145439.00 2041.32 o
615 1 -6 -6 2 142256.00 145439.00 2041.32 o
616 4 -6 2 6 37535.30 38708.70 972.77 o
616 3 -4 6 -2 37535.30 38708.70 972.77 o
616 2 -3 -2 -6 37535.30 38708.70 972.77 o
616 1 -5 -6 2 37535.30 38708.70 972.77 o
617 4 -5 2 6 26766.70 26944.50 484.29 o
617 3 -3 6 -2 26766.70 26944.50 484.29 o
617 2 -2 -2 -6 26766.70 26944.50 484.29 o
617 1 -4 -6 2 26766.70 26944.50 484.29 o
618 4 -4 2 6 109648.00 111044.00 952.68 o
618 3 -2 6 -2 109648.00 111044.00 952.68 o
618 2 -1 -2 -6 109648.00 111044.00 952.68 o
618 1 -3 -6 2 109648.00 111044.00 952.68 o
619 4 -3 2 6 25763.30 26342.30 527.17 o
619 3 -1 6 -2 25763.30 26342.30 527.17 o
619 2 0 -2 -6 25763.30 26342.30 527.17 o
619 1 -2 -6 2 25763.30 26342.30 527.17 o
620 4 -2 2 6 1445.43 1550.61 192.47 o
620 3 0 6 -2 1445.43 1550.61 192.47 o
620 2 1 -2 -6 1445.43 1550.61 192.47 o
620 1 -1 -6 2 1445.43 1550.61 192.47 o
621 4 -1 2 6 1158.70 1726.52 213.10 o
621 3 1 6 -2 1158.70 1726.52 213.10 o
621 2 2 -2 -6 1158.70 1726.52 213.10 o
621 1 0 -6 2 1158.70 1726.52 213.10 o
622 4 0 2 6 26615.50 26076.50 929.94 o
622 3 2 6 -2 26615.50 26076.50 929.94 o
622 2 3 -2 -6 26615.50 26076.50 929.94 o
622 1 1 -6 2 26615.50 26076.50 929.94 o
623 4 1 2 6 108446.00 110418.00 1792.07 o
623 3 3 6 -2 108446.00 110418.00 1792.07 o
623 2 4 -2 -6 108446.00 110418.00 1792.07 o
623 1 2 -6 2 108446.00 110418.00 1792.07 o
624 4 2 2 6 27530.60 27757.00 857.48 o
624 3 4 6 -2 27530.60 27757.00 857.48 o
624 2 5 -2 -6 27530.60 27757.00 857.48 o
624 1 3 -6 2 27530.60 27757.00 857.48 o
625 4 3 2 6 37204.80 38509.60 1058.80 o
625 3 5 6 -2 37204.80 38509.60 1058.80 o
625 2 6 -2 -6 37204.80 38509.60 1058.80 o
625 1 4 -6 2 37204.80 38509.60 1058.80 o
626 4 4 2 6 139925.00 145986.00 2147.72 o
626 3 6 6 -2 139925.00 145986.00 2147.72 o
626 2 7 -2 -6 139925.00 145986.00 2147.72 o
626 1 5 -6 2 139925.00 145986.00 2147.72 o
627 4 5 2 6 25284.30 26522.60 1354.13 o
627 3 7 6 -2 25284.30 26522.60 1354.13 o
627 2 8 -2 -6 25284.30 26522.60 1354.13 o
627 1 6 -6 2 25284.30 26522.60 1354.13 o
628 4 6 2 6 13614.70 14738.50 1067.52 o
628 3 8 6 -2 13614.70 14738.50 1067.52 o
628 2 9 -2 -6 13614.70 14738.50 1067.52 o
628 1 7 -6 2 13614.70 14738.50 1067.52 o
629 4 7 2 6 45545.10 48242.60 1970.49 o
629 3 9 6 -2 45545.10 48242.60 1970.49 o
629 2 10 -2 -6 45545.10 48242.60 1970.49 o
629 1 8 -6 2 45545.10 48242.60 1970.49 o
630 4 8 2 6 15214.80 16215.00 1163.19 o
630 3 10 6 -2 15214.80 16215.00 1163.19 o
630 2 11 -2 -6 15214.80 16215.00 1163.19 o
630 1 9 -6 2 15214.80 16215.00 1163.19 o
631 4 9 2 6 290.06 329.39 198.94 <
631 3 11 6 -2 290.06 329.39 198.94 <
631 2 12 -2 -6 290.06 329.39 198.94 <
631 1 10 -6 2 290.06 329.39 198.94 <
632 4 -11 2 2 125.76 126.10 110.88 <
632 3 -10 2 -2 125.76 126.10 110.88 <
632 2 -10 -2 -2 125.76 126.10 110.88 <
632 1 -11 -2 2 125.76 126.10 110.88 <
633 4 -10 2 2 20336.30 20484.70 1308.67 o
633 3 -9 2 -2 20336.30 20484.70 1308.67 o
633 2 -9 -2 -2 20336.30 20484.70 1308.67 o
633 1 -10 -2 2 20336.30 20484.70 1308.67 o
634 4 -9 2 2 54297.60 54170.20 1345.25 o
634 3 -8 2 -2 54297.60 54170.20 1345.25 o
634 2 -8 -2 -2 54297.60 54170.20 1345.25 o
634 1 -9 -2 2 54297.60 54170.20 1345.25 o
635 4 -8 2 2 19849.30 20439.30 764.56 o
635 3 -7 2 -2 19849.30 20439.30 764.56 o
635 2 -7 -2 -2 19849.30 20439.30 764.56 o
635 1 -8 -2 2 19849.30 20439.30 764.56 o
636 4 -7 2 2 36279.10 37245.40 771.58 o
636 3 -6 2 -2 36279.10 37245.40 771.58 o
636 2 -6 -2 -2 36279.10 37245.40 771.58 o
636 1 -7 -2 2 36279.10 37245.40 771.58 o
637 4 -6 2 2 177028.00 177527.00 1630.58 o
637 3 -5 2 -2 177028.00 177527.00 1630.58 o
637 2 -5 -2 -2 177028.00 177527.00 1630.58 o
637 1 -6 -2 2 177028.00 177527.00 1630.58 o
638 4 -5 2 2 56896.40 57330.80 730.33 o
638 3 -4 2 -2 56896.40 57330.80 730.33 o
638 2 -4 -2 -2 56896.40 57330.80 730.33 o
638 1 -5 -2 2 56896.40 57330.80 730.33 o
639 4 -4 2 2 44286.90 43121.20 548.11 o
639 3 -3 2 -2 44286.90 43121.20 548.11 o
639 2 -3 -2 -2 44286.90 43121.20 548.11 o
639 1 -4 -2 2 44286.90 43121.20 548.11 o
640 4 -3 2 2 148859.00 149297.00 971.86 o
640 3 -2 2 -2 148859.00 149297.00 971.86 o
640 2 -2 -2 -2 148859.00 149297.00 971.86 o
640 1 -3 -2 2 148859.00 149297.00 971.86 o
641 4 -2 2 2 46804.20 47541.20 465.53 o
641 3 -1 2 -2 46804.20 47541.20 465.53 o
641 2 -1 -2 -2 46804.20 47541.20 465.53 o
641 1 -2 -2 2 46804.20 47541.20 465.53 o
642 4 -1 2 2 807.43 915.62 48.93 o
642 3 0 2 -2 807.43 915.62 48.93 o
642 2 0 -2 -2 807.43 915.62 48.93 o
642 1 -1 -2 2 807.43 915.62 48.93 o
643 4 0 2 2 706.82 691.55 67.42 o
643 3 1 2 -2 706.82 691.55 67.42 o
643 2 1 -2 -2 706.82 691.55 67.42 o
643 1 0 -2 2 706.82 691.55 67.42 o
644 4 1 2 2 45956.40 47838.80 681.40 o
644 3 2 2 -2 45956.40 47838.80 681.40 o
644 2 2 -2 -2 45956.40 47838.80 681.40 o
644 1 1 -2 2 45956.40 47838.80 681.40 o
645 4 2 2 2 150723.00 152230.00 1130.43 o
645 3 3 2 -2 150723.00 152230.00 1130.43 o
645 2 3 -2 -2 150723.00 152230.00 1130.43 o
645 1 2 -2 2 150723.00 152230.00 1130.43 o
646 4 3 2 2 44231.20 43879.80 723.49 o
646 3 4 2 -2 44231.20 43879.80 723.49 o
646 2 4 -2 -2 44231.20 43879.80 723.49 o
646 1 3 -2 2 44231.20 43879.80 723.49 o
647 4 4 2 2 56227.80 55570.80 1064.58 o
647 3 5 2 -2 56227.80 55570.80 1064.58 o
647 2 5 -2 -2 56227.80 55570.80 1064.58 o
647 1 4 -2 2 56227.80 55570.80 1064.58 o
648 4 5 2 2 175590.00 166204.00 1937.80 o
648 3 6 2 -2 175590.00 166204.00 1937.80 o
648 2 6 -2 -2 175590.00 166204.00 1937.80 o
648 1 5 -2 2 175590.00 166204.00 1937.80 o
649 4 6 2 2 35369.30 34347.90 1276.63 o
649 3 7 2 -2 35369.30 34347.90 1276.63 o
649 2 7 -2 -2 35369.30 34347.90 1276.63 o
649 1 6 -2 2 35369.30 34347.90 1276.63 o
650 4 7 2 2 18996.70 20282.70 1014.90 o
650 3 8 2 -2 18996.70 20282.70 1014.90 o
650 2 8 -2 -2 18996.70 20282.70 1014.90 o
650 1 7 -2 2 18996.70 20282.70 1014.90 o
651 4 8 2 2 53623.10 53776.90 1734.88 o
651 3 9 2 -2 53623.10 53776.90 1734.88 o
651 2 9 -2 -2 53623.10 53776.90 1734.88 o
651 1 8 -2 2 53623.10 53776.90 1734.88 o
652 4 9 2 2 19400.20 20382.90 1758.08 o
652 3 10 2 -2 19400.20 20382.90 1758.08 o
652 2 10 -2 -2 19400.20 20382.90 1758.08 o
652 1 9 -2 2 19400.20 20382.90 1758.08 o
653 4 10 2 2 178.39 577.24 265.25 <
653 3 11 2 -2 178.39 577.24 265.25 <
653 2 11 -2 -2 178.39 577.24 265.25 <
653 1 10 -2 2 178.39 577.24 265.25 <
654 3 -10 0 -2 452.20 482.68 207.64 <
654 1 -11 0 2 452.20 482.68 207.64 <
655 3 -9 0 -2 139.57 288.08 111.97 <
655 1 -10 0 2 139.57 288.08 111.97 <
656 3 -8 0 -2 293.03 480.51 141.33 o
656 1 -9 0 2 293.03 480.51 141.33 o
657 3 -7 0 -2 307.06 296.80 92.41 o
657 1 -8 0 2 307.06 296.80 92.41 o
658 3 -6 0 -2 179.34 102.19 38.05 <
658 1 -7 0 2 179.34 102.19 38.05 <
659 3 -5 0 -2 314.04 154.38 63.06 <
659 1 -6 0 2 314.04 154.38 63.06 <
660 3 -4 0 -2 2.21 78.27 45.66 <
660 1 -5 0 2 2.21 78.27 45.66 <
661 3 -3 0 -2 425.78 712.09 81.54 o
661 1 -4 0 2 425.78 712.09 81.54 o
662 3 -2 0 -2 10.81 111.97 23.92 o
662 1 -3 0 2 10.81 111.97 23.92 o
663 3 -1 0 -2 1.10 109.79 17.39 o
663 1 -2 0 2 1.10 109.79 17.39 o
664 3 0 0 -2 6.62 717.47 41.31 o
664 1 -1 0 2 6.62 717.47 41.31 o
665 3 1 0 -2 1.73 843.58 48.92 o
665 1 0 0 2 1.73 843.58 48.92 o
666 3 2 0 -2 5.24 172.85 27.18 o
666 1 1 0 2 5.24 172.85 27.18 o
667 3 3 0 -2 5.66 89.14 26.09 o
667 1 2 0 2 5.66 89.14 26.09 o
668 3 4 0 -2 253.02 483.83 81.54 o
668 1 3 0 2 253.02 483.83 81.54 o
669 3 5 0 -2 8.80 44.57 47.83 <
669 1 4 0 2 8.80 44.57 47.83 <
670 3 6 0 -2 318.55 346.80 86.97 o
670 1 5 0 2 318.55 346.80 86.97 o
671 3 7 0 -2 238.38 277.21 130.45 <
671 1 6 0 2 238.38 277.21 130.45 <
672 3 8 0 -2 521.80 563.13 143.50 o
672 1 7 0 2 521.80 563.13 143.50 o
673 3 9 0 -2 299.88 270.69 207.64 <
673 1 8 0 2 299.88 270.69 207.64 <
674 3 10 0 -2 147.82 329.39 231.55 <
674 1 9 0 2 147.82 329.39 231.55 <
675 3 11 0 -2 389.24 300.05 168.51 <
675 1 10 0 2 389.24 300.05 168.51 <
676 3 -10 -1 -2 467.63 575.12 161.99 o
676 1 -11 1 2 467.63 575.12 161.99 o
677 3 -9 -1 -2 123.23 157.63 66.31 <
677 1 -10 1 2 123.23 157.63 66.31 <
678 3 -8 -1 -2 20.53 51.09 50.01 <
678 1 -9 1 2 20.53 51.09 50.01 <
679 3 -7 -1 -2 100.07 85.88 44.57 <
679 1 -8 1 2 100.07 85.88 44.57 <
680 3 -6 -1 -2 56.50 32.61 39.13 <
680 1 -7 1 2 56.50 32.61 39.13 <
681 3 -5 -1 -2 430.54 464.21 53.27 o
681 1 -6 1 2 430.54 464.21 53.27 o
682 3 -4 -1 -2 2046.43 2428.05 125.10 o
682 1 -5 1 2 2046.43 2428.05 125.10 o
683 3 -3 -1 -2 3965.06 3719.54 128.49 o
683 1 -4 1 2 3965.06 3719.54 128.49 o
684 3 -2 -1 -2 2522.66 2456.55 76.19 o
684 1 -3 1 2 2522.66 2456.55 76.19 o
685 3 -1 -1 -2 47.91 71.75 14.13 o
685 1 -2 1 2 47.91 71.75 14.13 o
686 3 0 -1 -2 254.11 267.47 15.22 o
686 1 -1 1 2 254.11 267.47 15.22 o
687 3 1 -1 -2 225.30 264.22 26.10 o
687 1 0 1 2 225.30 264.22 26.10 o
688 3 2 -1 -2 86.40 66.31 11.96 o
688 1 1 1 2 86.40 66.31 11.96 o
689 3 3 -1 -2 2585.83 2476.04 79.45 o
689 1 2 1 2 2585.83 2476.04 79.45 o
690 3 4 -1 -2 4470.09 4443.65 145.87 o
690 1 3 1 2 4470.09 4443.65 145.87 o
691 3 5 -1 -2 2392.21 2256.96 145.75 o
691 1 4 1 2 2392.21 2256.96 145.75 o
692 3 6 -1 -2 312.97 310.94 69.58 o
692 1 5 1 2 312.97 310.94 69.58 o
693 3 7 -1 -2 8.22 28.26 65.23 <
693 1 6 1 2 8.22 28.26 65.23 <
694 3 8 -1 -2 17.74 55.44 67.40 <
694 1 7 1 2 17.74 55.44 67.40 <
695 3 9 -1 -2 4.50 213.07 98.92 <
695 1 8 1 2 4.50 213.07 98.92 <
696 3 10 -1 -2 279.64 339.17 108.71 o
696 1 9 1 2 279.64 339.17 108.71 o
697 3 11 -1 -2 746.09 775.13 327.23 <
697 1 10 1 2 746.09 775.13 327.23 <
698 3 12 -1 -2 423.35 82.62 69.58 <
698 1 11 1 2 423.35 82.62 69.58 <
699 4 -10 2 -2 134.88 85.88 67.40 <
699 3 -10 -2 -2 134.88 85.88 67.40 <
699 2 -11 -2 2 134.88 85.88 67.40 <
699 1 -11 2 2 134.88 85.88 67.40 <
700 4 -9 2 -2 20173.60 20070.50 942.72 o
700 3 -9 -2 -2 20173.60 20070.50 942.72 o
700 2 -10 -2 2 20173.60 20070.50 942.72 o
700 1 -10 2 2 20173.60 20070.50 942.72 o
701 4 -8 2 -2 54181.90 52517.20 1317.82 o
701 3 -8 -2 -2 54181.90 52517.20 1317.82 o
701 2 -9 -2 2 54181.90 52517.20 1317.82 o
701 1 -9 2 2 54181.90 52517.20 1317.82 o
702 4 -7 2 -2 19701.40 19305.90 764.44 o
702 3 -7 -2 -2 19701.40 19305.90 764.44 o
702 2 -8 -2 2 19701.40 19305.90 764.44 o
702 1 -8 2 2 19701.40 19305.90 764.44 o
703 4 -6 2 -2 36119.80 34391.80 1230.81 o
703 3 -6 -2 -2 36119.80 34391.80 1230.81 o
703 2 -7 -2 2 36119.80 34391.80 1230.81 o
703 1 -7 2 2 36119.80 34391.80 1230.81 o
704 4 -5 2 -2 176753.00 173152.00 2569.00 o
704 3 -5 -2 -2 176753.00 173152.00 2569.00 o
704 2 -6 -2 2 176753.00 173152.00 2569.00 o
704 1 -6 2 2 176753.00 173152.00 2569.00 o
705 4 -4 2 -2 56778.10 58577.80 1329.92 o
705 3 -4 -2 -2 56778.10 58577.80 1329.92 o
705 2 -5 -2 2 56778.10 58577.80 1329.92 o
705 1 -5 2 2 56778.10 58577.80 1329.92 o
706 4 -3 2 -2 44281.50 45745.10 1007.42 o
706 3 -3 -2 -2 44281.50 45745.10 1007.42 o
706 2 -4 -2 2 44281.50 45745.10 1007.42 o
706 1 -4 2 2 44281.50 45745.10 1007.42 o
707 4 -2 2 -2 149302.00 149958.00 1113.59 o
707 3 -2 -2 -2 149302.00 149958.00 1113.59 o
707 2 -3 -2 2 149302.00 149958.00 1113.59 o
707 1 -3 2 2 149302.00 149958.00 1113.59 o
708 4 -1 2 -2 46640.90 48455.00 414.58 o
708 3 -1 -2 -2 46640.90 48455.00 414.58 o
708 2 -2 -2 2 46640.90 48455.00 414.58 o
708 1 -2 2 2 46640.90 48455.00 414.58 o
709 4 0 2 -2 789.95 874.23 40.23 o
709 3 0 -2 -2 789.95 874.23 40.23 o
709 2 -1 -2 2 789.95 874.23 40.23 o
709 1 -1 2 2 789.95 874.23 40.23 o
710 4 1 2 -2 724.29 825.36 39.15 o
710 3 1 -2 -2 724.29 825.36 39.15 o
710 2 0 -2 2 724.29 825.36 39.15 o
710 1 0 2 2 724.29 825.36 39.15 o
711 4 2 2 -2 46119.30 47976.00 372.86 o
711 3 2 -2 -2 46119.30 47976.00 372.86 o
711 2 1 -2 2 46119.30 47976.00 372.86 o
711 1 1 2 2 46119.30 47976.00 372.86 o
712 4 3 2 -2 150280.00 150774.00 1185.77 o
712 3 3 -2 -2 150280.00 150774.00 1185.77 o
712 2 2 -2 2 150280.00 150774.00 1185.77 o
712 1 2 2 2 150280.00 150774.00 1185.77 o
713 4 4 2 -2 44236.60 43756.40 566.74 o
713 3 4 -2 -2 44236.60 43756.40 566.74 o
713 2 3 -2 2 44236.60 43756.40 566.74 o
713 1 3 2 2 44236.60 43756.40 566.74 o
714 4 5 2 -2 56345.90 55674.20 759.93 o
714 3 5 -2 -2 56345.90 55674.20 759.93 o
714 2 4 -2 2 56345.90 55674.20 759.93 o
714 1 4 2 2 56345.90 55674.20 759.93 o
715 4 6 2 -2 175865.00 167445.00 1883.94 o
715 3 6 -2 -2 175865.00 167445.00 1883.94 o
715 2 5 -2 2 175865.00 167445.00 1883.94 o
715 1 5 2 2 175865.00 167445.00 1883.94 o
716 4 7 2 -2 35528.30 35097.40 928.73 o
716 3 7 -2 -2 35528.30 35097.40 928.73 o
716 2 6 -2 2 35528.30 35097.40 928.73 o
716 1 6 2 2 35528.30 35097.40 928.73 o
717 4 8 2 -2 19144.50 19199.90 727.52 o
717 3 8 -2 -2 19144.50 19199.90 727.52 o
717 2 7 -2 2 19144.50 19199.90 727.52 o
717 1 7 2 2 19144.50 19199.90 727.52 o
718 4 9 2 -2 53738.70 54804.40 1297.20 o
718 3 9 -2 -2 53738.70 54804.40 1297.20 o
718 2 8 -2 2 53738.70 54804.40 1297.20 o
718 1 8 2 2 53738.70 54804.40 1297.20 o
719 4 10 2 -2 19562.70 18091.60 1115.96 o
719 3 10 -2 -2 19562.70 18091.60 1115.96 o
719 2 9 -2 2 19562.70 18091.60 1115.96 o
719 1 9 2 2 19562.70 18091.60 1115.96 o
720 3 -10 -3 -2 3364.94 3184.24 290.37 o
720 1 -11 3 2 3364.94 3184.24 290.37 o
721 3 -9 -3 -2 3093.70 2601.58 244.71 o
721 1 -10 3 2 3093.70 2601.58 244.71 o
722 3 -8 -3 -2 1708.02 1699.72 218.58 o
722 1 -9 3 2 1708.02 1699.72 218.58 o
723 3 -7 -3 -2 1508.39 1651.67 179.41 o
723 1 -8 3 2 1508.39 1651.67 179.41 o
724 3 -6 -3 -2 2477.34 2551.64 190.34 o
724 1 -7 3 2 2477.34 2551.64 190.34 o
725 3 -5 -3 -2 5759.71 6144.59 246.04 o
725 1 -6 3 2 5759.71 6144.59 246.04 o
726 3 -4 -3 -2 13319.50 13353.90 297.82 o
726 1 -5 3 2 13319.50 13353.90 297.82 o
727 3 -3 -3 -2 17701.70 17965.20 305.05 o
727 1 -4 3 2 17701.70 17965.20 305.05 o
728 3 -2 -3 -2 15283.80 14685.40 222.07 o
728 1 -3 3 2 15283.80 14685.40 222.07 o
729 3 -1 -3 -2 9674.66 9339.08 155.10 o
729 1 -2 3 2 9674.66 9339.08 155.10 o
730 3 0 -3 -2 3883.74 3607.08 91.51 o
730 1 -1 3 2 3883.74 3607.08 91.51 o
731 3 1 -3 -2 3975.57 3880.26 101.31 o
731 1 0 3 2 3975.57 3880.26 101.31 o
732 3 2 -3 -2 10068.10 9776.82 172.54 o
732 1 1 3 2 10068.10 9776.82 172.54 o
733 3 3 -3 -2 16152.60 15588.50 253.68 o
733 1 2 3 2 16152.60 15588.50 253.68 o
734 3 4 -3 -2 18195.20 17515.30 314.82 o
734 1 3 3 2 18195.20 17515.30 314.82 o
735 3 5 -3 -2 13493.80 12972.30 287.98 o
735 1 4 3 2 13493.80 12972.30 287.98 o
736 3 6 -3 -2 6656.84 6367.21 242.72 o
736 1 5 3 2 6656.84 6367.21 242.72 o
737 3 7 -3 -2 2802.05 3073.47 242.53 o
737 1 6 3 2 2802.05 3073.47 242.53 o
738 3 8 -3 -2 1483.88 1315.69 165.28 o
738 1 7 3 2 1483.88 1315.69 165.28 o
739 3 9 -3 -2 2401.90 2351.89 226.16 o
739 1 8 3 2 2401.90 2351.89 226.16 o
740 3 10 -3 -2 3707.52 3769.29 356.70 o
740 1 9 3 2 3707.52 3769.29 356.70 o
741 3 11 -3 -2 3302.48 3871.58 568.77 o
741 1 10 3 2 3302.48 3871.58 568.77 o
742 3 -10 -4 -2 124.67 101.10 151.11 <
742 1 -11 4 2 124.67 101.10 151.11 <
743 3 -9 -4 -2 361.25 354.40 105.45 o
743 1 -10 4 2 361.25 354.40 105.45 o
744 3 -8 -4 -2 416.37 482.70 114.15 o
744 1 -9 4 2 416.37 482.70 114.15 o
745 3 -7 -4 -2 200.69 194.59 66.31 <
745 1 -8 4 2 200.69 194.59 66.31 <
746 3 -6 -4 -2 83.07 122.84 65.22 <
746 1 -7 4 2 83.07 122.84 65.22 <
747 3 -5 -4 -2 605.55 678.43 86.98 o
747 1 -6 4 2 605.55 678.43 86.98 o
748 3 -4 -4 -2 171.53 232.64 47.83 o
748 1 -5 4 2 171.53 232.64 47.83 o
749 3 -3 -4 -2 3.69 89.14 29.35 o
749 1 -4 4 2 3.69 89.14 29.35 o
750 3 -2 -4 -2 134.55 201.12 36.96 o
750 1 -3 4 2 134.55 201.12 36.96 o
751 3 -1 -4 -2 115.59 231.55 33.70 o
751 1 -2 4 2 115.59 231.55 33.70 o
752 3 0 -4 -2 27.46 156.54 31.53 o
752 1 -1 4 2 27.46 156.54 31.53 o
753 3 1 -4 -2 50.84 171.76 31.53 o
753 1 0 4 2 50.84 171.76 31.53 o
754 3 2 -4 -2 86.58 242.43 42.40 o
754 1 1 4 2 86.58 242.43 42.40 o
755 3 3 -4 -2 109.31 88.06 39.14 <
755 1 2 4 2 109.31 88.06 39.14 <
756 3 4 -4 -2 3.76 77.18 39.13 <
756 1 3 4 2 3.76 77.18 39.13 <
757 3 5 -4 -2 71.28 116.32 41.31 <
757 1 4 4 2 71.28 116.32 41.31 <
758 3 6 -4 -2 664.69 728.43 92.41 o
758 1 5 4 2 664.69 728.43 92.41 o
759 3 7 -4 -2 34.93 79.36 48.92 <
759 1 6 4 2 34.93 79.36 48.92 <
760 3 8 -4 -2 185.42 372.88 104.36 o
760 1 7 4 2 185.42 372.88 104.36 o
761 3 9 -4 -2 511.48 380.50 122.85 o
761 1 8 4 2 511.48 380.50 122.85 o
762 3 10 -4 -2 276.37 209.82 106.54 <
762 1 9 4 2 276.37 209.82 106.54 <
763 3 11 -4 -2 215.07 221.77 105.45 <
763 1 10 4 2 215.07 221.77 105.45 <
764 3 -10 -5 -2 13.31 77.18 193.50 <
764 1 -11 5 2 13.31 77.18 193.50 <
765 3 -9 -5 -2 40.60 46.74 67.40 <
765 1 -10 5 2 40.60 46.74 67.40 <
766 3 -8 -5 -2 885.22 861.00 134.80 o
766 1 -9 5 2 885.22 861.00 134.80 o
767 3 -7 -5 -2 1327.52 1192.77 144.61 o
767 1 -8 5 2 1327.52 1192.77 144.61 o
768 3 -6 -5 -2 1022.84 1026.43 115.26 o
768 1 -7 5 2 1022.84 1026.43 115.26 o
769 3 -5 -5 -2 569.44 497.90 75.01 o
769 1 -6 5 2 569.44 497.90 75.01 o
770 3 -4 -5 -2 0.59 -22.83 28.26 <
770 1 -5 5 2 0.59 -22.83 28.26 <
771 3 -3 -5 -2 31.64 57.62 32.61 <
771 1 -4 5 2 31.64 57.62 32.61 <
772 3 -2 -5 -2 103.35 130.45 41.31 o
772 1 -3 5 2 103.35 130.45 41.31 o
773 3 -1 -5 -2 1065.17 1001.54 79.38 o
773 1 -2 5 2 1065.17 1001.54 79.38 o
774 3 0 -5 -2 4023.00 3835.27 164.38 o
774 1 -1 5 2 4023.00 3835.27 164.38 o
775 3 1 -5 -2 4001.69 3787.40 191.60 o
775 1 0 5 2 4001.69 3787.40 191.60 o
776 3 2 -5 -2 1028.83 1068.98 72.86 o
776 1 1 5 2 1028.83 1068.98 72.86 o
777 3 3 -5 -2 38.76 30.44 20.66 <
777 1 2 5 2 38.76 30.44 20.66 <
778 3 4 -5 -2 20.41 13.05 41.31 <
778 1 3 5 2 20.41 13.05 41.31 <
779 3 5 -5 -2 0.86 78.27 48.92 <
779 1 4 5 2 0.86 78.27 48.92 <
780 3 6 -5 -2 279.14 221.79 68.49 o
780 1 5 5 2 279.14 221.79 68.49 o
781 3 7 -5 -2 1278.26 1087.26 131.56 o
781 1 6 5 2 1278.26 1087.26 131.56 o
782 3 8 -5 -2 1366.49 1460.24 190.28 o
782 1 7 5 2 1366.49 1460.24 190.28 o
783 3 9 -5 -2 411.86 410.97 120.68 o
783 1 8 5 2 411.86 410.97 120.68 o
784 3 10 -5 -2 97.32 18.48 96.75 <
784 1 9 5 2 97.32 18.48 96.75 <
785 3 11 -5 -2 6.71 -117.40 114.14 <
785 1 10 5 2 6.71 -117.40 114.14 <
786 4 -9 2 -6 342.53 134.80 140.24 <
786 3 -10 -6 -2 342.53 134.80 140.24 <
786 2 -12 -2 6 342.53 134.80 140.24 <
786 1 -11 6 2 342.53 134.80 140.24 <
787 4 -8 2 -6 14785.50 14331.50 1090.29 o
787 3 -9 -6 -2 14785.50 14331.50 1090.29 o
787 2 -11 -2 6 14785.50 14331.50 1090.29 o
787 1 -10 6 2 14785.50 14331.50 1090.29 o
788 4 -7 2 -6 48123.80 48165.30 1936.69 o
788 3 -8 -6 -2 48123.80 48165.30 1936.69 o
788 2 -10 -2 6 48123.80 48165.30 1936.69 o
788 1 -9 6 2 48123.80 48165.30 1936.69 o
789 4 -6 2 -6 13173.00 15124.80 1033.79 o
789 3 -7 -6 -2 13173.00 15124.80 1033.79 o
789 2 -9 -2 6 13173.00 15124.80 1033.79 o
789 1 -8 6 2 13173.00 15124.80 1033.79 o
790 4 -5 2 -6 25042.50 24922.40 1217.96 o
790 3 -6 -6 -2 25042.50 24922.40 1217.96 o
790 2 -8 -2 6 25042.50 24922.40 1217.96 o
790 1 -7 6 2 25042.50 24922.40 1217.96 o
791 4 -4 2 -6 141476.00 140091.00 2630.42 o
791 3 -5 -6 -2 141476.00 140091.00 2630.42 o
791 2 -7 -2 6 141476.00 140091.00 2630.42 o
791 1 -6 6 2 141476.00 140091.00 2630.42 o
792 4 -3 2 -6 37369.80 38970.40 1266.19 o
792 3 -4 -6 -2 37369.80 38970.40 1266.19 o
792 2 -6 -2 6 37369.80 38970.40 1266.19 o
792 1 -5 6 2 37369.80 38970.40 1266.19 o
793 4 -2 2 -6 26904.90 27829.10 964.40 o
793 3 -3 -6 -2 26904.90 27829.10 964.40 o
793 2 -5 -2 6 26904.90 27829.10 964.40 o
793 1 -4 6 2 26904.90 27829.10 964.40 o
794 4 -1 2 -6 109822.00 112994.00 1772.21 o
794 3 -2 -6 -2 109822.00 112994.00 1772.21 o
794 2 -4 -2 6 109822.00 112994.00 1772.21 o
794 1 -3 6 2 109822.00 112994.00 1772.21 o
795 4 0 2 -6 25776.40 27375.40 785.86 o
795 3 -1 -6 -2 25776.40 27375.40 785.86 o
795 2 -3 -2 6 25776.40 27375.40 785.86 o
795 1 -2 6 2 25776.40 27375.40 785.86 o
796 4 1 2 -6 1368.20 1820.02 154.39 o
796 3 0 -6 -2 1368.20 1820.02 154.39 o
796 2 -2 -2 6 1368.20 1820.02 154.39 o
796 1 -1 6 2 1368.20 1820.02 154.39 o
797 4 2 2 -6 1235.90 1949.68 176.16 o
797 3 1 -6 -2 1235.90 1949.68 176.16 o
797 2 -1 -2 6 1235.90 1949.68 176.16 o
797 1 0 6 2 1235.90 1949.68 176.16 o
798 4 3 2 -6 26602.30 26938.10 502.07 o
798 3 2 -6 -2 26602.30 26938.10 502.07 o
798 2 0 -2 6 26602.30 26938.10 502.07 o
798 1 1 6 2 26602.30 26938.10 502.07 o
799 4 4 2 -6 108272.00 106872.00 760.59 o
799 3 3 -6 -2 108272.00 106872.00 760.59 o
799 2 1 -2 6 108272.00 106872.00 760.59 o
799 1 2 6 2 108272.00 106872.00 760.59 o
800 4 5 2 -6 27392.40 27205.10 742.79 o
800 3 4 -6 -2 27392.40 27205.10 742.79 o
800 2 2 -2 6 27392.40 27205.10 742.79 o
800 1 3 6 2 27392.40 27205.10 742.79 o
801 4 6 2 -6 37370.10 38070.90 953.11 o
801 3 5 -6 -2 37370.10 38070.90 953.11 o
801 2 3 -2 6 37370.10 38070.90 953.11 o
801 1 4 6 2 37370.10 38070.90 953.11 o
802 4 7 2 -6 140703.00 143240.00 2034.68 o
802 3 6 -6 -2 140703.00 143240.00 2034.68 o
802 2 4 -2 6 140703.00 143240.00 2034.68 o
802 1 5 6 2 140703.00 143240.00 2034.68 o
803 4 8 2 -6 25440.70 24693.00 910.88 o
803 3 7 -6 -2 25440.70 24693.00 910.88 o
803 2 5 -2 6 25440.70 24693.00 910.88 o
803 1 6 6 2 25440.70 24693.00 910.88 o
804 4 9 2 -6 13720.00 13583.00 732.42 o
804 3 8 -6 -2 13720.00 13583.00 732.42 o
804 2 6 -2 6 13720.00 13583.00 732.42 o
804 1 7 6 2 13720.00 13583.00 732.42 o
805 4 10 2 -6 46296.30 45827.50 1427.20 o
805 3 9 -6 -2 46296.30 45827.50 1427.20 o
805 2 7 -2 6 46296.30 45827.50 1427.20 o
805 1 8 6 2 46296.30 45827.50 1427.20 o
806 4 11 2 -6 15360.90 14202.50 832.50 o
806 3 10 -6 -2 15360.90 14202.50 832.50 o
806 2 8 -2 6 15360.90 14202.50 832.50 o
806 1 9 6 2 15360.90 14202.50 832.50 o
807 4 12 2 -6 279.34 545.72 255.47 <
807 3 11 -6 -2 279.34 545.72 255.47 <
807 2 9 -2 6 279.34 545.72 255.47 <
807 1 10 6 2 279.34 545.72 255.47 <
808 3 -9 -7 -2 5777.13 6630.32 540.65 o
808 1 -10 7 2 5777.13 6630.32 540.65 o
809 3 -8 -7 -2 4999.74 5182.50 465.60 o
809 1 -9 7 2 4999.74 5182.50 465.60 o
810 3 -7 -7 -2 4351.35 4451.85 340.52 o
810 1 -8 7 2 4351.35 4451.85 340.52 o
811 3 -6 -7 -2 6261.14 6556.05 387.38 o
811 1 -7 7 2 6261.14 6556.05 387.38 o
812 3 -5 -7 -2 11605.60 11862.70 484.75 o
812 1 -6 7 2 11605.60 11862.70 484.75 o
813 3 -4 -7 -2 18767.50 18568.60 475.78 o
813 1 -5 7 2 18767.50 18568.60 475.78 o
814 3 -3 -7 -2 25074.40 24340.30 443.76 o
814 1 -4 7 2 25074.40 24340.30 443.76 o
815 3 -2 -7 -2 22864.20 22313.90 409.88 o
815 1 -3 7 2 22864.20 22313.90 409.88 o
816 3 -1 -7 -2 14444.70 14596.00 380.80 o
816 1 -2 7 2 14444.70 14596.00 380.80 o
817 3 0 -7 -2 10839.30 10614.20 294.35 o
817 1 -1 7 2 10839.30 10614.20 294.35 o
818 3 1 -7 -2 11016.20 10851.20 293.25 o
818 1 0 7 2 11016.20 10851.20 293.25 o
819 3 2 -7 -2 14848.60 13869.70 440.76 o
819 1 1 7 2 14848.60 13869.70 440.76 o
820 3 3 -7 -2 23375.50 22312.50 358.45 o
820 1 2 7 2 23375.50 22312.50 358.45 o
821 3 4 -7 -2 25642.90 24936.20 571.55 o
821 1 3 7 2 25642.90 24936.20 571.55 o
822 3 5 -7 -2 19874.30 19419.70 532.38 o
822 1 4 7 2 19874.30 19419.70 532.38 o
823 3 6 -7 -2 11946.20 11660.20 501.05 o
823 1 5 7 2 11946.20 11660.20 501.05 o
824 3 7 -7 -2 6313.13 6316.58 394.99 o
824 1 6 7 2 6313.13 6316.58 394.99 o
825 3 8 -7 -2 5459.30 5492.97 391.58 o
825 1 7 7 2 5459.30 5492.97 391.58 o
826 3 9 -7 -2 5393.97 5251.77 401.39 o
826 1 8 7 2 5393.97 5251.77 401.39 o
827 3 10 -7 -2 5693.10 5737.28 434.05 o
827 1 9 7 2 5693.10 5737.28 434.05 o
828 3 -9 -8 -2 2.99 383.74 378.30 <
828 1 -10 8 2 2.99 383.74 378.30 <
829 3 -8 -8 -2 13.66 48.92 76.10 <
829 1 -9 8 2 13.66 48.92 76.10 <
830 3 -7 -8 -2 570.15 711.01 164.16 o
830 1 -8 8 2 570.15 711.01 164.16 o
831 3 -6 -8 -2 446.33 534.87 118.50 o
831 1 -7 8 2 446.33 534.87 118.50 o
832 3 -5 -8 -2 2.06 36.96 53.27 <
832 1 -6 8 2 2.06 36.96 53.27 <
833 3 -4 -8 -2 168.10 173.94 57.62 o
833 1 -5 8 2 168.10 173.94 57.62 o
834 3 -3 -8 -2 762.67 796.90 86.97 o
834 1 -4 8 2 762.67 796.90 86.97 o
835 3 -2 -8 -2 262.47 332.66 55.44 o
835 1 -3 8 2 262.47 332.66 55.44 o
836 3 -1 -8 -2 167.41 186.99 59.79 o
836 1 -2 8 2 167.41 186.99 59.79 o
837 3 0 -8 -2 247.32 188.07 50.01 o
837 1 -1 8 2 247.32 188.07 50.01 o
838 3 1 -8 -2 210.22 271.78 55.44 o
838 1 0 8 2 210.22 271.78 55.44 o
839 3 2 -8 -2 187.13 265.26 68.49 o
839 1 1 8 2 187.13 265.26 68.49 o
840 3 3 -8 -2 206.61 318.53 97.84 o
840 1 2 8 2 206.61 318.53 97.84 o
841 3 4 -8 -2 518.92 533.84 91.33 o
841 1 3 8 2 518.92 533.84 91.33 o
842 3 5 -8 -2 155.30 120.67 55.44 <
842 1 4 8 2 155.30 120.67 55.44 <
843 3 6 -8 -2 11.98 100.01 69.57 <
843 1 5 8 2 11.98 100.01 69.57 <
844 3 7 -8 -2 408.77 415.29 114.15 o
844 1 6 8 2 408.77 415.29 114.15 o
845 3 8 -8 -2 649.56 769.71 175.03 o
845 1 7 8 2 649.56 769.71 175.03 o
846 3 9 -8 -2 42.80 4.35 105.45 <
846 1 8 8 2 42.80 4.35 105.45 <
847 3 10 -8 -2 17.81 -30.44 57.62 <
847 1 9 8 2 17.81 -30.44 57.62 <
848 3 -8 -9 -2 325.29 462.05 129.37 o
848 1 -9 9 2 325.29 462.05 129.37 o
849 3 -7 -9 -2 899.11 1027.39 207.65 o
849 1 -8 9 2 899.11 1027.39 207.65 o
850 3 -6 -9 -2 1140.84 974.12 156.55 o
850 1 -7 9 2 1140.84 974.12 156.55 o
851 3 -5 -9 -2 297.37 524.02 118.50 o
851 1 -6 9 2 297.37 524.02 118.50 o
852 3 -4 -9 -2 91.19 175.02 76.10 <
852 1 -5 9 2 91.19 175.02 76.10 <
853 3 -3 -9 -2 9.74 119.58 60.88 <
853 1 -4 9 2 9.74 119.58 60.88 <
854 3 -2 -9 -2 114.83 172.85 55.44 o
854 1 -3 9 2 114.83 172.85 55.44 o
855 3 -1 -9 -2 1235.43 1328.69 137.00 o
855 1 -2 9 2 1235.43 1328.69 137.00 o
856 3 0 -9 -2 1977.69 2016.20 147.90 o
856 1 -1 9 2 1977.69 2016.20 147.90 o
857 3 1 -9 -2 1887.87 1831.37 139.20 o
857 1 0 9 2 1887.87 1831.37 139.20 o
858 3 2 -9 -2 1109.44 1178.68 116.35 o
858 1 1 9 2 1109.44 1178.68 116.35 o
859 3 3 -9 -2 173.92 220.68 79.36 <
859 1 2 9 2 173.92 220.68 79.36 <
860 3 4 -9 -2 1.37 -8.70 48.92 <
860 1 3 9 2 1.37 -8.70 48.92 <
861 3 5 -9 -2 56.68 104.36 70.66 <
861 1 4 9 2 56.68 104.36 70.66 <
862 3 6 -9 -2 591.59 669.66 142.41 o
862 1 5 9 2 591.59 669.66 142.41 o
863 3 7 -9 -2 776.63 938.30 169.61 o
863 1 6 9 2 776.63 938.30 169.61 o
864 3 8 -9 -2 804.23 682.77 140.25 o
864 1 7 9 2 804.23 682.77 140.25 o
865 3 9 -9 -2 652.67 680.53 153.28 o
865 1 8 9 2 652.67 680.53 153.28 o
866 3 10 -9 -2 93.82 -61.97 59.79 <
866 1 9 9 2 93.82 -61.97 59.79 <
867 4 -5 2 -10 11170.80 11876.40 1021.43 o
867 3 -7 -10 -2 11170.80 11876.40 1021.43 o
867 2 -10 -2 10 11170.80 11876.40 1021.43 o
867 1 -8 10 2 11170.80 11876.40 1021.43 o
868 4 -4 2 -10 19857.60 20395.10 1252.79 o
868 3 -6 -10 -2 19857.60 20395.10 1252.79 o
868 2 -9 -2 10 19857.60 20395.10 1252.79 o
868 1 -7 10 2 19857.60 20395.10 1252.79 o
869 4 -3 2 -10 81956.90 83821.80 2359.27 o
869 3 -5 -10 -2 81956.90 83821.80 2359.27 o
869 2 -8 -2 10 81956.90 83821.80 2359.27 o
869 1 -6 10 2 81956.90 83821.80 2359.27 o
870 4 -2 2 -10 27737.30 29201.80 1299.62 o
870 3 -4 -10 -2 27737.30 29201.80 1299.62 o
870 2 -7 -2 10 27737.30 29201.80 1299.62 o
870 1 -5 10 2 27737.30 29201.80 1299.62 o
871 4 -1 2 -10 19519.10 22029.90 1039.92 o
871 3 -3 -10 -2 19519.10 22029.90 1039.92 o
871 2 -6 -2 10 19519.10 22029.90 1039.92 o
871 1 -4 10 2 19519.10 22029.90 1039.92 o
872 4 0 2 -10 54961.80 54087.10 1530.58 o
872 3 -2 -10 -2 54961.80 54087.10 1530.58 o
872 2 -5 -2 10 54961.80 54087.10 1530.58 o
872 1 -3 10 2 54961.80 54087.10 1530.58 o
873 4 1 2 -10 19806.40 19384.90 854.80 o
873 3 -1 -10 -2 19806.40 19384.90 854.80 o
873 2 -4 -2 10 19806.40 19384.90 854.80 o
873 1 -2 10 2 19806.40 19384.90 854.80 o
874 4 2 2 -10 184.36 339.17 127.19 <
874 3 0 -10 -2 184.36 339.17 127.19 <
874 2 -3 -2 10 184.36 339.17 127.19 <
874 1 -1 10 2 184.36 339.17 127.19 <
875 4 3 2 -10 212.39 175.02 67.40 <
875 3 1 -10 -2 212.39 175.02 67.40 <
875 2 -2 -2 10 212.39 175.02 67.40 <
875 1 0 10 2 212.39 175.02 67.40 <
876 4 4 2 -10 18943.80 19462.70 565.20 o
876 3 2 -10 -2 18943.80 19462.70 565.20 o
876 2 -1 -2 10 18943.80 19462.70 565.20 o
876 1 1 10 2 18943.80 19462.70 565.20 o
877 4 5 2 -10 56236.40 57245.80 1190.48 o
877 3 3 -10 -2 56236.40 57245.80 1190.48 o
877 2 0 -2 10 56236.40 57245.80 1190.48 o
877 1 2 10 2 56236.40 57245.80 1190.48 o
878 4 6 2 -10 19219.80 18616.40 917.86 o
878 3 4 -10 -2 19219.80 18616.40 917.86 o
878 2 1 -2 10 19219.80 18616.40 917.86 o
878 1 3 10 2 19219.80 18616.40 917.86 o
879 4 7 2 -10 27768.50 28834.90 993.67 o
879 3 5 -10 -2 27768.50 28834.90 993.67 o
879 2 2 -2 10 27768.50 28834.90 993.67 o
879 1 4 10 2 27768.50 28834.90 993.67 o
880 4 8 2 -10 81865.30 83990.10 1799.43 o
880 3 6 -10 -2 81865.30 83990.10 1799.43 o
880 2 3 -2 10 81865.30 83990.10 1799.43 o
880 1 5 10 2 81865.30 83990.10 1799.43 o
881 4 9 2 -10 19473.60 19867.50 920.98 o
881 3 7 -10 -2 19473.60 19867.50 920.98 o
881 2 4 -2 10 19473.60 19867.50 920.98 o
881 1 6 10 2 19473.60 19867.50 920.98 o
882 4 10 2 -10 10544.10 11125.30 741.98 o
882 3 8 -10 -2 10544.10 11125.30 741.98 o
882 2 5 -2 10 10544.10 11125.30 741.98 o
882 1 7 10 2 10544.10 11125.30 741.98 o
883 4 11 2 -10 29909.80 30909.10 1479.23 o
883 3 9 -10 -2 29909.80 30909.10 1479.23 o
883 2 6 -2 10 29909.80 30909.10 1479.23 o
883 1 8 10 2 29909.80 30909.10 1479.23 o
884 3 -7 -11 -2 3367.43 1962.92 619.87 o
884 1 -8 11 2 3367.43 1962.92 619.87 o
885 3 -6 -11 -2 4200.24 4791.77 446.00 o
885 1 -7 11 2 4200.24 4791.77 446.00 o
886 3 -5 -11 -2 7534.76 7651.15 528.87 o
886 1 -6 11 2 7534.76 7651.15 528.87 o
887 3 -4 -11 -2 12603.20 12742.30 541.23 o
887 1 -5 11 2 12603.20 12742.30 541.23 o
888 3 -3 -11 -2 14647.80 14436.70 612.33 o
888 1 -4 11 2 14647.80 14436.70 612.33 o
889 3 -2 -11 -2 13077.40 13445.80 488.03 o
889 1 -3 11 2 13077.40 13445.80 488.03 o
890 3 -1 -11 -2 9805.52 9242.91 447.50 o
890 1 -2 11 2 9805.52 9242.91 447.50 o
891 3 0 -11 -2 6097.13 5820.52 343.86 o
891 1 -1 11 2 6097.13 5820.52 343.86 o
892 3 1 -11 -2 6098.36 6212.26 287.27 o
892 1 0 11 2 6098.36 6212.26 287.27 o
893 3 2 -11 -2 9971.63 9733.62 370.18 o
893 1 1 11 2 9971.63 9733.62 370.18 o
894 3 3 -11 -2 13431.50 13482.90 510.86 o
894 1 2 11 2 13431.50 13482.90 510.86 o
895 3 4 -11 -2 15330.30 15318.30 519.65 o
895 1 3 11 2 15330.30 15318.30 519.65 o
896 3 5 -11 -2 12550.30 13064.80 641.42 o
896 1 4 11 2 12550.30 13064.80 641.42 o
897 3 6 -11 -2 7726.93 7810.84 471.17 o
897 1 5 11 2 7726.93 7810.84 471.17 o
898 3 7 -11 -2 5125.27 4997.68 390.46 o
898 1 6 11 2 5125.27 4997.68 390.46 o
899 3 8 -11 -2 3160.45 2908.04 441.53 o
899 1 7 11 2 3160.45 2908.04 441.53 o
900 3 9 -11 -2 3655.03 3348.45 639.46 o
900 1 8 11 2 3655.03 3348.45 639.46 o
901 3 -6 -12 -2 84.30 297.86 159.80 <
901 1 -7 12 2 84.30 297.86 159.80 <
902 3 -5 -12 -2 836.42 1155.66 260.92 o
902 1 -6 12 2 836.42 1155.66 260.92 o
903 3 -4 -12 -2 561.95 441.37 110.89 o
903 1 -5 12 2 561.95 441.37 110.89 o
904 3 -3 -12 -2 216.85 296.78 77.18 o
904 1 -4 12 2 216.85 296.78 77.18 o
905 3 -2 -12 -2 476.47 385.93 125.02 o
905 1 -3 12 2 476.47 385.93 125.02 o
906 3 -1 -12 -2 534.13 584.88 109.80 o
906 1 -2 12 2 534.13 584.88 109.80 o
907 3 0 -12 -2 340.28 562.05 116.32 o
907 1 -1 12 2 340.28 562.05 116.32 o
908 3 1 -12 -2 365.10 337.01 72.84 o
908 1 0 12 2 365.10 337.01 72.84 o
909 3 2 -12 -2 443.70 465.31 102.19 o
909 1 1 12 2 443.70 465.31 102.19 o
910 3 3 -12 -2 378.04 363.11 96.76 o
910 1 2 12 2 378.04 363.11 96.76 o
911 3 4 -12 -2 161.33 160.89 65.23 <
911 1 3 12 2 161.33 160.89 65.23 <
912 3 5 -12 -2 333.71 152.20 89.15 <
912 1 4 12 2 333.71 152.20 89.15 <
913 3 6 -12 -2 708.25 877.36 200.04 o
913 1 5 12 2 708.25 877.36 200.04 o
914 3 7 -12 -2 57.45 295.69 134.80 <
914 1 6 12 2 57.45 295.69 134.80 <
915 3 8 -12 -2 3.46 -117.40 132.62 <
915 1 7 12 2 3.46 -117.40 132.62 <
916 3 -5 -13 -2 59.71 -94.58 94.58 <
916 1 -6 13 2 59.71 -94.58 94.58 <
917 3 -4 -13 -2 32.93 168.50 153.28 <
917 1 -5 13 2 32.93 168.50 153.28 <
918 3 -3 -13 -2 47.23 181.54 77.18 <
918 1 -4 13 2 47.23 181.54 77.18 <
919 3 -2 -13 -2 2.41 -16.31 44.57 <
919 1 -3 13 2 2.41 -16.31 44.57 <
920 3 -1 -13 -2 35.43 134.80 71.75 <
920 1 -2 13 2 35.43 134.80 71.75 <
921 3 0 -13 -2 332.54 458.77 103.28 o
921 1 -1 13 2 332.54 458.77 103.28 o
922 3 1 -13 -2 367.69 290.26 72.84 o
922 1 0 13 2 367.69 290.26 72.84 o
923 3 2 -13 -2 51.03 186.98 63.05 <
923 1 1 13 2 51.03 186.98 63.05 <
924 3 3 -13 -2 11.97 11.96 80.44 <
924 1 2 13 2 11.97 11.96 80.44 <
925 3 4 -13 -2 20.47 22.83 64.14 <
925 1 3 13 2 20.47 22.83 64.14 <
926 3 5 -13 -2 7.80 36.96 109.79 <
926 1 4 13 2 7.80 36.96 109.79 <
927 3 6 -13 -2 8.03 123.93 108.71 <
927 1 5 13 2 8.03 123.93 108.71 <
928 3 7 -13 -2 210.02 -22.83 176.11 <
928 1 6 13 2 210.02 -22.83 176.11 <
929 4 -1 2 -14 13754.30 13411.30 1323.94 o
929 3 -4 -14 -2 13754.30 13411.30 1323.94 o
929 2 -8 -2 14 13754.30 13411.30 1323.94 o
929 1 -5 14 2 13754.30 13411.30 1323.94 o
930 4 0 2 -14 7934.05 8350.73 771.12 o
930 3 -3 -14 -2 7934.05 8350.73 771.12 o
930 2 -7 -2 14 7934.05 8350.73 771.12 o
930 1 -4 14 2 7934.05 8350.73 771.12 o
931 4 1 2 -14 33934.80 33998.50 1472.84 o
931 3 -2 -14 -2 33934.80 33998.50 1472.84 o
931 2 -6 -2 14 33934.80 33998.50 1472.84 o
931 1 -3 14 2 33934.80 33998.50 1472.84 o
932 4 2 2 -14 9381.33 9220.08 726.56 o
932 3 -1 -14 -2 9381.33 9220.08 726.56 o
932 2 -5 -2 14 9381.33 9220.08 726.56 o
932 1 -2 14 2 9381.33 9220.08 726.56 o
933 4 3 2 -14 592.36 601.16 192.41 o
933 3 0 -14 -2 592.36 601.16 192.41 o
933 2 -4 -2 14 592.36 601.16 192.41 o
933 1 -1 14 2 592.36 601.16 192.41 o
934 4 4 2 -14 539.34 458.77 164.16 <
934 3 1 -14 -2 539.34 458.77 164.16 <
934 2 -3 -2 14 539.34 458.77 164.16 <
934 1 0 14 2 539.34 458.77 164.16 <
935 4 5 2 -14 9909.15 9535.71 603.66 o
935 3 2 -14 -2 9909.15 9535.71 603.66 o
935 2 -2 -2 14 9909.15 9535.71 603.66 o
935 1 1 14 2 9909.15 9535.71 603.66 o
936 4 6 2 -14 33080.00 32641.40 1123.01 o
936 3 3 -14 -2 33080.00 32641.40 1123.01 o
936 2 -1 -2 14 33080.00 32641.40 1123.01 o
936 1 2 14 2 33080.00 32641.40 1123.01 o
937 4 7 2 -14 8015.67 8050.15 717.79 o
937 3 4 -14 -2 8015.67 8050.15 717.79 o
937 2 0 -2 14 8015.67 8050.15 717.79 o
937 1 3 14 2 8015.67 8050.15 717.79 o
938 4 8 2 -14 13488.70 13454.00 1232.69 o
938 3 5 -14 -2 13488.70 13454.00 1232.69 o
938 2 1 -2 14 13488.70 13454.00 1232.69 o
938 1 4 14 2 13488.70 13454.00 1232.69 o
939 4 9 2 -14 50190.50 49996.40 2444.60 o
939 3 6 -14 -2 50190.50 49996.40 2444.60 o
939 2 2 -2 14 50190.50 49996.40 2444.60 o
939 1 5 14 2 50190.50 49996.40 2444.60 o
940 3 -3 -15 -2 4253.88 4273.21 551.42 o
940 1 -4 15 2 4253.88 4273.21 551.42 o
941 3 -2 -15 -2 3420.04 3468.16 400.21 o
941 1 -3 15 2 3420.04 3468.16 400.21 o
942 3 -1 -15 -2 1632.73 1976.72 289.22 o
942 1 -2 15 2 1632.73 1976.72 289.22 o
943 3 0 -15 -2 1022.19 1082.87 222.88 o
943 1 -1 15 2 1022.19 1082.87 222.88 o
944 3 1 -15 -2 1061.34 1057.86 227.23 o
944 1 0 15 2 1061.34 1057.86 227.23 o
945 3 2 -15 -2 1711.21 1527.64 221.81 o
945 1 1 15 2 1711.21 1527.64 221.81 o
946 3 3 -15 -2 3529.04 3453.97 356.71 o
946 1 2 15 2 3529.04 3453.97 356.71 o
947 3 4 -15 -2 4134.08 4485.37 745.02 o
947 1 3 15 2 4134.08 4485.37 745.02 o
948 3 -1 -16 -2 286.63 469.63 261.99 <
948 1 -2 16 2 286.63 469.63 261.99 <
949 3 1 -16 -2 345.17 -32.61 147.85 <
949 1 0 16 2 345.17 -32.61 147.85 <
950 3 2 -16 -2 262.18 167.41 163.07 <
950 1 1 16 2 262.18 167.41 163.07 <
951 4 -7 3 15 538.37 302.22 240.26 <
951 1 -4 -15 3 538.37 302.22 240.26 <
952 4 -6 3 15 261.01 388.10 223.95 <
952 1 -3 -15 3 261.01 388.10 223.95 <
953 4 -3 3 15 96.60 108.71 141.32 <
953 1 0 -15 3 96.60 108.71 141.32 <
954 4 -2 3 15 142.94 297.86 147.84 <
954 1 1 -15 3 142.94 297.86 147.84 <
955 4 -1 3 15 3027.73 2723.77 740.47 o
955 1 2 -15 3 3027.73 2723.77 740.47 o
956 2 -2 -3 -13 1625.20 1928.67 600.13 o
956 1 -6 -13 3 1625.20 1928.67 600.13 o
957 2 -1 -3 -13 396.78 573.99 351.14 <
957 1 -5 -13 3 396.78 573.99 351.14 <
958 2 0 -3 -13 422.82 642.48 352.23 <
958 1 -4 -13 3 422.82 642.48 352.23 <
959 2 1 -3 -13 190.59 163.06 211.98 <
959 1 -3 -13 3 190.59 163.06 211.98 <
960 2 2 -3 -13 31.82 160.89 125.01 <
960 1 -2 -13 3 31.82 160.89 125.01 <
961 2 3 -3 -13 31.50 -157.63 180.46 <
961 1 -1 -13 3 31.50 -157.63 180.46 <
962 2 4 -3 -13 16.47 -89.14 130.45 <
962 1 0 -13 3 16.47 -89.14 130.45 <
963 2 5 -3 -13 10.25 129.36 129.36 <
963 1 1 -13 3 10.25 129.36 129.36 <
964 2 6 -3 -13 124.18 113.06 103.27 <
964 1 2 -13 3 124.18 113.06 103.27 <
965 2 7 -3 -13 722.13 969.75 294.62 o
965 1 3 -13 3 722.13 969.75 294.62 o
966 2 8 -3 -13 1370.40 1003.51 292.46 o
966 1 4 -13 3 1370.40 1003.51 292.46 o
967 4 -10 3 11 104.04 91.32 117.41 <
967 1 -8 -11 3 104.04 91.32 117.41 <
968 4 -9 3 11 50.66 28.26 119.58 <
968 1 -7 -11 3 50.66 28.26 119.58 <
969 4 -8 3 11 1423.10 1985.32 375.10 o
969 1 -6 -11 3 1423.10 1985.32 375.10 o
970 4 -7 3 11 4051.10 3781.51 739.55 o
970 1 -5 -11 3 4051.10 3781.51 739.55 o
971 4 -6 3 11 562.83 604.46 155.46 o
971 1 -4 -11 3 562.83 604.46 155.46 o
972 4 -5 3 11 439.02 549.01 253.30 <
972 1 -3 -11 3 439.02 549.01 253.30 <
973 4 -4 3 11 2185.70 2697.77 355.57 o
973 1 -2 -11 3 2185.70 2697.77 355.57 o
974 4 -3 3 11 15.15 107.62 127.19 <
974 1 -1 -11 3 15.15 107.62 127.19 <
975 4 -2 3 11 1368.08 1527.61 217.45 o
975 1 0 -11 3 1368.08 1527.61 217.45 o
976 4 -1 3 11 2906.11 2744.64 301.21 o
976 1 1 -11 3 2906.11 2744.64 301.21 o
977 4 0 3 11 123.66 319.60 157.63 <
977 1 2 -11 3 123.66 319.60 157.63 <
978 4 1 3 11 4801.91 4786.86 451.39 o
978 1 3 -11 3 4801.91 4786.86 451.39 o
979 4 2 3 11 4914.40 4478.69 591.65 o
979 1 4 -11 3 4914.40 4478.69 591.65 o
980 4 3 3 11 434.41 908.82 308.74 <
980 1 5 -11 3 434.41 908.82 308.74 <
981 4 4 3 11 670.63 824.06 307.66 <
981 1 6 -11 3 670.63 824.06 307.66 <
982 2 -6 -3 -9 4435.87 4967.86 646.00 o
982 1 -9 -9 3 4435.87 4967.86 646.00 o
983 2 -5 -3 -9 113.07 378.30 200.02 <
983 1 -8 -9 3 113.07 378.30 200.02 <
984 2 -4 -3 -9 925.23 1031.72 272.88 o
984 1 -7 -9 3 925.23 1031.72 272.88 o
985 2 -3 -3 -9 695.82 973.02 180.47 o
985 1 -6 -9 3 695.82 973.02 180.47 o
986 2 -2 -3 -9 233.89 503.33 128.28 o
986 1 -5 -9 3 233.89 503.33 128.28 o
987 2 -1 -3 -9 884.13 884.96 161.99 o
987 1 -4 -9 3 884.13 884.96 161.99 o
988 2 0 -3 -9 278.69 293.52 79.36 o
988 1 -3 -9 3 278.69 293.52 79.36 o
989 2 1 -3 -9 30.51 147.84 94.58 <
989 1 -2 -9 3 30.51 147.84 94.58 <
990 2 2 -3 -9 1130.65 1193.82 209.84 o
990 1 -1 -9 3 1130.65 1193.82 209.84 o
991 2 3 -3 -9 539.02 506.63 100.02 o
991 1 0 -9 3 539.02 506.63 100.02 o
992 2 4 -3 -9 2.74 117.40 154.37 <
992 1 1 -9 3 2.74 117.40 154.37 <
993 2 5 -3 -9 1270.05 1211.25 216.37 o
993 1 2 -9 3 1270.05 1211.25 216.37 o
994 2 6 -3 -9 177.59 312.00 139.15 <
994 1 3 -9 3 177.59 312.00 139.15 <
995 2 7 -3 -9 287.33 383.75 189.16 <
995 1 4 -9 3 287.33 383.75 189.16 <
996 2 8 -3 -9 397.79 276.13 145.68 <
996 1 5 -9 3 397.79 276.13 145.68 <
997 2 9 -3 -9 9.44 -17.39 121.75 <
997 1 6 -9 3 9.44 -17.39 121.75 <
998 2 10 -3 -9 1196.88 1295.94 329.42 o
998 1 7 -9 3 1196.88 1295.94 329.42 o
999 2 11 -3 -9 236.15 339.17 278.30 <
999 1 8 -9 3 236.15 339.17 278.30 <
1000 4 -11 3 7 3132.59 3033.83 505.64 o
1000 1 -10 -7 3 3132.59 3033.83 505.64 o
1001 4 -10 3 7 125.12 230.46 129.36 <
1001 1 -9 -7 3 125.12 230.46 129.36 <
1002 4 -9 3 7 2258.11 2297.56 391.44 o
1002 1 -8 -7 3 2258.11 2297.56 391.44 o
1003 4 -8 3 7 6989.12 6906.51 468.92 o
1003 1 -7 -7 3 6989.12 6906.51 468.92 o
1004 4 -7 3 7 2198.54 2137.82 256.63 o
1004 1 -6 -7 3 2198.54 2137.82 256.63 o
1005 4 -6 3 7 2549.05 2469.67 199.01 o
1005 1 -5 -7 3 2549.05 2469.67 199.01 o
1006 4 -5 3 7 10529.10 10738.70 334.29 o
1006 1 -4 -7 3 10529.10 10738.70 334.29 o
1007 4 -4 3 7 8453.85 8597.30 296.12 o
1007 1 -3 -7 3 8453.85 8597.30 296.12 o
1008 4 -3 3 7 1537.80 1589.78 214.22 o
1008 1 -2 -7 3 1537.80 1589.78 214.22 o
1009 4 -2 3 7 4817.03 5004.99 386.26 o
1009 1 -1 -7 3 4817.03 5004.99 386.26 o
1010 4 -1 3 7 1850.59 1681.22 179.43 o
1010 1 0 -7 3 1850.59 1681.22 179.43 o
1011 4 0 3 7 2640.67 2421.06 262.12 o
1011 1 1 -7 3 2640.67 2421.06 262.12 o
1012 4 1 3 7 21134.30 21889.00 804.97 o
1012 1 2 -7 3 21134.30 21889.00 804.97 o
1013 4 2 3 7 3047.91 3050.65 328.45 o
1013 1 3 -7 3 3047.91 3050.65 328.45 o
1014 4 3 3 7 736.79 1050.24 223.96 o
1014 1 4 -7 3 736.79 1050.24 223.96 o
1015 4 4 3 7 11081.90 11889.90 914.36 o
1015 1 5 -7 3 11081.90 11889.90 914.36 o
1016 4 5 3 7 1405.06 1176.40 302.25 o
1016 1 6 -7 3 1405.06 1176.40 302.25 o
1017 4 6 3 7 403.96 696.85 265.26 <
1017 1 7 -7 3 403.96 696.85 265.26 <
1018 4 7 3 7 1461.01 1984.19 410.97 o
1018 1 8 -7 3 1461.01 1984.19 410.97 o
1019 4 8 3 7 1675.91 2083.16 563.19 o
1019 1 9 -7 3 1675.91 2083.16 563.19 o
1020 2 -8 -3 -5 110.15 319.61 144.58 <
1020 1 -10 -5 3 110.15 319.61 144.58 <
1021 2 -7 -3 -5 5309.41 5523.25 469.88 o
1021 1 -9 -5 3 5309.41 5523.25 469.88 o
1022 2 -6 -3 -5 395.95 443.55 85.88 o
1022 1 -8 -5 3 395.95 443.55 85.88 o
1023 2 -5 -3 -5 1314.50 1560.26 165.27 o
1023 1 -7 -5 3 1314.50 1560.26 165.27 o
1024 2 -4 -3 -5 3402.56 3505.38 311.06 o
1024 1 -6 -5 3 3402.56 3505.38 311.06 o
1025 2 -3 -3 -5 2904.51 2977.88 201.21 o
1025 1 -5 -5 3 2904.51 2977.88 201.21 o
1026 2 -2 -3 -5 1225.40 1119.98 83.73 o
1026 1 -4 -5 3 1225.40 1119.98 83.73 o
1027 2 -1 -3 -5 470.30 501.20 59.80 o
1027 1 -3 -5 3 470.30 501.20 59.80 o
1028 2 0 -3 -5 88.31 218.51 52.18 o
1028 1 -2 -5 3 88.31 218.51 52.18 o
1029 2 1 -3 -5 13.73 73.92 85.88 <
1029 1 -1 -5 3 13.73 73.92 85.88 <
1030 2 2 -3 -5 4.26 140.23 65.22 <
1030 1 0 -5 3 4.26 140.23 65.22 <
1031 2 3 -3 -5 449.73 401.18 111.98 o
1031 1 1 -5 3 449.73 401.18 111.98 o
1032 2 4 -3 -5 7.98 155.45 75.01 <
1032 1 2 -5 3 7.98 155.45 75.01 <
1033 2 5 -3 -5 3391.60 3535.37 314.38 o
1033 1 3 -5 3 3391.60 3535.37 314.38 o
1034 2 6 -3 -5 4628.81 4883.01 379.72 o
1034 1 4 -5 3 4628.81 4883.01 379.72 o
1035 2 7 -3 -5 801.62 821.92 166.34 o
1035 1 5 -5 3 801.62 821.92 166.34 o
1036 2 8 -3 -5 356.64 277.22 168.50 <
1036 1 6 -5 3 356.64 277.22 168.50 <
1037 2 9 -3 -5 230.21 302.22 152.20 <
1037 1 7 -5 3 230.21 302.22 152.20 <
1038 2 10 -3 -5 119.43 393.53 172.85 <
1038 1 8 -5 3 119.43 393.53 172.85 <
1039 2 11 -3 -5 26.80 135.88 116.32 <
1039 1 9 -5 3 26.80 135.88 116.32 <
1040 4 -11 3 3 214.06 -63.05 118.49 <
1040 1 -11 -3 3 214.06 -63.05 118.49 <
1041 4 -10 3 3 833.77 856.68 230.48 o
1041 1 -10 -3 3 833.77 856.68 230.48 o
1042 4 -9 3 3 11619.20 11539.50 551.83 o
1042 1 -9 -3 3 11619.20 11539.50 551.83 o
1043 4 -8 3 3 969.14 949.13 144.60 o
1043 1 -8 -3 3 969.14 949.13 144.60 o
1044 4 -7 3 3 169.49 305.48 92.40 o
1044 1 -7 -3 3 169.49 305.48 92.40 o
1045 4 -6 3 3 11241.60 10876.30 355.03 o
1045 1 -6 -3 3 11241.60 10876.30 355.03 o
1046 4 -5 3 3 16940.40 16846.10 492.94 o
1046 1 -5 -3 3 16940.40 16846.10 492.94 o
1047 4 -4 3 3 8710.47 8314.03 262.50 o
1047 1 -4 -3 3 8710.47 8314.03 262.50 o
1048 4 -3 3 3 7269.83 7092.95 257.05 o
1048 1 -3 -3 3 7269.83 7092.95 257.05 o
1049 4 -2 3 3 10195.50 9818.29 213.75 o
1049 1 -2 -3 3 10195.50 9818.29 213.75 o
1050 4 -1 3 3 3121.28 3138.45 161.06 o
1050 1 -1 -3 3 3121.28 3138.45 161.06 o
1051 4 0 3 3 7777.31 7826.36 335.68 o
1051 1 0 -3 3 7777.31 7826.36 335.68 o
1052 4 1 3 3 12849.30 12899.80 501.94 o
1052 1 1 -3 3 12849.30 12899.80 501.94 o
1053 4 2 3 3 2198.94 2262.35 177.29 o
1053 1 2 -3 3 2198.94 2262.35 177.29 o
1054 4 3 3 3 19024.80 20939.90 610.07 o
1054 1 3 -3 3 19024.80 20939.90 610.07 o
1055 4 4 3 3 19159.70 19139.70 688.24 o
1055 1 4 -3 3 19159.70 19139.70 688.24 o
1056 4 5 3 3 54.48 230.46 114.14 <
1056 1 5 -3 3 54.48 230.46 114.14 <
1057 4 6 3 3 1669.88 1943.02 338.15 o
1057 1 6 -3 3 1669.88 1943.02 338.15 o
1058 4 7 3 3 3867.54 4227.31 512.24 o
1058 1 7 -3 3 3867.54 4227.31 512.24 o
1059 4 8 3 3 2569.65 2383.49 375.14 o
1059 1 8 -3 3 2569.65 2383.49 375.14 o
1060 4 9 3 3 2475.98 2561.74 655.66 o
1060 1 9 -3 3 2475.98 2561.74 655.66 o
1061 4 10 3 3 215.04 51.09 216.33 <
1061 1 10 -3 3 215.04 51.09 216.33 <
1062 2 -10 -3 -1 6178.08 6005.46 754.90 o
1062 1 -11 -1 3 6178.08 6005.46 754.90 o
1063 2 -9 -3 -1 3698.57 3877.01 392.60 o
1063 1 -10 -1 3 3698.57 3877.01 392.60 o
1064 2 -8 -3 -1 1337.90 1526.51 232.67 o
1064 1 -9 -1 3 1337.90 1526.51 232.67 o
1065 2 -7 -3 -1 2142.14 1874.66 193.55 o
1065 1 -8 -1 3 2142.14 1874.66 193.55 o
1066 2 -6 -3 -1 6923.89 7111.86 314.51 o
1066 1 -7 -1 3 6923.89 7111.86 314.51 o
1067 2 -5 -3 -1 734.70 757.80 109.81 o
1067 1 -6 -1 3 734.70 757.80 109.81 o
1068 2 -4 -3 -1 3721.03 3667.69 167.55 o
1068 1 -5 -1 3 3721.03 3667.69 167.55 o
1069 2 -3 -3 -1 11228.10 11582.30 305.34 o
1069 1 -4 -1 3 11228.10 11582.30 305.34 o
1070 2 -2 -3 -1 8513.45 8468.76 224.61 o
1070 1 -3 -1 3 8513.45 8468.76 224.61 o
1071 2 -1 -3 -1 1650.55 1835.30 77.24 o
1071 1 -2 -1 3 1650.55 1835.30 77.24 o
1072 2 0 -3 -1 1268.72 1174.82 55.48 o
1072 1 -1 -1 3 1268.72 1174.82 55.48 o
1073 2 1 -3 -1 761.54 903.67 92.43 o
1073 1 0 -1 3 761.54 903.67 92.43 o
1074 2 2 -3 -1 2529.56 2527.77 141.46 o
1074 1 1 -1 3 2529.56 2527.77 141.46 o
1075 2 3 -3 -1 18368.00 18026.40 371.84 o
1075 1 2 -1 3 18368.00 18026.40 371.84 o
1076 2 4 -3 -1 3771.29 3519.04 212.19 o
1076 1 3 -1 3 3771.29 3519.04 212.19 o
1077 2 5 -3 -1 349.88 352.23 90.23 o
1077 1 4 -1 3 349.88 352.23 90.23 o
1078 2 6 -3 -1 7337.32 6903.35 387.51 o
1078 1 5 -1 3 7337.32 6903.35 387.51 o
1079 2 7 -3 -1 911.16 925.24 214.19 o
1079 1 6 -1 3 911.16 925.24 214.19 o
1080 2 8 -3 -1 19.11 132.62 79.36 <
1080 1 7 -1 3 19.11 132.62 79.36 <
1081 2 9 -3 -1 338.80 91.32 144.59 <
1081 1 8 -1 3 338.80 91.32 144.59 <
1082 2 10 -3 -1 1461.44 1672.19 472.95 o
1082 1 9 -1 3 1461.44 1672.19 472.95 o
1083 2 11 -3 -1 4173.80 4316.45 803.69 o
1083 1 10 -1 3 4173.80 4316.45 803.69 o
1084 4 -10 3 -1 6977.26 7092.12 576.51 o
1084 1 -11 1 3 6977.26 7092.12 576.51 o
1085 4 -9 3 -1 4185.26 3733.46 393.68 o
1085 1 -10 1 3 4185.26 3733.46 393.68 o
1086 4 -8 3 -1 1514.29 1789.62 256.59 o
1086 1 -9 1 3 1514.29 1789.62 256.59 o
1087 4 -7 3 -1 2412.97 2369.42 251.19 o
1087 1 -8 1 3 2412.97 2369.42 251.19 o
1088 4 -6 3 -1 7818.54 8391.66 438.57 o
1088 1 -7 1 3 7818.54 8391.66 438.57 o
1089 4 -5 3 -1 829.29 806.72 107.64 o
1089 1 -6 1 3 829.29 806.72 107.64 o
1090 4 -4 3 -1 4211.38 4080.05 200.19 o
1090 1 -5 1 3 4211.38 4080.05 200.19 o
1091 4 -3 3 -1 12680.90 12367.50 303.16 o
1091 1 -4 1 3 12680.90 12367.50 303.16 o
1092 4 -2 3 -1 9614.01 9656.15 190.81 o
1092 1 -3 1 3 9614.01 9656.15 190.81 o
1093 4 -1 3 -1 1874.78 2032.21 71.80 o
1093 1 -2 1 3 1874.78 2032.21 71.80 o
1094 4 0 3 -1 1439.17 1408.70 53.30 o
1094 1 -1 1 3 1439.17 1408.70 53.30 o
1095 4 1 3 -1 854.11 840.60 65.25 o
1095 1 0 1 3 854.11 840.60 65.25 o
1096 4 2 3 -1 2851.31 2917.33 118.61 o
1096 1 1 1 3 2851.31 2917.33 118.61 o
1097 4 3 3 -1 20847.20 20311.00 396.99 o
1097 1 2 1 3 20847.20 20311.00 396.99 o
1098 4 4 3 -1 4273.61 4026.12 173.01 o
1098 1 3 1 3 4273.61 4026.12 173.01 o
1099 4 5 3 -1 387.51 318.53 85.88 o
1099 1 4 1 3 387.51 318.53 85.88 o
1100 4 6 3 -1 8329.36 8364.14 441.94 o
1100 1 5 1 3 8329.36 8364.14 441.94 o
1101 4 7 3 -1 1041.82 1232.93 188.09 o
1101 1 6 1 3 1041.82 1232.93 188.09 o
1102 4 8 3 -1 21.89 327.21 102.18 o
1102 1 7 1 3 21.89 327.21 102.18 o
1103 4 9 3 -1 385.39 532.69 277.22 <
1103 1 8 1 3 385.39 532.69 277.22 <
1104 4 10 3 -1 1660.17 1552.59 356.62 o
1104 1 9 1 3 1660.17 1552.59 356.62 o
1105 1 -11 2 3 3780.74 3729.56 350.22 o
1106 1 -10 2 3 3284.67 3273.73 311.06 o
1107 1 -9 2 3 1814.03 1870.34 184.86 o
1108 1 -8 2 3 1742.83 2044.38 182.69 o
1109 1 -7 2 3 3277.28 3437.63 189.29 o
1110 1 -6 2 3 7246.20 7190.31 222.18 o
1111 1 -5 2 3 14512.00 14256.60 286.09 o
1112 1 -4 2 3 16645.20 16393.10 272.38 o
1113 1 -3 2 3 12532.20 12044.80 181.50 o
1114 1 -2 2 3 7120.70 6931.48 110.23 o
1115 1 -1 2 3 2878.65 2790.06 66.43 o
1116 1 0 2 3 4064.36 3790.03 104.61 o
1117 1 1 2 3 9853.23 9319.44 191.20 o
1118 1 2 2 3 13576.80 12872.80 245.98 o
1119 1 3 2 3 13953.30 13858.30 291.63 o
1120 1 4 2 3 8921.70 9007.27 267.00 o
1121 1 5 2 3 3526.40 3286.81 199.10 o
1122 1 6 2 3 1590.39 1590.91 208.79 o
1123 1 7 2 3 1066.67 1159.04 182.66 o
1124 1 8 2 3 1588.95 1521.20 184.85 o
1125 1 9 2 3 2518.88 2569.70 413.24 o
1126 1 10 2 3 2206.90 1848.58 371.89 o
1127 2 -11 -3 3 188.82 176.11 115.23 <
1127 1 -11 3 3 188.82 176.11 115.23 <
1128 2 -10 -3 3 735.46 762.10 178.29 o
1128 1 -10 3 3 735.46 762.10 178.29 o
1129 2 -9 -3 3 10249.10 10393.40 612.79 o
1129 1 -9 3 3 10249.10 10393.40 612.79 o
1130 2 -8 -3 3 854.87 999.14 193.52 o
1130 1 -8 3 3 854.87 999.14 193.52 o
1131 2 -7 -3 3 149.51 173.94 139.15 <
1131 1 -7 3 3 149.51 173.94 139.15 <
1132 2 -6 -3 3 9916.05 10543.00 618.58 o
1132 1 -6 3 3 9916.05 10543.00 618.58 o
1133 2 -5 -3 3 14942.90 15201.50 664.16 o
1133 1 -5 3 3 14942.90 15201.50 664.16 o
1134 2 -4 -3 3 7683.37 7578.81 294.09 o
1134 1 -4 3 3 7683.37 7578.81 294.09 o
1135 2 -3 -3 3 6412.60 6452.49 247.25 o
1135 1 -3 3 3 6412.60 6452.49 247.25 o
1136 2 -2 -3 3 8993.31 9160.68 279.18 o
1136 1 -2 3 3 8993.31 9160.68 279.18 o
1137 2 -1 -3 3 2753.23 2727.10 116.44 o
1137 1 -1 3 3 2753.23 2727.10 116.44 o
1138 2 0 -3 3 6860.26 6812.78 136.23 o
1138 1 0 3 3 6860.26 6812.78 136.23 o
1139 2 1 -3 3 11334.20 11112.40 188.77 o
1139 1 1 3 3 11334.20 11112.40 188.77 o
1140 2 2 -3 3 1939.65 1970.85 129.43 o
1140 1 2 3 3 1939.65 1970.85 129.43 o
1141 2 3 -3 3 16781.50 15821.40 470.38 o
1141 1 3 3 3 16781.50 15821.40 470.38 o
1142 2 4 -3 3 16900.50 16392.20 550.81 o
1142 1 4 3 3 16900.50 16392.20 550.81 o
1143 2 5 -3 3 48.05 76.10 41.31 <
1143 1 5 3 3 48.05 76.10 41.31 <
1144 2 6 -3 3 1472.97 1365.66 194.63 o
1144 1 6 3 3 1472.97 1365.66 194.63 o
1145 2 7 -3 3 3411.50 3311.60 308.86 o
1145 1 7 3 3 3411.50 3311.60 308.86 o
1146 2 8 -3 3 2266.65 1983.34 341.43 o
1146 1 8 3 3 2266.65 1983.34 341.43 o
1147 2 9 -3 3 2184.02 1545.09 331.64 o
1147 1 9 3 3 2184.02 1545.09 331.64 o
1148 2 10 -3 3 189.68 31.53 209.81 <
1148 1 10 3 3 189.68 31.53 209.81 <
1149 1 -11 4 3 4.40 -44.57 72.83 <
1150 1 -10 4 3 4.32 -108.71 54.35 <
1151 1 -9 4 3 33.24 152.19 75.01 <
1152 1 -8 4 3 7.65 43.48 67.40 <
1153 1 -7 4 3 17.47 108.71 68.49 <
1154 1 -6 4 3 28.77 36.96 34.79 <
1155 1 -5 4 3 68.53 126.10 47.83 <
1156 1 -4 4 3 3.82 56.53 32.61 <
1157 1 -3 4 3 28.43 26.09 25.00 <
1158 1 -2 4 3 1.41 19.57 19.57 <
1159 1 -1 4 3 105.38 139.15 28.27 o
1160 1 0 4 3 4.74 -2.17 21.74 <
1161 1 1 4 3 9.92 36.96 25.00 <
1162 1 2 4 3 42.73 91.32 47.83 <
1163 1 3 4 3 32.11 13.05 26.09 <
1164 1 4 4 3 13.57 57.62 38.05 <
1165 1 5 4 3 78.76 120.67 65.23 <
1166 1 6 4 3 0.36 91.31 43.48 <
1167 1 7 4 3 28.37 15.22 66.31 <
1168 1 8 4 3 19.85 171.76 104.36 <
1169 1 9 4 3 1.68 121.75 91.31 <
1170 1 10 4 3 12.59 156.54 193.50 <
1171 4 -9 3 -5 256.68 388.09 257.64 <
1171 1 -11 5 3 256.68 388.09 257.64 <
1172 4 -8 3 -5 127.13 177.20 116.32 <
1172 1 -10 5 3 127.13 177.20 116.32 <
1173 4 -7 3 -5 5953.60 6371.64 663.49 o
1173 1 -9 5 3 5953.60 6371.64 663.49 o
1174 4 -6 3 -5 446.37 687.07 196.77 o
1174 1 -8 5 3 446.37 687.07 196.77 o
1175 4 -5 3 -5 1494.44 1872.31 309.88 o
1175 1 -7 5 3 1494.44 1872.31 309.88 o
1176 4 -4 3 -5 3808.49 4010.03 415.47 o
1176 1 -6 5 3 3808.49 4010.03 415.47 o
1177 4 -3 3 -5 3258.80 3342.23 244.71 o
1177 1 -5 5 3 3258.80 3342.23 244.71 o
1178 4 -2 3 -5 1389.65 1577.76 162.02 o
1178 1 -4 5 3 1389.65 1577.76 162.02 o
1179 4 -1 3 -5 534.45 740.38 139.16 o
1179 1 -3 5 3 534.45 740.38 139.16 o
1180 4 0 3 -5 94.62 194.59 56.53 o
1180 1 -2 5 3 94.62 194.59 56.53 o
1181 4 1 3 -5 15.87 -4.35 40.22 <
1181 1 -1 5 3 15.87 -4.35 40.22 <
1182 4 2 3 -5 6.15 118.49 55.44 <
1182 1 0 5 3 6.15 118.49 55.44 <
1183 4 3 3 -5 511.53 538.16 53.27 o
1183 1 1 5 3 511.53 538.16 53.27 o
1184 4 4 3 -5 8.14 219.59 57.62 o
1184 1 2 5 3 8.14 219.59 57.62 o
1185 4 5 3 -5 3842.00 3843.22 276.30 o
1185 1 3 5 3 3842.00 3843.22 276.30 o
1186 4 6 3 -5 5291.90 5197.45 273.09 o
1186 1 4 5 3 5291.90 5197.45 273.09 o
1187 4 7 3 -5 902.90 876.28 117.42 o
1187 1 5 5 3 902.90 876.28 117.42 o
1188 4 8 3 -5 401.84 379.41 120.67 o
1188 1 6 5 3 401.84 379.41 120.67 o
1189 4 9 3 -5 272.74 328.31 98.93 o
1189 1 7 5 3 272.74 328.31 98.93 o
1190 4 10 3 -5 141.84 90.23 79.36 <
1190 1 8 5 3 141.84 90.23 79.36 <
1191 4 11 3 -5 32.12 57.62 94.58 <
1191 1 9 5 3 32.12 57.62 94.58 <
1192 1 -11 6 3 1078.27 907.84 337.04 <
1193 1 -10 6 3 375.68 308.75 151.11 <
1194 1 -9 6 3 345.10 288.09 117.41 <
1195 1 -8 6 3 41.80 179.37 88.05 <
1196 1 -7 6 3 162.63 231.55 56.53 o
1197 1 -6 6 3 1852.67 2068.42 195.75 o
1198 1 -5 6 3 3110.88 3068.87 161.00 o
1199 1 -4 6 3 4883.01 5017.83 195.92 o
1200 1 -3 6 3 2672.93 2838.38 141.43 o
1201 1 -2 6 3 60.42 20.65 36.96 <
1202 1 -1 6 3 104.53 132.63 47.83 <
1203 1 0 6 3 120.73 108.71 40.22 <
1204 1 1 6 3 441.35 428.36 63.06 o
1205 1 2 6 3 3842.40 3755.48 180.65 o
1206 1 3 6 3 3552.36 3504.55 216.52 o
1207 1 4 6 3 1515.13 1444.12 143.54 o
1208 1 5 6 3 479.82 450.09 77.19 o
1209 1 6 6 3 0.35 15.22 70.66 <
1210 1 7 6 3 25.91 -1.09 84.79 <
1211 1 8 6 3 167.99 158.72 88.06 <
1212 1 9 6 3 205.39 359.83 115.23 o
1213 2 -12 -3 7 4816.72 5021.47 1113.71 o
1213 1 -11 7 3 4816.72 5021.47 1113.71 o
1214 2 -11 -3 7 2748.06 3017.52 551.31 o
1214 1 -10 7 3 2748.06 3017.52 551.31 o
1215 2 -10 -3 7 113.33 273.95 156.54 <
1215 1 -9 7 3 113.33 273.95 156.54 <
1216 2 -9 -3 7 1976.51 1814.78 364.26 o
1216 1 -8 7 3 1976.51 1814.78 364.26 o
1217 2 -8 -3 7 6127.93 6347.29 616.89 o
1217 1 -7 7 3 6127.93 6347.29 616.89 o
1218 2 -7 -3 7 1922.21 2143.26 315.35 o
1218 1 -6 7 3 1922.21 2143.26 315.35 o
1219 2 -6 -3 7 2234.34 2116.24 289.27 o
1219 1 -5 7 3 2234.34 2116.24 289.27 o
1220 2 -5 -3 7 9241.34 9386.31 567.32 o
1220 1 -4 7 3 9241.34 9386.31 567.32 o
1221 2 -4 -3 7 7411.18 7616.40 474.66 o
1221 1 -3 7 3 7411.18 7616.40 474.66 o
1222 2 -3 -3 7 1340.63 1527.79 165.28 o
1222 1 -2 7 3 1340.63 1527.79 165.28 o
1223 2 -2 -3 7 4241.75 4346.72 254.60 o
1223 1 -1 7 3 4241.75 4346.72 254.60 o
1224 2 -1 -3 7 1615.76 1676.87 188.13 o
1224 1 0 7 3 1615.76 1676.87 188.13 o
1225 2 0 -3 7 2292.73 2508.07 220.79 o
1225 1 1 7 3 2292.73 2508.07 220.79 o
1226 2 1 -3 7 18654.60 17986.30 347.95 o
1226 1 2 7 3 18654.60 17986.30 347.95 o
1227 2 2 -3 7 2677.33 2631.93 254.49 o
1227 1 3 7 3 2677.33 2631.93 254.49 o
1228 2 3 -3 7 628.35 579.48 140.25 o
1228 1 4 7 3 628.35 579.48 140.25 o
1229 2 4 -3 7 9774.13 9499.52 555.15 o
1229 1 5 7 3 9774.13 9499.52 555.15 o
1230 2 5 -3 7 1237.32 1144.87 194.62 o
1230 1 6 7 3 1237.32 1144.87 194.62 o
1231 2 6 -3 7 350.86 352.23 110.89 o
1231 1 7 7 3 350.86 352.23 110.89 o
1232 2 7 -3 7 1285.85 958.93 202.22 o
1232 1 8 7 3 1285.85 958.93 202.22 o
1233 2 8 -3 7 1470.32 1426.46 272.90 o
1233 1 9 7 3 1470.32 1426.46 272.90 o
1234 1 -10 8 3 30.46 103.27 366.35 <
1235 1 -9 8 3 65.82 76.10 94.58 <
1236 1 -8 8 3 58.47 122.84 90.23 <
1237 1 -7 8 3 66.27 -80.44 79.36 <
1238 1 -6 8 3 278.36 326.14 91.32 o
1239 1 -5 8 3 1.77 5.44 65.22 <
1240 1 -4 8 3 201.12 195.68 57.62 o
1241 1 -3 8 3 138.11 164.15 47.83 o
1242 1 -2 8 3 13.95 126.10 68.49 <
1243 1 -1 8 3 45.21 40.22 34.79 <
1244 1 0 8 3 6.45 68.49 57.62 <
1245 1 1 8 3 41.49 38.05 48.92 <
1246 1 2 8 3 304.70 289.18 56.53 o
1247 1 3 8 3 8.77 70.66 58.70 <
1248 1 4 8 3 48.51 154.37 73.92 <
1249 1 5 8 3 91.71 250.03 94.58 <
1250 1 6 8 3 58.87 127.19 93.49 <
1251 1 7 8 3 2.46 698.99 156.54 o
1252 1 8 8 3 8.98 57.62 106.53 <
1253 1 9 8 3 0.00 83.70 150.02 <
1254 4 -6 3 -9 4988.56 5519.25 714.51 o
1254 1 -9 9 3 4988.56 5519.25 714.51 o
1255 4 -5 3 -9 116.14 155.45 59.79 <
1255 1 -8 9 3 116.14 155.45 59.79 <
1256 4 -4 3 -9 1018.51 1229.58 301.14 o
1256 1 -7 9 3 1018.51 1229.58 301.14 o
1257 4 -3 3 -9 787.91 943.66 241.35 o
1257 1 -6 9 3 787.91 943.66 241.35 o
1258 4 -2 3 -9 255.61 470.71 159.80 <
1258 1 -5 9 3 255.61 470.71 159.80 <
1259 4 -1 3 -9 972.03 1170.89 232.66 o
1259 1 -4 9 3 972.03 1170.89 232.66 o
1260 4 0 3 -9 305.26 584.86 133.71 o
1260 1 -3 9 3 305.26 584.86 133.71 o
1261 4 1 3 -9 31.94 171.76 75.01 <
1261 1 -2 9 3 31.94 171.76 75.01 <
1262 4 2 3 -9 1277.94 1340.60 167.44 o
1262 1 -1 9 3 1277.94 1340.60 167.44 o
1263 4 3 3 -9 627.68 581.65 101.11 o
1263 1 0 9 3 627.68 581.65 101.11 o
1264 4 4 3 -9 2.80 109.79 48.92 <
1264 1 1 9 3 2.80 109.79 48.92 <
1265 4 5 3 -9 1454.37 1623.34 257.69 o
1265 1 2 9 3 1454.37 1623.34 257.69 o
1266 4 6 3 -9 200.70 238.07 114.15 <
1266 1 3 9 3 200.70 238.07 114.15 <
1267 4 7 3 -9 325.78 702.28 180.46 o
1267 1 4 9 3 325.78 702.28 180.46 o
1268 4 8 3 -9 463.75 522.91 154.37 o
1268 1 5 9 3 463.75 522.91 154.37 o
1269 4 9 3 -9 9.97 111.97 109.79 <
1269 1 6 9 3 9.97 111.97 109.79 <
1270 4 10 3 -9 1336.35 1427.49 263.10 o
1270 1 7 9 3 1336.35 1427.49 263.10 o
1271 4 11 3 -9 259.04 380.48 159.80 <
1271 1 8 9 3 259.04 380.48 159.80 <
1272 1 -9 10 3 958.83 749.09 442.50 <
1273 1 -8 10 3 828.14 881.72 193.52 o
1274 1 -7 10 3 438.02 318.53 105.45 o
1275 1 -6 10 3 342.41 388.11 111.97 o
1276 1 -5 10 3 58.08 95.66 63.05 <
1277 1 -4 10 3 10.90 -93.49 77.18 <
1278 1 -3 10 3 306.32 364.19 81.54 o
1279 1 -2 10 3 377.42 421.82 94.58 o
1280 1 -1 10 3 3489.37 3258.04 224.09 o
1281 1 0 10 3 2244.56 2257.77 170.75 o
1282 1 1 10 3 104.53 171.76 53.27 o
1283 1 2 10 3 259.29 279.39 80.45 o
1284 1 3 10 3 6.82 63.05 81.53 <
1285 1 4 10 3 34.25 114.14 83.71 <
1286 1 5 10 3 853.34 832.81 162.00 o
1287 1 6 10 3 779.79 715.38 140.25 o
1288 1 7 10 3 1259.26 1206.86 207.67 o
1289 1 8 10 3 620.79 454.43 195.69 <
1290 2 -10 -3 11 83.63 -251.12 302.21 <
1290 1 -8 11 3 83.63 -251.12 302.21 <
1291 2 -9 -3 11 48.25 -30.44 108.71 <
1291 1 -7 11 3 48.25 -30.44 108.71 <
1292 2 -8 -3 11 1228.54 1153.57 285.95 o
1292 1 -6 11 3 1228.54 1153.57 285.95 o
1293 2 -7 -3 11 3521.53 3525.93 442.64 o
1293 1 -5 11 3 3521.53 3525.93 442.64 o
1294 2 -6 -3 11 479.08 395.73 156.55 <
1294 1 -4 11 3 479.08 395.73 156.55 <
1295 2 -5 -3 11 374.12 356.58 115.24 o
1295 1 -3 11 3 374.12 356.58 115.24 o
1296 2 -4 -3 11 1906.36 1925.74 284.89 o
1296 1 -2 11 3 1906.36 1925.74 284.89 o
1297 2 -3 -3 11 10.28 -7.61 75.01 <
1297 1 -1 11 3 10.28 -7.61 75.01 <
1298 2 -2 -3 11 1189.20 1271.02 180.49 o
1298 1 0 11 3 1189.20 1271.02 180.49 o
1299 2 -1 -3 11 2580.85 2680.48 281.64 o
1299 1 1 11 3 2580.85 2680.48 281.64 o
1300 2 0 -3 11 121.07 189.15 84.79 <
1300 1 2 11 3 121.07 189.15 84.79 <
1301 2 1 -3 11 4185.92 4154.92 459.00 o
1301 1 3 11 3 4185.92 4154.92 459.00 o
1302 2 2 -3 11 4360.57 3871.81 479.63 o
1302 1 4 11 3 4360.57 3871.81 479.63 o
1303 2 3 -3 11 401.81 745.75 194.59 o
1303 1 5 11 3 401.81 745.75 194.59 o
1304 2 4 -3 11 581.33 656.64 186.99 o
1304 1 6 11 3 581.33 656.64 186.99 o
1305 2 5 -3 11 781.66 720.79 241.35 <
1305 1 7 11 3 781.66 720.79 241.35 <
1306 1 -7 12 3 112.48 332.65 120.67 <
1307 1 -6 12 3 85.45 45.66 127.19 <
1308 1 -5 12 3 1344.48 1206.90 234.86 o
1309 1 -4 12 3 307.16 529.43 158.72 o
1310 1 -3 12 3 189.04 263.08 95.67 <
1311 1 -2 12 3 529.39 666.43 135.90 o
1312 1 -1 12 3 45.93 171.76 73.92 <
1313 1 0 12 3 456.31 482.70 101.11 o
1314 1 1 12 3 352.04 379.41 88.06 o
1315 1 2 12 3 111.20 202.20 70.66 <
1316 1 3 12 3 1086.52 1008.97 143.52 o
1317 1 4 12 3 208.06 292.43 97.84 <
1318 1 5 12 3 10.44 -98.92 83.70 <
1319 1 6 12 3 365.01 463.12 240.26 <
1320 4 -2 3 -13 1761.20 1607.95 350.07 o
1320 1 -6 13 3 1761.20 1607.95 350.07 o
1321 4 -1 3 -13 433.28 470.72 170.68 <
1321 1 -5 13 3 433.28 470.72 170.68 <
1322 4 0 3 -13 468.20 388.10 139.15 <
1322 1 -4 13 3 468.20 388.10 139.15 <
1323 4 1 3 -13 208.86 247.86 125.02 <
1323 1 -3 13 3 208.86 247.86 125.02 <
1324 4 2 3 -13 43.29 253.29 108.71 <
1324 1 -2 13 3 43.29 253.29 108.71 <
1325 4 3 3 -13 33.46 102.18 101.10 <
1325 1 -1 13 3 33.46 102.18 101.10 <
1326 4 4 3 -13 16.80 129.36 88.05 <
1326 1 0 13 3 16.80 129.36 88.05 <
1327 4 5 3 -13 10.25 132.62 94.58 <
1327 1 1 13 3 10.25 132.62 94.58 <
1328 4 6 3 -13 133.29 170.67 81.53 <
1328 1 2 13 3 133.29 170.67 81.53 <
1329 4 7 3 -13 822.85 940.40 185.90 o
1329 1 3 13 3 822.85 940.40 185.90 o
1330 4 8 3 -13 1554.98 1724.35 364.22 o
1330 1 4 13 3 1554.98 1724.35 364.22 o
1331 4 9 3 -13 89.35 113.06 116.32 <
1331 1 5 13 3 89.35 113.06 116.32 <
1332 1 -5 14 3 1210.07 1247.08 296.82 o
1333 1 -4 14 3 505.26 476.17 138.07 o
1334 1 -3 14 3 1087.28 1441.68 262.03 o
1335 1 -2 14 3 4695.66 4928.86 437.30 o
1336 1 -1 14 3 2428.34 2631.65 392.57 o
1337 1 0 14 3 2884.91 2887.39 361.06 o
1338 1 1 14 3 3765.05 3702.40 283.88 o
1339 1 2 14 3 547.76 370.72 86.97 o
1340 1 3 14 3 789.34 764.30 170.69 o
1341 1 4 14 3 1473.78 1599.41 431.65 o
1342 2 -7 -3 15 460.16 547.92 278.31 <
1342 1 -4 15 3 460.16 547.92 278.31 <
1343 2 -6 -3 15 217.59 76.10 135.89 <
1343 1 -3 15 3 217.59 76.10 135.89 <
1344 2 -5 -3 15 356.58 416.36 252.21 <
1344 1 -2 15 3 356.58 416.36 252.21 <
1345 2 -4 -3 15 244.56 295.69 201.11 <
1345 1 -1 15 3 244.56 295.69 201.11 <
1346 2 -3 -3 15 89.63 371.78 179.37 <
1346 1 0 15 3 89.63 371.78 179.37 <
1347 2 -2 -3 15 140.76 242.42 133.71 <
1347 1 1 15 3 140.76 242.42 133.71 <
1348 2 -1 -3 15 2709.71 2665.05 575.20 o
1348 1 2 15 3 2709.71 2665.05 575.20 o
1349 1 1 16 3 468.35 1343.71 355.50 o
1350 4 -9 4 12 1525.50 1389.41 337.02 o
1350 3 -5 12 -4 1525.50 1389.41 337.02 o
1350 2 -3 -4 -12 1525.50 1389.41 337.02 o
1350 1 -7 -12 4 1525.50 1389.41 337.02 o
1351 4 -8 4 12 874.43 1315.49 459.88 <
1351 3 -4 12 -4 874.43 1315.49 459.88 <
1351 2 -2 -4 -12 874.43 1315.49 459.88 <
1351 1 -6 -12 4 874.43 1315.49 459.88 <
1352 4 -7 4 12 27731.40 26726.20 2022.69 o
1352 3 -3 12 -4 27731.40 26726.20 2022.69 o
1352 2 -1 -4 -12 27731.40 26726.20 2022.69 o
1352 1 -5 -12 4 27731.40 26726.20 2022.69 o
1353 4 -6 4 12 27600.40 25437.30 1857.10 o
1353 3 -2 12 -4 27600.40 25437.30 1857.10 o
1353 2 0 -4 -12 27600.40 25437.30 1857.10 o
1353 1 -4 -12 4 27600.40 25437.30 1857.10 o
1354 4 -5 4 12 25335.40 24675.00 1700.18 o
1354 3 -1 12 -4 25335.40 24675.00 1700.18 o
1354 2 1 -4 -12 25335.40 24675.00 1700.18 o
1354 1 -3 -12 4 25335.40 24675.00 1700.18 o
1355 4 -4 4 12 22736.70 22590.90 1512.37 o
1355 3 0 12 -4 22736.70 22590.90 1512.37 o
1355 2 2 -4 -12 22736.70 22590.90 1512.37 o
1355 1 -2 -12 4 22736.70 22590.90 1512.37 o
1356 4 -2 4 12 22966.10 20938.40 1215.21 o
1356 3 2 12 -4 22966.10 20938.40 1215.21 o
1356 2 4 -4 -12 22966.10 20938.40 1215.21 o
1356 1 0 -12 4 22966.10 20938.40 1215.21 o
1357 4 -1 4 12 24632.00 24953.80 1054.12 o
1357 3 3 12 -4 24632.00 24953.80 1054.12 o
1357 2 5 -4 -12 24632.00 24953.80 1054.12 o
1357 1 1 -12 4 24632.00 24953.80 1054.12 o
1358 4 0 4 12 26515.90 25190.20 1075.77 o
1358 3 4 12 -4 26515.90 25190.20 1075.77 o
1358 2 6 -4 -12 26515.90 25190.20 1075.77 o
1358 1 2 -12 4 26515.90 25190.20 1075.77 o
1359 4 1 4 12 26450.90 28500.80 1514.60 o
1359 3 5 12 -4 26450.90 28500.80 1514.60 o
1359 2 7 -4 -12 26450.90 28500.80 1514.60 o
1359 1 3 -12 4 26450.90 28500.80 1514.60 o
1360 4 2 4 12 579.89 916.42 261.99 o
1360 3 6 12 -4 579.89 916.42 261.99 o
1360 2 8 -4 -12 579.89 916.42 261.99 o
1360 1 4 -12 4 579.89 916.42 261.99 o
1361 4 3 4 12 1483.40 1162.17 308.75 o
1361 3 7 12 -4 1483.40 1162.17 308.75 o
1361 2 9 -4 -12 1483.40 1162.17 308.75 o
1361 1 5 -12 4 1483.40 1162.17 308.75 o
1362 4 -10 4 8 9823.07 10737.20 921.42 o
1362 3 -7 8 -4 9823.07 10737.20 921.42 o
1362 2 -6 -4 -8 9823.07 10737.20 921.42 o
1362 1 -9 -8 4 9823.07 10737.20 921.42 o
1363 4 -9 4 8 37918.60 39883.70 1694.98 o
1363 3 -6 8 -4 37918.60 39883.70 1694.98 o
1363 2 -5 -4 -8 37918.60 39883.70 1694.98 o
1363 1 -8 -8 4 37918.60 39883.70 1694.98 o
1364 4 -8 4 8 166.22 787.06 215.24 o
1364 3 -5 8 -4 166.22 787.06 215.24 o
1364 2 -4 -4 -8 166.22 787.06 215.24 o
1364 1 -7 -8 4 166.22 787.06 215.24 o
1365 4 -7 4 8 322.39 318.52 183.72 <
1365 3 -4 8 -4 322.39 318.52 183.72 <
1365 2 -3 -4 -8 322.39 318.52 183.72 <
1365 1 -6 -8 4 322.39 318.52 183.72 <
1366 4 -6 4 8 19511.20 20312.40 753.56 o
1366 3 -3 8 -4 19511.20 20312.40 753.56 o
1366 2 -2 -4 -8 19511.20 20312.40 753.56 o
1366 1 -5 -8 4 19511.20 20312.40 753.56 o
1367 4 -5 4 8 79378.20 81301.50 1019.37 o
1367 3 -2 8 -4 79378.20 81301.50 1019.37 o
1367 2 -1 -4 -8 79378.20 81301.50 1019.37 o
1367 1 -4 -8 4 79378.20 81301.50 1019.37 o
1368 4 -4 4 8 49084.60 51161.30 1108.26 o
1368 3 -1 8 -4 49084.60 51161.30 1108.26 o
1368 2 0 -4 -8 49084.60 51161.30 1108.26 o
1368 1 -3 -8 4 49084.60 51161.30 1108.26 o
1369 4 -3 4 8 83970.90 82944.00 1832.37 o
1369 3 0 8 -4 83970.90 82944.00 1832.37 o
1369 2 1 -4 -8 83970.90 82944.00 1832.37 o
1369 1 -2 -8 4 83970.90 82944.00 1832.37 o
1370 4 -1 4 8 83831.30 81013.70 1291.33 o
1370 3 2 8 -4 83831.30 81013.70 1291.33 o
1370 2 3 -4 -8 83831.30 81013.70 1291.33 o
1370 1 0 -8 4 83831.30 81013.70 1291.33 o
1371 4 0 4 8 47905.50 49614.70 1013.84 o
1371 3 3 8 -4 47905.50 49614.70 1013.84 o
1371 2 4 -4 -8 47905.50 49614.70 1013.84 o
1371 1 1 -8 4 47905.50 49614.70 1013.84 o
1372 4 1 4 8 75593.40 78165.40 1664.12 o
1372 3 4 8 -4 75593.40 78165.40 1664.12 o
1372 2 5 -4 -8 75593.40 78165.40 1664.12 o
1372 1 2 -8 4 75593.40 78165.40 1664.12 o
1373 4 2 4 8 20082.60 21425.20 907.24 o
1373 3 5 8 -4 20082.60 21425.20 907.24 o
1373 2 6 -4 -8 20082.60 21425.20 907.24 o
1373 1 3 -8 4 20082.60 21425.20 907.24 o
1374 4 3 4 8 408.42 632.71 172.85 o
1374 3 6 8 -4 408.42 632.71 172.85 o
1374 2 7 -4 -8 408.42 632.71 172.85 o
1374 1 4 -8 4 408.42 632.71 172.85 o
1375 4 4 4 8 132.90 562.03 251.12 <
1375 3 7 8 -4 132.90 562.03 251.12 <
1375 2 8 -4 -8 132.90 562.03 251.12 <
1375 1 5 -8 4 132.90 562.03 251.12 <
1376 4 5 4 8 39089.00 44586.40 1958.17 o
1376 3 8 8 -4 39089.00 44586.40 1958.17 o
1376 2 9 -4 -8 39089.00 44586.40 1958.17 o
1376 1 6 -8 4 39089.00 44586.40 1958.17 o
1377 4 6 4 8 8913.28 10179.40 976.72 o
1377 3 9 8 -4 8913.28 10179.40 976.72 o
1377 2 10 -4 -8 8913.28 10179.40 976.72 o
1377 1 7 -8 4 8913.28 10179.40 976.72 o
1378 4 7 4 8 7865.59 8197.96 1078.99 o
1378 3 10 8 -4 7865.59 8197.96 1078.99 o
1378 2 11 -4 -8 7865.59 8197.96 1078.99 o
1378 1 8 -8 4 7865.59 8197.96 1078.99 o
1379 4 -11 4 4 3734.42 3507.89 454.52 o
1379 3 -9 4 -4 3734.42 3507.89 454.52 o
1379 2 -9 -4 -4 3734.42 3507.89 454.52 o
1379 1 -11 -4 4 3734.42 3507.89 454.52 o
1380 4 -10 4 4 1154.74 1425.26 277.22 o
1380 3 -8 4 -4 1154.74 1425.26 277.22 o
1380 2 -8 -4 -4 1154.74 1425.26 277.22 o
1380 1 -10 -4 4 1154.74 1425.26 277.22 o
1381 4 -9 4 4 96281.30 97603.00 1633.05 o
1381 3 -7 4 -4 96281.30 97603.00 1633.05 o
1381 2 -7 -4 -4 96281.30 97603.00 1633.05 o
1381 1 -9 -4 4 96281.30 97603.00 1633.05 o
1382 4 -8 4 4 56.96 158.71 72.83 <
1382 3 -6 4 -4 56.96 158.71 72.83 <
1382 2 -6 -4 -4 56.96 158.71 72.83 <
1382 1 -8 -4 4 56.96 158.71 72.83 <
1383 4 -7 4 4 42645.00 43555.30 793.64 o
1383 3 -5 4 -4 42645.00 43555.30 793.64 o
1383 2 -5 -4 -4 42645.00 43555.30 793.64 o
1383 1 -7 -4 4 42645.00 43555.30 793.64 o
1384 4 -6 4 4 12635.30 13472.50 407.10 o
1384 3 -4 4 -4 12635.30 13472.50 407.10 o
1384 2 -4 -4 -4 12635.30 13472.50 407.10 o
1384 1 -6 -4 4 12635.30 13472.50 407.10 o
1385 4 -5 4 4 7050.51 6918.50 307.95 o
1385 3 -3 4 -4 7050.51 6918.50 307.95 o
1385 2 -3 -4 -4 7050.51 6918.50 307.95 o
1385 1 -5 -4 4 7050.51 6918.50 307.95 o
1386 4 -4 4 4 207737.00 208919.00 1597.68 o
1386 3 -2 4 -4 207737.00 208919.00 1597.68 o
1386 2 -2 -4 -4 207737.00 208919.00 1597.68 o
1386 1 -4 -4 4 207737.00 208919.00 1597.68 o
1387 4 -3 4 4 4952.75 5039.76 164.29 o
1387 3 -1 4 -4 4952.75 5039.76 164.29 o
1387 2 -1 -4 -4 4952.75 5039.76 164.29 o
1387 1 -3 -4 4 4952.75 5039.76 164.29 o
1388 4 -2 4 4 1236.58 1551.61 96.77 o
1388 3 0 4 -4 1236.58 1551.61 96.77 o
1388 2 0 -4 -4 1236.58 1551.61 96.77 o
1388 1 -2 -4 4 1236.58 1551.61 96.77 o
1389 4 0 4 4 1260.56 1499.43 171.80 o
1389 3 2 4 -4 1260.56 1499.43 171.80 o
1389 2 2 -4 -4 1260.56 1499.43 171.80 o
1389 1 0 -4 4 1260.56 1499.43 171.80 o
1390 4 1 4 4 4452.90 4524.38 332.88 o
1390 3 3 4 -4 4452.90 4524.38 332.88 o
1390 2 3 -4 -4 4452.90 4524.38 332.88 o
1390 1 1 -4 4 4452.90 4524.38 332.88 o
1391 4 2 4 4 205480.00 211016.00 1910.40 o
1391 3 4 4 -4 205480.00 211016.00 1910.40 o
1391 2 4 -4 -4 205480.00 211016.00 1910.40 o
1391 1 2 -4 4 205480.00 211016.00 1910.40 o
1392 4 3 4 4 5907.78 6391.07 340.49 o
1392 3 5 4 -4 5907.78 6391.07 340.49 o
1392 2 5 -4 -4 5907.78 6391.07 340.49 o
1392 1 3 -4 4 5907.78 6391.07 340.49 o
1393 4 4 4 4 14904.30 14803.60 656.70 o
1393 3 6 4 -4 14904.30 14803.60 656.70 o
1393 2 6 -4 -4 14904.30 14803.60 656.70 o
1393 1 4 -4 4 14904.30 14803.60 656.70 o
1394 4 5 4 4 43679.80 44013.80 1171.59 o
1394 3 7 4 -4 43679.80 44013.80 1171.59 o
1394 2 7 -4 -4 43679.80 44013.80 1171.59 o
1394 1 5 -4 4 43679.80 44013.80 1171.59 o
1395 4 6 4 4 175.58 432.67 171.76 <
1395 3 8 4 -4 175.58 432.67 171.76 <
1395 2 8 -4 -4 175.58 432.67 171.76 <
1395 1 6 -4 4 175.58 432.67 171.76 <
1396 4 7 4 4 99669.50 98994.70 4177.33 o
1396 3 9 4 -4 99669.50 98994.70 4177.33 o
1396 2 9 -4 -4 99669.50 98994.70 4177.33 o
1396 1 7 -4 4 99669.50 98994.70 4177.33 o
1397 4 8 4 4 1539.49 1574.28 351.17 o
1397 3 10 4 -4 1539.49 1574.28 351.17 o
1397 2 10 -4 -4 1539.49 1574.28 351.17 o
1397 1 8 -4 4 1539.49 1574.28 351.17 o
1398 4 9 4 4 2865.24 3010.61 742.60 o
1398 3 11 4 -4 2865.24 3010.61 742.60 o
1398 2 11 -4 -4 2865.24 3010.61 742.60 o
1398 1 9 -4 4 2865.24 3010.61 742.60 o
1399 4 -10 4 0 46778.40 46734.30 1484.44 o
1399 3 -9 0 -4 46778.40 46734.30 1484.44 o
1399 2 -10 -4 0 46778.40 46734.30 1484.44 o
1399 1 -11 0 4 46778.40 46734.30 1484.44 o
1400 4 -9 4 0 35518.10 36756.70 1242.70 o
1400 3 -8 0 -4 35518.10 36756.70 1242.70 o
1400 2 -9 -4 0 35518.10 36756.70 1242.70 o
1400 1 -10 0 4 35518.10 36756.70 1242.70 o
1401 4 -8 4 0 603.83 626.18 153.28 o
1401 3 -7 0 -4 603.83 626.18 153.28 o
1401 2 -8 -4 0 603.83 626.18 153.28 o
1401 1 -9 0 4 603.83 626.18 153.28 o
1402 4 -7 4 0 118493.00 118860.00 1679.05 o
1402 3 -6 0 -4 118493.00 118860.00 1679.05 o
1402 2 -7 -4 0 118493.00 118860.00 1679.05 o
1402 1 -8 0 4 118493.00 118860.00 1679.05 o
1403 4 -6 4 0 12921.80 13387.10 434.41 o
1403 3 -5 0 -4 12921.80 13387.10 434.41 o
1403 2 -6 -4 0 12921.80 13387.10 434.41 o
1403 1 -7 0 4 12921.80 13387.10 434.41 o
1404 4 -5 4 0 22422.80 22450.10 523.34 o
1404 3 -4 0 -4 22422.80 22450.10 523.34 o
1404 2 -5 -4 0 22422.80 22450.10 523.34 o
1404 1 -6 0 4 22422.80 22450.10 523.34 o
1405 4 -4 4 0 98850.20 99972.50 1003.47 o
1405 3 -3 0 -4 98850.20 99972.50 1003.47 o
1405 2 -4 -4 0 98850.20 99972.50 1003.47 o
1405 1 -5 0 4 98850.20 99972.50 1003.47 o
1406 4 -3 4 0 56746.20 56240.10 592.03 o
1406 3 -2 0 -4 56746.20 56240.10 592.03 o
1406 2 -3 -4 0 56746.20 56240.10 592.03 o
1406 1 -4 0 4 56746.20 56240.10 592.03 o
1407 4 -2 4 0 221037.00 219180.00 1179.59 o
1407 3 -1 0 -4 221037.00 219180.00 1179.59 o
1407 2 -2 -4 0 221037.00 219180.00 1179.59 o
1407 1 -3 0 4 221037.00 219180.00 1179.59 o
1408 4 -1 4 0 344096.00 354582.00 1226.45 o
1408 3 0 0 -4 344096.00 354582.00 1226.45 o
1408 2 -1 -4 0 344096.00 354582.00 1226.45 o
1408 1 -2 0 4 344096.00 354582.00 1226.45 o
1409 4 0 4 0 77524.00 79821.80 804.22 o
1409 3 1 0 -4 77524.00 79821.80 804.22 o
1409 2 0 -4 0 77524.00 79821.80 804.22 o
1409 1 -1 0 4 77524.00 79821.80 804.22 o
1410 4 1 4 0 343848.00 347842.00 2004.75 o
1410 3 2 0 -4 343848.00 347842.00 2004.75 o
1410 2 1 -4 0 343848.00 347842.00 2004.75 o
1410 1 0 0 4 343848.00 347842.00 2004.75 o
1411 4 2 4 0 219089.00 217021.00 1403.03 o
1411 3 3 0 -4 219089.00 217021.00 1403.03 o
1411 2 2 -4 0 219089.00 217021.00 1403.03 o
1411 1 1 0 4 219089.00 217021.00 1403.03 o
1412 4 3 4 0 53381.90 52765.50 875.40 o
1412 3 4 0 -4 53381.90 52765.50 875.40 o
1412 2 3 -4 0 53381.90 52765.50 875.40 o
1412 1 2 0 4 53381.90 52765.50 875.40 o
1413 4 4 4 0 100663.00 98856.90 1146.93 o
1413 3 5 0 -4 100663.00 98856.90 1146.93 o
1413 2 4 -4 0 100663.00 98856.90 1146.93 o
1413 1 3 0 4 100663.00 98856.90 1146.93 o
1414 4 5 4 0 23463.70 23132.50 595.29 o
1414 3 6 0 -4 23463.70 23132.50 595.29 o
1414 2 5 -4 0 23463.70 23132.50 595.29 o
1414 1 4 0 4 23463.70 23132.50 595.29 o
1415 4 6 4 0 15350.50 15664.70 647.80 o
1415 3 7 0 -4 15350.50 15664.70 647.80 o
1415 2 6 -4 0 15350.50 15664.70 647.80 o
1415 1 5 0 4 15350.50 15664.70 647.80 o
1416 4 7 4 0 121266.00 121390.00 1909.91 o
1416 3 8 0 -4 121266.00 121390.00 1909.91 o
1416 2 7 -4 0 121266.00 121390.00 1909.91 o
1416 1 6 0 4 121266.00 121390.00 1909.91 o
1417 4 8 4 0 378.68 460.94 256.56 <
1417 3 9 0 -4 378.68 460.94 256.56 <
1417 2 8 -4 0 378.68 460.94 256.56 <
1417 1 7 0 4 378.68 460.94 256.56 <
1418 4 9 4 0 37490.30 38870.20 2283.72 o
1418 3 10 0 -4 37490.30 38870.20 2283.72 o
1418 2 9 -4 0 37490.30 38870.20 2283.72 o
1418 1 8 0 4 37490.30 38870.20 2283.72 o
1419 4 10 4 0 48458.00 50119.60 2634.03 o
1419 3 11 0 -4 48458.00 50119.60 2634.03 o
1419 2 10 -4 0 48458.00 50119.60 2634.03 o
1419 1 9 0 4 48458.00 50119.60 2634.03 o
1420 4 11 4 0 12813.00 12991.70 1364.46 o
1420 3 12 0 -4 12813.00 12991.70 1364.46 o
1420 2 11 -4 0 12813.00 12991.70 1364.46 o
1420 1 10 0 4 12813.00 12991.70 1364.46 o
1421 3 -9 -1 -4 77.28 191.33 98.92 <
1421 1 -11 1 4 77.28 191.33 98.92 <
1422 3 -8 -1 -4 67.23 109.80 64.14 <
1422 1 -10 1 4 67.23 109.80 64.14 <
1423 3 -7 -1 -4 110.29 57.62 43.48 <
1423 1 -9 1 4 110.29 57.62 43.48 <
1424 3 -6 -1 -4 410.77 394.63 75.01 o
1424 1 -8 1 4 410.77 394.63 75.01 o
1425 3 -5 -1 -4 102.54 109.80 29.35 o
1425 1 -7 1 4 102.54 109.80 29.35 o
1426 3 -4 -1 -4 88.30 176.11 45.66 o
1426 1 -6 1 4 88.30 176.11 45.66 o
1427 3 -3 -1 -4 402.13 451.20 45.66 o
1427 1 -5 1 4 402.13 451.20 45.66 o
1428 3 -2 -1 -4 108.09 133.72 26.09 o
1428 1 -4 1 4 108.09 133.72 26.09 o
1429 3 -1 -1 -4 194.65 164.16 23.92 o
1429 1 -3 1 4 194.65 164.16 23.92 o
1430 3 0 -1 -4 572.98 552.38 38.06 o
1430 1 -2 1 4 572.98 552.38 38.06 o
1431 3 1 -1 -4 489.82 452.33 36.97 o
1431 1 -1 1 4 489.82 452.33 36.97 o
1432 3 2 -1 -4 576.31 517.58 60.89 o
1432 1 0 1 4 576.31 517.58 60.89 o
1433 3 3 -1 -4 168.21 248.96 38.05 o
1433 1 1 1 4 168.21 248.96 38.05 o
1434 3 4 -1 -4 189.75 231.55 31.53 o
1434 1 2 1 4 189.75 231.55 31.53 o
1435 3 5 -1 -4 474.74 508.81 63.06 o
1435 1 3 1 4 474.74 508.81 63.06 o
1436 3 6 -1 -4 66.03 183.72 54.35 o
1436 1 4 1 4 66.03 183.72 54.35 o
1437 3 7 -1 -4 100.64 120.67 56.53 <
1437 1 5 1 4 100.64 120.67 56.53 <
1438 3 8 -1 -4 339.86 448.99 120.67 o
1438 1 6 1 4 339.86 448.99 120.67 o
1439 3 9 -1 -4 101.64 132.62 75.01 <
1439 1 7 1 4 101.64 132.62 75.01 <
1440 3 10 -1 -4 63.75 278.29 164.15 <
1440 1 8 1 4 63.75 278.29 164.15 <
1441 3 11 -1 -4 79.69 104.36 140.23 <
1441 1 9 1 4 79.69 104.36 140.23 <
1442 3 12 -1 -4 83.09 8.70 77.18 <
1442 1 10 1 4 83.09 8.70 77.18 <
1443 3 -10 -2 -4 728.16 894.76 302.24 <
1443 1 -12 2 4 728.16 894.76 302.24 <
1444 3 -9 -2 -4 7.31 11.96 48.92 <
1444 1 -11 2 4 7.31 11.96 48.92 <
1445 3 -8 -2 -4 1428.39 1593.89 183.74 o
1445 1 -10 2 4 1428.39 1593.89 183.74 o
1446 3 -7 -2 -4 33.60 106.53 55.44 <
1446 1 -9 2 4 33.60 106.53 55.44 <
1447 3 -6 -2 -4 214.90 214.16 63.05 o
1447 1 -8 2 4 214.90 214.16 63.05 o
1448 3 -5 -2 -4 364.96 378.32 65.23 o
1448 1 -7 2 4 364.96 378.32 65.23 o
1449 3 -4 -2 -4 245.44 251.13 40.22 o
1449 1 -6 2 4 245.44 251.13 40.22 o
1450 3 -3 -2 -4 37.13 97.84 33.70 <
1450 1 -5 2 4 37.13 97.84 33.70 <
1451 3 -2 -2 -4 58.52 78.27 22.83 o
1451 1 -4 2 4 58.52 78.27 22.83 o
1452 3 -1 -2 -4 59.82 69.58 23.92 <
1452 1 -3 2 4 59.82 69.58 23.92 <
1453 3 0 -2 -4 153.59 301.12 33.70 o
1453 1 -2 2 4 153.59 301.12 33.70 o
1454 3 1 -2 -4 41.68 253.29 33.70 o
1454 1 -1 2 4 41.68 253.29 33.70 o
1455 3 2 -2 -4 41.09 108.71 21.74 o
1455 1 0 2 4 41.09 108.71 21.74 o
1456 3 3 -2 -4 162.55 166.32 40.22 o
1456 1 1 2 4 162.55 166.32 40.22 o
1457 3 4 -2 -4 23.11 -2.17 21.74 <
1457 1 2 2 4 23.11 -2.17 21.74 <
1458 3 5 -2 -4 19.75 58.70 34.79 <
1458 1 3 2 4 19.75 58.70 34.79 <
1459 3 6 -2 -4 280.10 260.91 48.92 o
1459 1 4 2 4 280.10 260.91 48.92 o
1460 3 7 -2 -4 206.05 300.05 79.36 o
1460 1 5 2 4 206.05 300.05 79.36 o
1461 3 8 -2 -4 163.61 250.04 67.40 o
1461 1 6 2 4 163.61 250.04 67.40 o
1462 3 9 -2 -4 55.99 29.35 67.40 <
1462 1 7 2 4 55.99 29.35 67.40 <
1463 3 10 -2 -4 1135.89 1302.57 233.77 o
1463 1 8 2 4 1135.89 1302.57 233.77 o
1464 3 11 -2 -4 20.84 437.01 359.82 <
1464 1 9 2 4 20.84 437.01 359.82 <
1465 3 12 -2 -4 911.44 928.44 266.36 o
1465 1 10 2 4 911.44 928.44 266.36 o
1466 3 -10 -3 -4 6.05 18.48 151.10 <
1466 1 -12 3 4 6.05 18.48 151.10 <
1467 3 -9 -3 -4 17.89 -93.49 61.96 <
1467 1 -11 3 4 17.89 -93.49 61.96 <
1468 3 -8 -3 -4 6.53 -44.57 56.53 <
1468 1 -10 3 4 6.53 -44.57 56.53 <
1469 3 -7 -3 -4 39.62 35.87 63.05 <
1469 1 -9 3 4 39.62 35.87 63.05 <
1470 3 -6 -3 -4 11.54 41.31 40.22 <
1470 1 -8 3 4 11.54 41.31 40.22 <
1471 3 -5 -3 -4 51.71 66.31 40.22 <
1471 1 -7 3 4 51.71 66.31 40.22 <
1472 3 -4 -3 -4 20.63 -14.13 40.22 <
1472 1 -6 3 4 20.63 -14.13 40.22 <
1473 3 -3 -3 -4 117.43 100.01 25.00 o
1473 1 -5 3 4 117.43 100.01 25.00 o
1474 3 -2 -3 -4 8.90 23.92 23.92 <
1474 1 -4 3 4 8.90 23.92 23.92 <
1475 3 -1 -3 -4 46.48 97.84 25.00 o
1475 1 -3 3 4 46.48 97.84 25.00 o
1476 3 0 -3 -4 3.91 43.48 18.48 <
1476 1 -2 3 4 3.91 43.48 18.48 <
1477 3 1 -3 -4 33.76 69.57 19.57 o
1477 1 -1 3 4 33.76 69.57 19.57 o
1478 3 2 -3 -4 9.36 14.13 21.74 <
1478 1 0 3 4 9.36 14.13 21.74 <
1479 3 3 -3 -4 40.03 4.35 29.35 <
1479 1 1 3 4 40.03 4.35 29.35 <
1480 3 4 -3 -4 2.36 6.52 28.26 <
1480 1 2 3 4 2.36 6.52 28.26 <
1481 3 5 -3 -4 25.26 70.66 42.40 <
1481 1 3 3 4 25.26 70.66 42.40 <
1482 3 6 -3 -4 48.61 35.87 38.05 <
1482 1 4 3 4 48.61 35.87 38.05 <
1483 3 7 -3 -4 33.55 94.58 63.05 <
1483 1 5 3 4 33.55 94.58 63.05 <
1484 3 8 -3 -4 1.74 -3.26 75.01 <
1484 1 6 3 4 1.74 -3.26 75.01 <
1485 3 9 -3 -4 9.32 -14.13 81.53 <
1485 1 7 3 4 9.32 -14.13 81.53 <
1486 3 10 -3 -4 21.76 73.92 88.05 <
1486 1 8 3 4 21.76 73.92 88.05 <
1487 3 11 -3 -4 14.60 90.23 146.76 <
1487 1 9 3 4 14.60 90.23 146.76 <
1488 4 -9 4 -4 3584.01 3441.17 428.38 o
1488 3 -9 -4 -4 3584.01 3441.17 428.38 o
1488 2 -11 -4 4 3584.01 3441.17 428.38 o
1488 1 -11 4 4 3584.01 3441.17 428.38 o
1489 4 -8 4 -4 1221.60 1571.02 284.85 o
1489 3 -8 -4 -4 1221.60 1571.02 284.85 o
1489 2 -10 -4 4 1221.60 1571.02 284.85 o
1489 1 -10 4 4 1221.60 1571.02 284.85 o
1490 4 -7 4 -4 96930.00 98560.10 1926.51 o
1490 3 -7 -4 -4 96930.00 98560.10 1926.51 o
1490 2 -9 -4 4 96930.00 98560.10 1926.51 o
1490 1 -9 4 4 96930.00 98560.10 1926.51 o
1491 4 -6 4 -4 77.64 279.38 100.01 <
1491 3 -6 -4 -4 77.64 279.38 100.01 <
1491 2 -8 -4 4 77.64 279.38 100.01 <
1491 1 -8 4 4 77.64 279.38 100.01 <
1492 4 -5 4 -4 42839.40 42871.00 1085.34 o
1492 3 -5 -4 -4 42839.40 42871.00 1085.34 o
1492 2 -7 -4 4 42839.40 42871.00 1085.34 o
1492 1 -7 4 4 42839.40 42871.00 1085.34 o
1493 4 -4 4 -4 13036.00 14111.00 707.89 o
1493 3 -4 -4 -4 13036.00 14111.00 707.89 o
1493 2 -6 -4 4 13036.00 14111.00 707.89 o
1493 1 -6 4 4 13036.00 14111.00 707.89 o
1494 4 -3 4 -4 6851.96 7626.87 343.76 o
1494 3 -3 -4 -4 6851.96 7626.87 343.76 o
1494 2 -5 -4 4 6851.96 7626.87 343.76 o
1494 1 -5 4 4 6851.96 7626.87 343.76 o
1495 4 -2 4 -4 207276.00 210048.00 2254.51 o
1495 3 -2 -4 -4 207276.00 210048.00 2254.51 o
1495 2 -4 -4 4 207276.00 210048.00 2254.51 o
1495 1 -4 4 4 207276.00 210048.00 2254.51 o
1496 4 -1 4 -4 4865.96 4942.12 246.94 o
1496 3 -1 -4 -4 4865.96 4942.12 246.94 o
1496 2 -3 -4 4 4865.96 4942.12 246.94 o
1496 1 -3 4 4 4865.96 4942.12 246.94 o
1497 4 0 4 -4 1240.79 1354.81 115.26 o
1497 3 0 -4 -4 1240.79 1354.81 115.26 o
1497 2 -2 -4 4 1240.79 1354.81 115.26 o
1497 1 -2 4 4 1240.79 1354.81 115.26 o
1498 4 1 4 -4 636900.00 620135.00 2245.97 o
1498 3 1 -4 -4 636900.00 620135.00 2245.97 o
1498 2 -1 -4 4 636900.00 620135.00 2245.97 o
1498 1 -1 4 4 636900.00 620135.00 2245.97 o
1499 4 2 4 -4 1256.35 1822.35 121.78 o
1499 3 2 -4 -4 1256.35 1822.35 121.78 o
1499 2 0 -4 4 1256.35 1822.35 121.78 o
1499 1 0 4 4 1256.35 1822.35 121.78 o
1500 4 3 4 -4 4539.57 4852.61 176.26 o
1500 3 3 -4 -4 4539.57 4852.61 176.26 o
1500 2 1 -4 4 4539.57 4852.61 176.26 o
1500 1 1 4 4 4539.57 4852.61 176.26 o
1501 4 4 4 -4 205939.00 210214.00 1479.87 o
1501 3 4 -4 -4 205939.00 210214.00 1479.87 o
1501 2 2 -4 4 205939.00 210214.00 1479.87 o
1501 1 2 4 4 205939.00 210214.00 1479.87 o
1502 4 5 4 -4 6105.85 6669.30 237.22 o
1502 3 5 -4 -4 6105.85 6669.30 237.22 o
1502 2 3 -4 4 6105.85 6669.30 237.22 o
1502 1 3 4 4 6105.85 6669.30 237.22 o
1503 4 6 4 -4 14503.10 15161.90 398.39 o
1503 3 6 -4 -4 14503.10 15161.90 398.39 o
1503 2 4 -4 4 14503.10 15161.90 398.39 o
1503 1 4 4 4 14503.10 15161.90 398.39 o
1504 4 7 4 -4 43485.50 44336.50 1004.32 o
1504 3 7 -4 -4 43485.50 44336.50 1004.32 o
1504 2 5 -4 4 43485.50 44336.50 1004.32 o
1504 1 5 4 4 43485.50 44336.50 1004.32 o
1505 4 8 4 -4 154.99 56.53 106.53 <
1505 3 8 -4 -4 154.99 56.53 106.53 <
1505 2 6 -4 4 154.99 56.53 106.53 <
1505 1 6 4 4 154.99 56.53 106.53 <
1506 4 9 4 -4 99020.20 94045.20 2410.66 o
1506 3 9 -4 -4 99020.20 94045.20 2410.66 o
1506 2 7 -4 4 99020.20 94045.20 2410.66 o
1506 1 7 4 4 99020.20 94045.20 2410.66 o
1507 4 10 4 -4 1472.66 1776.41 339.19 o
1507 3 10 -4 -4 1472.66 1776.41 339.19 o
1507 2 8 -4 4 1472.66 1776.41 339.19 o
1507 1 8 4 4 1472.66 1776.41 339.19 o
1508 4 11 4 -4 3015.42 3495.93 506.72 o
1508 3 11 -4 -4 3015.42 3495.93 506.72 o
1508 2 9 -4 4 3015.42 3495.93 506.72 o
1508 1 9 4 4 3015.42 3495.93 506.72 o
1509 3 -9 -5 -4 208.79 204.38 123.93 <
1509 1 -11 5 4 208.79 204.38 123.93 <
1510 3 -8 -5 -4 400.15 495.73 116.32 o
1510 1 -10 5 4 400.15 495.73 116.32 o
1511 3 -7 -5 -4 553.58 722.96 129.37 o
1511 1 -9 5 4 553.58 722.96 129.37 o
1512 3 -6 -5 -4 461.52 480.50 86.97 o
1512 1 -8 5 4 461.52 480.50 86.97 o
1513 3 -5 -5 -4 896.27 862.15 123.94 o
1513 1 -7 5 4 896.27 862.15 123.94 o
1514 3 -4 -5 -4 829.63 874.16 107.64 o
1514 1 -6 5 4 829.63 874.16 107.64 o
1515 3 -3 -5 -4 419.57 442.46 64.14 o
1515 1 -5 5 4 419.57 442.46 64.14 o
1516 3 -2 -5 -4 898.59 975.33 100.03 o
1516 1 -4 5 4 898.59 975.33 100.03 o
1517 3 -1 -5 -4 1061.82 1138.59 85.91 o
1517 1 -3 5 4 1061.82 1138.59 85.91 o
1518 3 0 -5 -4 1086.10 1152.62 104.39 o
1518 1 -2 5 4 1086.10 1152.62 104.39 o
1519 3 1 -5 -4 1396.87 1463.82 106.58 o
1519 1 -1 5 4 1396.87 1463.82 106.58 o
1520 3 2 -5 -4 960.10 942.80 83.73 o
1520 1 0 5 4 960.10 942.80 83.73 o
1521 3 3 -5 -4 1323.74 1277.67 95.69 o
1521 1 1 5 4 1323.74 1277.67 95.69 o
1522 3 4 -5 -4 911.78 914.43 94.60 o
1522 1 2 5 4 911.78 914.43 94.60 o
1523 3 5 -5 -4 268.73 225.05 54.36 o
1523 1 3 5 4 268.73 225.05 54.36 o
1524 3 6 -5 -4 865.65 1005.71 134.82 o
1524 1 4 5 4 865.65 1005.71 134.82 o
1525 3 7 -5 -4 706.62 723.02 113.07 o
1525 1 5 5 4 706.62 723.02 113.07 o
1526 3 8 -5 -4 229.72 364.20 110.89 o
1526 1 6 5 4 229.72 364.20 110.89 o
1527 3 9 -5 -4 496.48 388.12 118.50 o
1527 1 7 5 4 496.48 388.12 118.50 o
1528 3 10 -5 -4 363.19 446.81 126.11 o
1528 1 8 5 4 363.19 446.81 126.11 o
1529 3 11 -5 -4 199.19 178.29 85.88 <
1529 1 9 5 4 199.19 178.29 85.88 <
1530 3 -8 -6 -4 475.62 634.90 175.03 o
1530 1 -10 6 4 475.62 634.90 175.03 o
1531 3 -7 -6 -4 234.15 400.05 119.58 o
1531 1 -9 6 4 234.15 400.05 119.58 o
1532 3 -6 -6 -4 550.99 659.88 131.54 o
1532 1 -8 6 4 550.99 659.88 131.54 o
1533 3 -5 -6 -4 10.17 29.35 85.88 <
1533 1 -7 6 4 10.17 29.35 85.88 <
1534 3 -4 -6 -4 42.32 116.32 48.92 <
1534 1 -6 6 4 42.32 116.32 48.92 <
1535 3 -3 -6 -4 389.36 304.40 60.88 o
1535 1 -5 6 4 389.36 304.40 60.88 o
1536 3 -2 -6 -4 316.92 313.10 50.01 o
1536 1 -4 6 4 316.92 313.10 50.01 o
1537 3 -1 -6 -4 187.96 166.32 42.40 o
1537 1 -3 6 4 187.96 166.32 42.40 o
1538 3 0 -6 -4 11.66 75.01 42.40 <
1538 1 -2 6 4 11.66 75.01 42.40 <
1539 3 1 -6 -4 11.26 145.67 47.83 o
1539 1 -1 6 4 11.26 145.67 47.83 o
1540 3 2 -6 -4 52.44 56.53 41.31 <
1540 1 0 6 4 52.44 56.53 41.31 <
1541 3 3 -6 -4 57.49 75.01 36.96 <
1541 1 1 6 4 57.49 75.01 36.96 <
1542 3 4 -6 -4 308.73 431.60 77.19 o
1542 1 2 6 4 308.73 431.60 77.19 o
1543 3 5 -6 -4 322.18 338.11 84.80 o
1543 1 3 6 4 322.18 338.11 84.80 o
1544 3 6 -6 -4 6.30 83.71 72.83 <
1544 1 4 6 4 6.30 83.71 72.83 <
1545 3 7 -6 -4 8.65 20.65 51.09 <
1545 1 5 6 4 8.65 20.65 51.09 <
1546 3 8 -6 -4 304.09 256.57 89.15 <
1546 1 6 6 4 304.09 256.57 89.15 <
1547 3 9 -6 -4 148.08 78.27 82.62 <
1547 1 7 6 4 148.08 78.27 82.62 <
1548 3 10 -6 -4 524.57 588.14 143.50 o
1548 1 8 6 4 524.57 588.14 143.50 o
1549 3 11 -6 -4 35.37 261.99 111.97 <
1549 1 9 6 4 35.37 261.99 111.97 <
1550 3 -8 -7 -4 0.82 169.58 126.10 <
1550 1 -10 7 4 0.82 169.58 126.10 <
1551 3 -7 -7 -4 6.71 206.54 120.67 <
1551 1 -9 7 4 6.71 206.54 120.67 <
1552 3 -6 -7 -4 95.21 90.23 86.97 <
1552 1 -8 7 4 95.21 90.23 86.97 <
1553 3 -5 -7 -4 21.27 76.10 79.36 <
1553 1 -7 7 4 21.27 76.10 79.36 <
1554 3 -4 -7 -4 48.40 166.32 70.66 <
1554 1 -6 7 4 48.40 166.32 70.66 <
1555 3 -3 -7 -4 35.62 90.23 48.92 <
1555 1 -5 7 4 35.62 90.23 48.92 <
1556 3 -2 -7 -4 25.50 106.53 42.40 <
1556 1 -4 7 4 25.50 106.53 42.40 <
1557 3 -1 -7 -4 13.41 125.01 47.83 <
1557 1 -3 7 4 13.41 125.01 47.83 <
1558 3 0 -7 -4 38.32 56.53 46.74 <
1558 1 -2 7 4 38.32 56.53 46.74 <
1559 3 1 -7 -4 10.62 52.18 53.27 <
1559 1 -1 7 4 10.62 52.18 53.27 <
1560 3 2 -7 -4 5.11 69.57 50.01 <
1560 1 0 7 4 5.11 69.57 50.01 <
1561 3 3 -7 -4 13.29 121.75 55.44 <
1561 1 1 7 4 13.29 121.75 55.44 <
1562 3 4 -7 -4 3.42 -46.74 46.74 <
1562 1 2 7 4 3.42 -46.74 46.74 <
1563 3 5 -7 -4 13.14 153.28 69.57 <
1563 1 3 7 4 13.14 153.28 69.57 <
1564 3 6 -7 -4 7.06 84.79 67.40 <
1564 1 4 7 4 7.06 84.79 67.40 <
1565 3 7 -7 -4 2.96 193.50 72.83 <
1565 1 5 7 4 2.96 193.50 72.83 <
1566 3 8 -7 -4 16.72 19.57 79.36 <
1566 1 6 7 4 16.72 19.57 79.36 <
1567 3 9 -7 -4 7.09 73.92 102.18 <
1567 1 7 7 4 7.09 73.92 102.18 <
1568 3 10 -7 -4 2.28 -11.96 92.40 <
1568 1 8 7 4 2.28 -11.96 92.40 <
1569 3 11 -7 -4 1.54 43.48 184.80 <
1569 1 9 7 4 1.54 43.48 184.80 <
1570 4 -7 4 -8 7292.27 7204.90 1305.24 o
1570 3 -8 -8 -4 7292.27 7204.90 1305.24 o
1570 2 -11 -4 8 7292.27 7204.90 1305.24 o
1570 1 -10 8 4 7292.27 7204.90 1305.24 o
1571 4 -6 4 -8 9590.41 9917.29 891.88 o
1571 3 -7 -8 -4 9590.41 9917.29 891.88 o
1571 2 -10 -4 8 9590.41 9917.29 891.88 o
1571 1 -9 8 4 9590.41 9917.29 891.88 o
1572 4 -5 4 -8 38232.90 40143.70 1655.07 o
1572 3 -6 -8 -4 38232.90 40143.70 1655.07 o
1572 2 -9 -4 8 38232.90 40143.70 1655.07 o
1572 1 -8 8 4 38232.90 40143.70 1655.07 o
1573 4 -4 4 -8 168.15 369.61 185.89 <
1573 3 -5 -8 -4 168.15 369.61 185.89 <
1573 2 -8 -4 8 168.15 369.61 185.89 <
1573 1 -7 8 4 168.15 369.61 185.89 <
1574 4 -3 4 -8 345.56 435.94 167.42 <
1574 3 -4 -8 -4 345.56 435.94 167.42 <
1574 2 -7 -4 8 345.56 435.94 167.42 <
1574 1 -6 8 4 345.56 435.94 167.42 <
1575 4 -2 4 -8 19655.40 19913.60 915.96 o
1575 3 -3 -8 -4 19655.40 19913.60 915.96 o
1575 2 -6 -4 8 19655.40 19913.60 915.96 o
1575 1 -5 8 4 19655.40 19913.60 915.96 o
1576 4 -1 4 -8 78285.20 80965.50 1728.73 o
1576 3 -2 -8 -4 78285.20 80965.50 1728.73 o
1576 2 -5 -4 8 78285.20 80965.50 1728.73 o
1576 1 -4 8 4 78285.20 80965.50 1728.73 o
1577 4 0 4 -8 48726.60 50513.00 1273.86 o
1577 3 -1 -8 -4 48726.60 50513.00 1273.86 o
1577 2 -4 -4 8 48726.60 50513.00 1273.86 o
1577 1 -3 8 4 48726.60 50513.00 1273.86 o
1578 4 1 4 -8 83900.50 86410.80 1306.70 o
1578 3 0 -8 -4 83900.50 86410.80 1306.70 o
1578 2 -3 -4 8 83900.50 86410.80 1306.70 o
1578 1 -2 8 4 83900.50 86410.80 1306.70 o
1579 4 2 4 -8 101318.00 100133.00 1280.66 o
1579 3 1 -8 -4 101318.00 100133.00 1280.66 o
1579 2 -2 -4 8 101318.00 100133.00 1280.66 o
1579 1 -1 8 4 101318.00 100133.00 1280.66 o
1580 4 3 4 -8 83901.60 85275.30 1412.13 o
1580 3 2 -8 -4 83901.60 85275.30 1412.13 o
1580 2 -1 -4 8 83901.60 85275.30 1412.13 o
1580 1 0 8 4 83901.60 85275.30 1412.13 o
1581 4 4 4 -8 48263.10 48009.00 1020.82 o
1581 3 3 -8 -4 48263.10 48009.00 1020.82 o
1581 2 0 -4 8 48263.10 48009.00 1020.82 o
1581 1 1 8 4 48263.10 48009.00 1020.82 o
1582 4 5 4 -8 76682.70 77443.60 1721.94 o
1582 3 4 -8 -4 76682.70 77443.60 1721.94 o
1582 2 1 -4 8 76682.70 77443.60 1721.94 o
1582 1 2 8 4 76682.70 77443.60 1721.94 o
1583 4 6 4 -8 19938.40 20012.90 745.94 o
1583 3 5 -8 -4 19938.40 20012.90 745.94 o
1583 2 2 -4 8 19938.40 20012.90 745.94 o
1583 1 3 8 4 19938.40 20012.90 745.94 o
1584 4 7 4 -8 385.28 712.05 194.59 o
1584 3 6 -8 -4 385.28 712.05 194.59 o
1584 2 3 -4 8 385.28 712.05 194.59 o
1584 1 4 8 4 385.28 712.05 194.59 o
1585 4 8 4 -8 131.01 247.86 103.27 <
1585 3 7 -8 -4 131.01 247.86 103.27 <
1585 2 4 -4 8 131.01 247.86 103.27 <
1585 1 5 8 4 131.01 247.86 103.27 <
1586 4 9 4 -8 38774.80 40093.90 1309.11 o
1586 3 8 -8 -4 38774.80 40093.90 1309.11 o
1586 2 5 -4 8 38774.80 40093.90 1309.11 o
1586 1 6 8 4 38774.80 40093.90 1309.11 o
1587 4 10 4 -8 9145.59 8806.21 657.07 o
1587 3 9 -8 -4 9145.59 8806.21 657.07 o
1587 2 6 -4 8 9145.59 8806.21 657.07 o
1587 1 7 8 4 9145.59 8806.21 657.07 o
1588 4 11 4 -8 7659.68 7212.49 628.59 o
1588 3 10 -8 -4 7659.68 7212.49 628.59 o
1588 2 7 -4 8 7659.68 7212.49 628.59 o
1588 1 8 8 4 7659.68 7212.49 628.59 o
1589 3 -8 -9 -4 467.74 744.68 402.23 <
1589 1 -10 9 4 467.74 744.68 402.23 <
1590 3 -7 -9 -4 690.23 464.20 157.63 <
1590 1 -9 9 4 690.23 464.20 157.63 <
1591 3 -6 -9 -4 1021.79 1237.25 228.32 o
1591 1 -8 9 4 1021.79 1237.25 228.32 o
1592 3 -5 -9 -4 840.12 929.51 173.94 o
1592 1 -7 9 4 840.12 929.51 173.94 o
1593 3 -4 -9 -4 887.54 969.73 168.51 o
1593 1 -6 9 4 887.54 969.73 168.51 o
1594 3 -3 -9 -4 1157.57 1248.24 150.05 o
1594 1 -5 9 4 1157.57 1248.24 150.05 o
1595 3 -2 -9 -4 877.91 1030.68 134.82 o
1595 1 -4 9 4 877.91 1030.68 134.82 o
1596 3 -1 -9 -4 1093.21 1219.89 138.08 o
1596 1 -3 9 4 1093.21 1219.89 138.08 o
1597 3 0 -9 -4 1336.33 1288.61 140.28 o
1597 1 -2 9 4 1336.33 1288.61 140.28 o
1598 3 1 -9 -4 1316.09 1265.67 133.74 o
1598 1 -1 9 4 1316.09 1265.67 133.74 o
1599 3 2 -9 -4 1728.84 1511.39 155.49 o
1599 1 0 9 4 1728.84 1511.39 155.49 o
1600 3 3 -9 -4 903.26 791.55 102.21 o
1600 1 1 9 4 903.26 791.55 102.21 o
1601 3 4 -9 -4 773.13 664.30 116.33 o
1601 1 2 9 4 773.13 664.30 116.33 o
1602 3 5 -9 -4 1343.13 1383.01 179.40 o
1602 1 3 9 4 1343.13 1383.01 179.40 o
1603 3 6 -9 -4 461.80 637.12 128.29 o
1603 1 4 9 4 461.80 637.12 128.29 o
1604 3 7 -9 -4 486.86 479.46 116.33 o
1604 1 5 9 4 486.86 479.46 116.33 o
1605 3 8 -9 -4 973.81 953.49 178.30 o
1605 1 6 9 4 973.81 953.49 178.30 o
1606 3 9 -9 -4 383.70 637.08 161.99 o
1606 1 7 9 4 383.70 637.08 161.99 o
1607 3 10 -9 -4 362.74 360.93 282.66 <
1607 1 8 9 4 362.74 360.93 282.66 <
1608 3 -7 -10 -4 259.34 526.17 364.19 <
1608 1 -9 10 4 259.34 526.17 364.19 <
1609 3 -6 -10 -4 592.07 664.26 169.60 o
1609 1 -8 10 4 592.07 664.26 169.60 o
1610 3 -5 -10 -4 8.54 1.09 92.40 <
1610 1 -7 10 4 8.54 1.09 92.40 <
1611 3 -4 -10 -4 0.76 86.97 78.27 <
1611 1 -6 10 4 0.76 86.97 78.27 <
1612 3 -3 -10 -4 24.23 92.40 83.71 <
1612 1 -5 10 4 24.23 92.40 83.71 <
1613 3 -2 -10 -4 13.12 -45.66 73.92 <
1613 1 -4 10 4 13.12 -45.66 73.92 <
1614 3 -1 -10 -4 93.45 144.58 61.96 <
1614 1 -3 10 4 93.45 144.58 61.96 <
1615 3 0 -10 -4 156.37 145.68 63.05 <
1615 1 -2 10 4 156.37 145.68 63.05 <
1616 3 1 -10 -4 272.56 248.95 78.27 o
1616 1 -1 10 4 272.56 248.95 78.27 o
1617 3 2 -10 -4 290.72 256.56 66.31 o
1617 1 0 10 4 290.72 256.56 66.31 o
1618 3 3 -10 -4 55.79 60.88 55.44 <
1618 1 1 10 4 55.79 60.88 55.44 <
1619 3 4 -10 -4 49.44 113.06 65.22 <
1619 1 2 10 4 49.44 113.06 65.22 <
1620 3 5 -10 -4 61.23 76.10 78.27 <
1620 1 3 10 4 61.23 76.10 78.27 <
1621 3 6 -10 -4 0.60 -30.44 85.88 <
1621 1 4 10 4 0.60 -30.44 85.88 <
1622 3 7 -10 -4 24.95 170.67 83.70 <
1622 1 5 10 4 24.95 170.67 83.70 <
1623 3 8 -10 -4 653.78 766.44 168.51 o
1623 1 6 10 4 653.78 766.44 168.51 o
1624 3 9 -10 -4 409.05 366.36 178.29 <
1624 1 7 10 4 409.05 366.36 178.29 <
1625 3 -6 -11 -4 6.44 272.86 160.89 <
1625 1 -8 11 4 6.44 272.86 160.89 <
1626 3 -5 -11 -4 120.04 118.49 85.88 <
1626 1 -7 11 4 120.04 118.49 85.88 <
1627 3 -4 -11 -4 106.15 133.71 100.01 <
1627 1 -6 11 4 106.15 133.71 100.01 <
1628 3 -3 -11 -4 16.44 4.35 77.18 <
1628 1 -5 11 4 16.44 4.35 77.18 <
1629 3 -2 -11 -4 88.80 20.65 43.48 <
1629 1 -4 11 4 88.80 20.65 43.48 <
1630 3 -1 -11 -4 171.88 244.60 98.93 <
1630 1 -3 11 4 171.88 244.60 98.93 <
1631 3 0 -11 -4 59.08 217.42 75.01 <
1631 1 -2 11 4 59.08 217.42 75.01 <
1632 3 1 -11 -4 85.25 118.49 55.44 <
1632 1 -1 11 4 85.25 118.49 55.44 <
1633 3 2 -11 -4 83.18 -7.61 52.18 <
1633 1 0 11 4 83.18 -7.61 52.18 <
1634 3 3 -11 -4 86.25 195.68 83.71 <
1634 1 1 11 4 86.25 195.68 83.71 <
1635 3 4 -11 -4 37.72 39.14 68.49 <
1635 1 2 11 4 37.72 39.14 68.49 <
1636 3 5 -11 -4 45.69 235.90 104.36 <
1636 1 3 11 4 45.69 235.90 104.36 <
1637 3 6 -11 -4 83.31 164.15 102.19 <
1637 1 4 11 4 83.31 164.15 102.19 <
1638 3 7 -11 -4 73.34 172.85 150.02 <
1638 1 5 11 4 73.34 172.85 150.02 <
1639 3 8 -11 -4 48.41 203.28 102.18 <
1639 1 6 11 4 48.41 203.28 102.18 <
1640 3 9 -11 -4 23.70 422.88 481.58 <
1640 1 7 11 4 23.70 422.88 481.58 <
1641 4 -3 4 -12 1500.61 1013.23 278.31 o
1641 3 -5 -12 -4 1500.61 1013.23 278.31 o
1641 2 -9 -4 12 1500.61 1013.23 278.31 o
1641 1 -7 12 4 1500.61 1013.23 278.31 o
1642 4 -2 4 -12 768.63 965.34 260.90 o
1642 3 -4 -12 -4 768.63 965.34 260.90 o
1642 2 -8 -4 12 768.63 965.34 260.90 o
1642 1 -6 12 4 768.63 965.34 260.90 o
1643 4 -1 4 -12 27309.70 26752.10 1290.29 o
1643 3 -3 -12 -4 27309.70 26752.10 1290.29 o
1643 2 -7 -4 12 27309.70 26752.10 1290.29 o
1643 1 -5 12 4 27309.70 26752.10 1290.29 o
1644 4 0 4 -12 27188.10 26959.60 1221.67 o
1644 3 -2 -12 -4 27188.10 26959.60 1221.67 o
1644 2 -6 -4 12 27188.10 26959.60 1221.67 o
1644 1 -4 12 4 27188.10 26959.60 1221.67 o
1645 4 1 4 -12 25130.60 25462.40 1123.82 o
1645 3 -1 -12 -4 25130.60 25462.40 1123.82 o
1645 2 -5 -4 12 25130.60 25462.40 1123.82 o
1645 1 -3 12 4 25130.60 25462.40 1123.82 o
1646 4 2 4 -12 22816.70 23006.20 1008.32 o
1646 3 0 -12 -4 22816.70 23006.20 1008.32 o
1646 2 -4 -4 12 22816.70 23006.20 1008.32 o
1646 1 -2 12 4 22816.70 23006.20 1008.32 o
1647 4 3 4 -12 107847.00 107796.00 1457.10 o
1647 3 1 -12 -4 107847.00 107796.00 1457.10 o
1647 2 -3 -4 12 107847.00 107796.00 1457.10 o
1647 1 -1 12 4 107847.00 107796.00 1457.10 o
1648 4 4 4 -12 22886.10 23130.90 1035.47 o
1648 3 2 -12 -4 22886.10 23130.90 1035.47 o
1648 2 -2 -4 12 22886.10 23130.90 1035.47 o
1648 1 0 12 4 22886.10 23130.90 1035.47 o
1649 4 5 4 -12 24836.80 25868.70 919.25 o
1649 3 3 -12 -4 24836.80 25868.70 919.25 o
1649 2 -1 -4 12 24836.80 25868.70 919.25 o
1649 1 1 12 4 24836.80 25868.70 919.25 o
1650 4 6 4 -12 26927.80 28034.00 975.93 o
1650 3 4 -12 -4 26927.80 28034.00 975.93 o
1650 2 0 -4 12 26927.80 28034.00 975.93 o
1650 1 2 12 4 26927.80 28034.00 975.93 o
1651 4 7 4 -12 26872.00 27439.60 1292.90 o
1651 3 5 -12 -4 26872.00 27439.60 1292.90 o
1651 2 1 -4 12 26872.00 27439.60 1292.90 o
1651 1 3 12 4 26872.00 27439.60 1292.90 o
1652 4 8 4 -12 685.60 671.88 206.57 o
1652 3 6 -12 -4 685.60 671.88 206.57 o
1652 2 2 -4 12 685.60 671.88 206.57 o
1652 1 4 12 4 685.60 671.88 206.57 o
1653 4 9 4 -12 1508.28 1728.61 371.81 o
1653 3 7 -12 -4 1508.28 1728.61 371.81 o
1653 2 3 -4 12 1508.28 1728.61 371.81 o
1653 1 5 12 4 1508.28 1728.61 371.81 o
1654 3 -4 -13 -4 720.39 765.36 258.74 <
1654 1 -6 13 4 720.39 765.36 258.74 <
1655 3 -3 -13 -4 591.98 388.09 103.27 o
1655 1 -5 13 4 591.98 388.09 103.27 o
1656 3 -2 -13 -4 710.27 535.98 161.99 o
1656 1 -4 13 4 710.27 535.98 161.99 o
1657 3 -1 -13 -4 693.65 869.78 184.83 o
1657 1 -3 13 4 693.65 869.78 184.83 o
1658 3 0 -13 -4 851.27 790.37 170.68 o
1658 1 -2 13 4 851.27 790.37 170.68 o
1659 3 1 -13 -4 998.15 854.55 233.75 o
1659 1 -1 13 4 998.15 854.55 233.75 o
1660 3 2 -13 -4 627.22 778.44 153.30 o
1660 1 0 13 4 627.22 778.44 153.30 o
1661 3 3 -13 -4 966.11 875.17 133.72 o
1661 1 1 13 4 966.11 875.17 133.72 o
1662 3 4 -13 -4 782.16 970.85 150.03 o
1662 1 2 13 4 782.16 970.85 150.03 o
1663 3 5 -13 -4 229.69 276.14 101.11 <
1663 1 3 13 4 229.69 276.14 101.11 <
1664 3 6 -13 -4 657.93 597.95 247.88 <
1664 1 4 13 4 657.93 597.95 247.88 <
1665 3 -4 -14 -4 633.13 535.98 270.71 <
1665 1 -6 14 4 633.13 535.98 270.71 <
1666 3 -3 -14 -4 276.73 281.56 180.46 <
1666 1 -5 14 4 276.73 281.56 180.46 <
1667 3 -2 -14 -4 491.28 480.52 156.55 o
1667 1 -4 14 4 491.28 480.52 156.55 o
1668 3 -1 -14 -4 680.72 556.65 156.56 o
1668 1 -3 14 4 680.72 556.65 156.56 o
1669 3 0 -14 -4 1225.75 1382.95 399.01 o
1669 1 -2 14 4 1225.75 1382.95 399.01 o
1670 3 1 -14 -4 1505.10 1945.15 495.80 o
1670 1 -1 14 4 1505.10 1945.15 495.80 o
1671 3 2 -14 -4 1086.03 1211.19 191.35 o
1671 1 0 14 4 1086.03 1211.19 191.35 o
1672 3 3 -14 -4 911.51 864.29 152.20 o
1672 1 1 14 4 911.51 864.29 152.20 o
1673 3 4 -14 -4 512.46 503.35 133.72 o
1673 1 2 14 4 512.46 503.35 133.72 o
1674 3 5 -14 -4 333.99 407.67 120.67 o
1674 1 3 14 4 333.99 407.67 120.67 o
1675 3 -3 -15 -4 517.32 888.17 452.24 <
1675 1 -5 15 4 517.32 888.17 452.24 <
1676 3 -2 -15 -4 252.28 186.98 177.20 <
1676 1 -4 15 4 252.28 186.98 177.20 <
1677 3 0 -15 -4 514.71 304.39 132.63 <
1677 1 -2 15 4 514.71 304.39 132.63 <
1678 3 1 -15 -4 426.00 269.61 184.81 <
1678 1 -1 15 4 426.00 269.61 184.81 <
1679 3 2 -15 -4 316.75 232.65 133.72 <
1679 1 0 15 4 316.75 232.65 133.72 <
1680 3 3 -15 -4 258.70 185.90 104.36 <
1680 1 1 15 4 258.70 185.90 104.36 <
1681 3 4 -15 -4 314.24 483.76 214.16 <
1681 1 2 15 4 314.24 483.76 214.16 <
1682 2 5 -5 -15 10.23 250.03 245.68 <
1682 1 0 -15 5 10.23 250.03 245.68 <
1683 2 6 -5 -15 414.68 533.77 252.21 <
1683 1 1 -15 5 414.68 533.77 252.21 <
1684 4 -9 5 13 2837.58 2858.51 732.84 o
1684 1 -7 -13 5 2837.58 2858.51 732.84 o
1685 4 -8 5 13 374.77 55.44 156.54 <
1685 1 -6 -13 5 374.77 55.44 156.54 <
1686 4 -7 5 13 1401.19 1510.09 452.27 o
1686 1 -5 -13 5 1401.19 1510.09 452.27 o
1687 4 -6 5 13 1440.48 1866.74 496.86 o
1687 1 -4 -13 5 1440.48 1866.74 496.86 o
1688 4 -4 5 13 5171.43 5103.87 870.04 o
1688 1 -2 -13 5 5171.43 5103.87 870.04 o
1689 4 -3 5 13 2616.38 2453.04 594.78 o
1689 1 -1 -13 5 2616.38 2453.04 594.78 o
1690 4 -2 5 13 6028.89 6526.19 727.67 o
1690 1 0 -13 5 6028.89 6526.19 727.67 o
1691 4 -1 5 13 1891.69 2377.86 451.22 o
1691 1 1 -13 5 1891.69 2377.86 451.22 o
1692 4 0 5 13 1157.41 1186.13 233.75 o
1692 1 2 -13 5 1157.41 1186.13 233.75 o
1693 4 1 5 13 2004.05 2125.62 418.60 o
1693 1 3 -13 5 2004.05 2125.62 418.60 o
1694 2 -4 -5 -11 156.99 167.41 179.37 <
1694 1 -8 -11 5 156.99 167.41 179.37 <
1695 2 -3 -5 -11 151.07 294.60 159.80 <
1695 1 -7 -11 5 151.07 294.60 159.80 <
1696 2 -2 -5 -11 3746.66 3899.67 512.20 o
1696 1 -6 -11 5 3746.66 3899.67 512.20 o
1697 2 -1 -5 -11 3254.21 4552.34 846.09 o
1697 1 -5 -11 5 3254.21 4552.34 846.09 o
1698 2 0 -5 -11 14.79 -77.18 189.15 <
1698 1 -4 -11 5 14.79 -77.18 189.15 <
1699 2 1 -5 -11 1513.05 1661.31 280.51 o
1699 1 -3 -11 5 1513.05 1661.31 280.51 o
1700 2 2 -5 -11 774.62 1141.53 268.53 o
1700 1 -2 -11 5 774.62 1141.53 268.53 o
1701 2 3 -5 -11 90.84 182.63 157.63 <
1701 1 -1 -11 5 90.84 182.63 157.63 <
1702 2 4 -5 -11 1009.50 774.10 231.58 o
1702 1 0 -11 5 1009.50 774.10 231.58 o
1703 2 5 -5 -11 629.14 641.42 220.69 <
1703 1 1 -11 5 629.14 641.42 220.69 <
1704 2 6 -5 -11 884.93 790.38 198.95 o
1704 1 2 -11 5 884.93 790.38 198.95 o
1705 2 7 -5 -11 2738.54 2855.56 366.46 o
1705 1 3 -11 5 2738.54 2855.56 366.46 o
1706 2 8 -5 -11 1848.62 2463.80 497.98 o
1706 1 4 -11 5 1848.62 2463.80 497.98 o
1707 2 9 -5 -11 67.61 390.26 207.63 <
1707 1 5 -11 5 67.61 390.26 207.63 <
1708 4 -10 5 9 11380.40 12974.70 1021.74 o
1708 1 -9 -9 5 11380.40 12974.70 1021.74 o
1709 4 -9 5 9 4539.50 5138.44 615.53 o
1709 1 -8 -9 5 4539.50 5138.44 615.53 o
1710 4 -8 5 9 4832.94 5471.51 603.59 o
1710 1 -7 -9 5 4832.94 5471.51 603.59 o
1711 4 -7 5 9 9402.02 10917.10 825.88 o
1711 1 -6 -9 5 9402.02 10917.10 825.88 o
1712 4 -6 5 9 4169.04 4508.00 490.50 o
1712 1 -5 -9 5 4169.04 4508.00 490.50 o
1713 4 -5 5 9 5144.12 6158.60 532.98 o
1713 1 -4 -9 5 5144.12 6158.60 532.98 o
1714 4 -4 5 9 8394.02 9255.99 519.06 o
1714 1 -3 -9 5 8394.02 9255.99 519.06 o
1715 4 -3 5 9 14653.60 15221.70 715.56 o
1715 1 -2 -9 5 14653.60 15221.70 715.56 o
1716 4 -2 5 9 21567.70 23515.00 890.59 o
1716 1 -1 -9 5 21567.70 23515.00 890.59 o
1717 4 -1 5 9 8576.80 8962.74 551.74 o
1717 1 0 -9 5 8576.80 8962.74 551.74 o
1718 4 0 5 9 6802.01 6868.53 517.89 o
1718 1 1 -9 5 6802.01 6868.53 517.89 o
1719 4 1 5 9 4269.88 4188.52 408.95 o
1719 1 2 -9 5 4269.88 4188.52 408.95 o
1720 4 2 5 9 3699.57 3476.90 401.31 o
1720 1 3 -9 5 3699.57 3476.90 401.31 o
1721 4 3 5 9 14050.90 14828.70 1097.38 o
1721 1 4 -9 5 14050.90 14828.70 1097.38 o
1722 4 4 5 9 2168.30 2386.69 450.15 o
1722 1 5 -9 5 2168.30 2386.69 450.15 o
1723 4 5 5 9 3252.04 4023.53 604.62 o
1723 1 6 -9 5 3252.04 4023.53 604.62 o
1724 4 6 5 9 20153.60 22547.60 1854.56 o
1724 1 7 -9 5 20153.60 22547.60 1854.56 o
1725 2 -7 -5 -7 218.42 423.97 252.21 <
1725 1 -10 -7 5 218.42 423.97 252.21 <
1726 2 -6 -5 -7 11.75 198.93 130.45 <
1726 1 -9 -7 5 11.75 198.93 130.45 <
1727 2 -5 -5 -7 546.55 419.63 233.73 <
1727 1 -8 -7 5 546.55 419.63 233.73 <
1728 2 -4 -5 -7 4296.31 4596.44 534.04 o
1728 1 -7 -7 5 4296.31 4596.44 534.04 o
1729 2 -3 -5 -7 112.97 -35.87 69.57 <
1729 1 -6 -7 5 112.97 -35.87 69.57 <
1730 2 -2 -5 -7 1607.40 1827.82 187.02 o
1730 1 -5 -7 5 1607.40 1827.82 187.02 o
1731 2 -1 -5 -7 8692.08 9699.08 401.68 o
1731 1 -4 -7 5 8692.08 9699.08 401.68 o
1732 2 0 -5 -7 998.86 1135.13 150.05 o
1732 1 -3 -7 5 998.86 1135.13 150.05 o
1733 2 1 -5 -7 230.55 335.92 84.80 o
1733 1 -2 -7 5 230.55 335.92 84.80 o
1734 2 2 -5 -7 510.01 313.10 84.80 o
1734 1 -1 -7 5 510.01 313.10 84.80 o
1735 2 3 -5 -7 673.45 770.82 141.33 o
1735 1 0 -7 5 673.45 770.82 141.33 o
1736 2 4 -5 -7 3483.06 3591.76 270.85 o
1736 1 1 -7 5 3483.06 3591.76 270.85 o
1737 2 5 -5 -7 4903.56 4967.65 428.66 o
1737 1 2 -7 5 4903.56 4967.65 428.66 o
1738 2 6 -5 -7 1592.81 1627.72 251.17 o
1738 1 3 -7 5 1592.81 1627.72 251.17 o
1739 2 7 -5 -7 268.99 519.64 129.37 o
1739 1 4 -7 5 268.99 519.64 129.37 o
1740 2 8 -5 -7 3702.74 4278.59 588.39 o
1740 1 5 -7 5 3702.74 4278.59 588.39 o
1741 2 9 -5 -7 1079.31 1325.32 330.52 o
1741 1 6 -7 5 1079.31 1325.32 330.52 o
1742 2 10 -5 -7 998.16 1525.35 371.82 o
1742 1 7 -7 5 998.16 1525.35 371.82 o
1743 2 11 -5 -7 2198.78 2348.59 579.54 o
1743 1 8 -7 5 2198.78 2348.59 579.54 o
1744 4 -11 5 5 4144.33 3695.24 602.46 o
1744 1 -11 -5 5 4144.33 3695.24 602.46 o
1745 4 -10 5 5 3137.13 3270.89 419.73 o
1745 1 -10 -5 5 3137.13 3270.89 419.73 o
1746 4 -9 5 5 3719.95 3981.29 339.30 o
1746 1 -9 -5 5 3719.95 3981.29 339.30 o
1747 4 -8 5 5 13336.30 13704.60 651.04 o
1747 1 -8 -5 5 13336.30 13704.60 651.04 o
1748 4 -7 5 5 11509.40 12070.70 604.19 o
1748 1 -7 -5 5 11509.40 12070.70 604.19 o
1749 4 -6 5 5 1076.42 1090.50 134.82 o
1749 1 -6 -5 5 1076.42 1090.50 134.82 o
1750 4 -5 5 5 3307.06 3332.50 212.09 o
1750 1 -5 -5 5 3307.06 3332.50 212.09 o
1751 4 -4 5 5 8435.16 8607.92 400.62 o
1751 1 -4 -5 5 8435.16 8607.92 400.62 o
1752 4 -3 5 5 12179.60 12149.40 291.99 o
1752 1 -3 -5 5 12179.60 12149.40 291.99 o
1753 4 -2 5 5 16627.40 16648.10 527.85 o
1753 1 -2 -5 5 16627.40 16648.10 527.85 o
1754 4 -1 5 5 13136.30 13435.10 567.84 o
1754 1 -1 -5 5 13136.30 13435.10 567.84 o
1755 4 0 5 5 16141.80 16648.70 621.55 o
1755 1 0 -5 5 16141.80 16648.70 621.55 o
1756 4 1 5 5 7736.05 7709.31 622.67 o
1756 1 1 -5 5 7736.05 7709.31 622.67 o
1757 4 2 5 5 4562.09 4587.60 382.93 o
1757 1 2 -5 5 4562.09 4587.60 382.93 o
1758 4 3 5 5 3738.77 3922.14 354.58 o
1758 1 3 -5 5 3738.77 3922.14 354.58 o
1759 4 4 5 5 778.84 1021.96 196.78 o
1759 1 4 -5 5 778.84 1021.96 196.78 o
1760 4 5 5 5 16760.40 17349.10 787.51 o
1760 1 5 -5 5 16760.40 17349.10 787.51 o
1761 4 6 5 5 12115.00 13381.80 991.60 o
1761 1 6 -5 5 12115.00 13381.80 991.60 o
1762 4 7 5 5 80.80 322.86 183.72 <
1762 1 7 -5 5 80.80 322.86 183.72 <
1763 4 8 5 5 6817.05 7442.39 786.44 o
1763 1 8 -5 5 6817.05 7442.39 786.44 o
1764 2 -9 -5 -3 35.07 -19.57 73.92 <
1764 1 -11 -3 5 35.07 -19.57 73.92 <
1765 2 -8 -5 -3 150.41 235.90 76.10 o
1765 1 -10 -3 5 150.41 235.90 76.10 o
1766 2 -7 -5 -3 286.66 275.04 71.75 o
1766 1 -9 -3 5 286.66 275.04 71.75 o
1767 2 -6 -5 -3 345.45 229.38 68.49 o
1767 1 -8 -3 5 345.45 229.38 68.49 o
1768 2 -5 -5 -3 774.47 674.07 108.72 o
1768 1 -7 -3 5 774.47 674.07 108.72 o
1769 2 -4 -5 -3 4845.33 4597.60 218.67 o
1769 1 -6 -3 5 4845.33 4597.60 218.67 o
1770 2 -3 -5 -3 3380.83 3216.66 172.96 o
1770 1 -5 -3 5 3380.83 3216.66 172.96 o
1771 2 -2 -5 -3 3.68 156.54 73.92 <
1771 1 -4 -3 5 3.68 156.54 73.92 <
1772 2 -1 -5 -3 458.02 501.20 86.98 o
1772 1 -3 -3 5 458.02 501.20 86.98 o
1773 2 0 -5 -3 10.56 73.92 35.87 <
1773 1 -2 -3 5 10.56 73.92 35.87 <
1774 2 1 -5 -3 15.16 54.35 33.70 <
1774 1 -1 -3 5 15.16 54.35 33.70 <
1775 2 2 -5 -3 62.10 192.42 103.28 <
1775 1 0 -3 5 62.10 192.42 103.28 <
1776 2 3 -5 -3 476.05 606.66 167.43 o
1776 1 1 -3 5 476.05 606.66 167.43 o
1777 2 4 -5 -3 1226.21 1337.45 201.16 o
1777 1 2 -3 5 1226.21 1337.45 201.16 o
1778 2 5 -5 -3 2739.29 2856.25 212.10 o
1778 1 3 -3 5 2739.29 2856.25 212.10 o
1779 2 6 -5 -3 3165.83 3131.49 301.29 o
1779 1 4 -3 5 3165.83 3131.49 301.29 o
1780 2 7 -5 -3 1332.62 1336.27 194.62 o
1780 1 5 -3 5 1332.62 1336.27 194.62 o
1781 2 8 -5 -3 383.37 376.15 192.42 <
1781 1 6 -3 5 383.37 376.15 192.42 <
1782 2 9 -5 -3 4990.87 5269.13 601.53 o
1782 1 7 -3 5 4990.87 5269.13 601.53 o
1783 2 10 -5 -3 120.74 106.54 91.32 <
1783 1 8 -3 5 120.74 106.54 91.32 <
1784 2 11 -5 -3 208.54 326.13 289.17 <
1784 1 9 -3 5 208.54 326.13 289.17 <
1785 4 -10 5 1 51.58 1.09 92.40 <
1785 1 -11 -1 5 51.58 1.09 92.40 <
1786 4 -9 5 1 2198.46 2007.22 293.58 o
1786 1 -10 -1 5 2198.46 2007.22 293.58 o
1787 4 -8 5 1 5869.36 6489.90 489.52 o
1787 1 -9 -1 5 5869.36 6489.90 489.52 o
1788 4 -7 5 1 1147.77 1224.25 197.88 o
1788 1 -8 -1 5 1147.77 1224.25 197.88 o
1789 4 -6 5 1 70.29 25.00 40.22 <
1789 1 -7 -1 5 70.29 25.00 40.22 <
1790 4 -5 5 1 3933.23 3914.98 194.71 o
1790 1 -6 -1 5 3933.23 3914.98 194.71 o
1791 4 -4 5 1 398.46 454.43 69.58 o
1791 1 -5 -1 5 398.46 454.43 69.58 o
1792 4 -3 5 1 89.15 202.20 42.40 o
1792 1 -4 -1 5 89.15 202.20 42.40 o
1793 4 -2 5 1 2529.59 2598.75 145.76 o
1793 1 -3 -1 5 2529.59 2598.75 145.76 o
1794 4 -1 5 1 7326.84 7083.34 215.67 o
1794 1 -2 -1 5 7326.84 7083.34 215.67 o
1795 4 0 5 1 10159.30 10019.10 286.73 o
1795 1 -1 -1 5 10159.30 10019.10 286.73 o
1796 4 1 5 1 3095.73 3282.52 225.22 o
1796 1 0 -1 5 3095.73 3282.52 225.22 o
1797 4 2 5 1 406.92 462.05 77.19 o
1797 1 1 -1 5 406.92 462.05 77.19 o
1798 4 3 5 1 3.64 129.36 60.88 <
1798 1 2 -1 5 3.64 129.36 60.88 <
1799 4 4 5 1 256.54 391.36 91.32 o
1799 1 3 -1 5 256.54 391.36 91.32 o
1800 4 5 5 1 4818.92 4748.54 291.55 o
1800 1 4 -1 5 4818.92 4748.54 291.55 o
1801 4 6 5 1 57.32 166.32 96.75 <
1801 1 5 -1 5 57.32 166.32 96.75 <
1802 4 7 5 1 317.77 413.10 146.76 <
1802 1 6 -1 5 317.77 413.10 146.76 <
1803 4 8 5 1 12374.30 12043.10 1331.23 o
1803 1 7 -1 5 12374.30 12043.10 1331.23 o
1804 4 9 5 1 167.22 36.96 247.86 <
1804 1 8 -1 5 167.22 36.96 247.86 <
1805 4 10 5 1 1073.17 1297.02 464.23 <
1805 1 9 -1 5 1073.17 1297.02 464.23 <
1806 2 -11 -5 1 144.95 213.07 163.06 <
1806 1 -12 1 5 144.95 213.07 163.06 <
1807 2 -10 -5 1 41.75 81.53 88.05 <
1807 1 -11 1 5 41.75 81.53 88.05 <
1808 2 -9 -5 1 1918.08 2169.23 313.15 o
1808 1 -10 1 5 1918.08 2169.23 313.15 o
1809 2 -8 -5 1 5141.99 5484.76 461.23 o
1809 1 -9 1 5 5141.99 5484.76 461.23 o
1810 2 -7 -5 1 991.50 993.75 167.44 o
1810 1 -8 1 5 991.50 993.75 167.44 o
1811 2 -6 -5 1 57.95 157.63 52.18 o
1811 1 -7 1 5 57.95 157.63 52.18 o
1812 2 -5 -5 1 3454.94 3253.60 197.98 o
1812 1 -6 1 5 3454.94 3253.60 197.98 o
1813 2 -4 -5 1 347.42 404.42 60.88 o
1813 1 -5 1 5 347.42 404.42 60.88 o
1814 2 -3 -5 1 81.86 197.85 35.87 o
1814 1 -4 1 5 81.86 197.85 35.87 o
1815 2 -2 -5 1 2217.33 1959.13 101.17 o
1815 1 -3 1 5 2217.33 1959.13 101.17 o
1816 2 -1 -5 1 6472.85 6187.98 177.55 o
1816 1 -2 1 5 6472.85 6187.98 177.55 o
1817 2 0 -5 1 8944.68 8505.88 293.27 o
1817 1 -1 1 5 8944.68 8505.88 293.27 o
1818 2 1 -5 1 2713.72 2417.55 209.99 o
1818 1 0 1 5 2713.72 2417.55 209.99 o
1819 2 2 -5 1 363.29 373.99 59.79 o
1819 1 1 1 5 363.29 373.99 59.79 o
1820 2 3 -5 1 2.50 45.66 64.14 <
1820 1 2 1 5 2.50 45.66 64.14 <
1821 2 4 -5 1 230.37 228.29 58.70 o
1821 1 3 1 5 230.37 228.29 58.70 o
1822 2 5 -5 1 4252.88 4225.27 313.31 o
1822 1 4 1 5 4252.88 4225.27 313.31 o
1823 2 6 -5 1 47.17 66.31 107.62 <
1823 1 5 1 5 47.17 66.31 107.62 <
1824 2 7 -5 1 290.05 347.87 166.33 <
1824 1 6 1 5 290.05 347.87 166.33 <
1825 2 8 -5 1 10901.10 11199.50 783.72 o
1825 1 7 1 5 10901.10 11199.50 783.72 o
1826 2 9 -5 1 143.37 164.15 188.07 <
1826 1 8 1 5 143.37 164.15 188.07 <
1827 2 10 -5 1 926.91 783.87 334.86 <
1827 1 9 1 5 926.91 783.87 334.86 <
1828 1 -12 2 5 27.97 -17.39 78.27 <
1829 1 -11 2 5 67.33 145.67 90.23 <
1830 1 -10 2 5 509.65 446.82 101.11 o
1831 1 -9 2 5 1143.19 1076.41 144.61 o
1832 1 -8 2 5 1151.89 1340.66 134.83 o
1833 1 -7 2 5 636.73 618.63 90.24 o
1834 1 -6 2 5 24.15 56.53 30.44 <
1835 1 -5 2 5 13.04 34.79 26.09 <
1836 1 -4 2 5 46.30 61.96 20.65 <
1837 1 -3 2 5 646.97 636.09 51.10 o
1838 1 -2 2 5 3140.02 2998.67 118.64 o
1839 1 -1 2 5 4007.81 3779.42 116.51 o
1840 1 0 2 5 1346.46 1305.17 87.01 o
1841 1 1 2 5 139.78 84.80 26.09 o
1842 1 2 2 5 45.64 35.87 22.83 <
1843 1 3 2 5 41.64 2.17 30.44 <
1844 1 4 2 5 194.71 178.29 67.40 <
1845 1 5 2 5 787.01 886.11 119.60 o
1846 1 6 2 5 1092.30 1140.56 154.40 o
1847 1 7 2 5 636.54 962.16 316.37 o
1848 1 8 2 5 52.23 20.65 126.10 <
1849 1 9 2 5 1.69 -42.40 135.88 <
1850 4 -10 5 -3 68.79 88.05 109.79 <
1850 1 -12 3 5 68.79 88.05 109.79 <
1851 4 -9 5 -3 38.02 23.92 52.18 <
1851 1 -11 3 5 38.02 23.92 52.18 <
1852 4 -8 5 -3 164.07 1.09 53.27 <
1852 1 -10 3 5 164.07 1.09 53.27 <
1853 4 -7 5 -3 313.22 397.88 115.23 o
1853 1 -9 3 5 313.22 397.88 115.23 o
1854 4 -6 5 -3 394.11 554.44 146.76 o
1854 1 -8 3 5 394.11 554.44 146.76 o
1855 4 -5 5 -3 883.89 1048.07 159.82 o
1855 1 -7 3 5 883.89 1048.07 159.82 o
1856 4 -4 5 -3 5448.66 5526.69 261.10 o
1856 1 -6 3 5 5448.66 5526.69 261.10 o
1857 4 -3 5 -3 3835.73 3993.36 206.68 o
1857 1 -5 3 5 3835.73 3993.36 206.68 o
1858 4 -2 5 -3 5.08 159.80 46.74 o
1858 1 -4 3 5 5.08 159.80 46.74 o
1859 4 -1 5 -3 517.55 575.13 61.97 o
1859 1 -3 3 5 517.55 575.13 61.97 o
1860 4 0 5 -3 10.65 35.87 19.57 <
1860 1 -2 3 5 10.65 35.87 19.57 <
1861 4 1 5 -3 16.88 60.88 23.92 <
1861 1 -1 3 5 16.88 60.88 23.92 <
1862 4 2 5 -3 75.89 175.02 33.70 o
1862 1 0 3 5 75.89 175.02 33.70 o
1863 4 3 5 -3 538.40 556.65 61.97 o
1863 1 1 3 5 538.40 556.65 61.97 o
1864 4 4 5 -3 1389.68 1467.93 98.95 o
1864 1 2 3 5 1389.68 1467.93 98.95 o
1865 4 5 5 -3 3139.41 3119.47 180.55 o
1865 1 3 3 5 3139.41 3119.47 180.55 o
1866 4 6 5 -3 3637.89 3536.12 270.84 o
1866 1 4 3 5 3637.89 3536.12 270.84 o
1867 4 7 5 -3 1506.54 1513.49 197.88 o
1867 1 5 3 5 1506.54 1513.49 197.88 o
1868 4 8 5 -3 437.14 638.15 184.81 o
1868 1 6 3 5 437.14 638.15 184.81 o
1869 4 9 5 -3 5723.52 5493.21 566.72 o
1869 1 7 3 5 5723.52 5493.21 566.72 o
1870 4 10 5 -3 134.63 -1.09 168.50 <
1870 1 8 3 5 134.63 -1.09 168.50 <
1871 4 11 5 -3 240.91 23.92 134.80 <
1871 1 9 3 5 240.91 23.92 134.80 <
1872 1 -11 4 5 291.39 464.20 121.76 o
1873 1 -10 4 5 508.49 410.95 106.54 o
1874 1 -9 4 5 635.97 545.77 101.11 o
1875 1 -8 4 5 492.70 484.88 82.63 o
1876 1 -7 4 5 1072.72 1159.07 126.13 o
1877 1 -6 4 5 833.08 942.67 89.16 o
1878 1 -5 4 5 477.71 510.99 71.76 o
1879 1 -4 4 5 1248.68 1262.55 91.35 o
1880 1 -3 4 5 1077.99 1204.89 71.77 o
1881 1 -2 4 5 1144.53 1146.22 70.69 o
1882 1 -1 4 5 1684.46 1568.46 78.31 o
1883 1 0 4 5 963.88 1040.66 109.83 o
1884 1 1 4 5 1192.71 1300.61 102.22 o
1885 1 2 4 5 859.14 758.96 64.15 o
1886 1 3 4 5 291.68 312.01 59.79 o
1887 1 4 4 5 795.78 679.54 91.33 o
1888 1 5 4 5 655.36 624.06 115.24 o
1889 1 6 4 5 293.01 172.85 91.32 <
1890 1 7 4 5 507.10 439.21 128.29 o
1891 1 8 4 5 303.15 220.69 106.54 <
1892 1 9 4 5 149.90 88.05 167.41 <
1893 2 -11 -5 5 3655.68 3810.51 653.57 o
1893 1 -11 5 5 3655.68 3810.51 653.57 o
1894 2 -10 -5 5 2767.21 2917.49 357.75 o
1894 1 -10 5 5 2767.21 2917.49 357.75 o
1895 2 -9 -5 5 3281.31 3810.56 391.50 o
1895 1 -9 5 5 3281.31 3810.56 391.50 o
1896 2 -8 -5 5 11763.80 12001.80 637.98 o
1896 1 -8 5 5 11763.80 12001.80 637.98 o
1897 2 -7 -5 5 10152.30 10416.00 542.14 o
1897 1 -7 5 5 10152.30 10416.00 542.14 o
1898 2 -6 -5 5 949.49 1060.06 155.48 o
1898 1 -6 5 5 949.49 1060.06 155.48 o
1899 2 -5 -5 5 2917.11 3086.70 246.89 o
1899 1 -5 5 5 2917.11 3086.70 246.89 o
1900 2 -4 -5 5 7440.53 7309.16 349.45 o
1900 1 -4 5 5 7440.53 7309.16 349.45 o
1901 2 -3 -5 5 10743.40 11157.90 396.59 o
1901 1 -3 5 5 10743.40 11157.90 396.59 o
1902 2 -2 -5 5 14666.80 15109.30 425.34 o
1902 1 -2 5 5 14666.80 15109.30 425.34 o
1903 2 -1 -5 5 11587.40 11387.20 298.63 o
1903 1 -1 5 5 11587.40 11387.20 298.63 o
1904 2 0 -5 5 14238.40 14377.30 401.28 o
1904 1 0 5 5 14238.40 14377.30 401.28 o
1905 2 1 -5 5 6823.86 6780.76 265.61 o
1905 1 1 5 5 6823.86 6780.76 265.61 o
1906 2 2 -5 5 4024.16 3827.17 223.02 o
1906 1 2 5 5 4024.16 3827.17 223.02 o
1907 2 3 -5 5 3297.91 3322.83 221.88 o
1907 1 3 5 5 3297.91 3322.83 221.88 o
1908 2 4 -5 5 687.01 428.35 130.46 o
1908 1 4 5 5 687.01 428.35 130.46 o
1909 2 5 -5 5 14784.10 14388.60 688.39 o
1909 1 5 5 5 14784.10 14388.60 688.39 o
1910 2 6 -5 5 10686.50 10693.20 647.65 o
1910 1 6 5 5 10686.50 10693.20 647.65 o
1911 2 7 -5 5 71.27 180.46 91.32 <
1911 1 7 5 5 71.27 180.46 91.32 <
1912 2 8 -5 5 6013.23 5616.06 523.21 o
1912 1 8 5 5 6013.23 5616.06 523.21 o
1913 2 9 -5 5 4995.53 4828.98 616.67 o
1913 1 9 5 5 4995.53 4828.98 616.67 o
1914 1 -10 6 5 849.41 697.99 156.56 o
1915 1 -9 6 5 1561.10 1529.88 223.99 o
1916 1 -8 6 5 2219.82 2490.32 216.41 o
1917 1 -7 6 5 1082.88 1281.92 166.35 o
1918 1 -6 6 5 706.51 714.31 91.33 o
1919 1 -5 6 5 189.30 226.12 52.18 o
1920 1 -4 6 5 264.72 271.79 51.10 o
1921 1 -3 6 5 2986.53 3045.08 143.60 o
1922 1 -2 6 5 3787.17 3977.34 187.17 o
1923 1 -1 6 5 3736.53 3951.20 194.79 o
1924 1 0 6 5 4014.55 4443.27 242.68 o
1925 1 1 6 5 698.45 588.21 71.76 o
1926 1 2 6 5 105.93 45.66 41.31 <
1927 1 3 6 5 340.37 363.11 70.67 o
1928 1 4 6 5 608.38 513.16 96.76 o
1929 1 5 6 5 1979.07 2115.09 228.37 o
1930 1 6 6 5 1909.09 2099.78 247.93 o
1931 1 7 6 5 879.43 826.28 157.65 o
1932 1 8 6 5 625.09 605.55 148.94 o
1933 4 -7 5 -7 247.99 65.23 110.88 <
1933 1 -10 7 5 247.99 65.23 110.88 <
1934 4 -6 5 -7 12.42 68.49 95.66 <
1934 1 -9 7 5 12.42 68.49 95.66 <
1935 4 -5 5 -7 607.96 520.74 164.16 o
1935 1 -8 7 5 607.96 520.74 164.16 o
1936 4 -4 5 -7 4857.27 5030.41 504.67 o
1936 1 -7 7 5 4857.27 5030.41 504.67 o
1937 4 -3 5 -7 141.77 16.31 123.93 <
1937 1 -6 7 5 141.77 16.31 123.93 <
1938 4 -2 5 -7 1824.60 2020.28 279.45 o
1938 1 -5 7 5 1824.60 2020.28 279.45 o
1939 4 -1 5 -7 9813.38 10049.60 569.32 o
1939 1 -4 7 5 9813.38 10049.60 569.32 o
1940 4 0 5 -7 1150.45 1146.00 152.22 o
1940 1 -3 7 5 1150.45 1146.00 152.22 o
1941 4 1 5 -7 269.33 384.85 76.10 o
1941 1 -2 7 5 269.33 384.85 76.10 o
1942 4 2 5 -7 571.86 503.36 79.36 o
1942 1 -1 7 5 571.86 503.36 79.36 o
1943 4 3 5 -7 751.53 729.50 93.50 o
1943 1 0 7 5 751.53 729.50 93.50 o
1944 4 4 5 -7 3978.47 3790.82 278.46 o
1944 1 1 7 5 3978.47 3790.82 278.46 o
1945 4 5 5 -7 5600.55 5878.28 474.35 o
1945 1 2 7 5 5600.55 5878.28 474.35 o
1946 4 6 5 -7 1799.70 1665.77 214.20 o
1946 1 3 7 5 1799.70 1665.77 214.20 o
1947 4 7 5 -7 302.96 458.76 126.11 o
1947 1 4 7 5 302.96 458.76 126.11 o
1948 4 8 5 -7 4223.73 4405.84 403.50 o
1948 1 5 7 5 4223.73 4405.84 403.50 o
1949 4 9 5 -7 1235.89 1468.83 253.32 o
1949 1 6 7 5 1235.89 1468.83 253.32 o
1950 4 10 5 -7 1150.20 1147.00 234.84 o
1950 1 7 7 5 1150.20 1147.00 234.84 o
1951 4 11 5 -7 2488.29 2330.11 352.29 o
1951 1 8 7 5 2488.29 2330.11 352.29 o
1952 1 -10 8 5 616.63 708.83 387.03 <
1953 1 -9 8 5 862.22 740.39 160.91 o
1954 1 -8 8 5 1748.35 2068.17 274.02 o
1955 1 -7 8 5 688.94 1091.55 187.00 o
1956 1 -6 8 5 1028.08 1011.16 168.53 o
1957 1 -5 8 5 1877.50 2096.63 191.39 o
1958 1 -4 8 5 627.63 787.14 118.51 o
1959 1 -3 8 5 1489.31 1663.76 160.94 o
1960 1 -2 8 5 2175.93 2454.71 164.23 o
1961 1 -1 8 5 1482.68 1491.96 129.40 o
1962 1 0 8 5 2394.46 2375.41 190.34 o
1963 1 1 8 5 933.80 931.81 110.90 o
1964 1 2 8 5 692.24 728.44 121.77 o
1965 1 3 8 5 1587.95 1551.71 167.46 o
1966 1 4 8 5 397.45 396.81 85.88 o
1967 1 5 8 5 623.53 694.71 133.72 o
1968 1 6 8 5 1390.79 1283.01 201.15 o
1969 1 7 8 5 427.08 544.66 145.68 o
1970 1 8 8 5 388.78 356.58 143.50 <
1971 2 -11 -5 9 5940.39 6982.74 1269.29 o
1971 1 -10 9 5 5940.39 6982.74 1269.29 o
1972 2 -10 -5 9 10127.80 10219.60 705.10 o
1972 1 -9 9 5 10127.80 10219.60 705.10 o
1973 2 -9 -5 9 4055.46 4316.29 548.10 o
1973 1 -8 9 5 4055.46 4316.29 548.10 o
1974 2 -8 -5 9 4315.67 5224.63 560.09 o
1974 1 -7 9 5 4315.67 5224.63 560.09 o
1975 2 -7 -5 9 8358.81 8552.58 669.19 o
1975 1 -6 9 5 8358.81 8552.58 669.19 o
1976 2 -6 -5 9 3698.09 3982.70 430.68 o
1976 1 -5 9 5 3698.09 3982.70 430.68 o
1977 2 -5 -5 9 4578.31 4231.19 408.98 o
1977 1 -4 9 5 4578.31 4231.19 408.98 o
1978 2 -4 -5 9 7454.04 7608.50 523.41 o
1978 1 -3 9 5 7454.04 7608.50 523.41 o
1979 2 -3 -5 9 12930.80 13603.30 553.28 o
1979 1 -2 9 5 12930.80 13603.30 553.28 o
1980 2 -2 -5 9 19072.20 19240.90 759.78 o
1980 1 -1 9 5 19072.20 19240.90 759.78 o
1981 2 -1 -5 9 7592.54 7305.35 447.27 o
1981 1 0 9 5 7592.54 7305.35 447.27 o
1982 2 0 -5 9 5994.84 5818.62 647.36 o
1982 1 1 9 5 5994.84 5818.62 647.36 o
1983 2 1 -5 9 3747.17 3931.84 419.83 o
1983 1 2 9 5 3747.17 3931.84 419.83 o
1984 2 2 -5 9 3237.86 3887.99 445.89 o
1984 1 3 9 5 3237.86 3887.99 445.89 o
1985 2 3 -5 9 12399.70 13436.30 708.72 o
1985 1 4 9 5 12399.70 13436.30 708.72 o
1986 2 4 -5 9 1889.36 1823.45 269.66 o
1986 1 5 9 5 1889.36 1823.45 269.66 o
1987 2 5 -5 9 2823.82 3351.49 400.18 o
1987 1 6 9 5 2823.82 3351.49 400.18 o
1988 2 6 -5 9 17795.60 18080.60 993.16 o
1988 1 7 9 5 17795.60 18080.60 993.16 o
1989 1 -9 10 5 2414.96 2769.69 725.32 o
1990 1 -8 10 5 2035.82 1747.43 256.62 o
1991 1 -7 10 5 2367.58 2452.22 292.53 o
1992 1 -6 10 5 859.84 983.94 177.22 o
1993 1 -5 10 5 1033.40 1099.22 217.45 o
1994 1 -4 10 5 2138.70 2382.67 289.27 o
1995 1 -3 10 5 1520.27 1763.72 201.16 o
1996 1 -2 10 5 5131.95 4914.94 274.20 o
1997 1 -1 10 5 6594.45 6428.05 309.10 o
1998 1 0 10 5 2216.91 1972.75 266.44 o
1999 1 1 10 5 2201.92 2205.45 228.38 o
2000 1 2 10 5 1246.77 1208.00 169.62 o
2001 1 3 10 5 689.22 759.95 157.64 o
2002 1 4 10 5 2109.07 2312.96 295.78 o
2003 1 5 10 5 2047.76 2050.83 259.89 o
2004 1 6 10 5 2539.38 2883.94 314.27 o
2005 1 7 10 5 2429.62 3013.26 759.03 o
2006 4 -4 5 -11 185.57 164.15 192.42 <
2006 1 -8 11 5 185.57 164.15 192.42 <
2007 4 -3 5 -11 162.48 363.09 181.54 <
2007 1 -7 11 5 162.48 363.09 181.54 <
2008 4 -2 5 -11 4190.56 4721.80 543.73 o
2008 1 -6 11 5 4190.56 4721.80 543.73 o
2009 4 -1 5 -11 3727.76 3675.80 455.67 o
2009 1 -5 11 5 3727.76 3675.80 455.67 o
2010 4 0 5 -11 21.58 27.18 80.44 <
2010 1 -4 11 5 21.58 27.18 80.44 <
2011 4 1 5 -11 1684.06 1858.10 284.86 o
2011 1 -3 11 5 1684.06 1858.10 284.86 o
2012 4 2 5 -11 866.05 923.01 173.95 o
2012 1 -2 11 5 866.05 923.01 173.95 o
2013 4 3 5 -11 106.21 131.54 84.79 <
2013 1 -1 11 5 106.21 131.54 84.79 <
2014 4 4 5 -11 1147.64 1280.74 235.93 o
2014 1 0 11 5 1147.64 1280.74 235.93 o
2015 4 5 5 -11 701.38 818.62 214.17 o
2015 1 1 11 5 701.38 818.62 214.17 o
2016 4 6 5 -11 990.52 1143.71 251.14 o
2016 1 2 11 5 990.52 1143.71 251.14 o
2017 4 7 5 -11 3116.41 3343.81 440.40 o
2017 1 3 11 5 3116.41 3343.81 440.40 o
2018 4 8 5 -11 2093.71 1877.75 352.28 o
2018 1 4 11 5 2093.71 1877.75 352.28 o
2019 4 9 5 -11 81.05 -52.18 79.36 <
2019 1 5 11 5 81.05 -52.18 79.36 <
2020 4 10 5 -11 27.46 248.94 248.94 <
2020 1 6 11 5 27.46 248.94 248.94 <
2021 1 -7 12 5 1063.53 1069.84 213.10 o
2022 1 -6 12 5 488.30 56.53 68.49 <
2023 1 -5 12 5 35.65 2.17 102.19 <
2024 1 -4 12 5 899.09 895.87 175.04 o
2025 1 -3 12 5 473.92 642.51 156.55 o
2026 1 -2 12 5 486.14 449.00 133.72 o
2027 1 -1 12 5 1284.05 1423.27 210.93 o
2028 1 0 12 5 319.24 279.39 72.84 o
2029 1 1 12 5 765.13 841.49 157.64 o
2030 1 2 12 5 484.10 376.15 110.89 o
2031 1 3 12 5 0.29 148.93 111.97 <
2032 1 4 12 5 653.94 636.00 164.16 o
2033 2 -8 -5 13 344.68 531.59 273.95 <
2033 1 -6 13 5 344.68 531.59 273.95 <
2034 2 -7 -5 13 1278.97 1193.72 264.18 o
2034 1 -5 13 5 1278.97 1193.72 264.18 o
2035 2 -6 -5 13 1283.49 1940.67 356.61 o
2035 1 -4 13 5 1283.49 1940.67 356.61 o
2036 2 -5 -5 13 3944.38 3961.82 461.11 o
2036 1 -3 13 5 3944.38 3961.82 461.11 o
2037 2 -4 -5 13 4633.39 4374.12 726.48 o
2037 1 -2 13 5 4633.39 4374.12 726.48 o
2038 2 -3 -5 13 2317.53 2238.83 355.56 o
2038 1 -1 13 5 2317.53 2238.83 355.56 o
2039 2 -2 -5 13 5319.06 5696.28 466.62 o
2039 1 0 13 5 5319.06 5696.28 466.62 o
2040 2 -1 -5 13 1664.17 1900.55 278.34 o
2040 1 1 13 5 1664.17 1900.55 278.34 o
2041 2 0 -5 13 1013.70 1040.45 200.04 o
2041 1 2 13 5 1013.70 1040.45 200.04 o
2042 2 1 -5 13 1761.97 1729.86 346.84 o
2042 1 3 13 5 1761.97 1729.86 346.84 o
2043 1 -6 14 5 1475.39 1920.15 601.27 o
2044 1 -5 14 5 809.11 917.59 263.10 o
2045 1 -4 14 5 610.61 626.21 272.88 <
2046 1 -3 14 5 3604.99 3926.31 755.90 o
2047 1 -2 14 5 2593.72 2681.70 439.34 o
2048 1 -1 14 5 2179.32 2071.51 392.55 o
2049 1 0 14 5 4188.51 4264.92 354.59 o
2050 1 1 14 5 1228.30 1311.24 196.79 o
2051 1 2 14 5 767.45 769.73 289.19 <
2052 1 3 14 5 1449.66 1110.12 377.29 <
2053 4 1 5 -15 2541.02 2689.90 541.46 o
2053 1 -4 15 5 2541.02 2689.90 541.46 o
2054 4 5 5 -15 12.80 -4.35 184.80 <
2054 1 0 15 5 12.80 -4.35 184.80 <
2055 4 6 5 -15 466.42 589.22 283.74 <
2055 1 1 15 5 466.42 589.22 283.74 <
2056 4 7 5 -15 818.92 916.46 346.80 <
2056 1 2 15 5 818.92 916.46 346.80 <
2057 4 -5 6 14 11394.50 11475.40 1407.64 o
2057 3 0 14 -6 11394.50 11475.40 1407.64 o
2057 2 2 -6 -14 11394.50 11475.40 1407.64 o
2057 1 -3 -14 6 11394.50 11475.40 1407.64 o
2058 4 -4 6 14 115.86 219.59 252.20 <
2058 3 1 14 -6 115.86 219.59 252.20 <
2058 2 3 -6 -14 115.86 219.59 252.20 <
2058 1 -2 -14 6 115.86 219.59 252.20 <
2059 4 -3 6 14 74.02 -29.35 65.22 <
2059 3 2 14 -6 74.02 -29.35 65.22 <
2059 2 4 -6 -14 74.02 -29.35 65.22 <
2059 1 -1 -14 6 74.02 -29.35 65.22 <
2060 4 -2 6 14 10725.10 10464.40 1245.50 o
2060 3 3 14 -6 10725.10 10464.40 1245.50 o
2060 2 5 -6 -14 10725.10 10464.40 1245.50 o
2060 1 0 -14 6 10725.10 10464.40 1245.50 o
2061 4 -1 6 14 23504.70 23687.20 1471.74 o
2061 3 4 14 -6 23504.70 23687.20 1471.74 o
2061 2 6 -6 -14 23504.70 23687.20 1471.74 o
2061 1 1 -14 6 23504.70 23687.20 1471.74 o
2062 4 0 6 14 9182.59 9889.57 1497.79 o
2062 3 5 14 -6 9182.59 9889.57 1497.79 o
2062 2 7 -6 -14 9182.59 9889.57 1497.79 o
2062 1 2 -14 6 9182.59 9889.57 1497.79 o
2063 4 -10 6 10 5625.09 5713.68 729.71 o
2063 3 -6 10 -6 5625.09 5713.68 729.71 o
2063 2 -5 -6 -10 5625.09 5713.68 729.71 o
2063 1 -9 -10 6 5625.09 5713.68 729.71 o
2064 4 -9 6 10 11337.60 12236.80 978.03 o
2064 3 -5 10 -6 11337.60 12236.80 978.03 o
2064 2 -4 -6 -10 11337.60 12236.80 978.03 o
2064 1 -8 -10 6 11337.60 12236.80 978.03 o
2065 4 -8 6 10 80373.10 83178.50 2430.41 o
2065 3 -4 10 -6 80373.10 83178.50 2430.41 o
2065 2 -3 -6 -10 80373.10 83178.50 2430.41 o
2065 1 -7 -10 6 80373.10 83178.50 2430.41 o
2066 4 -7 6 10 15805.10 17589.90 1072.02 o
2066 3 -3 10 -6 15805.10 17589.90 1072.02 o
2066 2 -2 -6 -10 15805.10 17589.90 1072.02 o
2066 1 -6 -10 6 15805.10 17589.90 1072.02 o
2067 4 -6 6 10 8850.27 9931.38 861.52 o
2067 3 -2 10 -6 8850.27 9931.38 861.52 o
2067 2 -1 -6 -10 8850.27 9931.38 861.52 o
2067 1 -5 -10 6 8850.27 9931.38 861.52 o
2068 4 -5 6 10 57093.40 58754.60 1500.34 o
2068 3 -1 10 -6 57093.40 58754.60 1500.34 o
2068 2 0 -6 -10 57093.40 58754.60 1500.34 o
2068 1 -4 -10 6 57093.40 58754.60 1500.34 o
2069 4 -4 6 10 9366.15 8869.41 562.43 o
2069 3 0 10 -6 9366.15 8869.41 562.43 o
2069 2 1 -6 -10 9366.15 8869.41 562.43 o
2069 1 -3 -10 6 9366.15 8869.41 562.43 o
2070 4 -3 6 10 1955.76 1865.78 226.16 o
2070 3 1 10 -6 1955.76 1865.78 226.16 o
2070 2 2 -6 -10 1955.76 1865.78 226.16 o
2070 1 -2 -10 6 1955.76 1865.78 226.16 o
2071 4 -2 6 10 1494.89 1986.28 369.64 o
2071 3 2 10 -6 1494.89 1986.28 369.64 o
2071 2 3 -6 -10 1494.89 1986.28 369.64 o
2071 1 -1 -10 6 1494.89 1986.28 369.64 o
2072 4 -1 6 10 9758.57 10130.40 843.11 o
2072 3 3 10 -6 9758.57 10130.40 843.11 o
2072 2 4 -6 -10 9758.57 10130.40 843.11 o
2072 1 0 -10 6 9758.57 10130.40 843.11 o
2073 4 0 6 10 56728.90 60751.80 2119.67 o
2073 3 4 10 -6 56728.90 60751.80 2119.67 o
2073 2 5 -6 -10 56728.90 60751.80 2119.67 o
2073 1 1 -10 6 56728.90 60751.80 2119.67 o
2074 4 1 6 10 9309.92 10283.40 884.42 o
2074 3 5 10 -6 9309.92 10283.40 884.42 o
2074 2 6 -6 -10 9309.92 10283.40 884.42 o
2074 1 2 -10 6 9309.92 10283.40 884.42 o
2075 4 2 6 10 15095.40 16428.60 896.68 o
2075 3 6 10 -6 15095.40 16428.60 896.68 o
2075 2 7 -6 -10 15095.40 16428.60 896.68 o
2075 1 3 -10 6 15095.40 16428.60 896.68 o
2076 4 3 6 10 78140.80 87270.20 2797.65 o
2076 3 7 10 -6 78140.80 87270.20 2797.65 o
2076 2 8 -6 -10 78140.80 87270.20 2797.65 o
2076 1 4 -10 6 78140.80 87270.20 2797.65 o
2077 4 4 6 10 10956.70 13280.90 1104.11 o
2077 3 8 10 -6 10956.70 13280.90 1104.11 o
2077 2 9 -6 -10 10956.70 13280.90 1104.11 o
2077 1 5 -10 6 10956.70 13280.90 1104.11 o
2078 4 -10 6 6 33013.40 32656.20 2014.73 o
2078 3 -7 6 -6 33013.40 32656.20 2014.73 o
2078 2 -7 -6 -6 33013.40 32656.20 2014.73 o
2078 1 -10 -6 6 33013.40 32656.20 2014.73 o
2079 4 -9 6 6 15883.70 17400.50 799.99 o
2079 3 -6 6 -6 15883.70 17400.50 799.99 o
2079 2 -6 -6 -6 15883.70 17400.50 799.99 o
2079 1 -9 -6 6 15883.70 17400.50 799.99 o
2080 4 -8 6 6 27323.90 29390.00 1313.97 o
2080 3 -5 6 -6 27323.90 29390.00 1313.97 o
2080 2 -5 -6 -6 27323.90 29390.00 1313.97 o
2080 1 -8 -6 6 27323.90 29390.00 1313.97 o
2081 4 -7 6 6 96910.90 102793.00 2066.78 o
2081 3 -4 6 -6 96910.90 102793.00 2066.78 o
2081 2 -4 -6 -6 96910.90 102793.00 2066.78 o
2081 1 -7 -6 6 96910.90 102793.00 2066.78 o
2082 4 -6 6 6 38823.80 40476.70 985.32 o
2082 3 -3 6 -6 38823.80 40476.70 985.32 o
2082 2 -3 -6 -6 38823.80 40476.70 985.32 o
2082 1 -6 -6 6 38823.80 40476.70 985.32 o
2083 4 -5 6 6 28628.60 29980.20 816.64 o
2083 3 -2 6 -6 28628.60 29980.20 816.64 o
2083 2 -2 -6 -6 28628.60 29980.20 816.64 o
2083 1 -5 -6 6 28628.60 29980.20 816.64 o
2084 4 -4 6 6 63977.70 64501.50 954.62 o
2084 3 -1 6 -6 63977.70 64501.50 954.62 o
2084 2 -1 -6 -6 63977.70 64501.50 954.62 o
2084 1 -4 -6 6 63977.70 64501.50 954.62 o
2085 4 -3 6 6 28542.70 29211.10 738.49 o
2085 3 0 6 -6 28542.70 29211.10 738.49 o
2085 2 0 -6 -6 28542.70 29211.10 738.49 o
2085 1 -3 -6 6 28542.70 29211.10 738.49 o
2086 4 -2 6 6 25.31 268.51 71.75 o
2086 3 1 6 -6 25.31 268.51 71.75 o
2086 2 1 -6 -6 25.31 268.51 71.75 o
2086 1 -2 -6 6 25.31 268.51 71.75 o
2087 4 -1 6 6 11.49 302.21 84.79 o
2087 3 2 6 -6 11.49 302.21 84.79 o
2087 2 2 -6 -6 11.49 302.21 84.79 o
2087 1 -1 -6 6 11.49 302.21 84.79 o
2088 4 0 6 6 27394.20 30050.80 900.78 o
2088 3 3 6 -6 27394.20 30050.80 900.78 o
2088 2 3 -6 -6 27394.20 30050.80 900.78 o
2088 1 0 -6 6 27394.20 30050.80 900.78 o
2089 4 1 6 6 66195.50 65163.00 2366.88 o
2089 3 4 6 -6 66195.50 65163.00 2366.88 o
2089 2 4 -6 -6 66195.50 65163.00 2366.88 o
2089 1 1 -6 6 66195.50 65163.00 2366.88 o
2090 4 2 6 6 28795.30 30975.60 1072.90 o
2090 3 5 6 -6 28795.30 30975.60 1072.90 o
2090 2 5 -6 -6 28795.30 30975.60 1072.90 o
2090 1 2 -6 6 28795.30 30975.60 1072.90 o
2091 4 3 6 6 37847.30 38654.10 1298.25 o
2091 3 6 6 -6 37847.30 38654.10 1298.25 o
2091 2 6 -6 -6 37847.30 38654.10 1298.25 o
2091 1 3 -6 6 37847.30 38654.10 1298.25 o
2092 4 4 6 6 94069.80 98412.00 1989.08 o
2092 3 7 6 -6 94069.80 98412.00 1989.08 o
2092 2 7 -6 -6 94069.80 98412.00 1989.08 o
2092 1 4 -6 6 94069.80 98412.00 1989.08 o
2093 4 5 6 6 25833.60 27729.70 1461.81 o
2093 3 8 6 -6 25833.60 27729.70 1461.81 o
2093 2 8 -6 -6 25833.60 27729.70 1461.81 o
2093 1 5 -6 6 25833.60 27729.70 1461.81 o
2094 4 6 6 6 14349.20 16460.90 1154.56 o
2094 3 9 6 -6 14349.20 16460.90 1154.56 o
2094 2 9 -6 -6 14349.20 16460.90 1154.56 o
2094 1 6 -6 6 14349.20 16460.90 1154.56 o
2095 4 7 6 6 31331.60 33123.90 1683.10 o
2095 3 10 6 -6 31331.60 33123.90 1683.10 o
2095 2 10 -6 -6 31331.60 33123.90 1683.10 o
2095 1 7 -6 6 31331.60 33123.90 1683.10 o
2096 4 8 6 6 15794.40 16739.00 1557.14 o
2096 3 11 6 -6 15794.40 16739.00 1557.14 o
2096 2 11 -6 -6 15794.40 16739.00 1557.14 o
2096 1 8 -6 6 15794.40 16739.00 1557.14 o
2097 4 -10 6 2 15285.30 15296.80 737.80 o
2097 3 -8 2 -6 15285.30 15296.80 737.80 o
2097 2 -9 -6 -2 15285.30 15296.80 737.80 o
2097 1 -11 -2 6 15285.30 15296.80 737.80 o
2098 4 -9 6 2 49037.90 50425.10 1261.45 o
2098 3 -7 2 -6 49037.90 50425.10 1261.45 o
2098 2 -8 -6 -2 49037.90 50425.10 1261.45 o
2098 1 -10 -2 6 49037.90 50425.10 1261.45 o
2099 4 -8 6 2 13608.90 14222.20 733.47 o
2099 3 -6 2 -6 13608.90 14222.20 733.47 o
2099 2 -7 -6 -2 13608.90 14222.20 733.47 o
2099 1 -9 -2 6 13608.90 14222.20 733.47 o
2100 4 -7 6 2 25446.60 24721.90 783.42 o
2100 3 -5 2 -6 25446.60 24721.90 783.42 o
2100 2 -6 -6 -2 25446.60 24721.90 783.42 o
2100 1 -8 -2 6 25446.60 24721.90 783.42 o
2101 4 -6 6 2 142463.00 141355.00 1351.43 o
2101 3 -4 2 -6 142463.00 141355.00 1351.43 o
2101 2 -5 -6 -2 142463.00 141355.00 1351.43 o
2101 1 -7 -2 6 142463.00 141355.00 1351.43 o
2102 4 -5 6 2 37622.50 36156.40 609.27 o
2102 3 -3 2 -6 37622.50 36156.40 609.27 o
2102 2 -4 -6 -2 37622.50 36156.40 609.27 o
2102 1 -6 -2 6 37622.50 36156.40 609.27 o
2103 4 -4 6 2 26664.90 26024.30 416.72 o
2103 3 -2 2 -6 26664.90 26024.30 416.72 o
2103 2 -3 -6 -2 26664.90 26024.30 416.72 o
2103 1 -5 -2 6 26664.90 26024.30 416.72 o
2104 4 -3 6 2 108522.00 106771.00 1061.87 o
2104 3 -1 2 -6 108522.00 106771.00 1061.87 o
2104 2 -2 -6 -2 108522.00 106771.00 1061.87 o
2104 1 -4 -2 6 108522.00 106771.00 1061.87 o
2105 4 -2 6 2 25896.00 25700.30 620.02 o
2105 3 0 2 -6 25896.00 25700.30 620.02 o
2105 2 -1 -6 -2 25896.00 25700.30 620.02 o
2105 1 -3 -2 6 25896.00 25700.30 620.02 o
2106 4 -1 6 2 1500.42 1711.51 158.76 o
2106 3 1 2 -6 1500.42 1711.51 158.76 o
2106 2 0 -6 -2 1500.42 1711.51 158.76 o
2106 1 -2 -2 6 1500.42 1711.51 158.76 o
2107 4 0 6 2 1088.63 1326.47 106.55 o
2107 3 2 2 -6 1088.63 1326.47 106.55 o
2107 2 1 -6 -2 1088.63 1326.47 106.55 o
2107 1 -1 -2 6 1088.63 1326.47 106.55 o
2108 4 1 6 2 26123.60 27387.60 755.61 o
2108 3 3 2 -6 26123.60 27387.60 755.61 o
2108 2 2 -6 -2 26123.60 27387.60 755.61 o
2108 1 0 -2 6 26123.60 27387.60 755.61 o
2109 4 2 6 2 108786.00 104505.00 1584.84 o
2109 3 4 2 -6 108786.00 104505.00 1584.84 o
2109 2 3 -6 -2 108786.00 104505.00 1584.84 o
2109 1 1 -2 6 108786.00 104505.00 1584.84 o
2110 4 3 6 2 27402.40 26081.50 1013.62 o
2110 3 5 2 -6 27402.40 26081.50 1013.62 o
2110 2 4 -6 -2 27402.40 26081.50 1013.62 o
2110 1 2 -2 6 27402.40 26081.50 1013.62 o
2111 4 4 6 2 36784.60 35879.40 1246.86 o
2111 3 6 2 -6 36784.60 35879.40 1246.86 o
2111 2 5 -6 -2 36784.60 35879.40 1246.86 o
2111 1 3 -2 6 36784.60 35879.40 1246.86 o
2112 4 5 6 2 138682.00 134626.00 2531.95 o
2112 3 7 2 -6 138682.00 134626.00 2531.95 o
2112 2 6 -6 -2 138682.00 134626.00 2531.95 o
2112 1 4 -2 6 138682.00 134626.00 2531.95 o
2113 4 6 6 2 24734.20 23896.10 877.17 o
2113 3 8 2 -6 24734.20 23896.10 877.17 o
2113 2 7 -6 -2 24734.20 23896.10 877.17 o
2113 1 5 -2 6 24734.20 23896.10 877.17 o
2114 4 7 6 2 13183.40 13149.20 674.77 o
2114 3 9 2 -6 13183.40 13149.20 674.77 o
2114 2 8 -6 -2 13183.40 13149.20 674.77 o
2114 1 6 -2 6 13183.40 13149.20 674.77 o
2115 4 8 6 2 44952.20 46917.30 2823.87 o
2115 3 10 2 -6 44952.20 46917.30 2823.87 o
2115 2 9 -6 -2 44952.20 46917.30 2823.87 o
2115 1 7 -2 6 44952.20 46917.30 2823.87 o
2116 4 9 6 2 14668.30 14342.40 1578.00 o
2116 3 11 2 -6 14668.30 14342.40 1578.00 o
2116 2 10 -6 -2 14668.30 14342.40 1578.00 o
2116 1 8 -2 6 14668.30 14342.40 1578.00 o
2117 3 -9 0 -6 187.45 522.90 258.73 <
2117 1 -12 0 6 187.45 522.90 258.73 <
2118 3 -8 0 -6 156.85 221.77 128.28 <
2118 1 -11 0 6 156.85 221.77 128.28 <
2119 3 -7 0 -6 127.89 165.24 100.02 <
2119 1 -10 0 6 127.89 165.24 100.02 <
2120 3 -6 0 -6 399.81 351.15 120.67 <
2120 1 -9 0 6 399.81 351.15 120.67 <
2121 3 -5 0 -6 369.41 271.77 106.54 <
2121 1 -8 0 6 369.41 271.77 106.54 <
2122 3 -4 0 -6 217.45 322.89 85.89 o
2122 1 -7 0 6 217.45 322.89 85.89 o
2123 3 -3 0 -6 91.05 76.10 34.79 <
2123 1 -6 0 6 91.05 76.10 34.79 <
2124 3 -2 0 -6 87.18 98.92 41.31 <
2124 1 -5 0 6 87.18 98.92 41.31 <
2125 3 -1 0 -6 13.81 10.87 22.83 <
2125 1 -4 0 6 13.81 10.87 22.83 <
2126 3 0 0 -6 1.74 122.84 32.61 o
2126 1 -3 0 6 1.74 122.84 32.61 o
2127 3 1 0 -6 88.10 145.67 40.22 o
2127 1 -2 0 6 88.10 145.67 40.22 o
2128 3 2 0 -6 22.63 25.00 33.70 <
2128 1 -1 0 6 22.63 25.00 33.70 <
2129 3 3 0 -6 9.95 56.53 68.49 <
2129 1 0 0 6 9.95 56.53 68.49 <
2130 3 4 0 -6 17.85 4.35 35.87 <
2130 1 1 0 6 17.85 4.35 35.87 <
2131 3 5 0 -6 15.83 78.27 45.66 <
2131 1 2 0 6 15.83 78.27 45.66 <
2132 3 6 0 -6 11.94 54.35 43.48 <
2132 1 3 0 6 11.94 54.35 43.48 <
2133 3 7 0 -6 380.15 464.20 106.54 o
2133 1 4 0 6 380.15 464.20 106.54 o
2134 3 8 0 -6 147.91 198.95 103.28 <
2134 1 5 0 6 147.91 198.95 103.28 <
2135 3 9 0 -6 415.45 764.26 353.32 <
2135 1 6 0 6 415.45 764.26 353.32 <
2136 3 10 0 -6 355.06 253.29 144.58 <
2136 1 7 0 6 355.06 253.29 144.58 <
2137 3 11 0 -6 136.62 119.58 133.71 <
2137 1 8 0 6 136.62 119.58 133.71 <
2138 3 12 0 -6 248.80 26.09 184.81 <
2138 1 9 0 6 248.80 26.09 184.81 <
2139 3 -9 -1 -6 14.87 110.88 108.71 <
2139 1 -12 1 6 14.87 110.88 108.71 <
2140 3 -8 -1 -6 8.58 -15.22 48.92 <
2140 1 -11 1 6 8.58 -15.22 48.92 <
2141 3 -7 -1 -6 822.56 738.14 130.45 o
2141 1 -10 1 6 822.56 738.14 130.45 o
2142 3 -6 -1 -6 1347.22 1323.17 167.43 o
2142 1 -9 1 6 1347.22 1323.17 167.43 o
2143 3 -5 -1 -6 771.55 853.44 110.89 o
2143 1 -8 1 6 771.55 853.44 110.89 o
2144 3 -4 -1 -6 326.70 360.91 55.44 o
2144 1 -7 1 6 326.70 360.91 55.44 o
2145 3 -3 -1 -6 81.31 66.31 23.92 <
2145 1 -6 1 6 81.31 66.31 23.92 <
2146 3 -2 -1 -6 100.78 127.19 26.09 o
2146 1 -5 1 6 100.78 127.19 26.09 o
2147 3 -1 -1 -6 25.57 52.18 27.18 <
2147 1 -4 1 6 25.57 52.18 27.18 <
2148 3 0 -1 -6 313.31 301.14 33.70 o
2148 1 -3 1 6 313.31 301.14 33.70 o
2149 3 1 -1 -6 3625.44 3443.25 127.33 o
2149 1 -2 1 6 3625.44 3443.25 127.33 o
2150 3 2 -1 -6 3471.47 3291.10 143.66 o
2150 1 -1 1 6 3471.47 3291.10 143.66 o
2151 3 3 -1 -6 189.89 189.17 46.75 o
2151 1 0 1 6 189.89 189.17 46.75 o
2152 3 4 -1 -6 14.82 103.27 30.44 o
2152 1 1 1 6 14.82 103.27 30.44 o
2153 3 5 -1 -6 167.79 192.42 45.66 o
2153 1 2 1 6 167.79 192.42 45.66 o
2154 3 6 -1 -6 128.56 222.85 56.53 o
2154 1 3 1 6 128.56 222.85 56.53 o
2155 3 7 -1 -6 97.24 105.45 47.83 <
2155 1 4 1 6 97.24 105.45 47.83 <
2156 3 8 -1 -6 621.34 624.06 111.98 o
2156 1 5 1 6 621.34 624.06 111.98 o
2157 3 9 -1 -6 1056.43 953.56 146.79 o
2157 1 6 1 6 1056.43 953.56 146.79 o
2158 3 10 -1 -6 259.88 617.53 168.52 o
2158 1 7 1 6 259.88 617.53 168.52 o
2159 3 11 -1 -6 18.15 -50.01 107.62 <
2159 1 8 1 6 18.15 -50.01 107.62 <
2160 4 -10 6 -2 278.86 607.68 255.47 <
2160 3 -9 -2 -6 278.86 607.68 255.47 <
2160 2 -11 -6 2 278.86 607.68 255.47 <
2160 1 -12 2 6 278.86 607.68 255.47 <
2161 4 -9 6 -2 15377.80 14826.70 878.24 o
2161 3 -8 -2 -6 15377.80 14826.70 878.24 o
2161 2 -10 -6 2 15377.80 14826.70 878.24 o
2161 1 -11 2 6 15377.80 14826.70 878.24 o
2162 4 -8 6 -2 48480.30 47836.10 1495.39 o
2162 3 -7 -2 -6 48480.30 47836.10 1495.39 o
2162 2 -9 -6 2 48480.30 47836.10 1495.39 o
2162 1 -10 2 6 48480.30 47836.10 1495.39 o
2163 4 -7 6 -2 13704.40 13939.40 767.28 o
2163 3 -6 -2 -6 13704.40 13939.40 767.28 o
2163 2 -8 -6 2 13704.40 13939.40 767.28 o
2163 1 -9 2 6 13704.40 13939.40 767.28 o
2164 4 -6 6 -2 25501.40 25268.10 833.59 o
2164 3 -5 -2 -6 25501.40 25268.10 833.59 o
2164 2 -7 -6 2 25501.40 25268.10 833.59 o
2164 1 -8 2 6 25501.40 25268.10 833.59 o
2165 4 -5 6 -2 142102.00 144227.00 1815.23 o
2165 3 -4 -2 -6 142102.00 144227.00 1815.23 o
2165 2 -6 -6 2 142102.00 144227.00 1815.23 o
2165 1 -7 2 6 142102.00 144227.00 1815.23 o
2166 4 -4 6 -2 37590.00 38518.80 683.49 o
2166 3 -3 -2 -6 37590.00 38518.80 683.49 o
2166 2 -5 -6 2 37590.00 38518.80 683.49 o
2166 1 -6 2 6 37590.00 38518.80 683.49 o
2167 4 -3 6 -2 26803.90 27125.90 483.36 o
2167 3 -2 -2 -6 26803.90 27125.90 483.36 o
2167 2 -4 -6 2 26803.90 27125.90 483.36 o
2167 1 -5 2 6 26803.90 27125.90 483.36 o
2168 4 -2 6 -2 108192.00 107846.00 1043.71 o
2168 3 -1 -2 -6 108192.00 107846.00 1043.71 o
2168 2 -3 -6 2 108192.00 107846.00 1043.71 o
2168 1 -4 2 6 108192.00 107846.00 1043.71 o
2169 4 -1 6 -2 26081.40 26343.90 429.13 o
2169 3 0 -2 -6 26081.40 26343.90 429.13 o
2169 2 -2 -6 2 26081.40 26343.90 429.13 o
2169 1 -3 2 6 26081.40 26343.90 429.13 o
2170 4 0 6 -2 1456.39 1575.46 134.82 o
2170 3 1 -2 -6 1456.39 1575.46 134.82 o
2170 2 -1 -6 2 1456.39 1575.46 134.82 o
2170 1 -2 2 6 1456.39 1575.46 134.82 o
2171 4 1 6 -2 1132.60 1364.64 130.48 o
2171 3 2 -2 -6 1132.60 1364.64 130.48 o
2171 2 0 -6 2 1132.60 1364.64 130.48 o
2171 1 -1 2 6 1132.60 1364.64 130.48 o
2172 4 2 6 -2 25938.30 27067.90 612.38 o
2172 3 3 -2 -6 25938.30 27067.90 612.38 o
2172 2 1 -6 2 25938.30 27067.90 612.38 o
2172 1 0 2 6 25938.30 27067.90 612.38 o
2173 4 3 6 -2 109116.00 107373.00 1047.47 o
2173 3 4 -2 -6 109116.00 107373.00 1047.47 o
2173 2 2 -6 2 109116.00 107373.00 1047.47 o
2173 1 1 2 6 109116.00 107373.00 1047.47 o
2174 4 4 6 -2 27263.50 26989.50 553.08 o
2174 3 5 -2 -6 27263.50 26989.50 553.08 o
2174 2 3 -6 2 27263.50 26989.50 553.08 o
2174 1 2 2 6 27263.50 26989.50 553.08 o
2175 4 5 6 -2 36817.00 36627.60 711.90 o
2175 3 6 -2 -6 36817.00 36627.60 711.90 o
2175 2 4 -6 2 36817.00 36627.60 711.90 o
2175 1 3 2 6 36817.00 36627.60 711.90 o
2176 4 6 6 -2 139041.00 137701.00 1814.69 o
2176 3 7 -2 -6 139041.00 137701.00 1814.69 o
2176 2 5 -6 2 139041.00 137701.00 1814.69 o
2176 1 4 2 6 139041.00 137701.00 1814.69 o
2177 4 7 6 -2 24679.40 25014.90 845.52 o
2177 3 8 -2 -6 24679.40 25014.90 845.52 o
2177 2 6 -6 2 24679.40 25014.90 845.52 o
2177 1 5 2 6 24679.40 25014.90 845.52 o
2178 4 8 6 -2 13088.10 13429.90 812.91 o
2178 3 9 -2 -6 13088.10 13429.90 812.91 o
2178 2 7 -6 2 13088.10 13429.90 812.91 o
2178 1 6 2 6 13088.10 13429.90 812.91 o
2179 4 9 6 -2 45507.30 47751.10 2334.09 o
2179 3 10 -2 -6 45507.30 47751.10 2334.09 o
2179 2 8 -6 2 45507.30 47751.10 2334.09 o
2179 1 7 2 6 45507.30 47751.10 2334.09 o
2180 4 10 6 -2 14575.90 15828.90 1442.95 o
2180 3 11 -2 -6 14575.90 15828.90 1442.95 o
2180 2 9 -6 2 14575.90 15828.90 1442.95 o
2180 1 8 2 6 14575.90 15828.90 1442.95 o
2181 3 -8 -3 -6 204.44 122.85 78.27 <
2181 1 -11 3 6 204.44 122.85 78.27 <
2182 3 -7 -3 -6 149.98 172.85 73.92 <
2182 1 -10 3 6 149.98 172.85 73.92 <
2183 3 -6 -3 -6 31.01 68.49 51.09 <
2183 1 -9 3 6 31.01 68.49 51.09 <
2184 3 -5 -3 -6 21.78 59.79 41.31 <
2184 1 -8 3 6 21.78 59.79 41.31 <
2185 3 -4 -3 -6 919.41 966.61 98.94 o
2185 1 -7 3 6 919.41 966.61 98.94 o
2186 3 -3 -3 -6 2507.59 2504.12 132.71 o
2186 1 -6 3 6 2507.59 2504.12 132.71 o
2187 3 -2 -3 -6 4825.88 4989.72 190.49 o
2187 1 -5 3 6 4825.88 4989.72 190.49 o
2188 3 -1 -3 -6 3355.41 3238.37 136.02 o
2188 1 -4 3 6 3355.41 3238.37 136.02 o
2189 3 0 -3 -6 207.95 219.61 38.05 o
2189 1 -3 3 6 207.95 219.61 38.05 o
2190 3 1 -3 -6 110.30 100.02 25.00 o
2190 1 -2 3 6 110.30 100.02 25.00 o
2191 3 2 -3 -6 158.18 93.49 23.92 o
2191 1 -1 3 6 158.18 93.49 23.92 o
2192 3 3 -3 -6 361.53 337.01 52.18 o
2192 1 0 3 6 361.53 337.01 52.18 o
2193 3 4 -3 -6 3905.05 3582.66 159.93 o
2193 1 1 3 6 3905.05 3582.66 159.93 o
2194 3 5 -3 -6 5700.61 5201.70 212.20 o
2194 1 2 3 6 5700.61 5201.70 212.20 o
2195 3 6 -3 -6 3209.60 3023.52 203.38 o
2195 1 3 3 6 3209.60 3023.52 203.38 o
2196 3 7 -3 -6 1111.18 1204.67 134.82 o
2196 1 4 3 6 1111.18 1204.67 134.82 o
2197 3 8 -3 -6 122.10 155.45 61.96 <
2197 1 5 3 6 122.10 155.45 61.96 <
2198 3 9 -3 -6 231.71 190.24 85.88 <
2198 1 6 3 6 231.71 190.24 85.88 <
2199 3 10 -3 -6 336.21 452.23 159.80 <
2199 1 7 3 6 336.21 452.23 159.80 <
2200 3 11 -3 -6 502.65 703.35 335.91 <
2200 1 8 3 6 502.65 703.35 335.91 <
2201 3 -8 -4 -6 42.90 168.50 86.97 <
2201 1 -11 4 6 42.90 168.50 86.97 <
2202 3 -7 -4 -6 107.68 70.66 50.01 <
2202 1 -10 4 6 107.68 70.66 50.01 <
2203 3 -6 -4 -6 222.69 205.48 127.20 <
2203 1 -9 4 6 222.69 205.48 127.20 <
2204 3 -5 -4 -6 232.47 123.93 53.27 <
2204 1 -8 4 6 232.47 123.93 53.27 <
2205 3 -4 -4 -6 65.33 123.93 65.23 <
2205 1 -7 4 6 65.33 123.93 65.23 <
2206 3 -3 -4 -6 46.95 77.19 45.66 <
2206 1 -6 4 6 46.95 77.19 45.66 <
2207 3 -2 -4 -6 732.54 656.65 76.10 o
2207 1 -5 4 6 732.54 656.65 76.10 o
2208 3 -1 -4 -6 117.99 101.10 31.53 o
2208 1 -4 4 6 117.99 101.10 31.53 o
2209 3 0 -4 -6 24.33 105.45 27.18 o
2209 1 -3 4 6 24.33 105.45 27.18 o
2210 3 1 -4 -6 46.60 83.71 26.09 o
2210 1 -2 4 6 46.60 83.71 26.09 o
2211 3 2 -4 -6 13.49 14.13 22.83 <
2211 1 -1 4 6 13.49 14.13 22.83 <
2212 3 3 -4 -6 93.08 152.19 36.96 o
2212 1 0 4 6 93.08 152.19 36.96 o
2213 3 4 -4 -6 119.35 117.41 32.61 o
2213 1 1 4 6 119.35 117.41 32.61 o
2214 3 5 -4 -6 416.21 403.37 56.54 o
2214 1 2 4 6 416.21 403.37 56.54 o
2215 3 6 -4 -6 181.45 101.10 55.44 <
2215 1 3 4 6 181.45 101.10 55.44 <
2216 3 7 -4 -6 81.00 152.19 61.96 <
2216 1 4 4 6 81.00 152.19 61.96 <
2217 3 8 -4 -6 258.94 369.62 114.15 o
2217 1 5 4 6 258.94 369.62 114.15 o
2218 3 9 -4 -6 560.42 580.51 153.28 o
2218 1 6 4 6 560.42 580.51 153.28 o
2219 3 10 -4 -6 146.31 115.23 83.71 <
2219 1 7 4 6 146.31 115.23 83.71 <
2220 3 11 -4 -6 18.43 -397.87 365.26 <
2220 1 8 4 6 18.43 -397.87 365.26 <
2221 3 -8 -5 -6 958.26 1155.62 277.22 o
2221 1 -11 5 6 958.26 1155.62 277.22 o
2222 3 -7 -5 -6 949.32 762.15 177.22 o
2222 1 -10 5 6 949.32 762.15 177.22 o
2223 3 -6 -5 -6 1885.12 2015.82 193.54 o
2223 1 -9 5 6 1885.12 2015.82 193.54 o
2224 3 -5 -5 -6 2545.22 2755.40 241.40 o
2224 1 -8 5 6 2545.22 2755.40 241.40 o
2225 3 -4 -5 -6 989.99 892.68 115.25 o
2225 1 -7 5 6 989.99 892.68 115.25 o
2226 3 -3 -5 -6 494.96 584.88 85.88 o
2226 1 -6 5 6 494.96 584.88 85.88 o
2227 3 -2 -5 -6 122.37 83.71 45.66 <
2227 1 -5 5 6 122.37 83.71 45.66 <
2228 3 -1 -5 -6 568.90 545.77 69.58 o
2228 1 -4 5 6 568.90 545.77 69.58 o
2229 3 0 -5 -6 3856.94 3688.05 145.78 o
2229 1 -3 5 6 3856.94 3688.05 145.78 o
2230 3 1 -5 -6 4011.93 4156.37 167.56 o
2230 1 -2 5 6 4011.93 4156.37 167.56 o
2231 3 2 -5 -6 3777.65 3897.70 199.13 o
2231 1 -1 5 6 3777.65 3897.70 199.13 o
2232 3 3 -5 -6 3409.41 3519.90 206.73 o
2232 1 0 5 6 3409.41 3519.90 206.73 o
2233 3 4 -5 -6 528.65 481.64 81.54 o
2233 1 1 5 6 528.65 481.64 81.54 o
2234 3 5 -5 -6 45.69 90.23 41.31 <
2234 1 2 5 6 45.69 90.23 41.31 <
2235 3 6 -5 -6 366.13 438.13 81.54 o
2235 1 3 5 6 366.13 438.13 81.54 o
2236 3 7 -5 -6 1268.25 1170.96 144.60 o
2236 1 4 5 6 1268.25 1170.96 144.60 o
2237 3 8 -5 -6 1900.46 1816.14 188.14 o
2237 1 5 5 6 1900.46 1816.14 188.14 o
2238 3 9 -5 -6 1439.24 1380.96 204.43 o
2238 1 6 5 6 1439.24 1380.96 204.43 o
2239 3 10 -5 -6 1087.56 1205.71 198.96 o
2239 1 7 5 6 1087.56 1205.71 198.96 o
2240 3 11 -5 -6 462.48 554.48 315.29 <
2240 1 8 5 6 462.48 554.48 315.29 <
2241 4 -7 6 -6 32724.00 32291.70 1209.22 o
2241 3 -7 -6 -6 32724.00 32291.70 1209.22 o
2241 2 -10 -6 6 32724.00 32291.70 1209.22 o
2241 1 -10 6 6 32724.00 32291.70 1209.22 o
2242 4 -6 6 -6 15619.00 16532.70 818.31 o
2242 3 -6 -6 -6 15619.00 16532.70 818.31 o
2242 2 -9 -6 6 15619.00 16532.70 818.31 o
2242 1 -9 6 6 15619.00 16532.70 818.31 o
2243 4 -5 6 -6 27066.60 27186.20 961.83 o
2243 3 -5 -6 -6 27066.60 27186.20 961.83 o
2243 2 -8 -6 6 27066.60 27186.20 961.83 o
2243 1 -8 6 6 27066.60 27186.20 961.83 o
2244 4 -4 6 -6 96404.00 98561.90 1689.93 o
2244 3 -4 -6 -6 96404.00 98561.90 1689.93 o
2244 2 -7 -6 6 96404.00 98561.90 1689.93 o
2244 1 -7 6 6 96404.00 98561.90 1689.93 o
2245 4 -3 6 -6 38656.40 39133.30 988.42 o
2245 3 -3 -6 -6 38656.40 39133.30 988.42 o
2245 2 -6 -6 6 38656.40 39133.30 988.42 o
2245 1 -6 6 6 38656.40 39133.30 988.42 o
2246 4 -2 6 -6 28663.90 30018.50 803.59 o
2246 3 -2 -6 -6 28663.90 30018.50 803.59 o
2246 2 -5 -6 6 28663.90 30018.50 803.59 o
2246 1 -5 6 6 28663.90 30018.50 803.59 o
2247 4 -1 6 -6 64396.60 66195.50 1102.95 o
2247 3 -1 -6 -6 64396.60 66195.50 1102.95 o
2247 2 -4 -6 6 64396.60 66195.50 1102.95 o
2247 1 -4 6 6 64396.60 66195.50 1102.95 o
2248 4 0 6 -6 28339.60 29636.50 690.31 o
2248 3 0 -6 -6 28339.60 29636.50 690.31 o
2248 2 -3 -6 6 28339.60 29636.50 690.31 o
2248 1 -3 6 6 28339.60 29636.50 690.31 o
2249 4 1 6 -6 22.91 94.58 52.18 <
2249 3 1 -6 -6 22.91 94.58 52.18 <
2249 2 -2 -6 6 22.91 94.58 52.18 <
2249 1 -2 6 6 22.91 94.58 52.18 <
2250 4 2 6 -6 13.88 292.42 88.05 o
2250 3 2 -6 -6 13.88 292.42 88.05 o
2250 2 -1 -6 6 13.88 292.42 88.05 o
2250 1 -1 6 6 13.88 292.42 88.05 o
2251 4 3 6 -6 27596.80 29204.40 634.86 o
2251 3 3 -6 -6 27596.80 29204.40 634.86 o
2251 2 0 -6 6 27596.80 29204.40 634.86 o
2251 1 0 6 6 27596.80 29204.40 634.86 o
2252 4 4 6 -6 65776.10 68195.50 944.76 o
2252 3 4 -6 -6 65776.10 68195.50 944.76 o
2252 2 1 -6 6 65776.10 68195.50 944.76 o
2252 1 1 6 6 65776.10 68195.50 944.76 o
2253 4 5 6 -6 28760.00 28895.20 653.09 o
2253 3 5 -6 -6 28760.00 28895.20 653.09 o
2253 2 2 -6 6 28760.00 28895.20 653.09 o
2253 1 2 6 6 28760.00 28895.20 653.09 o
2254 4 6 6 -6 38014.40 36740.30 987.49 o
2254 3 6 -6 -6 38014.40 36740.30 987.49 o
2254 2 3 -6 6 38014.40 36740.30 987.49 o
2254 1 3 6 6 38014.40 36740.30 987.49 o
2255 4 7 6 -6 94575.00 93302.40 1711.50 o
2255 3 7 -6 -6 94575.00 93302.40 1711.50 o
2255 2 4 -6 6 94575.00 93302.40 1711.50 o
2255 1 4 6 6 94575.00 93302.40 1711.50 o
2256 4 8 6 -6 26090.30 26744.50 990.37 o
2256 3 8 -6 -6 26090.30 26744.50 990.37 o
2256 2 5 -6 6 26090.30 26744.50 990.37 o
2256 1 5 6 6 26090.30 26744.50 990.37 o
2257 4 9 6 -6 14613.30 14541.20 786.92 o
2257 3 9 -6 -6 14613.30 14541.20 786.92 o
2257 2 6 -6 6 14613.30 14541.20 786.92 o
2257 1 6 6 6 14613.30 14541.20 786.92 o
2258 4 10 6 -6 31620.20 30543.30 1524.39 o
2258 3 10 -6 -6 31620.20 30543.30 1524.39 o
2258 2 7 -6 6 31620.20 30543.30 1524.39 o
2258 1 7 6 6 31620.20 30543.30 1524.39 o
2259 4 11 6 -6 16108.60 15135.30 1590.15 o
2259 3 11 -6 -6 16108.60 15135.30 1590.15 o
2259 2 8 -6 6 16108.60 15135.30 1590.15 o
2259 1 8 6 6 16108.60 15135.30 1590.15 o
2260 3 -7 -7 -6 927.42 879.63 178.32 o
2260 1 -10 7 6 927.42 879.63 178.32 o
2261 3 -6 -7 -6 742.49 697.99 130.47 o
2261 1 -9 7 6 742.49 697.99 130.47 o
2262 3 -5 -7 -6 1480.35 1712.71 192.48 o
2262 1 -8 7 6 1480.35 1712.71 192.48 o
2263 3 -4 -7 -6 3117.97 3432.85 255.61 o
2263 1 -7 7 6 3117.97 3432.85 255.61 o
2264 3 -3 -7 -6 7283.86 7515.93 314.57 o
2264 1 -6 7 6 7283.86 7515.93 314.57 o
2265 3 -2 -7 -6 8215.42 8079.24 312.50 o
2265 1 -5 7 6 8215.42 8079.24 312.50 o
2266 3 -1 -7 -6 6630.65 6631.90 271.07 o
2266 1 -4 7 6 6630.65 6631.90 271.07 o
2267 3 0 -7 -6 5207.08 5717.97 226.37 o
2267 1 -3 7 6 5207.08 5717.97 226.37 o
2268 3 1 -7 -6 1446.07 1594.14 132.66 o
2268 1 -2 7 6 1446.07 1594.14 132.66 o
2269 3 2 -7 -6 1522.08 1641.96 134.84 o
2269 1 -1 7 6 1522.08 1641.96 134.84 o
2270 3 3 -7 -6 5719.12 5868.47 297.07 o
2270 1 0 7 6 5719.12 5868.47 297.07 o
2271 3 4 -7 -6 7495.88 7995.32 530.05 o
2271 1 1 7 6 7495.88 7995.32 530.05 o
2272 3 5 -7 -6 9155.59 9048.51 439.80 o
2272 1 2 7 6 9155.59 9048.51 439.80 o
2273 3 6 -7 -6 7830.05 7989.54 382.01 o
2273 1 3 7 6 7830.05 7989.54 382.01 o
2274 3 7 -7 -6 3834.45 4090.34 281.68 o
2274 1 4 7 6 3834.45 4090.34 281.68 o
2275 3 8 -7 -6 2234.64 2170.22 247.90 o
2275 1 5 7 6 2234.64 2170.22 247.90 o
2276 3 9 -7 -6 970.96 1123.05 188.08 o
2276 1 6 7 6 970.96 1123.05 188.08 o
2277 3 10 -7 -6 1580.79 1801.47 284.84 o
2277 1 7 7 6 1580.79 1801.47 284.84 o
2278 3 11 -7 -6 3403.34 3812.15 563.23 o
2278 1 8 7 6 3403.34 3812.15 563.23 o
2279 3 -7 -8 -6 874.66 828.47 453.38 <
2279 1 -10 8 6 874.66 828.47 453.38 <
2280 3 -6 -8 -6 58.02 86.97 94.58 <
2280 1 -9 8 6 58.02 86.97 94.58 <
2281 3 -5 -8 -6 112.65 161.98 88.06 <
2281 1 -8 8 6 112.65 161.98 88.06 <
2282 3 -4 -8 -6 1417.53 1511.39 173.97 o
2282 1 -7 8 6 1417.53 1511.39 173.97 o
2283 3 -3 -8 -6 1282.27 1435.11 165.26 o
2283 1 -6 8 6 1282.27 1435.11 165.26 o
2284 3 -2 -8 -6 536.36 602.31 86.98 o
2284 1 -5 8 6 536.36 602.31 86.98 o
2285 3 -1 -8 -6 1123.43 1114.46 133.74 o
2285 1 -4 8 6 1123.43 1114.46 133.74 o
2286 3 0 -8 -6 1080.76 1194.88 106.55 o
2286 1 -3 8 6 1080.76 1194.88 106.55 o
2287 3 1 -8 -6 656.64 708.89 91.33 o
2287 1 -2 8 6 656.64 708.89 91.33 o
2288 3 2 -8 -6 844.27 898.03 121.77 o
2288 1 -1 8 6 844.27 898.03 121.77 o
2289 3 3 -8 -6 898.66 1037.28 159.83 o
2289 1 0 8 6 898.66 1037.28 159.83 o
2290 3 4 -8 -6 1098.01 1203.63 243.55 o
2290 1 1 8 6 1098.01 1203.63 243.55 o
2291 3 5 -8 -6 723.09 610.99 115.24 o
2291 1 2 8 6 723.09 610.99 115.24 o
2292 3 6 -8 -6 826.83 861.14 145.70 o
2292 1 3 8 6 826.83 861.14 145.70 o
2293 3 7 -8 -6 1623.56 1778.81 194.62 o
2293 1 4 8 6 1623.56 1778.81 194.62 o
2294 3 8 -8 -6 218.38 288.08 107.62 <
2294 1 5 8 6 218.38 288.08 107.62 <
2295 3 9 -8 -6 29.89 -76.10 86.97 <
2295 1 6 8 6 29.89 -76.10 86.97 <
2296 3 10 -8 -6 1182.64 1269.83 306.59 o
2296 1 7 8 6 1182.64 1269.83 306.59 o
2297 3 -7 -9 -6 769.11 462.02 270.69 <
2297 1 -10 9 6 769.11 462.02 270.69 <
2298 3 -6 -9 -6 1047.24 1166.59 180.48 o
2298 1 -9 9 6 1047.24 1166.59 180.48 o
2299 3 -5 -9 -6 621.11 702.34 125.03 o
2299 1 -8 9 6 621.11 702.34 125.03 o
2300 3 -4 -9 -6 548.52 646.84 127.19 o
2300 1 -7 9 6 548.52 646.84 127.19 o
2301 3 -3 -9 -6 61.13 102.19 68.49 <
2301 1 -6 9 6 61.13 102.19 68.49 <
2302 3 -2 -9 -6 101.42 113.06 53.27 <
2302 1 -5 9 6 101.42 113.06 53.27 <
2303 3 -1 -9 -6 347.87 475.07 94.58 o
2303 1 -4 9 6 347.87 475.07 94.58 o
2304 3 0 -9 -6 508.35 649.04 88.06 o
2304 1 -3 9 6 508.35 649.04 88.06 o
2305 3 1 -9 -6 2322.80 2645.90 184.88 o
2305 1 -2 9 6 2322.80 2645.90 184.88 o
2306 3 2 -9 -6 2344.88 2826.41 259.91 o
2306 1 -1 9 6 2344.88 2826.41 259.91 o
2307 3 3 -9 -6 484.00 351.15 116.33 o
2307 1 0 9 6 484.00 351.15 116.33 o
2308 3 4 -9 -6 205.42 44.57 59.79 <
2308 1 1 9 6 205.42 44.57 59.79 <
2309 3 5 -9 -6 141.40 170.67 79.36 <
2309 1 2 9 6 141.40 170.67 79.36 <
2310 3 6 -9 -6 109.54 107.62 76.10 <
2310 1 3 9 6 109.54 107.62 76.10 <
2311 3 7 -9 -6 335.70 531.62 132.63 o
2311 1 4 9 6 335.70 531.62 132.63 o
2312 3 8 -9 -6 944.66 1041.50 188.08 o
2312 1 5 9 6 944.66 1041.50 188.08 o
2313 3 9 -9 -6 1080.56 1414.47 248.97 o
2313 1 6 9 6 1080.56 1414.47 248.97 o
2314 4 -5 6 -10 5536.94 5369.68 658.98 o
2314 3 -6 -10 -6 5536.94 5369.68 658.98 o
2314 2 -10 -6 10 5536.94 5369.68 658.98 o
2314 1 -9 10 6 5536.94 5369.68 658.98 o
2315 4 -4 6 -10 11203.70 10967.20 704.89 o
2315 3 -5 -10 -6 11203.70 10967.20 704.89 o
2315 2 -9 -6 10 11203.70 10967.20 704.89 o
2315 1 -8 10 6 11203.70 10967.20 704.89 o
2316 4 -3 6 -10 79816.20 79373.00 1776.96 o
2316 3 -4 -10 -6 79816.20 79373.00 1776.96 o
2316 2 -8 -6 10 79816.20 79373.00 1776.96 o
2316 1 -7 10 6 79816.20 79373.00 1776.96 o
2317 4 -2 6 -10 15649.70 15192.40 725.83 o
2317 3 -3 -10 -6 15649.70 15192.40 725.83 o
2317 2 -7 -6 10 15649.70 15192.40 725.83 o
2317 1 -6 10 6 15649.70 15192.40 725.83 o
2318 4 -1 6 -10 8929.98 9004.14 527.61 o
2318 3 -2 -10 -6 8929.98 9004.14 527.61 o
2318 2 -6 -6 10 8929.98 9004.14 527.61 o
2318 1 -5 10 6 8929.98 9004.14 527.61 o
2319 4 0 6 -10 57200.70 58795.10 1259.14 o
2319 3 -1 -10 -6 57200.70 58795.10 1259.14 o
2319 2 -5 -6 10 57200.70 58795.10 1259.14 o
2319 1 -4 10 6 57200.70 58795.10 1259.14 o
2320 4 1 6 -10 9382.63 9564.71 617.92 o
2320 3 0 -10 -6 9382.63 9564.71 617.92 o
2320 2 -4 -6 10 9382.63 9564.71 617.92 o
2320 1 -3 10 6 9382.63 9564.71 617.92 o
2321 4 2 6 -10 1856.72 2175.45 239.18 o
2321 3 1 -10 -6 1856.72 2175.45 239.18 o
2321 2 -3 -6 10 1856.72 2175.45 239.18 o
2321 1 -2 10 6 1856.72 2175.45 239.18 o
2322 4 3 6 -10 1593.90 2186.53 263.12 o
2322 3 2 -10 -6 1593.90 2186.53 263.12 o
2322 2 -2 -6 10 1593.90 2186.53 263.12 o
2322 1 -1 10 6 1593.90 2186.53 263.12 o
2323 4 4 6 -10 9742.11 9625.48 907.28 o
2323 3 3 -10 -6 9742.11 9625.48 907.28 o
2323 2 -1 -6 10 9742.11 9625.48 907.28 o
2323 1 0 10 6 9742.11 9625.48 907.28 o
2324 4 5 6 -10 56621.60 57273.70 1670.68 o
2324 3 4 -10 -6 56621.60 57273.70 1670.68 o
2324 2 0 -6 10 56621.60 57273.70 1670.68 o
2324 1 1 10 6 56621.60 57273.70 1670.68 o
2325 4 6 6 -10 9230.27 9028.52 686.39 o
2325 3 5 -10 -6 9230.27 9028.52 686.39 o
2325 2 1 -6 10 9230.27 9028.52 686.39 o
2325 1 2 10 6 9230.27 9028.52 686.39 o
2326 4 7 6 -10 15250.60 15203.10 940.33 o
2326 3 6 -10 -6 15250.60 15203.10 940.33 o
2326 2 2 -6 10 15250.60 15203.10 940.33 o
2326 1 3 10 6 15250.60 15203.10 940.33 o
2327 4 8 6 -10 78696.40 80768.10 2303.57 o
2327 3 7 -10 -6 78696.40 80768.10 2303.57 o
2327 2 3 -6 10 78696.40 80768.10 2303.57 o
2327 1 4 10 6 78696.40 80768.10 2303.57 o
2328 4 9 6 -10 11090.30 11025.90 898.61 o
2328 3 8 -10 -6 11090.30 11025.90 898.61 o
2328 2 4 -6 10 11090.30 11025.90 898.61 o
2328 1 5 10 6 11090.30 11025.90 898.61 o
2329 3 -5 -11 -6 1092.73 1044.82 244.63 o
2329 1 -8 11 6 1092.73 1044.82 244.63 o
2330 3 -4 -11 -6 2752.15 2962.43 284.93 o
2330 1 -7 11 6 2752.15 2962.43 284.93 o
2331 3 -3 -11 -6 4440.72 4377.38 446.01 o
2331 1 -6 11 6 4440.72 4377.38 446.01 o
2332 3 -2 -11 -6 6596.65 6846.36 530.99 o
2332 1 -5 11 6 6596.65 6846.36 530.99 o
2333 3 -1 -11 -6 5566.38 5886.07 426.49 o
2333 1 -4 11 6 5566.38 5886.07 426.49 o
2334 3 0 -11 -6 2092.14 1992.20 202.26 o
2334 1 -3 11 6 2092.14 1992.20 202.26 o
2335 3 1 -11 -6 1925.50 2118.25 202.26 o
2335 1 -2 11 6 1925.50 2118.25 202.26 o
2336 3 2 -11 -6 2046.68 2343.29 269.67 o
2336 1 -1 11 6 2046.68 2343.29 269.67 o
2337 3 3 -11 -6 2345.27 2419.45 327.30 o
2337 1 0 11 6 2345.27 2419.45 327.30 o
2338 3 4 -11 -6 6024.40 6502.42 464.54 o
2338 1 1 11 6 6024.40 6502.42 464.54 o
2339 3 5 -11 -6 6965.21 6944.91 491.79 o
2339 1 2 11 6 6965.21 6944.91 491.79 o
2340 3 6 -11 -6 5152.67 4861.96 371.99 o
2340 1 3 11 6 5152.67 4861.96 371.99 o
2341 3 7 -11 -6 3253.94 3592.90 395.83 o
2341 1 4 11 6 3253.94 3592.90 395.83 o
2342 3 -5 -12 -6 1696.46 1627.64 444.69 o
2342 1 -8 12 6 1696.46 1627.64 444.69 o
2343 3 -4 -12 -6 875.78 825.16 181.56 o
2343 1 -7 12 6 875.78 825.16 181.56 o
2344 3 -3 -12 -6 1492.03 1371.11 254.43 o
2344 1 -6 12 6 1492.03 1371.11 254.43 o
2345 3 -2 -12 -6 2839.13 3269.75 339.26 o
2345 1 -5 12 6 2839.13 3269.75 339.26 o
2346 3 -1 -12 -6 2041.71 2188.84 271.84 o
2346 1 -4 12 6 2041.71 2188.84 271.84 o
2347 3 0 -12 -6 1650.61 1631.02 255.53 o
2347 1 -3 12 6 1650.61 1631.02 255.53 o
2348 3 1 -12 -6 1898.75 1813.65 228.34 o
2348 1 -2 12 6 1898.75 1813.65 228.34 o
2349 3 2 -12 -6 1685.86 1608.20 230.52 o
2349 1 -1 12 6 1685.86 1608.20 230.52 o
2350 3 3 -12 -6 1834.96 1438.51 221.81 o
2350 1 0 12 6 1834.96 1438.51 221.81 o
2351 3 4 -12 -6 1953.17 1912.68 262.06 o
2351 1 1 12 6 1953.17 1912.68 262.06 o
2352 3 5 -12 -6 2273.16 2591.47 304.49 o
2352 1 2 12 6 2273.16 2591.47 304.49 o
2353 3 6 -12 -6 1740.18 1401.49 234.85 o
2353 1 3 12 6 1740.18 1401.49 234.85 o
2354 3 7 -12 -6 720.69 823.01 456.62 <
2354 1 4 12 6 720.69 823.01 456.62 <
2355 3 -4 -13 -6 20.97 90.23 109.79 <
2355 1 -7 13 6 20.97 90.23 109.79 <
2356 3 -3 -13 -6 27.72 -192.41 165.24 <
2356 1 -6 13 6 27.72 -192.41 165.24 <
2357 3 -2 -13 -6 147.13 282.65 120.67 <
2357 1 -5 13 6 147.13 282.65 120.67 <
2358 3 -1 -13 -6 61.40 -76.10 85.88 <
2358 1 -4 13 6 61.40 -76.10 85.88 <
2359 3 0 -13 -6 119.59 68.49 36.96 <
2359 1 -3 13 6 119.59 68.49 36.96 <
2360 3 1 -13 -6 61.42 -3.26 68.49 <
2360 1 -2 13 6 61.42 -3.26 68.49 <
2361 3 2 -13 -6 39.61 154.37 93.49 <
2361 1 -1 13 6 39.61 154.37 93.49 <
2362 3 3 -13 -6 80.00 186.98 101.10 <
2362 1 0 13 6 80.00 186.98 101.10 <
2363 3 4 -13 -6 23.42 14.13 80.44 <
2363 1 1 13 6 23.42 14.13 80.44 <
2364 3 5 -13 -6 179.34 329.39 111.97 <
2364 1 2 13 6 179.34 329.39 111.97 <
2365 3 6 -13 -6 32.31 -170.67 189.15 <
2365 1 3 13 6 32.31 -170.67 189.15 <
2366 4 0 6 -14 9049.96 9844.98 1098.60 o
2366 3 -2 -14 -6 9049.96 9844.98 1098.60 o
2366 2 -7 -6 14 9049.96 9844.98 1098.60 o
2366 1 -5 14 6 9049.96 9844.98 1098.60 o
2367 4 1 6 -14 22635.00 21875.90 1535.97 o
2367 3 -1 -14 -6 22635.00 21875.90 1535.97 o
2367 2 -6 -6 14 22635.00 21875.90 1535.97 o
2367 1 -4 14 6 22635.00 21875.90 1535.97 o
2368 4 2 6 -14 11333.60 11627.20 1275.96 o
2368 3 0 -14 -6 11333.60 11627.20 1275.96 o
2368 2 -5 -6 14 11333.60 11627.20 1275.96 o
2368 1 -3 14 6 11333.60 11627.20 1275.96 o
2369 4 3 6 -14 107.10 367.43 195.67 <
2369 3 1 -14 -6 107.10 367.43 195.67 <
2369 2 -4 -6 14 107.10 367.43 195.67 <
2369 1 -2 14 6 107.10 367.43 195.67 <
2370 4 4 6 -14 82.79 80.44 109.79 <
2370 3 2 -14 -6 82.79 80.44 109.79 <
2370 2 -3 -6 14 82.79 80.44 109.79 <
2370 1 -1 14 6 82.79 80.44 109.79 <
2371 4 5 6 -14 10786.00 11882.30 1210.75 o
2371 3 3 -14 -6 10786.00 11882.30 1210.75 o
2371 2 -2 -6 14 10786.00 11882.30 1210.75 o
2371 1 0 14 6 10786.00 11882.30 1210.75 o
2372 4 6 6 -14 23365.90 23196.10 1686.02 o
2372 3 4 -14 -6 23365.90 23196.10 1686.02 o
2372 2 -1 -6 14 23365.90 23196.10 1686.02 o
2372 1 1 14 6 23365.90 23196.10 1686.02 o
2373 4 7 6 -14 9093.37 8958.99 1051.76 o
2373 3 5 -14 -6 9093.37 8958.99 1051.76 o
2373 2 0 -6 14 9093.37 8958.99 1051.76 o
2373 1 2 14 6 9093.37 8958.99 1051.76 o
2374 4 8 6 -14 14568.10 14685.50 1349.19 o
2374 3 6 -14 -6 14568.10 14685.50 1349.19 o
2374 2 1 -6 14 14568.10 14685.50 1349.19 o
2374 1 3 14 6 14568.10 14685.50 1349.19 o
2375 2 1 -7 -13 392.39 435.93 316.35 <
2375 1 -4 -13 7 392.39 435.93 316.35 <
2376 2 2 -7 -13 78.73 41.31 236.99 <
2376 1 -3 -13 7 78.73 41.31 236.99 <
2377 2 3 -7 -13 78.50 13.05 157.63 <
2377 1 -2 -13 7 78.50 13.05 157.63 <
2378 2 4 -7 -13 12.99 -176.11 185.89 <
2378 1 -1 -13 7 12.99 -176.11 185.89 <
2379 2 5 -7 -13 138.87 65.23 133.71 <
2379 1 0 -13 7 138.87 65.23 133.71 <
2380 2 6 -7 -13 1086.53 986.08 321.81 o
2380 1 1 -13 7 1086.53 986.08 321.81 o
2381 2 7 -7 -13 332.62 510.94 195.68 <
2381 1 2 -13 7 332.62 510.94 195.68 <
2382 4 -9 7 11 413.44 446.81 326.14 <
2382 1 -8 -11 7 413.44 446.81 326.14 <
2383 4 -8 7 11 2.75 206.54 136.97 <
2383 1 -7 -11 7 2.75 206.54 136.97 <
2384 4 -7 7 11 317.41 428.32 191.33 <
2384 1 -6 -11 7 317.41 428.32 191.33 <
2385 4 -6 7 11 632.69 817.54 247.87 o
2385 1 -5 -11 7 632.69 817.54 247.87 o
2386 4 -5 7 11 281.43 330.48 277.21 <
2386 1 -4 -11 7 281.43 330.48 277.21 <
2387 4 -4 7 11 691.42 961.03 231.56 o
2387 1 -3 -11 7 691.42 961.03 231.56 o
2388 4 -3 7 11 256.97 410.93 148.93 <
2388 1 -2 -11 7 256.97 410.93 148.93 <
2389 4 -2 7 11 211.90 5.44 140.24 <
2389 1 -1 -11 7 211.90 5.44 140.24 <
2390 4 -1 7 11 239.70 787.05 265.25 <
2390 1 0 -11 7 239.70 787.05 265.25 <
2391 4 0 7 11 4024.24 4514.19 626.40 o
2391 1 1 -11 7 4024.24 4514.19 626.40 o
2392 4 1 7 11 183.57 55.44 81.53 <
2392 1 2 -11 7 183.57 55.44 81.53 <
2393 4 2 7 11 499.81 939.26 404.41 <
2393 1 3 -11 7 499.81 939.26 404.41 <
2394 4 3 7 11 2204.60 2114.77 626.28 o
2394 1 4 -11 7 2204.60 2114.77 626.28 o
2395 2 -5 -7 -9 140.01 47.83 119.58 <
2395 1 -9 -9 7 140.01 47.83 119.58 <
2396 2 -4 -7 -9 526.32 666.41 208.73 o
2396 1 -8 -9 7 526.32 666.41 208.73 o
2397 2 -3 -7 -9 1941.51 1815.75 280.52 o
2397 1 -7 -9 7 1941.51 1815.75 280.52 o
2398 2 -2 -7 -9 1506.86 1941.82 305.52 o
2398 1 -6 -9 7 1506.86 1941.82 305.52 o
2399 2 -1 -7 -9 660.28 619.69 134.81 o
2399 1 -5 -9 7 660.28 619.69 134.81 o
2400 2 0 -7 -9 342.38 200.03 95.67 <
2400 1 -4 -9 7 342.38 200.03 95.67 <
2401 2 1 -7 -9 145.48 143.49 106.54 <
2401 1 -3 -9 7 145.48 143.49 106.54 <
2402 2 2 -7 -9 31.58 158.71 81.53 <
2402 1 -2 -9 7 31.58 158.71 81.53 <
2403 2 3 -7 -9 83.08 22.83 126.10 <
2403 1 -1 -9 7 83.08 22.83 126.10 <
2404 2 4 -7 -9 358.65 405.50 157.63 <
2404 1 0 -9 7 358.65 405.50 157.63 <
2405 2 5 -7 -9 53.51 -78.27 139.15 <
2405 1 1 -9 7 53.51 -78.27 139.15 <
2406 2 6 -7 -9 2040.60 2539.98 465.37 o
2406 1 2 -9 7 2040.60 2539.98 465.37 o
2407 2 7 -7 -9 2604.30 2936.02 471.94 o
2407 1 3 -9 7 2604.30 2936.02 471.94 o
2408 2 8 -7 -9 177.11 172.85 131.54 <
2408 1 4 -9 7 177.11 172.85 131.54 <
2409 2 9 -7 -9 26.91 218.50 197.85 <
2409 1 5 -9 7 26.91 218.50 197.85 <
2410 2 10 -7 -9 271.63 210.90 135.89 <
2410 1 6 -9 7 271.63 210.90 135.89 <
2411 4 -10 7 7 3056.24 2714.08 565.43 o
2411 1 -10 -7 7 3056.24 2714.08 565.43 o
2412 4 -9 7 7 172.77 -31.53 165.24 <
2412 1 -9 -7 7 172.77 -31.53 165.24 <
2413 4 -8 7 7 27.52 69.57 119.58 <
2413 1 -8 -7 7 27.52 69.57 119.58 <
2414 4 -7 7 7 2027.12 2026.75 346.85 o
2414 1 -7 -7 7 2027.12 2026.75 346.85 o
2415 4 -6 7 7 5555.07 5987.08 390.51 o
2415 1 -6 -7 7 5555.07 5987.08 390.51 o
2416 4 -5 7 7 896.03 975.21 150.03 o
2416 1 -5 -7 7 896.03 975.21 150.03 o
2417 4 -4 7 7 704.31 728.41 160.90 o
2417 1 -4 -7 7 704.31 728.41 160.90 o
2418 4 -3 7 7 3095.06 3286.50 267.53 o
2418 1 -3 -7 7 3095.06 3286.50 267.53 o
2419 4 -2 7 7 28.23 206.54 51.09 o
2419 1 -2 -7 7 28.23 206.54 51.09 o
2420 4 -1 7 7 1964.71 2200.83 270.75 o
2420 1 -1 -7 7 1964.71 2200.83 270.75 o
2421 4 0 7 7 4014.51 4845.48 539.47 o
2421 1 0 -7 7 4014.51 4845.48 539.47 o
2422 4 1 7 7 52.18 -3.26 96.75 <
2422 1 1 -7 7 52.18 -3.26 96.75 <
2423 4 2 7 7 6518.91 6849.52 673.42 o
2423 1 2 -7 7 6518.91 6849.52 673.42 o
2424 4 3 7 7 6523.17 7739.05 735.40 o
2424 1 3 -7 7 6523.17 7739.05 735.40 o
2425 4 4 7 7 385.53 537.04 145.67 o
2425 1 4 -7 7 385.53 537.04 145.67 o
2426 4 5 7 7 917.94 1263.29 344.63 o
2426 1 5 -7 7 917.94 1263.29 344.63 o
2427 4 6 7 7 1222.07 1294.85 368.56 o
2427 1 6 -7 7 1222.07 1294.85 368.56 o
2428 4 7 7 7 706.05 516.39 230.47 <
2428 1 7 -7 7 706.05 516.39 230.47 <
2429 2 -8 -7 -5 2180.94 2320.33 548.01 o
2429 1 -11 -5 7 2180.94 2320.33 548.01 o
2430 2 -7 -7 -5 1089.09 1230.69 250.05 o
2430 1 -10 -5 7 1089.09 1230.69 250.05 o
2431 2 -6 -7 -5 1139.26 1172.01 208.74 o
2431 1 -9 -5 7 1139.26 1172.01 208.74 o
2432 2 -5 -7 -5 3832.22 3827.12 470.91 o
2432 1 -8 -5 7 3832.22 3827.12 470.91 o
2433 2 -4 -7 -5 259.80 414.19 110.89 o
2433 1 -7 -5 7 259.80 414.19 110.89 o
2434 2 -3 -7 -5 1565.71 1871.29 239.21 o
2434 1 -6 -5 7 1565.71 1871.29 239.21 o
2435 2 -2 -7 -5 5106.49 5164.24 360.09 o
2435 1 -5 -5 7 5106.49 5164.24 360.09 o
2436 2 -1 -7 -5 3627.76 3847.19 299.12 o
2436 1 -4 -5 7 3627.76 3847.19 299.12 o
2437 2 0 -7 -5 616.64 651.24 84.80 o
2437 1 -3 -5 7 616.64 651.24 84.80 o
2438 2 1 -7 -5 479.85 489.23 117.42 o
2438 1 -2 -5 7 479.85 489.23 117.42 o
2439 2 2 -7 -5 268.49 357.66 115.23 o
2439 1 -1 -5 7 268.49 357.66 115.23 o
2440 2 3 -7 -5 1084.48 1144.88 182.66 o
2440 1 0 -5 7 1084.48 1144.88 182.66 o
2441 2 4 -7 -5 8490.91 8644.82 677.13 o
2441 1 1 -5 7 8490.91 8644.82 677.13 o
2442 2 5 -7 -5 1616.49 1584.25 292.49 o
2442 1 2 -5 7 1616.49 1584.25 292.49 o
2443 2 6 -7 -5 178.20 363.09 178.28 <
2443 1 3 -5 7 178.20 363.09 178.28 <
2444 2 7 -7 -5 4227.00 4386.59 512.29 o
2444 1 4 -5 7 4227.00 4386.59 512.29 o
2445 2 8 -7 -5 490.17 644.68 208.73 o
2445 1 5 -5 7 490.17 644.68 208.73 o
2446 2 9 -7 -5 7.39 320.69 186.98 <
2446 1 6 -5 7 7.39 320.69 186.98 <
2447 2 10 -7 -5 220.09 47.83 155.46 <
2447 1 7 -5 7 220.09 47.83 155.46 <
2448 4 -10 7 3 3192.66 3368.69 345.79 o
2448 1 -11 -3 7 3192.66 3368.69 345.79 o
2449 4 -9 7 3 113.75 113.06 70.66 <
2449 1 -10 -3 7 113.75 113.06 70.66 <
2450 4 -8 7 3 2318.23 2395.37 268.57 o
2450 1 -9 -3 7 2318.23 2395.37 268.57 o
2451 4 -7 7 3 7135.18 7198.78 387.30 o
2451 1 -8 -3 7 7135.18 7198.78 387.30 o
2452 4 -6 7 3 2265.40 2208.44 196.81 o
2452 1 -7 -3 7 2265.40 2208.44 196.81 o
2453 4 -5 7 3 2604.63 2440.24 234.89 o
2453 1 -6 -3 7 2604.63 2440.24 234.89 o
2454 4 -4 7 3 10709.70 10206.40 461.65 o
2454 1 -5 -3 7 10709.70 10206.40 461.65 o
2455 4 -3 7 3 8631.84 8116.38 397.33 o
2455 1 -4 -3 7 8631.84 8116.38 397.33 o
2456 4 -2 7 3 1599.11 1473.37 169.63 o
2456 1 -3 -3 7 1599.11 1473.37 169.63 o
2457 4 -1 7 3 4844.73 4713.31 311.17 o
2457 1 -2 -3 7 4844.73 4713.31 311.17 o
2458 4 0 7 3 1914.40 1867.11 165.29 o
2458 1 -1 -3 7 1914.40 1867.11 165.29 o
2459 4 1 7 3 2781.00 2465.45 257.75 o
2459 1 0 -3 7 2781.00 2465.45 257.75 o
2460 4 2 7 3 21078.70 19843.20 759.17 o
2460 1 1 -3 7 21078.70 19843.20 759.17 o
2461 4 3 7 3 3089.55 2694.95 346.93 o
2461 1 2 -3 7 3089.55 2694.95 346.93 o
2462 4 4 7 3 819.81 630.56 134.81 o
2462 1 3 -3 7 819.81 630.56 134.81 o
2463 4 5 7 3 11080.20 10278.90 768.49 o
2463 1 4 -3 7 11080.20 10278.90 768.49 o
2464 4 6 7 3 1412.23 1691.75 327.26 o
2464 1 5 -3 7 1412.23 1691.75 327.26 o
2465 4 7 7 3 425.03 472.90 266.34 <
2465 1 6 -3 7 425.03 472.90 266.34 <
2466 4 8 7 3 1471.58 1596.04 551.22 <
2466 1 7 -3 7 1471.58 1596.04 551.22 <
2467 2 -10 -7 -1 86.31 -207.63 154.37 <
2467 1 -12 -1 7 86.31 -207.63 154.37 <
2468 2 -9 -7 -1 437.02 197.86 119.58 <
2468 1 -11 -1 7 437.02 197.86 119.58 <
2469 2 -8 -7 -1 7659.48 7365.52 576.62 o
2469 1 -10 -1 7 7659.48 7365.52 576.62 o
2470 2 -7 -7 -1 513.88 590.32 158.72 o
2470 1 -9 -1 7 513.88 590.32 158.72 o
2471 2 -6 -7 -1 44.24 121.75 71.75 <
2471 1 -8 -1 7 44.24 121.75 71.75 <
2472 2 -5 -7 -1 6747.19 6850.79 329.70 o
2472 1 -7 -1 7 6747.19 6850.79 329.70 o
2473 2 -4 -7 -1 9986.93 10430.60 369.10 o
2473 1 -6 -1 7 9986.93 10430.60 369.10 o
2474 2 -3 -7 -1 4587.14 4478.11 243.71 o
2474 1 -5 -1 7 4587.14 4478.11 243.71 o
2475 2 -2 -7 -1 3677.92 3637.84 239.33 o
2475 1 -4 -1 7 3677.92 3637.84 239.33 o
2476 2 -1 -7 -1 5300.18 5114.78 213.30 o
2476 1 -3 -1 7 5300.18 5114.78 213.30 o
2477 2 0 -7 -1 1490.91 1450.58 147.88 o
2477 1 -2 -1 7 1490.91 1450.58 147.88 o
2478 2 1 -7 -1 3965.89 3906.01 340.55 o
2478 1 -1 -1 7 3965.89 3906.01 340.55 o
2479 2 2 -7 -1 6626.41 6398.97 283.04 o
2479 1 0 -1 7 6626.41 6398.97 283.04 o
2480 2 3 -7 -1 1040.54 1003.52 122.86 o
2480 1 1 -1 7 1040.54 1003.52 122.86 o
2481 2 4 -7 -1 11252.80 10724.40 430.20 o
2481 1 2 -1 7 11252.80 10724.40 430.20 o
2482 2 5 -7 -1 11401.80 11398.40 468.31 o
2482 1 3 -1 7 11401.80 11398.40 468.31 o
2483 2 6 -7 -1 12.43 25.00 46.74 <
2483 1 4 -1 7 12.43 25.00 46.74 <
2484 2 7 -7 -1 1048.11 1143.74 237.01 o
2484 1 5 -1 7 1048.11 1143.74 237.01 o
2485 2 8 -7 -1 2381.42 2447.71 379.50 o
2485 1 6 -1 7 2381.42 2447.71 379.50 o
2486 2 9 -7 -1 1611.03 1871.17 533.84 o
2486 1 7 -1 7 1611.03 1871.17 533.84 o
2487 2 10 -7 -1 1626.22 1801.57 517.53 o
2487 1 8 -1 7 1626.22 1801.57 517.53 o
2488 4 -10 7 -1 98.50 132.62 104.36 <
2488 1 -12 1 7 98.50 132.62 104.36 <
2489 4 -9 7 -1 491.32 560.96 188.07 <
2489 1 -11 1 7 491.32 560.96 188.07 <
2490 4 -8 7 -1 8644.04 8804.89 642.99 o
2490 1 -10 1 7 8644.04 8804.89 642.99 o
2491 4 -7 7 -1 577.48 599.01 157.63 o
2491 1 -9 1 7 577.48 599.01 157.63 o
2492 4 -6 7 -1 49.10 30.44 65.22 <
2492 1 -8 1 7 49.10 30.44 65.22 <
2493 4 -5 7 -1 7607.49 7466.66 329.70 o
2493 1 -7 1 7 7607.49 7466.66 329.70 o
2494 4 -4 7 -1 11250.40 11053.30 336.43 o
2494 1 -6 1 7 11250.40 11053.30 336.43 o
2495 4 -3 7 -1 5185.96 4877.40 211.07 o
2495 1 -5 1 7 5185.96 4877.40 211.07 o
2496 4 -2 7 -1 4160.24 3934.83 243.68 o
2496 1 -4 1 7 4160.24 3934.83 243.68 o
2497 4 -1 7 -1 5966.29 5613.20 273.15 o
2497 1 -3 1 7 5966.29 5613.20 273.15 o
2498 4 0 7 -1 1663.50 1581.06 150.06 o
2498 1 -2 1 7 1663.50 1581.06 150.06 o
2499 4 1 7 -1 4492.63 4380.39 256.77 o
2499 1 -1 1 7 4492.63 4380.39 256.77 o
2500 4 2 7 -1 7534.88 7646.54 359.25 o
2500 1 0 1 7 7534.88 7646.54 359.25 o
2501 4 3 7 -1 1143.80 1095.94 108.72 o
2501 1 1 1 7 1143.80 1095.94 108.72 o
2502 4 4 7 -1 12679.00 12366.80 396.43 o
2502 1 2 1 7 12679.00 12366.80 396.43 o
2503 4 5 7 -1 12980.50 12253.40 472.67 o
2503 1 3 1 7 12980.50 12253.40 472.67 o
2504 4 6 7 -1 12.50 -18.48 39.13 <
2504 1 4 1 7 12.50 -18.48 39.13 <
2505 4 7 7 -1 1171.98 1026.32 179.39 o
2505 1 5 1 7 1171.98 1026.32 179.39 o
2506 4 8 7 -1 2711.44 2685.84 588.28 o
2506 1 6 1 7 2711.44 2685.84 588.28 o
2507 4 9 7 -1 1822.30 1538.47 488.18 o
2507 1 7 1 7 1822.30 1538.47 488.18 o
2508 1 -11 2 7 4850.55 4552.50 313.29 o
2509 1 -10 2 7 4388.05 4170.59 286.09 o
2510 1 -9 2 7 4105.76 4031.40 264.34 o
2511 1 -8 2 7 6207.84 6289.23 268.81 o
2512 1 -7 2 7 12120.70 11789.50 287.68 o
2513 1 -6 2 7 18131.10 18136.70 358.00 o
2514 1 -5 2 7 21736.90 21122.30 336.61 o
2515 1 -4 2 7 17737.70 16943.10 342.97 o
2516 1 -3 2 7 10495.90 9955.96 224.61 o
2517 1 -2 2 7 8670.18 8137.98 286.63 o
2518 1 -1 2 7 9720.74 9447.36 233.29 o
2519 1 0 2 7 13847.10 13228.30 287.00 o
2520 1 1 2 7 20416.00 19494.30 380.29 o
2521 1 2 2 7 19569.00 19161.10 430.27 o
2522 1 3 2 7 13619.30 12886.00 393.56 o
2523 1 4 2 7 7986.89 7795.22 328.79 o
2524 1 5 2 7 4395.06 4489.73 301.35 o
2525 1 6 2 7 3912.21 4767.56 882.16 o
2526 1 7 2 7 4387.08 3738.65 809.30 o
2527 1 8 2 7 4646.81 5037.43 961.58 o
2528 2 -10 -7 3 2831.36 3127.29 409.94 o
2528 1 -11 3 7 2831.36 3127.29 409.94 o
2529 2 -9 -7 3 97.37 158.71 117.41 <
2529 1 -10 3 7 97.37 158.71 117.41 <
2530 2 -8 -7 3 2060.21 2237.71 305.54 o
2530 1 -9 3 7 2060.21 2237.71 305.54 o
2531 2 -7 -7 3 6330.92 6449.20 429.73 o
2531 1 -8 3 7 6330.92 6449.20 429.73 o
2532 2 -6 -7 3 2015.39 2105.14 227.26 o
2532 1 -7 3 7 2015.39 2105.14 227.26 o
2533 2 -5 -7 3 2311.68 2242.33 172.90 o
2533 1 -6 3 7 2311.68 2242.33 172.90 o
2534 2 -4 -7 3 9493.07 9545.50 305.95 o
2534 1 -5 3 7 9493.07 9545.50 305.95 o
2535 2 -3 -7 3 7659.90 7446.91 290.65 o
2535 1 -4 3 7 7659.90 7446.91 290.65 o
2536 2 -2 -7 3 1426.40 1499.47 109.82 o
2536 1 -3 3 7 1426.40 1499.47 109.82 o
2537 2 -1 -7 3 4280.75 4273.75 213.25 o
2537 1 -2 3 7 4280.75 4273.75 213.25 o
2538 2 0 -7 3 1705.29 1652.88 125.05 o
2538 1 -1 3 7 1705.29 1652.88 125.05 o
2539 2 1 -7 3 2489.64 2327.33 193.58 o
2539 1 0 3 7 2489.64 2327.33 193.58 o
2540 2 2 -7 3 18580.90 18303.10 462.48 o
2540 1 1 3 7 18580.90 18303.10 462.48 o
2541 2 3 -7 3 2736.43 2597.07 170.75 o
2541 1 2 3 7 2736.43 2597.07 170.75 o
2542 2 4 -7 3 744.70 693.61 107.63 o
2542 1 3 3 7 744.70 693.61 107.63 o
2543 2 5 -7 3 9774.72 9934.89 493.10 o
2543 1 4 3 7 9774.72 9934.89 493.10 o
2544 2 6 -7 3 1247.77 1072.02 217.45 o
2544 1 5 3 7 1247.77 1072.02 217.45 o
2545 2 7 -7 3 380.38 66.31 125.02 <
2545 1 6 3 7 380.38 66.31 125.02 <
2546 1 -11 4 7 0.16 -39.13 105.45 <
2547 1 -10 4 7 2.86 -2.17 53.27 <
2548 1 -9 4 7 42.64 121.75 68.49 <
2549 1 -8 4 7 1.65 42.40 46.74 <
2550 1 -7 4 7 31.84 120.67 47.83 <
2551 1 -6 4 7 9.77 -48.92 38.05 <
2552 1 -5 4 7 18.54 40.22 32.61 <
2553 1 -4 4 7 9.90 3.26 27.18 <
2554 1 -3 4 7 14.69 58.70 27.18 <
2555 1 -2 4 7 1.10 16.31 23.92 <
2556 1 -1 4 7 12.14 23.92 29.35 <
2557 1 0 4 7 2.83 26.09 41.31 <
2558 1 1 4 7 48.42 117.41 56.53 <
2559 1 2 4 7 7.13 15.22 34.79 <
2560 1 3 4 7 6.64 -45.66 35.87 <
2561 1 4 4 7 14.24 71.75 55.44 <
2562 1 5 4 7 17.38 98.92 71.75 <
2563 1 6 4 7 0.07 -145.67 110.88 <
2564 1 7 4 7 1.08 -40.22 146.76 <
2565 4 -7 7 -5 1216.02 1191.55 250.05 o
2565 1 -10 5 7 1216.02 1191.55 250.05 o
2566 4 -6 7 -5 1279.24 1269.85 215.27 o
2566 1 -9 5 7 1279.24 1269.85 215.27 o
2567 4 -5 7 -5 4318.44 4798.31 383.91 o
2567 1 -8 5 7 4318.44 4798.31 383.91 o
2568 4 -4 7 -5 296.52 290.26 90.23 o
2568 1 -7 5 7 296.52 290.26 90.23 o
2569 4 -3 7 -5 1781.03 1742.99 201.16 o
2569 1 -6 5 7 1781.03 1742.99 201.16 o
2570 4 -2 7 -5 5747.56 6171.63 351.39 o
2570 1 -5 5 7 5747.56 6171.63 351.39 o
2571 4 -1 7 -5 4082.86 4014.69 253.43 o
2571 1 -4 5 7 4082.86 4014.69 253.43 o
2572 4 0 7 -5 711.01 734.96 83.72 o
2572 1 -3 5 7 711.01 734.96 83.72 o
2573 4 1 7 -5 550.31 535.98 69.58 o
2573 1 -2 5 7 550.31 535.98 69.58 o
2574 4 2 7 -5 296.42 245.69 58.70 o
2574 1 -1 5 7 296.42 245.69 58.70 o
2575 4 3 7 -5 1211.39 1228.60 134.82 o
2575 1 0 5 7 1211.39 1228.60 134.82 o
2576 4 4 7 -5 9666.50 9898.92 376.67 o
2576 1 1 5 7 9666.50 9898.92 376.67 o
2577 4 5 7 -5 1830.27 1900.67 167.45 o
2577 1 2 5 7 1830.27 1900.67 167.45 o
2578 4 6 7 -5 188.34 298.95 80.44 o
2578 1 3 5 7 188.34 298.95 80.44 o
2579 4 7 7 -5 4805.39 4765.10 380.69 o
2579 1 4 5 7 4805.39 4765.10 380.69 o
2580 4 8 7 -5 567.34 437.03 150.03 <
2580 1 5 5 7 567.34 437.03 150.03 <
2581 4 9 7 -5 9.27 -73.92 158.71 <
2581 1 6 5 7 9.27 -73.92 158.71 <
2582 4 10 7 -5 249.14 448.97 208.72 <
2582 1 7 5 7 249.14 448.97 208.72 <
2583 1 -10 6 7 748.29 608.83 165.25 o
2584 1 -9 6 7 980.04 917.63 132.64 o
2585 1 -8 6 7 1978.87 2121.56 219.66 o
2586 1 -7 6 7 3501.93 3811.43 237.13 o
2587 1 -6 6 7 7829.34 8043.10 326.60 o
2588 1 -5 6 7 7382.54 7356.29 299.39 o
2589 1 -4 6 7 5221.25 4886.42 233.98 o
2590 1 -3 6 7 3833.87 3987.54 206.72 o
2591 1 -2 6 7 936.01 897.03 92.42 o
2592 1 -1 6 7 1709.03 1775.88 146.81 o
2593 1 0 6 7 5507.66 5769.53 292.78 o
2594 1 1 6 7 6045.30 5715.40 351.57 o
2595 1 2 6 7 7144.40 7117.17 365.76 o
2596 1 3 6 7 5139.22 5214.09 328.60 o
2597 1 4 6 7 1974.65 2194.44 203.35 o
2598 1 5 6 7 1250.19 1434.13 231.59 o
2599 1 6 6 7 678.18 831.69 190.26 o
2600 1 7 6 7 1079.74 1008.96 287.03 o
2601 2 -10 -7 7 2695.88 2880.45 357.74 o
2601 1 -10 7 7 2695.88 2880.45 357.74 o
2602 2 -9 -7 7 152.40 146.76 81.53 <
2602 1 -9 7 7 152.40 146.76 81.53 <
2603 2 -8 -7 7 24.27 105.45 73.92 <
2603 1 -8 7 7 24.27 105.45 73.92 <
2604 2 -7 -7 7 1788.10 1834.30 239.21 o
2604 1 -7 7 7 1788.10 1834.30 239.21 o
2605 2 -6 -7 7 4900.05 5221.29 373.11 o
2605 1 -6 7 7 4900.05 5221.29 373.11 o
2606 2 -5 -7 7 790.38 843.66 139.16 o
2606 1 -5 7 7 790.38 843.66 139.16 o
2607 2 -4 -7 7 621.26 707.75 129.37 o
2607 1 -4 7 7 621.26 707.75 129.37 o
2608 2 -3 -7 7 2730.11 2797.12 227.29 o
2608 1 -3 7 7 2730.11 2797.12 227.29 o
2609 2 -2 -7 7 24.90 34.79 42.40 <
2609 1 -2 7 7 24.90 34.79 42.40 <
2610 2 -1 -7 7 1733.04 1876.79 222.91 o
2610 1 -1 7 7 1733.04 1876.79 222.91 o
2611 2 0 -7 7 3541.14 3543.56 301.28 o
2611 1 0 7 7 3541.14 3543.56 301.28 o
2612 2 1 -7 7 46.03 264.16 122.84 <
2612 1 1 7 7 46.03 264.16 122.84 <
2613 2 2 -7 7 5750.23 5547.29 491.74 o
2613 1 2 7 7 5750.23 5547.29 491.74 o
2614 2 3 -7 7 5754.00 5739.56 418.83 o
2614 1 3 7 7 5754.00 5739.56 418.83 o
2615 2 4 -7 7 340.07 369.62 180.46 <
2615 1 4 7 7 340.07 369.62 180.46 <
2616 2 5 -7 7 809.70 595.77 192.43 o
2616 1 5 7 7 809.70 595.77 192.43 o
2617 2 6 -7 7 1077.97 1235.06 314.20 o
2617 1 6 7 7 1077.97 1235.06 314.20 o
2618 2 7 -7 7 622.79 475.08 244.61 <
2618 1 7 7 7 622.79 475.08 244.61 <
2619 1 -10 8 7 0.18 32.61 90.23 <
2620 1 -9 8 7 204.77 230.47 116.32 <
2621 1 -8 8 7 23.09 29.35 89.14 <
2622 1 -7 8 7 14.09 116.32 44.57 <
2623 1 -6 8 7 555.56 892.57 134.81 o
2624 1 -5 8 7 114.14 155.46 51.09 o
2625 1 -4 8 7 64.75 100.01 43.48 <
2626 1 -3 8 7 193.09 227.21 57.62 o
2627 1 -2 8 7 10.81 145.67 57.62 <
2628 1 -1 8 7 201.14 257.65 67.40 o
2629 1 0 8 7 138.21 261.99 101.10 <
2630 1 1 8 7 50.01 153.28 109.80 <
2631 1 2 8 7 533.81 763.20 163.08 o
2632 1 3 8 7 95.79 163.06 80.44 <
2633 1 4 8 7 5.93 7.61 46.74 <
2634 1 5 8 7 172.50 217.42 119.58 <
2635 1 6 8 7 26.43 67.40 83.71 <
2636 4 -6 7 -9 3580.14 3239.29 829.67 o
2636 1 -10 9 7 3580.14 3239.29 829.67 o
2637 4 -5 7 -9 152.01 256.55 139.15 <
2637 1 -9 9 7 152.01 256.55 139.15 <
2638 4 -4 7 -9 591.78 668.59 166.33 o
2638 1 -8 9 7 591.78 668.59 166.33 o
2639 4 -3 7 -9 2166.06 2036.47 272.91 o
2639 1 -7 9 7 2166.06 2036.47 272.91 o
2640 4 -2 7 -9 1687.75 1813.53 238.11 o
2640 1 -6 9 7 1687.75 1813.53 238.11 o
2641 4 -1 7 -9 754.45 850.17 153.29 o
2641 1 -5 9 7 754.45 850.17 153.29 o
2642 4 0 7 -9 391.93 556.61 146.76 o
2642 1 -4 9 7 391.93 556.61 146.76 o
2643 4 1 7 -9 156.41 214.16 84.79 <
2643 1 -3 9 7 156.41 214.16 84.79 <
2644 4 2 7 -9 34.86 138.06 114.14 <
2644 1 -2 9 7 34.86 138.06 114.14 <
2645 4 3 7 -9 99.79 206.55 86.97 <
2645 1 -1 9 7 99.79 206.55 86.97 <
2646 4 4 7 -9 403.63 367.45 181.55 <
2646 1 0 9 7 403.63 367.45 181.55 <
2647 4 5 7 -9 55.30 54.35 120.67 <
2647 1 1 9 7 55.30 54.35 120.67 <
2648 4 6 7 -9 2291.77 2321.43 351.20 o
2648 1 2 9 7 2291.77 2321.43 351.20 o
2649 4 7 7 -9 2971.45 3376.42 451.28 o
2649 1 3 9 7 2971.45 3376.42 451.28 o
2650 4 8 7 -9 204.52 243.51 161.98 <
2650 1 4 9 7 204.52 243.51 161.98 <
2651 4 9 7 -9 32.78 146.76 172.85 <
2651 1 5 9 7 32.78 146.76 172.85 <
2652 4 10 7 -9 314.79 165.24 109.80 <
2652 1 6 9 7 314.79 165.24 109.80 <
2653 1 -9 10 7 91.95 88.05 71.75 <
2654 1 -8 10 7 43.15 80.44 90.23 <
2655 1 -7 10 7 319.35 492.47 132.63 o
2656 1 -6 10 7 339.14 273.96 90.23 o
2657 1 -5 10 7 962.36 993.74 153.30 o
2658 1 -4 10 7 335.47 335.92 90.23 o
2659 1 -3 10 7 296.77 404.41 97.84 o
2660 1 -2 10 7 21.02 141.32 59.79 <
2661 1 -1 10 7 39.21 51.09 78.27 <
2662 1 0 10 7 44.54 -2.17 89.14 <
2663 1 1 10 7 811.14 978.49 177.22 o
2664 1 2 10 7 609.03 612.08 148.94 o
2665 1 3 10 7 129.35 218.51 97.84 <
2666 1 4 10 7 19.25 -38.05 100.01 <
2667 1 5 10 7 207.12 363.09 195.68 <
2668 2 -9 -7 11 352.78 284.83 208.73 <
2668 1 -8 11 7 352.78 284.83 208.73 <
2669 2 -8 -7 11 1.92 126.10 91.31 <
2669 1 -7 11 7 1.92 126.10 91.31 <
2670 2 -7 -7 11 288.58 464.19 179.37 <
2670 1 -6 11 7 288.58 464.19 179.37 <
2671 2 -6 -7 11 546.04 647.94 196.77 o
2671 1 -5 11 7 546.04 647.94 196.77 o
2672 2 -5 -7 11 239.17 393.54 146.76 <
2672 1 -4 11 7 239.17 393.54 146.76 <
2673 2 -4 -7 11 627.01 592.49 165.24 o
2673 1 -3 11 7 627.01 592.49 165.24 o
2674 2 -3 -7 11 224.99 356.57 136.98 <
2674 1 -2 11 7 224.99 356.57 136.98 <
2675 2 -2 -7 11 192.24 233.73 158.72 <
2675 1 -1 11 7 192.24 233.73 158.72 <
2676 2 -1 -7 11 223.10 350.04 209.81 <
2676 1 0 11 7 223.10 350.04 209.81 <
2677 2 0 -7 11 3558.79 3876.92 480.67 o
2677 1 1 11 7 3558.79 3876.92 480.67 o
2678 2 2 -7 11 457.11 321.79 160.89 <
2678 1 3 11 7 457.11 321.79 160.89 <
2679 2 3 -7 11 1948.13 1970.16 388.16 o
2679 1 4 11 7 1948.13 1970.16 388.16 o
2680 1 -7 12 7 1053.24 1698.25 536.01 o
2681 1 -6 12 7 222.57 200.03 85.88 <
2682 1 -5 12 7 990.95 702.35 216.36 o
2683 1 -4 12 7 866.46 690.38 165.26 o
2684 1 -3 12 7 273.01 215.25 107.62 <
2685 1 -2 12 7 756.27 699.07 148.95 o
2686 1 -1 12 7 308.04 154.37 105.45 <
2687 1 0 12 7 695.89 837.13 222.87 o
2688 1 1 12 7 1336.72 1470.01 241.38 o
2689 1 2 12 7 260.20 195.68 127.19 <
2690 1 3 12 7 686.18 343.55 182.65 <
2691 4 -1 7 -13 382.31 301.13 183.72 <
2691 1 -6 13 7 382.31 301.13 183.72 <
2692 4 0 7 -13 832.71 643.58 279.39 <
2692 1 -5 13 7 832.71 643.58 279.39 <
2693 4 1 7 -13 429.78 961.00 270.69 o
2693 1 -4 13 7 429.78 961.00 270.69 o
2694 4 2 7 -13 91.91 206.55 214.16 <
2694 1 -3 13 7 91.91 206.55 214.16 <
2695 4 3 7 -13 91.37 129.36 117.40 <
2695 1 -2 13 7 91.37 129.36 117.40 <
2696 4 4 7 -13 19.29 20.65 135.88 <
2696 1 -1 13 7 19.29 20.65 135.88 <
2697 4 5 7 -13 153.20 295.69 150.02 <
2697 1 0 13 7 153.20 295.69 150.02 <
2698 4 6 7 -13 1221.26 1225.26 297.89 o
2698 1 1 13 7 1221.26 1225.26 297.89 o
2699 1 -5 14 7 133.07 4.35 109.80 <
2700 1 -1 14 7 1441.21 1393.90 330.54 o
2701 1 0 14 7 84.99 5.44 79.36 <
2702 1 1 14 7 409.23 483.77 260.91 <
2703 4 -6 8 12 66330.10 70708.00 3616.59 o
2703 3 -1 12 -8 66330.10 70708.00 3616.59 o
2703 2 0 -8 -12 66330.10 70708.00 3616.59 o
2703 1 -5 -12 8 66330.10 70708.00 3616.59 o
2704 4 -5 8 12 3856.30 4278.80 857.94 o
2704 3 0 12 -8 3856.30 4278.80 857.94 o
2704 2 1 -8 -12 3856.30 4278.80 857.94 o
2704 1 -4 -12 8 3856.30 4278.80 857.94 o
2705 4 -4 8 12 10686.00 10187.50 826.75 o
2705 3 1 12 -8 10686.00 10187.50 826.75 o
2705 2 2 -8 -12 10686.00 10187.50 826.75 o
2705 1 -3 -12 8 10686.00 10187.50 826.75 o
2706 4 -2 8 12 10598.70 10074.10 837.61 o
2706 3 3 12 -8 10598.70 10074.10 837.61 o
2706 2 4 -8 -12 10598.70 10074.10 837.61 o
2706 1 -1 -12 8 10598.70 10074.10 837.61 o
2707 4 -1 8 12 3338.13 4168.61 572.99 o
2707 3 4 12 -8 3338.13 4168.61 572.99 o
2707 2 5 -8 -12 3338.13 4168.61 572.99 o
2707 1 0 -12 8 3338.13 4168.61 572.99 o
2708 4 0 8 12 63135.30 67862.20 3151.96 o
2708 3 5 12 -8 63135.30 67862.20 3151.96 o
2708 2 6 -8 -12 63135.30 67862.20 3151.96 o
2708 1 1 -12 8 63135.30 67862.20 3151.96 o
2709 4 1 8 12 918.02 1466.53 368.54 o
2709 3 6 12 -8 918.02 1466.53 368.54 o
2709 2 7 -8 -12 918.02 1466.53 368.54 o
2709 1 2 -12 8 918.02 1466.53 368.54 o
2710 4 -9 8 8 9609.54 9241.26 815.89 o
2710 3 -5 8 -8 9609.54 9241.26 815.89 o
2710 2 -5 -8 -8 9609.54 9241.26 815.89 o
2710 1 -9 -8 8 9609.54 9241.26 815.89 o
2711 4 -8 8 8 2929.63 2866.13 462.10 o
2711 3 -4 8 -8 2929.63 2866.13 462.10 o
2711 2 -4 -8 -8 2929.63 2866.13 462.10 o
2711 1 -8 -8 8 2929.63 2866.13 462.10 o
2712 4 -7 8 8 533.48 554.44 204.38 <
2712 3 -3 8 -8 533.48 554.44 204.38 <
2712 2 -3 -8 -8 533.48 554.44 204.38 <
2712 1 -7 -8 8 533.48 554.44 204.38 <
2713 4 -6 8 8 28621.40 28850.50 989.40 o
2713 3 -2 8 -8 28621.40 28850.50 989.40 o
2713 2 -2 -8 -8 28621.40 28850.50 989.40 o
2713 1 -6 -8 8 28621.40 28850.50 989.40 o
2714 4 -5 8 8 39036.70 38446.80 1220.48 o
2714 3 -1 8 -8 39036.70 38446.80 1220.48 o
2714 2 -1 -8 -8 39036.70 38446.80 1220.48 o
2714 1 -5 -8 8 39036.70 38446.80 1220.48 o
2715 4 -4 8 8 26662.80 26713.40 983.94 o
2715 3 0 8 -8 26662.80 26713.40 983.94 o
2715 2 0 -8 -8 26662.80 26713.40 983.94 o
2715 1 -4 -8 8 26662.80 26713.40 983.94 o
2716 4 -3 8 8 22342.40 24086.80 1150.21 o
2716 3 1 8 -8 22342.40 24086.80 1150.21 o
2716 2 1 -8 -8 22342.40 24086.80 1150.21 o
2716 1 -3 -8 8 22342.40 24086.80 1150.21 o
2717 4 -1 8 8 22649.80 24793.90 983.61 o
2717 3 3 8 -8 22649.80 24793.90 983.61 o
2717 2 3 -8 -8 22649.80 24793.90 983.61 o
2717 1 -1 -8 8 22649.80 24793.90 983.61 o
2718 4 0 8 8 25443.60 25813.60 1758.31 o
2718 3 4 8 -8 25443.60 25813.60 1758.31 o
2718 2 4 -8 -8 25443.60 25813.60 1758.31 o
2718 1 0 -8 8 25443.60 25813.60 1758.31 o
2719 4 1 8 8 37091.60 39239.50 2131.63 o
2719 3 5 8 -8 37091.60 39239.50 2131.63 o
2719 2 5 -8 -8 37091.60 39239.50 2131.63 o
2719 1 1 -8 8 37091.60 39239.50 2131.63 o
2720 4 2 8 8 26302.10 28804.20 1467.23 o
2720 3 6 8 -8 26302.10 28804.20 1467.23 o
2720 2 6 -8 -8 26302.10 28804.20 1467.23 o
2720 1 2 -8 8 26302.10 28804.20 1467.23 o
2721 4 3 8 8 198.98 579.41 206.54 <
2721 3 7 8 -8 198.98 579.41 206.54 <
2721 2 7 -8 -8 198.98 579.41 206.54 <
2721 1 3 -8 8 198.98 579.41 206.54 <
2722 4 4 8 8 2925.74 3235.82 781.77 o
2722 3 8 8 -8 2925.74 3235.82 781.77 o
2722 2 8 -8 -8 2925.74 3235.82 781.77 o
2722 1 4 -8 8 2925.74 3235.82 781.77 o
2723 4 5 8 8 8010.64 10620.60 1496.56 o
2723 3 9 8 -8 8010.64 10620.60 1496.56 o
2723 2 9 -8 -8 8010.64 10620.60 1496.56 o
2723 1 5 -8 8 8010.64 10620.60 1496.56 o
2724 4 -10 8 4 6914.46 7707.65 651.46 o
2724 3 -7 4 -8 6914.46 7707.65 651.46 o
2724 2 -8 -8 -4 6914.46 7707.65 651.46 o
2724 1 -11 -4 8 6914.46 7707.65 651.46 o
2725 4 -9 8 4 9904.52 9971.56 697.34 o
2725 3 -6 4 -8 9904.52 9971.56 697.34 o
2725 2 -7 -8 -4 9904.52 9971.56 697.34 o
2725 1 -10 -4 8 9904.52 9971.56 697.34 o
2726 4 -8 8 4 37510.10 38969.10 1305.00 o
2726 3 -5 4 -8 37510.10 38969.10 1305.00 o
2726 2 -6 -8 -4 37510.10 38969.10 1305.00 o
2726 1 -9 -4 8 37510.10 38969.10 1305.00 o
2727 4 -7 8 4 167.04 260.90 91.32 <
2727 3 -4 4 -8 167.04 260.90 91.32 <
2727 2 -5 -8 -4 167.04 260.90 91.32 <
2727 1 -8 -4 8 167.04 260.90 91.32 <
2728 4 -6 8 4 307.74 278.30 100.01 <
2728 3 -3 4 -8 307.74 278.30 100.01 <
2728 2 -4 -8 -4 307.74 278.30 100.01 <
2728 1 -7 -4 8 307.74 278.30 100.01 <
2729 4 -5 8 4 19236.60 19009.30 701.42 o
2729 3 -2 4 -8 19236.60 19009.30 701.42 o
2729 2 -3 -8 -4 19236.60 19009.30 701.42 o
2729 1 -6 -4 8 19236.60 19009.30 701.42 o
2730 4 -4 8 4 79690.10 77326.50 1369.40 o
2730 3 -1 4 -8 79690.10 77326.50 1369.40 o
2730 2 -2 -8 -4 79690.10 77326.50 1369.40 o
2730 1 -5 -4 8 79690.10 77326.50 1369.40 o
2731 4 -3 8 4 49204.30 47958.50 1050.44 o
2731 3 0 4 -8 49204.30 47958.50 1050.44 o
2731 2 -1 -8 -4 49204.30 47958.50 1050.44 o
2731 1 -4 -4 8 49204.30 47958.50 1050.44 o
2732 4 -2 8 4 83646.30 81205.60 1854.04 o
2732 3 1 4 -8 83646.30 81205.60 1854.04 o
2732 2 0 -8 -4 83646.30 81205.60 1854.04 o
2732 1 -3 -4 8 83646.30 81205.60 1854.04 o
2733 4 0 8 4 83295.00 80608.90 1518.11 o
2733 3 3 4 -8 83295.00 80608.90 1518.11 o
2733 2 2 -8 -4 83295.00 80608.90 1518.11 o
2733 1 -1 -4 8 83295.00 80608.90 1518.11 o
2734 4 1 8 4 47374.50 46789.80 1222.88 o
2734 3 4 4 -8 47374.50 46789.80 1222.88 o
2734 2 3 -8 -4 47374.50 46789.80 1222.88 o
2734 1 0 -4 8 47374.50 46789.80 1222.88 o
2735 4 2 8 4 74213.00 73732.10 1604.06 o
2735 3 5 4 -8 74213.00 73732.10 1604.06 o
2735 2 4 -8 -4 74213.00 73732.10 1604.06 o
2735 1 1 -4 8 74213.00 73732.10 1604.06 o
2736 4 3 8 4 19985.80 20023.00 1043.52 o
2736 3 6 4 -8 19985.80 20023.00 1043.52 o
2736 2 5 -8 -4 19985.80 20023.00 1043.52 o
2736 1 2 -4 8 19985.80 20023.00 1043.52 o
2737 4 4 8 4 430.47 780.55 207.64 o
2737 3 7 4 -8 430.47 780.55 207.64 o
2737 2 6 -8 -4 430.47 780.55 207.64 o
2737 1 3 -4 8 430.47 780.55 207.64 o
2738 4 5 8 4 168.50 133.71 104.36 <
2738 3 8 4 -8 168.50 133.71 104.36 <
2738 2 7 -8 -4 168.50 133.71 104.36 <
2738 1 4 -4 8 168.50 133.71 104.36 <
2739 4 6 8 4 39093.00 40357.50 1637.76 o
2739 3 9 4 -8 39093.00 40357.50 1637.76 o
2739 2 8 -8 -4 39093.00 40357.50 1637.76 o
2739 1 5 -4 8 39093.00 40357.50 1637.76 o
2740 4 7 8 4 8646.23 8141.90 1263.98 o
2740 3 10 4 -8 8646.23 8141.90 1263.98 o
2740 2 9 -8 -4 8646.23 8141.90 1263.98 o
2740 1 6 -4 8 8646.23 8141.90 1263.98 o
2741 4 -10 8 0 7726.51 7170.54 888.57 o
2741 3 -8 0 -8 7726.51 7170.54 888.57 o
2741 2 -10 -8 0 7726.51 7170.54 888.57 o
2741 1 -12 0 8 7726.51 7170.54 888.57 o
2742 4 -9 8 0 25.29 95.66 145.67 <
2742 3 -7 0 -8 25.29 95.66 145.67 <
2742 2 -9 -8 0 25.29 95.66 145.67 <
2742 1 -11 0 8 25.29 95.66 145.67 <
2743 4 -8 8 0 58022.00 57648.50 1663.01 o
2743 3 -6 0 -8 58022.00 57648.50 1663.01 o
2743 2 -8 -8 0 58022.00 57648.50 1663.01 o
2743 1 -10 0 8 58022.00 57648.50 1663.01 o
2744 4 -7 8 0 1917.89 2092.91 294.64 o
2744 3 -5 0 -8 1917.89 2092.91 294.64 o
2744 2 -7 -8 0 1917.89 2092.91 294.64 o
2744 1 -9 0 8 1917.89 2092.91 294.64 o
2745 4 -6 8 0 19287.50 18445.10 829.80 o
2745 3 -4 0 -8 19287.50 18445.10 829.80 o
2745 2 -6 -8 0 19287.50 18445.10 829.80 o
2745 1 -8 0 8 19287.50 18445.10 829.80 o
2746 4 -5 8 0 2576.18 3036.04 222.92 o
2746 3 -3 0 -8 2576.18 3036.04 222.92 o
2746 2 -5 -8 0 2576.18 3036.04 222.92 o
2746 1 -7 0 8 2576.18 3036.04 222.92 o
2747 4 -4 8 0 15639.00 15352.00 414.86 o
2747 3 -2 0 -8 15639.00 15352.00 414.86 o
2747 2 -4 -8 0 15639.00 15352.00 414.86 o
2747 1 -6 0 8 15639.00 15352.00 414.86 o
2748 4 -3 8 0 114350.00 111441.00 1481.77 o
2748 3 -1 0 -8 114350.00 111441.00 1481.77 o
2748 2 -3 -8 0 114350.00 111441.00 1481.77 o
2748 1 -5 0 8 114350.00 111441.00 1481.77 o
2749 4 -2 8 0 13841.80 13537.90 466.07 o
2749 3 0 0 -8 13841.80 13537.90 466.07 o
2749 2 -2 -8 0 13841.80 13537.90 466.07 o
2749 1 -4 0 8 13841.80 13537.90 466.07 o
2750 4 -1 8 0 8279.61 9048.71 302.57 o
2750 3 1 0 -8 8279.61 9048.71 302.57 o
2750 2 -1 -8 0 8279.61 9048.71 302.57 o
2750 1 -3 0 8 8279.61 9048.71 302.57 o
2751 4 0 8 0 366079.00 359967.00 2514.57 o
2751 3 2 0 -8 366079.00 359967.00 2514.57 o
2751 2 0 -8 0 366079.00 359967.00 2514.57 o
2751 1 -2 0 8 366079.00 359967.00 2514.57 o
2752 4 1 8 0 8399.94 7969.04 384.19 o
2752 3 3 0 -8 8399.94 7969.04 384.19 o
2752 2 1 -8 0 8399.94 7969.04 384.19 o
2752 1 -1 0 8 8399.94 7969.04 384.19 o
2753 4 2 8 0 12880.90 13055.50 656.64 o
2753 3 4 0 -8 12880.90 13055.50 656.64 o
2753 2 2 -8 0 12880.90 13055.50 656.64 o
2753 1 0 0 8 12880.90 13055.50 656.64 o
2754 4 3 8 0 111488.00 109849.00 1154.53 o
2754 3 5 0 -8 111488.00 109849.00 1154.53 o
2754 2 3 -8 0 111488.00 109849.00 1154.53 o
2754 1 1 0 8 111488.00 109849.00 1154.53 o
2755 4 4 8 0 13613.50 14185.80 508.50 o
2755 3 6 0 -8 13613.50 14185.80 508.50 o
2755 2 4 -8 0 13613.50 14185.80 508.50 o
2755 1 2 0 8 13613.50 14185.80 508.50 o
2756 4 5 8 0 3926.99 3873.34 344.71 o
2756 3 7 0 -8 3926.99 3873.34 344.71 o
2756 2 5 -8 0 3926.99 3873.34 344.71 o
2756 1 3 0 8 3926.99 3873.34 344.71 o
2757 4 6 8 0 19780.50 19598.20 835.24 o
2757 3 8 0 -8 19780.50 19598.20 835.24 o
2757 2 6 -8 0 19780.50 19598.20 835.24 o
2757 1 4 0 8 19780.50 19598.20 835.24 o
2758 4 7 8 0 1198.73 1330.77 235.93 o
2758 3 9 0 -8 1198.73 1330.77 235.93 o
2758 2 7 -8 0 1198.73 1330.77 235.93 o
2758 1 5 0 8 1198.73 1330.77 235.93 o
2759 4 8 8 0 60838.70 60731.20 3070.47 o
2759 3 10 0 -8 60838.70 60731.20 3070.47 o
2759 2 8 -8 0 60838.70 60731.20 3070.47 o
2759 1 6 0 8 60838.70 60731.20 3070.47 o
2760 4 9 8 0 33.66 226.11 211.98 <
2760 3 11 0 -8 33.66 226.11 211.98 <
2760 2 9 -8 0 33.66 226.11 211.98 <
2760 1 7 0 8 33.66 226.11 211.98 <
2761 3 -8 -1 -8 12.37 60.88 130.45 <
2761 1 -12 1 8 12.37 60.88 130.45 <
2762 3 -7 -1 -8 124.61 138.06 80.45 <
2762 1 -11 1 8 124.61 138.06 80.45 <
2763 3 -6 -1 -8 238.30 252.21 84.79 <
2763 1 -10 1 8 238.30 252.21 84.79 <
2764 3 -5 -1 -8 17.55 -27.18 51.09 <
2764 1 -9 1 8 17.55 -27.18 51.09 <
2765 3 -4 -1 -8 383.57 366.37 80.45 o
2765 1 -8 1 8 383.57 366.37 80.45 o
2766 3 -3 -1 -8 299.56 340.28 51.10 o
2766 1 -7 1 8 299.56 340.28 51.10 o
2767 3 -2 -1 -8 15.64 73.92 29.35 <
2767 1 -6 1 8 15.64 73.92 29.35 <
2768 3 -1 -1 -8 201.74 240.25 42.40 o
2768 1 -5 1 8 201.74 240.25 42.40 o
2769 3 0 -1 -8 401.71 379.43 65.23 o
2769 1 -4 1 8 401.71 379.43 65.23 o
2770 3 1 -1 -8 215.44 211.99 34.79 o
2770 1 -3 1 8 215.44 211.99 34.79 o
2771 3 2 -1 -8 465.47 525.11 67.41 o
2771 1 -2 1 8 465.47 525.11 67.41 o
2772 3 3 -1 -8 212.89 146.76 51.10 <
2772 1 -1 1 8 212.89 146.76 51.10 <
2773 3 4 -1 -8 468.21 489.23 66.32 o
2773 1 0 1 8 468.21 489.23 66.32 o
2774 3 5 -1 -8 217.59 234.82 44.57 o
2774 1 1 1 8 217.59 234.82 44.57 o
2775 3 6 -1 -8 3.34 14.13 25.00 <
2775 1 2 1 8 3.34 14.13 25.00 <
2776 3 7 -1 -8 398.74 431.59 86.97 o
2776 1 3 1 8 398.74 431.59 86.97 o
2777 3 8 -1 -8 379.10 472.91 106.54 o
2777 1 4 1 8 379.10 472.91 106.54 o
2778 3 9 -1 -8 18.53 -20.65 79.36 <
2778 1 5 1 8 18.53 -20.65 79.36 <
2779 3 10 -1 -8 224.65 310.91 183.72 <
2779 1 6 1 8 224.65 310.91 183.72 <
2780 3 11 -1 -8 182.83 356.57 201.11 <
2780 1 7 1 8 182.83 356.57 201.11 <
2781 3 -8 -2 -8 237.14 310.90 144.58 <
2781 1 -12 2 8 237.14 310.90 144.58 <
2782 3 -7 -2 -8 308.86 130.45 59.79 <
2782 1 -11 2 8 308.86 130.45 59.79 <
2783 3 -6 -2 -8 394.47 339.18 84.80 o
2783 1 -10 2 8 394.47 339.18 84.80 o
2784 3 -5 -2 -8 872.99 806.66 116.32 o
2784 1 -9 2 8 872.99 806.66 116.32 o
2785 3 -4 -2 -8 9.46 50.01 45.66 <
2785 1 -8 2 8 9.46 50.01 45.66 <
2786 3 -3 -2 -8 125.37 103.27 32.61 o
2786 1 -7 2 8 125.37 103.27 32.61 o
2787 3 -2 -2 -8 393.96 457.69 63.05 o
2787 1 -6 2 8 393.96 457.69 63.05 o
2788 3 -1 -2 -8 414.68 412.04 60.88 o
2788 1 -5 2 8 414.68 412.04 60.88 o
2789 3 0 -2 -8 470.28 456.58 58.70 o
2789 1 -4 2 8 470.28 456.58 58.70 o
2790 3 1 -2 -8 112.87 191.34 38.05 o
2790 1 -3 2 8 112.87 191.34 38.05 o
2791 3 2 -2 -8 242.87 278.31 65.23 o
2791 1 -2 2 8 242.87 278.31 65.23 o
2792 3 3 -2 -8 350.21 328.30 48.92 o
2792 1 -1 2 8 350.21 328.30 48.92 o
2793 3 4 -2 -8 154.46 153.29 40.23 o
2793 1 0 2 8 154.46 153.29 40.23 o
2794 3 5 -2 -8 501.45 409.86 59.79 o
2794 1 1 2 8 501.45 409.86 59.79 o
2795 3 6 -2 -8 382.54 460.95 85.89 o
2795 1 2 2 8 382.54 460.95 85.89 o
2796 3 7 -2 -8 40.52 46.75 51.09 <
2796 1 3 2 8 40.52 46.75 51.09 <
2797 3 8 -2 -8 48.52 32.61 57.62 <
2797 1 4 2 8 48.52 32.61 57.62 <
2798 3 9 -2 -8 505.16 745.83 188.09 o
2798 1 5 2 8 505.16 745.83 188.09 o
2799 3 10 -2 -8 341.07 201.12 111.97 <
2799 1 6 2 8 341.07 201.12 111.97 <
2800 3 11 -2 -8 225.97 170.68 270.69 <
2800 1 7 2 8 225.97 170.68 270.69 <
2801 3 -7 -3 -8 39.29 185.89 85.88 <
2801 1 -11 3 8 39.29 185.89 85.88 <
2802 3 -6 -3 -8 35.71 156.54 64.14 <
2802 1 -10 3 8 35.71 156.54 64.14 <
2803 3 -5 -3 -8 81.80 80.44 60.88 <
2803 1 -9 3 8 81.80 80.44 60.88 <
2804 3 -4 -3 -8 115.62 122.84 52.18 <
2804 1 -8 3 8 115.62 122.84 52.18 <
2805 3 -3 -3 -8 225.55 230.46 43.48 o
2805 1 -7 3 8 225.55 230.46 43.48 o
2806 3 -2 -3 -8 9.86 31.53 29.35 <
2806 1 -6 3 8 9.86 31.53 29.35 <
2807 3 -1 -3 -8 182.89 140.24 46.74 <
2807 1 -5 3 8 182.89 140.24 46.74 <
2808 3 0 -3 -8 164.09 142.41 33.70 o
2808 1 -4 3 8 164.09 142.41 33.70 o
2809 3 1 -3 -8 4.73 6.52 31.53 <
2809 1 -3 3 8 4.73 6.52 31.53 <
2810 3 2 -3 -8 1.03 75.01 43.48 <
2810 1 -2 3 8 1.03 75.01 43.48 <
2811 3 3 -3 -8 1.04 28.26 33.70 <
2811 1 -1 3 8 1.04 28.26 33.70 <
2812 3 4 -3 -8 155.12 152.20 50.01 o
2812 1 0 3 8 155.12 152.20 50.01 o
2813 3 5 -3 -8 94.27 165.24 50.01 o
2813 1 1 3 8 94.27 165.24 50.01 o
2814 3 6 -3 -8 13.38 96.75 52.18 <
2814 1 2 3 8 13.38 96.75 52.18 <
2815 3 7 -3 -8 129.80 219.60 72.84 o
2815 1 3 3 8 129.80 219.60 72.84 o
2816 3 8 -3 -8 56.35 230.46 90.23 <
2816 1 4 3 8 56.35 230.46 90.23 <
2817 3 9 -3 -8 45.82 46.74 128.28 <
2817 1 5 3 8 45.82 46.74 128.28 <
2818 3 10 -3 -8 7.88 345.69 327.21 <
2818 1 6 3 8 7.88 345.69 327.21 <
2819 3 11 -3 -8 27.45 98.92 175.02 <
2819 1 7 3 8 27.45 98.92 175.02 <
2820 4 -8 8 -4 7037.11 6681.59 844.04 o
2820 3 -7 -4 -8 7037.11 6681.59 844.04 o
2820 2 -10 -8 4 7037.11 6681.59 844.04 o
2820 1 -11 4 8 7037.11 6681.59 844.04 o
2821 4 -7 8 -4 9763.06 9607.14 713.57 o
2821 3 -6 -4 -8 9763.06 9607.14 713.57 o
2821 2 -9 -8 4 9763.06 9607.14 713.57 o
2821 1 -10 4 8 9763.06 9607.14 713.57 o
2822 4 -6 8 -4 37702.00 37306.90 1332.47 o
2822 3 -5 -4 -8 37702.00 37306.90 1332.47 o
2822 2 -8 -8 4 37702.00 37306.90 1332.47 o
2822 1 -9 4 8 37702.00 37306.90 1332.47 o
2823 4 -5 8 -4 159.70 354.39 115.23 o
2823 3 -4 -4 -8 159.70 354.39 115.23 o
2823 2 -7 -8 4 159.70 354.39 115.23 o
2823 1 -8 4 8 159.70 354.39 115.23 o
2824 4 -4 8 -4 321.03 554.43 133.71 o
2824 3 -3 -4 -8 321.03 554.43 133.71 o
2824 2 -6 -8 4 321.03 554.43 133.71 o
2824 1 -7 4 8 321.03 554.43 133.71 o
2825 4 -3 8 -4 19330.00 18567.80 526.12 o
2825 3 -2 -4 -8 19330.00 18567.80 526.12 o
2825 2 -5 -8 4 19330.00 18567.80 526.12 o
2825 1 -6 4 8 19330.00 18567.80 526.12 o
2826 4 -2 8 -4 79083.70 78334.20 940.10 o
2826 3 -1 -4 -8 79083.70 78334.20 940.10 o
2826 2 -4 -8 4 79083.70 78334.20 940.10 o
2826 1 -5 4 8 79083.70 78334.20 940.10 o
2827 4 -1 8 -4 49026.20 49306.00 721.28 o
2827 3 0 -4 -8 49026.20 49306.00 721.28 o
2827 2 -3 -8 4 49026.20 49306.00 721.28 o
2827 1 -4 4 8 49026.20 49306.00 721.28 o
2828 4 0 8 -4 83634.40 84340.60 917.68 o
2828 3 1 -4 -8 83634.40 84340.60 917.68 o
2828 2 -2 -8 4 83634.40 84340.60 917.68 o
2828 1 -3 4 8 83634.40 84340.60 917.68 o
2829 4 1 8 -4 100561.00 99636.80 941.80 o
2829 3 2 -4 -8 100561.00 99636.80 941.80 o
2829 2 -1 -8 4 100561.00 99636.80 941.80 o
2829 1 -2 4 8 100561.00 99636.80 941.80 o
2830 4 2 8 -4 83306.90 84017.20 1045.01 o
2830 3 3 -4 -8 83306.90 84017.20 1045.01 o
2830 2 0 -8 4 83306.90 84017.20 1045.01 o
2830 1 -1 4 8 83306.90 84017.20 1045.01 o
2831 4 3 8 -4 47552.10 48246.60 800.12 o
2831 3 4 -4 -8 47552.10 48246.60 800.12 o
2831 2 1 -8 4 47552.10 48246.60 800.12 o
2831 1 0 4 8 47552.10 48246.60 800.12 o
2832 4 4 8 -4 74815.50 73355.00 1257.54 o
2832 3 5 -4 -8 74815.50 73355.00 1257.54 o
2832 2 2 -8 4 74815.50 73355.00 1257.54 o
2832 1 1 4 8 74815.50 73355.00 1257.54 o
2833 4 5 8 -4 19892.40 20309.60 600.13 o
2833 3 6 -4 -8 19892.40 20309.60 600.13 o
2833 2 3 -8 4 19892.40 20309.60 600.13 o
2833 1 2 4 8 19892.40 20309.60 600.13 o
2834 4 6 8 -4 417.21 653.35 134.80 o
2834 3 7 -4 -8 417.21 653.35 134.80 o
2834 2 4 -8 4 417.21 653.35 134.80 o
2834 1 3 4 8 417.21 653.35 134.80 o
2835 4 7 8 -4 175.89 206.55 104.36 <
2835 3 8 -4 -8 175.89 206.55 104.36 <
2835 2 5 -8 4 175.89 206.55 104.36 <
2835 1 4 4 8 175.89 206.55 104.36 <
2836 4 8 8 -4 38901.10 36724.00 1504.50 o
2836 3 9 -4 -8 38901.10 36724.00 1504.50 o
2836 2 6 -8 4 38901.10 36724.00 1504.50 o
2836 1 5 4 8 38901.10 36724.00 1504.50 o
2837 4 9 8 -4 8787.37 9033.78 1183.62 o
2837 3 10 -4 -8 8787.37 9033.78 1183.62 o
2837 2 7 -8 4 8787.37 9033.78 1183.62 o
2837 1 6 4 8 8787.37 9033.78 1183.62 o
2838 3 -7 -5 -8 414.48 267.43 198.95 <
2838 1 -11 5 8 414.48 267.43 198.95 <
2839 3 -6 -5 -8 610.56 725.13 140.24 o
2839 1 -10 5 8 610.56 725.13 140.24 o
2840 3 -5 -5 -8 1500.02 1504.83 167.45 o
2840 1 -9 5 8 1500.02 1504.83 167.45 o
2841 3 -4 -5 -8 668.87 530.54 93.50 o
2841 1 -8 5 8 668.87 530.54 93.50 o
2842 3 -3 -5 -8 611.09 597.94 92.41 o
2842 1 -7 5 8 611.09 597.94 92.41 o
2843 3 -2 -5 -8 1597.72 1610.47 147.89 o
2843 1 -6 5 8 1597.72 1610.47 147.89 o
2844 3 -1 -5 -8 742.84 875.22 100.03 o
2844 1 -5 5 8 742.84 875.22 100.03 o
2845 3 0 -5 -8 991.12 1033.99 89.16 o
2845 1 -4 5 8 991.12 1033.99 89.16 o
2846 3 1 -5 -8 1911.69 2033.69 128.33 o
2846 1 -3 5 8 1911.69 2033.69 128.33 o
2847 3 2 -5 -8 1666.77 1708.35 129.40 o
2847 1 -2 5 8 1666.77 1708.35 129.40 o
2848 3 3 -5 -8 2143.98 2153.19 153.33 o
2848 1 -1 5 8 2143.98 2153.19 153.33 o
2849 3 4 -5 -8 923.01 997.03 103.29 o
2849 1 0 5 8 923.01 997.03 103.29 o
2850 3 5 -5 -8 805.61 690.38 118.51 o
2850 1 1 5 8 805.61 690.38 118.51 o
2851 3 6 -5 -8 1867.19 1881.12 187.02 o
2851 1 2 5 8 1867.19 1881.12 187.02 o
2852 3 7 -5 -8 494.80 641.44 138.07 o
2852 1 3 5 8 494.80 641.44 138.07 o
2853 3 8 -5 -8 591.10 654.48 147.86 o
2853 1 4 5 8 591.10 654.48 147.86 o
2854 3 9 -5 -8 1561.16 1331.93 251.16 o
2854 1 5 5 8 1561.16 1331.93 251.16 o
2855 3 10 -5 -8 546.10 372.90 120.68 o
2855 1 6 5 8 546.10 372.90 120.68 o
2856 3 -6 -6 -8 217.60 256.55 93.49 <
2856 1 -10 6 8 217.60 256.55 93.49 <
2857 3 -5 -6 -8 62.94 68.49 68.49 <
2857 1 -9 6 8 62.94 68.49 68.49 <
2858 3 -4 -6 -8 1403.92 1402.46 173.95 o
2858 1 -8 6 8 1403.92 1402.46 173.95 o
2859 3 -3 -6 -8 1287.26 1186.22 133.74 o
2859 1 -7 6 8 1287.26 1186.22 133.74 o
2860 3 -2 -6 -8 1112.58 1052.43 114.16 o
2860 1 -6 6 8 1112.58 1052.43 114.16 o
2861 3 -1 -6 -8 1224.69 1203.56 119.60 o
2861 1 -5 6 8 1224.69 1203.56 119.60 o
2862 3 0 -6 -8 930.45 1041.67 130.48 o
2862 1 -4 6 8 930.45 1041.67 130.48 o
2863 3 1 -6 -8 1263.85 1453.59 132.64 o
2863 1 -3 6 8 1263.85 1453.59 132.64 o
2864 3 2 -6 -8 809.25 991.56 114.16 o
2864 1 -2 6 8 809.25 991.56 114.16 o
2865 3 3 -6 -8 721.78 604.56 82.64 o
2865 1 -1 6 8 721.78 604.56 82.64 o
2866 3 4 -6 -8 1314.68 1153.56 129.38 o
2866 1 0 6 8 1314.68 1153.56 129.38 o
2867 3 5 -6 -8 873.14 1130.80 187.02 o
2867 1 1 6 8 873.14 1130.80 187.02 o
2868 3 6 -6 -8 862.72 1074.23 152.22 o
2868 1 2 6 8 862.72 1074.23 152.22 o
2869 3 7 -6 -8 1264.82 1203.62 175.05 o
2869 1 3 6 8 1264.82 1203.62 175.05 o
2870 3 8 -6 -8 796.81 801.34 157.66 o
2870 1 4 6 8 796.81 801.34 157.66 o
2871 3 9 -6 -8 70.38 34.79 90.23 <
2871 1 5 6 8 70.38 34.79 90.23 <
2872 3 10 -6 -8 92.63 131.54 88.06 <
2872 1 6 6 8 92.63 131.54 88.06 <
2873 3 -6 -7 -8 3.95 118.49 72.83 <
2873 1 -10 7 8 3.95 118.49 72.83 <
2874 3 -5 -7 -8 264.39 189.15 88.05 <
2874 1 -9 7 8 264.39 189.15 88.05 <
2875 3 -4 -7 -8 3.32 135.88 109.79 <
2875 1 -8 7 8 3.32 135.88 109.79 <
2876 3 -3 -7 -8 18.09 238.07 79.36 <
2876 1 -7 7 8 18.09 238.07 79.36 <
2877 3 -2 -7 -8 676.79 701.20 110.89 o
2877 1 -6 7 8 676.79 701.20 110.89 o
2878 3 -1 -7 -8 90.49 178.28 58.70 o
2878 1 -5 7 8 90.49 178.28 58.70 o
2879 3 0 -7 -8 12.26 -31.53 50.01 <
2879 1 -4 7 8 12.26 -31.53 50.01 <
2880 3 1 -7 -8 129.22 123.93 50.01 <
2880 1 -3 7 8 129.22 123.93 50.01 <
2881 3 2 -7 -8 60.83 165.24 73.92 <
2881 1 -2 7 8 60.83 165.24 73.92 <
2882 3 3 -7 -8 98.04 104.36 47.83 <
2882 1 -1 7 8 98.04 104.36 47.83 <
2883 3 4 -7 -8 30.79 153.28 66.31 <
2883 1 0 7 8 30.79 153.28 66.31 <
2884 3 5 -7 -8 116.89 159.80 83.71 <
2884 1 1 7 8 116.89 159.80 83.71 <
2885 3 6 -7 -8 342.65 319.64 106.54 <
2885 1 2 7 8 342.65 319.64 106.54 <
2886 3 7 -7 -8 9.08 -29.35 94.58 <
2886 1 3 7 8 9.08 -29.35 94.58 <
2887 3 8 -7 -8 3.73 -23.92 107.62 <
2887 1 4 7 8 3.73 -23.92 107.62 <
2888 3 9 -7 -8 117.38 39.14 47.83 <
2888 1 5 7 8 117.38 39.14 47.83 <
2889 3 10 -7 -8 29.58 -206.54 277.20 <
2889 1 6 7 8 29.58 -206.54 277.20 <
2890 4 -6 8 -8 21922.40 22982.60 2090.42 o
2890 3 -6 -8 -8 21922.40 22982.60 2090.42 o
2890 2 -10 -8 8 21922.40 22982.60 2090.42 o
2890 1 -10 8 8 21922.40 22982.60 2090.42 o
2891 4 -5 8 -8 9332.17 9038.10 619.94 o
2891 3 -5 -8 -8 9332.17 9038.10 619.94 o
2891 2 -9 -8 8 9332.17 9038.10 619.94 o
2891 1 -9 8 8 9332.17 9038.10 619.94 o
2892 4 -4 8 -8 2929.50 2754.14 325.10 o
2892 3 -4 -8 -8 2929.50 2754.14 325.10 o
2892 2 -8 -8 8 2929.50 2754.14 325.10 o
2892 1 -8 8 8 2929.50 2754.14 325.10 o
2893 4 -3 8 -8 475.61 529.41 131.54 o
2893 3 -3 -8 -8 475.61 529.41 131.54 o
2893 2 -7 -8 8 475.61 529.41 131.54 o
2893 1 -7 8 8 475.61 529.41 131.54 o
2894 4 -2 8 -8 28215.60 28218.30 906.26 o
2894 3 -2 -8 -8 28215.60 28218.30 906.26 o
2894 2 -6 -8 8 28215.60 28218.30 906.26 o
2894 1 -6 8 8 28215.60 28218.30 906.26 o
2895 4 -1 8 -8 38695.10 38948.50 1008.58 o
2895 3 -1 -8 -8 38695.10 38948.50 1008.58 o
2895 2 -5 -8 8 38695.10 38948.50 1008.58 o
2895 1 -5 8 8 38695.10 38948.50 1008.58 o
2896 4 0 8 -8 26450.30 26565.30 695.05 o
2896 3 0 -8 -8 26450.30 26565.30 695.05 o
2896 2 -4 -8 8 26450.30 26565.30 695.05 o
2896 1 -4 8 8 26450.30 26565.30 695.05 o
2897 4 1 8 -8 22397.80 23630.60 929.15 o
2897 3 1 -8 -8 22397.80 23630.60 929.15 o
2897 2 -3 -8 8 22397.80 23630.60 929.15 o
2897 1 -3 8 8 22397.80 23630.60 929.15 o
2898 4 2 8 -8 147038.00 151404.00 1846.91 o
2898 3 2 -8 -8 147038.00 151404.00 1846.91 o
2898 2 -2 -8 8 147038.00 151404.00 1846.91 o
2898 1 -2 8 8 147038.00 151404.00 1846.91 o
2899 4 3 8 -8 22594.40 23575.90 859.39 o
2899 3 3 -8 -8 22594.40 23575.90 859.39 o
2899 2 -1 -8 8 22594.40 23575.90 859.39 o
2899 1 -1 8 8 22594.40 23575.90 859.39 o
2900 4 4 8 -8 25655.80 26568.40 1480.80 o
2900 3 4 -8 -8 25655.80 26568.40 1480.80 o
2900 2 0 -8 8 25655.80 26568.40 1480.80 o
2900 1 0 8 8 25655.80 26568.40 1480.80 o
2901 4 5 8 -8 37432.40 37145.40 1333.91 o
2901 3 5 -8 -8 37432.40 37145.40 1333.91 o
2901 2 1 -8 8 37432.40 37145.40 1333.91 o
2901 1 1 8 8 37432.40 37145.40 1333.91 o
2902 4 6 8 -8 26706.80 27238.80 1188.79 o
2902 3 6 -8 -8 26706.80 27238.80 1188.79 o
2902 2 2 -8 8 26706.80 27238.80 1188.79 o
2902 1 2 8 8 26706.80 27238.80 1188.79 o
2903 4 7 8 -8 256.70 306.57 128.28 <
2903 3 7 -8 -8 256.70 306.57 128.28 <
2903 2 3 -8 8 256.70 306.57 128.28 <
2903 1 3 8 8 256.70 306.57 128.28 <
2904 4 8 8 -8 2925.86 2730.22 425.14 o
2904 3 8 -8 -8 2925.86 2730.22 425.14 o
2904 2 4 -8 8 2925.86 2730.22 425.14 o
2904 1 4 8 8 2925.86 2730.22 425.14 o
2905 4 9 8 -8 8287.42 8282.85 781.07 o
2905 3 9 -8 -8 8287.42 8282.85 781.07 o
2905 2 5 -8 8 8287.42 8282.85 781.07 o
2905 1 5 8 8 8287.42 8282.85 781.07 o
2906 4 10 8 -8 22702.90 22148.30 1922.44 o
2906 3 10 -8 -8 22702.90 22148.30 1922.44 o
2906 2 6 -8 8 22702.90 22148.30 1922.44 o
2906 1 6 8 8 22702.90 22148.30 1922.44 o
2907 3 -5 -9 -8 937.63 814.28 191.34 o
2907 1 -9 9 8 937.63 814.28 191.34 o
2908 3 -4 -9 -8 1795.99 1871.25 223.99 o
2908 1 -8 9 8 1795.99 1871.25 223.99 o
2909 3 -3 -9 -8 1754.60 1793.02 210.94 o
2909 1 -7 9 8 1754.60 1793.02 210.94 o
2910 3 -2 -9 -8 873.07 990.40 142.42 o
2910 1 -6 9 8 873.07 990.40 142.42 o
2911 3 -1 -9 -8 1771.28 1781.12 178.33 o
2911 1 -5 9 8 1771.28 1781.12 178.33 o
2912 3 0 -9 -8 1987.85 2013.98 230.54 o
2912 1 -4 9 8 1987.85 2013.98 230.54 o
2913 3 1 -9 -8 1944.55 1967.01 223.99 o
2913 1 -3 9 8 1944.55 1967.01 223.99 o
2914 3 2 -9 -8 2602.61 2695.91 231.64 o
2914 1 -2 9 8 2602.61 2695.91 231.64 o
2915 3 3 -9 -8 1718.81 1917.08 238.14 o
2915 1 -1 9 8 1718.81 1917.08 238.14 o
2916 3 4 -9 -8 2372.18 2702.14 341.44 o
2916 1 0 9 8 2372.18 2702.14 341.44 o
2917 3 5 -9 -8 1922.97 1852.84 241.39 o
2917 1 1 9 8 1922.97 1852.84 241.39 o
2918 3 6 -9 -8 605.43 659.94 143.51 o
2918 1 2 9 8 605.43 659.94 143.51 o
2919 3 7 -9 -8 1844.81 1716.88 253.35 o
2919 1 3 9 8 1844.81 1716.88 253.35 o
2920 3 8 -9 -8 1702.51 2102.88 338.16 o
2920 1 4 9 8 1702.51 2102.88 338.16 o
2921 3 9 -9 -8 630.63 680.59 369.65 <
2921 1 5 9 8 630.63 680.59 369.65 <
2922 3 -5 -10 -8 740.92 579.43 207.64 <
2922 1 -9 10 8 740.92 579.43 207.64 <
2923 3 -4 -10 -8 66.67 213.07 100.01 <
2923 1 -8 10 8 66.67 213.07 100.01 <
2924 3 -3 -10 -8 353.29 469.62 119.58 o
2924 1 -7 10 8 353.29 469.62 119.58 o
2925 3 -2 -10 -8 758.88 765.36 144.59 o
2925 1 -6 10 8 758.88 765.36 144.59 o
2926 3 -1 -10 -8 657.32 483.79 122.85 o
2926 1 -5 10 8 657.32 483.79 122.85 o
2927 3 0 -10 -8 608.57 489.20 106.54 o
2927 1 -4 10 8 608.57 489.20 106.54 o
2928 3 1 -10 -8 163.41 131.54 69.58 <
2928 1 -3 10 8 163.41 131.54 69.58 <
2929 3 2 -10 -8 163.71 348.96 125.02 <
2929 1 -2 10 8 163.71 348.96 125.02 <
2930 3 3 -10 -8 314.07 88.05 63.05 <
2930 1 -1 10 8 314.07 88.05 63.05 <
2931 3 4 -10 -8 267.69 544.67 132.63 o
2931 1 0 10 8 267.69 544.67 132.63 o
2932 3 5 -10 -8 637.11 743.63 153.29 o
2932 1 1 10 8 637.11 743.63 153.29 o
2933 3 6 -10 -8 617.90 659.92 158.73 o
2933 1 2 10 8 617.90 659.92 158.73 o
2934 3 7 -10 -8 150.95 118.50 88.06 <
2934 1 3 10 8 150.95 118.50 88.06 <
2935 3 8 -10 -8 69.49 -41.31 170.67 <
2935 1 4 10 8 69.49 -41.31 170.67 <
2936 3 -4 -11 -8 12.93 -115.23 142.41 <
2936 1 -8 11 8 12.93 -115.23 142.41 <
2937 3 -3 -11 -8 47.57 28.26 98.92 <
2937 1 -7 11 8 47.57 28.26 98.92 <
2938 3 -2 -11 -8 100.72 155.45 94.58 <
2938 1 -6 11 8 100.72 155.45 94.58 <
2939 3 -1 -11 -8 5.41 -33.70 86.97 <
2939 1 -5 11 8 5.41 -33.70 86.97 <
2940 3 0 -11 -8 7.06 177.19 92.40 <
2940 1 -4 11 8 7.06 177.19 92.40 <
2941 3 1 -11 -8 75.89 166.32 60.88 <
2941 1 -3 11 8 75.89 166.32 60.88 <
2942 3 2 -11 -8 44.32 101.10 97.84 <
2942 1 -2 11 8 44.32 101.10 97.84 <
2943 3 3 -11 -8 22.01 -83.71 79.36 <
2943 1 -1 11 8 22.01 -83.71 79.36 <
2944 3 4 -11 -8 3.49 134.80 108.71 <
2944 1 0 11 8 3.49 134.80 108.71 <
2945 3 5 -11 -8 3.25 100.01 102.18 <
2945 1 1 11 8 3.25 100.01 102.18 <
2946 3 6 -11 -8 52.33 219.59 111.97 <
2946 1 2 11 8 52.33 219.59 111.97 <
2947 3 7 -11 -8 6.88 318.52 211.98 <
2947 1 3 11 8 6.88 318.52 211.98 <
2948 4 -1 8 -12 912.76 679.45 309.83 <
2948 3 -2 -12 -8 912.76 679.45 309.83 <
2948 2 -7 -8 12 912.76 679.45 309.83 <
2948 1 -6 12 8 912.76 679.45 309.83 <
2949 4 0 8 -12 65624.00 66134.80 2006.00 o
2949 3 -1 -12 -8 65624.00 66134.80 2006.00 o
2949 2 -6 -8 12 65624.00 66134.80 2006.00 o
2949 1 -5 12 8 65624.00 66134.80 2006.00 o
2950 4 1 8 -12 3742.58 4503.49 499.06 o
2950 3 0 -12 -8 3742.58 4503.49 499.06 o
2950 2 -5 -8 12 3742.58 4503.49 499.06 o
2950 1 -4 12 8 3742.58 4503.49 499.06 o
2951 4 2 8 -12 10652.40 11787.40 1173.74 o
2951 3 1 -12 -8 10652.40 11787.40 1173.74 o
2951 2 -4 -8 12 10652.40 11787.40 1173.74 o
2951 1 -3 12 8 10652.40 11787.40 1173.74 o
2952 4 3 8 -12 82018.60 83606.20 1635.22 o
2952 3 2 -12 -8 82018.60 83606.20 1635.22 o
2952 2 -3 -8 12 82018.60 83606.20 1635.22 o
2952 1 -2 12 8 82018.60 83606.20 1635.22 o
2953 4 4 8 -12 10632.20 10676.00 787.59 o
2953 3 3 -12 -8 10632.20 10676.00 787.59 o
2953 2 -2 -8 12 10632.20 10676.00 787.59 o
2953 1 -1 12 8 10632.20 10676.00 787.59 o
2954 4 5 8 -12 3451.71 4009.14 691.57 o
2954 3 4 -12 -8 3451.71 4009.14 691.57 o
2954 2 -1 -8 12 3451.71 4009.14 691.57 o
2954 1 0 12 8 3451.71 4009.14 691.57 o
2955 4 6 8 -12 63839.60 63548.80 2048.52 o
2955 3 5 -12 -8 63839.60 63548.80 2048.52 o
2955 2 0 -8 12 63839.60 63548.80 2048.52 o
2955 1 1 12 8 63839.60 63548.80 2048.52 o
2956 3 -1 -13 -8 908.98 954.54 341.37 <
2956 1 -5 13 8 908.98 954.54 341.37 <
2957 3 1 -13 -8 1594.76 1640.82 538.24 o
2957 1 -3 13 8 1594.76 1640.82 538.24 o
2958 3 2 -13 -8 1393.61 1838.56 254.42 o
2958 1 -2 13 8 1393.61 1838.56 254.42 o
2959 3 3 -13 -8 2047.93 1891.86 295.74 o
2959 1 -1 13 8 2047.93 1891.86 295.74 o
2960 3 4 -13 -8 1052.12 1122.03 273.98 o
2960 1 0 13 8 1052.12 1122.03 273.98 o
2961 3 5 -13 -8 815.61 1107.85 338.12 o
2961 1 1 13 8 815.61 1107.85 338.12 o
2962 3 6 -13 -8 1736.47 2028.81 684.97 <
2962 1 2 13 8 1736.47 2028.81 684.97 <
2963 3 3 -14 -8 102.37 -5.44 100.01 <
2963 1 -1 14 8 102.37 -5.44 100.01 <
2964 4 -3 9 13 10594.80 10421.30 1154.41 o
2964 1 -2 -13 9 10594.80 10421.30 1154.41 o
2965 4 -2 9 13 2850.02 2811.85 625.22 o
2965 1 -1 -13 9 2850.02 2811.85 625.22 o
2966 2 -1 -9 -11 68.94 207.63 258.73 <
2966 1 -6 -11 9 68.94 207.63 258.73 <
2967 2 0 -9 -11 1792.85 1322.11 487.09 <
2967 1 -5 -11 9 1792.85 1322.11 487.09 <
2968 2 1 -9 -11 21.04 31.53 83.71 <
2968 1 -4 -11 9 21.04 31.53 83.71 <
2969 2 2 -9 -11 45.53 115.23 133.71 <
2969 1 -3 -11 9 45.53 115.23 133.71 <
2970 2 3 -9 -11 1.71 56.53 114.14 <
2970 1 -2 -11 9 1.71 56.53 114.14 <
2971 2 4 -9 -11 5.52 39.13 95.66 <
2971 1 -1 -11 9 5.52 39.13 95.66 <
2972 2 5 -9 -11 393.71 402.23 146.76 <
2972 1 0 -11 9 393.71 402.23 146.76 <
2973 2 6 -9 -11 752.39 849.08 268.53 o
2973 1 1 -11 9 752.39 849.08 268.53 o
2974 2 7 -9 -11 106.09 265.25 152.19 <
2974 1 2 -11 9 106.09 265.25 152.19 <
2975 4 -9 9 9 12931.70 12684.10 1231.96 o
2975 1 -9 -9 9 12931.70 12684.10 1231.96 o
2976 4 -8 9 9 8405.48 8319.16 785.46 o
2976 1 -8 -9 9 8405.48 8319.16 785.46 o
2977 4 -7 9 9 3122.93 3393.75 502.38 o
2977 1 -7 -9 9 3122.93 3393.75 502.38 o
2978 4 -6 9 9 6017.85 7598.73 1129.04 o
2978 1 -6 -9 9 6017.85 7598.73 1129.04 o
2979 4 -5 9 9 6558.56 6746.46 661.38 o
2979 1 -5 -9 9 6558.56 6746.46 661.38 o
2980 4 -4 9 9 12943.40 14997.60 954.63 o
2980 1 -4 -9 9 12943.40 14997.60 954.63 o
2981 4 -3 9 9 14510.60 15988.80 1002.70 o
2981 1 -3 -9 9 14510.60 15988.80 1002.70 o
2982 4 -2 9 9 9718.37 10411.70 798.72 o
2982 1 -2 -9 9 9718.37 10411.70 798.72 o
2983 4 -1 9 9 16069.30 17073.60 1042.06 o
2983 1 -1 -9 9 16069.30 17073.60 1042.06 o
2984 4 0 9 9 7801.73 8681.71 639.71 o
2984 1 0 -9 9 7801.73 8681.71 639.71 o
2985 4 1 9 9 5793.13 6585.99 699.39 o
2985 1 1 -9 9 5793.13 6585.99 699.39 o
2986 4 2 9 9 7326.05 7277.60 962.73 o
2986 1 2 -9 9 7326.05 7277.60 962.73 o
2987 4 3 9 9 1988.07 2212.60 426.21 o
2987 1 3 -9 9 1988.07 2212.60 426.21 o
2988 4 4 9 9 15183.90 20791.00 2099.78 o
2988 1 4 -9 9 15183.90 20791.00 2099.78 o
2989 2 -6 -9 -7 304.92 48.92 134.80 <
2989 1 -10 -7 9 304.92 48.92 134.80 <
2990 2 -5 -9 -7 37.94 469.62 216.33 <
2990 1 -9 -7 9 37.94 469.62 216.33 <
2991 2 -4 -9 -7 195.26 -60.88 140.24 <
2991 1 -8 -7 9 195.26 -60.88 140.24 <
2992 2 -3 -9 -7 2698.80 2620.61 308.82 o
2992 1 -7 -7 9 2698.80 2620.61 308.82 o
2993 2 -2 -9 -7 1939.61 1747.37 260.96 o
2993 1 -6 -7 9 1939.61 1747.37 260.96 o
2994 2 -1 -9 -7 27.98 70.66 78.27 <
2994 1 -5 -7 9 27.98 70.66 78.27 <
2995 2 0 -9 -7 344.64 340.27 167.42 <
2995 1 -4 -7 9 344.64 340.27 167.42 <
2996 2 1 -9 -7 109.82 102.19 98.92 <
2996 1 -3 -7 9 109.82 102.19 98.92 <
2997 2 2 -9 -7 27.09 19.57 66.31 <
2997 1 -2 -7 9 27.09 19.57 66.31 <
2998 2 3 -9 -7 104.81 53.27 71.75 <
2998 1 -1 -7 9 104.81 53.27 71.75 <
2999 2 4 -9 -7 360.20 382.67 119.58 o
2999 1 0 -7 9 360.20 382.67 119.58 o
3000 2 5 -9 -7 687.77 852.33 208.74 o
3000 1 1 -7 9 687.77 852.33 208.74 o
3001 2 6 -9 -7 1406.60 1711.37 356.63 o
3001 1 2 -7 9 1406.60 1711.37 356.63 o
3002 2 7 -9 -7 1772.14 2505.19 440.36 o
3002 1 3 -7 9 1772.14 2505.19 440.36 o
3003 2 8 -9 -7 501.85 852.32 496.82 <
3003 1 4 -7 9 501.85 852.32 496.82 <
3004 2 9 -9 -7 107.79 264.16 259.82 <
3004 1 5 -7 9 107.79 264.16 259.82 <
3005 4 -10 9 5 6428.72 6627.54 615.66 o
3005 1 -11 -5 9 6428.72 6627.54 615.66 o
3006 4 -9 9 5 11040.80 10563.50 738.91 o
3006 1 -10 -5 9 11040.80 10563.50 738.91 o
3007 4 -8 9 5 4343.04 4175.18 493.76 o
3007 1 -9 -5 9 4343.04 4175.18 493.76 o
3008 4 -7 9 5 4631.05 4506.07 395.90 o
3008 1 -8 -5 9 4631.05 4506.07 395.90 o
3009 4 -6 9 5 9152.25 8909.22 531.05 o
3009 1 -7 -5 9 9152.25 8909.22 531.05 o
3010 4 -5 9 5 4090.01 4083.97 344.77 o
3010 1 -6 -5 9 4090.01 4083.97 344.77 o
3011 4 -4 9 5 4987.38 5478.05 391.60 o
3011 1 -5 -5 9 4987.38 5478.05 391.60 o
3012 4 -3 9 5 8202.67 7889.89 622.48 o
3012 1 -4 -5 9 8202.67 7889.89 622.48 o
3013 4 -2 9 5 14633.70 14109.90 626.26 o
3013 1 -3 -5 9 14633.70 14109.90 626.26 o
3014 4 -1 9 5 21382.40 21325.70 803.45 o
3014 1 -2 -5 9 21382.40 21325.70 803.45 o
3015 4 0 9 5 8470.58 8175.22 519.11 o
3015 1 -1 -5 9 8470.58 8175.22 519.11 o
3016 4 1 9 5 6820.07 6722.68 500.48 o
3016 1 0 -5 9 6820.07 6722.68 500.48 o
3017 4 2 9 5 4343.03 4796.37 441.57 o
3017 1 1 -5 9 4343.03 4796.37 441.57 o
3018 4 3 9 5 3796.43 3887.84 419.78 o
3018 1 2 -5 9 3796.43 3887.84 419.78 o
3019 4 4 9 5 14023.60 14922.50 1014.64 o
3019 1 3 -5 9 14023.60 14922.50 1014.64 o
3020 4 5 9 5 2257.42 2284.41 401.21 o
3020 1 4 -5 9 2257.42 2284.41 401.21 o
3021 4 6 9 5 3423.20 3579.66 894.92 o
3021 1 5 -5 9 3423.20 3579.66 894.92 o
3022 2 -8 -9 -3 195.11 30.44 69.57 <
3022 1 -11 -3 9 195.11 30.44 69.57 <
3023 2 -7 -9 -3 1100.80 1064.39 228.32 o
3023 1 -10 -3 9 1100.80 1064.39 228.32 o
3024 2 -6 -9 -3 5.98 11.96 66.31 <
3024 1 -9 -3 9 5.98 11.96 66.31 <
3025 2 -5 -9 -3 459.39 459.85 116.32 o
3025 1 -8 -3 9 459.39 459.85 116.32 o
3026 2 -4 -9 -3 287.81 421.80 131.54 o
3026 1 -7 -3 9 287.81 421.80 131.54 o
3027 2 -3 -9 -3 174.79 362.01 107.62 o
3027 1 -6 -3 9 174.79 362.01 107.62 o
3028 2 -2 -9 -3 1340.45 1412.37 190.27 o
3028 1 -5 -3 9 1340.45 1412.37 190.27 o
3029 2 -1 -9 -3 1.26 36.96 39.13 <
3029 1 -4 -3 9 1.26 36.96 39.13 <
3030 2 0 -9 -3 618.30 559.89 164.16 o
3030 1 -3 -3 9 618.30 559.89 164.16 o
3031 2 1 -9 -3 1111.93 1230.80 244.64 o
3031 1 -2 -3 9 1111.93 1230.80 244.64 o
3032 2 2 -9 -3 17.82 104.36 81.53 <
3032 1 -1 -3 9 17.82 104.36 81.53 <
3033 2 3 -9 -3 227.46 220.69 82.62 <
3033 1 0 -3 9 227.46 220.69 82.62 <
3034 2 4 -9 -3 738.61 876.30 187.00 o
3034 1 1 -3 9 738.61 876.30 187.00 o
3035 2 5 -9 -3 188.15 168.50 84.79 <
3035 1 2 -3 9 188.15 168.50 84.79 <
3036 2 6 -9 -3 690.56 807.77 188.08 o
3036 1 3 -3 9 690.56 807.77 188.08 o
3037 2 7 -9 -3 778.84 973.05 245.71 o
3037 1 4 -3 9 778.84 973.05 245.71 o
3038 2 8 -9 -3 55.55 33.70 84.79 <
3038 1 5 -3 9 55.55 33.70 84.79 <
3039 2 9 -9 -3 4236.59 4919.13 692.79 o
3039 1 6 -3 9 4236.59 4919.13 692.79 o
3040 4 -9 9 1 762.03 641.43 188.08 o
3040 1 -11 -1 9 762.03 641.43 188.08 o
3041 4 -8 9 1 881.54 1045.88 189.17 o
3041 1 -10 -1 9 881.54 1045.88 189.17 o
3042 4 -7 9 1 5635.61 5268.04 395.95 o
3042 1 -9 -1 9 5635.61 5268.04 395.95 o
3043 4 -6 9 1 4330.18 4141.76 252.33 o
3043 1 -8 -1 9 4330.18 4141.76 252.33 o
3044 4 -5 9 1 6.61 68.49 43.48 <
3044 1 -7 -1 9 6.61 68.49 43.48 <
3045 4 -4 9 1 327.04 392.46 117.41 o
3045 1 -6 -1 9 327.04 392.46 117.41 o
3046 4 -3 9 1 2143.00 2094.34 206.61 o
3046 1 -5 -1 9 2143.00 2094.34 206.61 o
3047 4 -2 9 1 3631.30 3438.08 195.78 o
3047 1 -4 -1 9 3631.30 3438.08 195.78 o
3048 4 -1 9 1 5285.02 5382.44 323.14 o
3048 1 -3 -1 9 5285.02 5382.44 323.14 o
3049 4 0 9 1 3720.08 3717.74 278.45 o
3049 1 -2 -1 9 3720.08 3717.74 278.45 o
3050 4 1 9 1 5502.25 4992.45 439.52 o
3050 1 -1 -1 9 5502.25 4992.45 439.52 o
3051 4 2 9 1 1807.89 2082.27 297.93 o
3051 1 0 -1 9 1807.89 2082.27 297.93 o
3052 4 3 9 1 776.78 908.88 177.21 o
3052 1 1 -1 9 776.78 908.88 177.21 o
3053 4 4 9 1 638.38 567.49 136.98 o
3053 1 2 -1 9 638.38 567.49 136.98 o
3054 4 5 9 1 19.31 59.79 90.23 <
3054 1 3 -1 9 19.31 59.79 90.23 <
3055 4 6 9 1 8049.32 7275.18 541.80 o
3055 1 4 -1 9 8049.32 7275.18 541.80 o
3056 4 7 9 1 5595.29 5050.05 478.58 o
3056 1 5 -1 9 5595.29 5050.05 478.58 o
3057 4 8 9 1 823.70 719.72 412.05 <
3057 1 6 -1 9 823.70 719.72 412.05 <
3058 2 -9 -9 1 640.72 601.21 206.56 <
3058 1 -11 1 9 640.72 601.21 206.56 <
3059 2 -8 -9 1 744.15 838.23 200.04 o
3059 1 -10 1 9 744.15 838.23 200.04 o
3060 2 -7 -9 1 4897.49 4640.40 456.86 o
3060 1 -9 1 9 4897.49 4640.40 456.86 o
3061 2 -6 -9 1 3761.83 3806.77 386.11 o
3061 1 -8 1 9 3761.83 3806.77 386.11 o
3062 2 -5 -9 1 6.16 154.37 64.14 <
3062 1 -7 1 9 6.16 154.37 64.14 <
3063 2 -4 -9 1 274.30 415.29 77.19 o
3063 1 -6 1 9 274.30 415.29 77.19 o
3064 2 -3 -9 1 1882.50 1858.37 246.84 o
3064 1 -5 1 9 1882.50 1858.37 246.84 o
3065 2 -2 -9 1 3196.68 3346.71 195.78 o
3065 1 -4 1 9 3196.68 3346.71 195.78 o
3066 2 -1 -9 1 4597.84 4810.14 300.29 o
3066 1 -3 1 9 4597.84 4810.14 300.29 o
3067 2 0 -9 1 3272.45 3275.05 247.99 o
3067 1 -2 1 9 3272.45 3275.05 247.99 o
3068 2 1 -9 1 4882.03 4694.36 311.14 o
3068 1 -1 1 9 4882.03 4694.36 311.14 o
3069 2 2 -9 1 1598.89 1732.14 198.98 o
3069 1 0 1 9 1598.89 1732.14 198.98 o
3070 2 3 -9 1 690.10 669.70 123.94 o
3070 1 1 1 9 690.10 669.70 123.94 o
3071 2 4 -9 1 575.16 542.49 165.25 o
3071 1 2 1 9 575.16 542.49 165.25 o
3072 2 5 -9 1 13.08 -3.26 60.88 <
3072 1 3 1 9 13.08 -3.26 60.88 <
3073 2 6 -9 1 7135.20 7205.55 599.47 o
3073 1 4 1 9 7135.20 7205.55 599.47 o
3074 2 7 -9 1 4933.42 5083.77 646.08 o
3074 1 5 1 9 4933.42 5083.77 646.08 o
3075 1 -11 2 9 350.52 267.43 104.36 <
3076 1 -10 2 9 715.27 858.88 131.55 o
3077 1 -9 2 9 853.73 709.95 117.42 o
3078 1 -8 2 9 403.16 479.43 77.19 o
3079 1 -7 2 9 123.51 239.16 56.53 o
3080 1 -6 2 9 11.65 54.35 35.87 <
3081 1 -5 2 9 70.00 67.40 32.61 <
3082 1 -4 2 9 912.49 807.86 94.59 o
3083 1 -3 2 9 1776.86 1843.33 133.76 o
3084 1 -2 2 9 1937.59 1749.87 133.77 o
3085 1 -1 2 9 1353.67 1433.20 144.62 o
3086 1 0 2 9 215.33 194.60 54.36 o
3087 1 1 2 9 8.76 161.98 61.96 <
3088 1 2 2 9 46.60 136.97 57.62 <
3089 1 3 2 9 278.66 343.53 98.93 o
3090 1 4 2 9 891.08 828.47 138.08 o
3091 1 5 2 9 977.31 883.92 198.96 o
3092 1 6 2 9 522.09 600.11 215.26 <
3093 4 -7 9 -3 1268.52 1572.12 289.20 o
3093 1 -10 3 9 1268.52 1572.12 289.20 o
3094 4 -6 9 -3 7.50 52.18 85.88 <
3094 1 -9 3 9 7.50 52.18 85.88 <
3095 4 -5 9 -3 508.00 445.72 154.37 <
3095 1 -8 3 9 508.00 445.72 154.37 <
3096 4 -4 9 -3 326.25 313.09 82.62 o
3096 1 -7 3 9 326.25 313.09 82.62 o
3097 4 -3 9 -3 198.79 153.28 53.27 <
3097 1 -6 3 9 198.79 153.28 53.27 <
3098 4 -2 9 -3 1505.08 1439.55 147.87 o
3098 1 -5 3 9 1505.08 1439.55 147.87 o
3099 4 -1 9 -3 1.74 76.10 42.40 <
3099 1 -4 3 9 1.74 76.10 42.40 <
3100 4 0 9 -3 684.35 664.26 96.76 o
3100 1 -3 3 9 684.35 664.26 96.76 o
3101 4 1 9 -3 1264.44 1211.23 153.31 o
3101 1 -2 3 9 1264.44 1211.23 153.31 o
3102 4 2 9 -3 22.85 64.14 51.09 <
3102 1 -1 3 9 22.85 64.14 51.09 <
3103 4 3 9 -3 268.54 179.38 64.14 <
3103 1 0 3 9 268.54 179.38 64.14 <
3104 4 4 9 -3 867.59 851.30 127.21 o
3104 1 1 3 9 867.59 851.30 127.21 o
3105 4 5 9 -3 222.84 263.08 71.75 o
3105 1 2 3 9 222.84 263.08 71.75 o
3106 4 6 9 -3 783.78 900.18 139.16 o
3106 1 3 3 9 783.78 900.18 139.16 o
3107 4 7 9 -3 913.31 1057.85 321.81 o
3107 1 4 3 9 913.31 1057.85 321.81 o
3108 4 8 9 -3 75.01 78.27 88.05 <
3108 1 5 3 9 75.01 78.27 88.05 <
3109 1 -11 4 9 477.76 552.27 168.51 o
3110 1 -10 4 9 632.38 508.80 136.98 o
3111 1 -9 4 9 1036.30 1027.45 138.08 o
3112 1 -8 4 9 641.89 689.28 108.72 o
3113 1 -7 4 9 846.54 784.98 104.37 o
3114 1 -6 4 9 1234.81 1219.98 113.08 o
3115 1 -5 4 9 733.99 688.22 84.80 o
3116 1 -4 4 9 1182.74 1206.95 97.86 o
3117 1 -3 4 9 1472.22 1341.87 129.40 o
3118 1 -2 4 9 1210.06 1183.04 109.82 o
3119 1 -1 4 9 1571.91 1714.88 132.67 o
3120 1 0 4 9 900.56 1007.90 125.04 o
3121 1 1 4 9 749.63 737.14 101.11 o
3122 1 2 4 9 1108.16 1191.67 134.82 o
3123 1 3 4 9 532.35 658.83 113.07 o
3124 1 4 4 9 598.72 500.10 138.07 o
3125 1 5 4 9 864.43 1132.88 318.55 o
3126 1 6 4 9 432.85 1064.31 317.45 o
3127 2 -9 -9 5 9649.62 9712.49 735.65 o
3127 1 -10 5 9 9649.62 9712.49 735.65 o
3128 2 -8 -9 5 3779.70 3967.46 450.25 o
3128 1 -9 5 9 3779.70 3967.46 450.25 o
3129 2 -7 -9 5 4032.37 4098.21 356.74 o
3129 1 -8 5 9 4032.37 4098.21 356.74 o
3130 2 -6 -9 5 8007.64 8405.38 479.90 o
3130 1 -7 5 9 8007.64 8405.38 479.90 o
3131 2 -5 -9 5 3587.10 3378.11 236.01 o
3131 1 -6 5 9 3587.10 3378.11 236.01 o
3132 2 -4 -9 5 4358.54 4507.75 300.23 o
3132 1 -5 5 9 4358.54 4507.75 300.23 o
3133 2 -3 -9 5 7185.69 6932.22 289.48 o
3133 1 -4 5 9 7185.69 6932.22 289.48 o
3134 2 -2 -9 5 12903.10 12799.60 448.73 o
3134 1 -3 5 9 12903.10 12799.60 448.73 o
3135 2 -1 -9 5 18813.40 18935.00 537.45 o
3135 1 -2 5 9 18813.40 18935.00 537.45 o
3136 2 0 -9 5 7444.72 7150.06 333.02 o
3136 1 -1 5 9 7444.72 7150.06 333.02 o
3137 2 1 -9 5 6021.01 5656.45 293.76 o
3137 1 0 5 9 6021.01 5656.45 293.76 o
3138 2 2 -9 5 3850.15 3870.81 307.79 o
3138 1 1 5 9 3850.15 3870.81 307.79 o
3139 2 3 -9 5 3374.24 3340.83 301.24 o
3139 1 2 5 9 3374.24 3340.83 301.24 o
3140 2 4 -9 5 12364.50 11537.80 779.49 o
3140 1 3 5 9 12364.50 11537.80 779.49 o
3141 2 5 -9 5 2014.49 2185.46 357.72 o
3141 1 4 5 9 2014.49 2185.46 357.72 o
3142 2 6 -9 5 3064.28 2807.62 657.87 o
3142 1 5 5 9 3064.28 2807.62 657.87 o
3143 1 -10 6 9 856.00 624.05 147.86 o
3144 1 -9 6 9 736.53 826.27 145.68 o
3145 1 -8 6 9 662.02 703.41 120.68 o
3146 1 -7 6 9 95.61 101.10 46.74 <
3147 1 -6 6 9 100.70 123.93 35.87 o
3148 1 -5 6 9 403.71 308.75 69.58 o
3149 1 -4 6 9 432.80 540.32 94.58 o
3150 1 -3 6 9 2023.20 2221.75 155.51 o
3151 1 -2 6 9 2633.71 2694.04 192.51 o
3152 1 -1 6 9 773.64 902.40 114.16 o
3153 1 0 6 9 471.83 768.63 134.81 o
3154 1 1 6 9 138.09 261.99 78.27 o
3155 1 2 6 9 70.88 108.71 90.23 <
3156 1 3 6 9 569.10 622.95 142.42 o
3157 1 4 6 9 788.49 871.94 173.95 o
3158 1 5 6 9 1068.98 1252.50 339.22 o
3159 4 -5 9 -7 40.73 390.26 138.06 <
3159 1 -9 7 9 40.73 390.26 138.06 <
3160 4 -4 9 -7 217.62 110.88 84.79 <
3160 1 -8 7 9 217.62 110.88 84.79 <
3161 4 -3 9 -7 3040.51 3338.29 325.13 o
3161 1 -7 7 9 3040.51 3338.29 325.13 o
3162 4 -2 9 -7 2220.53 2460.67 264.23 o
3162 1 -6 7 9 2220.53 2460.67 264.23 o
3163 4 -1 9 -7 37.08 154.37 47.83 o
3163 1 -5 7 9 37.08 154.37 47.83 o
3164 4 0 9 -7 393.69 508.77 118.50 o
3164 1 -4 7 9 393.69 508.77 118.50 o
3165 4 1 9 -7 118.90 -23.92 50.01 <
3165 1 -3 7 9 118.90 -23.92 50.01 <
3166 4 2 9 -7 31.66 75.01 59.79 <
3166 1 -2 7 9 31.66 75.01 59.79 <
3167 4 3 9 -7 127.33 151.11 71.75 <
3167 1 -1 7 9 127.33 151.11 71.75 <
3168 4 4 9 -7 404.56 464.20 133.72 o
3168 1 0 7 9 404.56 464.20 133.72 o
3169 4 5 9 -7 773.80 674.04 142.42 o
3169 1 1 7 9 773.80 674.04 142.42 o
3170 4 6 9 -7 1615.17 1636.35 297.91 o
3170 1 2 7 9 1615.17 1636.35 297.91 o
3171 4 7 9 -7 2043.95 1884.33 328.37 o
3171 1 3 7 9 2043.95 1884.33 328.37 o
3172 4 8 9 -7 573.80 325.05 150.02 <
3172 1 4 7 9 573.80 325.05 150.02 <
3173 4 9 9 -7 128.89 164.15 56.53 <
3173 1 5 7 9 128.89 164.15 56.53 <
3174 1 -9 8 9 909.48 852.37 176.13 o
3175 1 -8 8 9 2049.94 2134.56 226.18 o
3176 1 -7 8 9 1498.52 1792.99 198.98 o
3177 1 -6 8 9 818.67 951.31 129.38 o
3178 1 -5 8 9 2168.43 2160.78 201.18 o
3179 1 -4 8 9 1741.59 1788.76 216.39 o
3180 1 -3 8 9 1862.79 2094.37 231.62 o
3181 1 -2 8 9 2761.27 3013.70 243.62 o
3182 1 -1 8 9 1546.84 1855.03 227.26 o
3183 1 0 8 9 2091.97 2355.42 275.12 o
3184 1 1 8 9 1625.28 1850.68 217.47 o
3185 1 2 8 9 577.53 816.47 164.16 o
3186 1 3 8 9 1627.30 1703.85 250.09 o
3187 1 4 8 9 1419.20 1612.45 289.22 o
3188 1 5 8 9 678.49 790.38 387.03 <
3189 2 -9 -9 9 11406.90 10708.90 884.79 o
3189 1 -9 9 9 11406.90 10708.90 884.79 o
3190 2 -8 -9 9 7414.36 7167.07 540.68 o
3190 1 -8 9 9 7414.36 7167.07 540.68 o
3191 2 -7 -9 9 2754.69 2990.33 333.83 o
3191 1 -7 9 9 2754.69 2990.33 333.83 o
3192 2 -6 -9 9 5308.26 5315.63 410.07 o
3192 1 -6 9 9 5308.26 5315.63 410.07 o
3193 2 -5 -9 9 5785.21 5966.52 530.84 o
3193 1 -5 9 9 5785.21 5966.52 530.84 o
3194 2 -4 -9 9 11417.20 12110.80 617.19 o
3194 1 -4 9 9 11417.20 12110.80 617.19 o
3195 2 -3 -9 9 12799.60 13056.90 740.33 o
3195 1 -3 9 9 12799.60 13056.90 740.33 o
3196 2 -2 -9 9 8572.45 9467.13 934.74 o
3196 1 -2 9 9 8572.45 9467.13 934.74 o
3197 2 -1 -9 9 14174.50 13686.10 1145.50 o
3197 1 -1 9 9 14174.50 13686.10 1145.50 o
3198 2 0 -9 9 6881.79 6052.17 759.38 o
3198 1 0 9 9 6881.79 6052.17 759.38 o
3199 2 1 -9 9 5110.05 5149.15 538.41 o
3199 1 1 9 9 5110.05 5149.15 538.41 o
3200 2 2 -9 9 6462.20 6024.41 611.36 o
3200 1 2 9 9 6462.20 6024.41 611.36 o
3201 2 3 -9 9 1753.65 1717.89 342.49 o
3201 1 3 9 9 1753.65 1717.89 342.49 o
3202 2 4 -9 9 13393.50 13133.20 1393.32 o
3202 1 4 9 9 13393.50 13133.20 1393.32 o
3203 1 -8 10 9 275.92 301.13 128.28 <
3204 1 -7 10 9 360.31 447.90 163.07 <
3205 1 -6 10 9 82.03 163.06 116.32 <
3206 1 -5 10 9 58.11 113.06 78.27 <
3207 1 -4 10 9 1398.47 1437.42 201.15 o
3208 1 -3 10 9 1079.63 1201.42 170.70 o
3209 1 -2 10 9 912.96 908.92 200.05 o
3210 1 -1 10 9 1698.26 1965.94 260.96 o
3211 1 0 10 9 270.31 221.77 103.28 <
3212 1 1 10 9 86.48 380.48 126.10 o
3213 1 2 10 9 302.66 356.58 115.24 o
3214 1 3 10 9 287.81 280.48 184.81 <
3215 4 -2 9 -11 63.99 305.47 288.08 <
3215 1 -7 11 9 63.99 305.47 288.08 <
3216 4 -1 9 -11 79.24 -63.05 89.14 <
3216 1 -6 11 9 79.24 -63.05 89.14 <
3217 4 0 9 -11 2014.17 1889.66 322.92 o
3217 1 -5 11 9 2014.17 1889.66 322.92 o
3218 4 1 9 -11 26.33 36.96 94.58 <
3218 1 -4 11 9 26.33 36.96 94.58 <
3219 4 2 9 -11 49.46 -16.31 95.66 <
3219 1 -3 11 9 49.46 -16.31 95.66 <
3220 4 3 9 -11 2.55 285.90 200.02 <
3220 1 -2 11 9 2.55 285.90 200.02 <
3221 4 4 9 -11 5.70 -333.73 243.51 <
3221 1 -1 11 9 5.70 -333.73 243.51 <
3222 4 5 9 -11 448.90 918.62 306.57 <
3222 1 0 11 9 448.90 918.62 306.57 <
3223 4 6 9 -11 857.46 1033.89 262.01 o
3223 1 1 11 9 857.46 1033.89 262.01 o
3224 4 7 9 -11 114.57 -116.32 192.41 <
3224 1 2 11 9 114.57 -116.32 192.41 <
3225 1 -6 12 9 1182.84 901.33 303.34 <
3226 1 -5 12 9 237.45 506.59 210.90 <
3227 1 -4 12 9 867.95 905.64 269.63 o
3228 1 -3 12 9 1294.64 1232.97 207.67 o
3229 1 -2 12 9 768.12 873.02 173.95 o
3230 1 -1 12 9 1586.18 1574.43 267.48 o
3231 1 0 12 9 492.45 797.97 173.94 o
3232 1 1 12 9 347.20 500.08 240.26 <
3233 1 2 12 9 1153.49 1203.58 325.09 o
3234 4 -7 10 10 20321.10 21139.00 2058.49 o
3234 3 -2 10 -10 20321.10 21139.00 2058.49 o
3234 2 -2 -10 -10 20321.10 21139.00 2058.49 o
3234 1 -7 -10 10 20321.10 21139.00 2058.49 o
3235 4 -6 10 10 13284.10 15147.80 1678.86 o
3235 3 -1 10 -10 13284.10 15147.80 1678.86 o
3235 2 -1 -10 -10 13284.10 15147.80 1678.86 o
3235 1 -6 -10 10 13284.10 15147.80 1678.86 o
3236 4 -5 10 10 22906.60 23863.90 1290.20 o
3236 3 0 10 -10 22906.60 23863.90 1290.20 o
3236 2 0 -10 -10 22906.60 23863.90 1290.20 o
3236 1 -5 -10 10 22906.60 23863.90 1290.20 o
3237 4 -4 10 10 15820.50 16649.20 1083.97 o
3237 3 1 10 -10 15820.50 16649.20 1083.97 o
3237 2 1 -10 -10 15820.50 16649.20 1083.97 o
3237 1 -4 -10 10 15820.50 16649.20 1083.97 o
3238 4 -3 10 10 20.12 93.49 128.27 <
3238 3 2 10 -10 20.12 93.49 128.27 <
3238 2 2 -10 -10 20.12 93.49 128.27 <
3238 1 -3 -10 10 20.12 93.49 128.27 <
3239 4 -2 10 10 59.30 278.29 179.37 <
3239 3 3 10 -10 59.30 278.29 179.37 <
3239 2 3 -10 -10 59.30 278.29 179.37 <
3239 1 -2 -10 10 59.30 278.29 179.37 <
3240 4 -1 10 10 15087.90 15679.00 1063.19 o
3240 3 4 10 -10 15087.90 15679.00 1063.19 o
3240 2 4 -10 -10 15087.90 15679.00 1063.19 o
3240 1 -1 -10 10 15087.90 15679.00 1063.19 o
3241 4 0 10 10 23985.90 26553.80 1170.61 o
3241 3 5 10 -10 23985.90 26553.80 1170.61 o
3241 2 5 -10 -10 23985.90 26553.80 1170.61 o
3241 1 0 -10 10 23985.90 26553.80 1170.61 o
3242 4 1 10 10 13685.40 15366.30 917.28 o
3242 3 6 10 -10 13685.40 15366.30 917.28 o
3242 2 6 -10 -10 13685.40 15366.30 917.28 o
3242 1 1 -10 10 13685.40 15366.30 917.28 o
3243 4 2 10 10 19750.10 19824.80 1666.49 o
3243 3 7 10 -10 19750.10 19824.80 1666.49 o
3243 2 7 -10 -10 19750.10 19824.80 1666.49 o
3243 1 2 -10 10 19750.10 19824.80 1666.49 o
3244 4 -9 10 6 5723.31 4912.22 515.47 o
3244 3 -5 6 -10 5723.31 4912.22 515.47 o
3244 2 -6 -10 -6 5723.31 4912.22 515.47 o
3244 1 -10 -6 10 5723.31 4912.22 515.47 o
3245 4 -8 10 6 11334.60 11947.10 913.91 o
3245 3 -4 6 -10 11334.60 11947.10 913.91 o
3245 2 -5 -10 -6 11334.60 11947.10 913.91 o
3245 1 -9 -6 10 11334.60 11947.10 913.91 o
3246 4 -7 10 6 80184.70 82143.60 1757.49 o
3246 3 -3 6 -10 80184.70 82143.60 1757.49 o
3246 2 -4 -10 -6 80184.70 82143.60 1757.49 o
3246 1 -8 -6 10 80184.70 82143.60 1757.49 o
3247 4 -6 10 6 15705.50 15616.20 744.51 o
3247 3 -2 6 -10 15705.50 15616.20 744.51 o
3247 2 -3 -10 -6 15705.50 15616.20 744.51 o
3247 1 -7 -6 10 15705.50 15616.20 744.51 o
3248 4 -5 10 6 8749.20 10992.80 623.34 o
3248 3 -1 6 -10 8749.20 10992.80 623.34 o
3248 2 -2 -10 -6 8749.20 10992.80 623.34 o
3248 1 -6 -6 10 8749.20 10992.80 623.34 o
3249 4 -4 10 6 56356.50 59294.00 1865.77 o
3249 3 0 6 -10 56356.50 59294.00 1865.77 o
3249 2 -1 -10 -6 56356.50 59294.00 1865.77 o
3249 1 -5 -6 10 56356.50 59294.00 1865.77 o
3250 4 -3 10 6 9315.25 9467.61 736.56 o
3250 3 1 6 -10 9315.25 9467.61 736.56 o
3250 2 0 -10 -6 9315.25 9467.61 736.56 o
3250 1 -4 -6 10 9315.25 9467.61 736.56 o
3251 4 -2 10 6 1993.28 2013.64 250.07 o
3251 3 2 6 -10 1993.28 2013.64 250.07 o
3251 2 1 -10 -6 1993.28 2013.64 250.07 o
3251 1 -3 -6 10 1993.28 2013.64 250.07 o
3252 4 -1 10 6 1445.51 1677.55 252.23 o
3252 3 3 6 -10 1445.51 1677.55 252.23 o
3252 2 2 -10 -6 1445.51 1677.55 252.23 o
3252 1 -2 -6 10 1445.51 1677.55 252.23 o
3253 4 0 10 6 9469.53 9695.72 606.05 o
3253 3 4 6 -10 9469.53 9695.72 606.05 o
3253 2 3 -10 -6 9469.53 9695.72 606.05 o
3253 1 -1 -6 10 9469.53 9695.72 606.05 o
3254 4 1 10 6 56695.00 58189.60 1567.41 o
3254 3 5 6 -10 56695.00 58189.60 1567.41 o
3254 2 4 -10 -6 56695.00 58189.60 1567.41 o
3254 1 0 -6 10 56695.00 58189.60 1567.41 o
3255 4 2 10 6 9194.53 9201.75 648.41 o
3255 3 6 6 -10 9194.53 9201.75 648.41 o
3255 2 5 -10 -6 9194.53 9201.75 648.41 o
3255 1 1 -6 10 9194.53 9201.75 648.41 o
3256 4 3 10 6 14837.90 15049.80 859.80 o
3256 3 7 6 -10 14837.90 15049.80 859.80 o
3256 2 6 -10 -6 14837.90 15049.80 859.80 o
3256 1 2 -6 10 14837.90 15049.80 859.80 o
3257 4 4 10 6 77197.20 79173.60 2356.13 o
3257 3 8 6 -10 77197.20 79173.60 2356.13 o
3257 2 7 -10 -6 77197.20 79173.60 2356.13 o
3257 1 3 -6 10 77197.20 79173.60 2356.13 o
3258 4 5 10 6 10632.20 12110.90 822.48 o
3258 3 9 6 -10 10632.20 12110.90 822.48 o
3258 2 8 -10 -6 10632.20 12110.90 822.48 o
3258 1 4 -6 10 10632.20 12110.90 822.48 o
3259 4 -9 10 2 30292.40 29302.70 1271.19 o
3259 3 -6 2 -10 30292.40 29302.70 1271.19 o
3259 2 -8 -10 -2 30292.40 29302.70 1271.19 o
3259 1 -11 -2 10 30292.40 29302.70 1271.19 o
3260 4 -8 10 2 11328.90 11090.00 736.57 o
3260 3 -5 2 -10 11328.90 11090.00 736.57 o
3260 2 -7 -10 -2 11328.90 11090.00 736.57 o
3260 1 -10 -2 10 11328.90 11090.00 736.57 o
3261 4 -7 10 2 19976.80 19299.00 742.56 o
3261 3 -4 2 -10 19976.80 19299.00 742.56 o
3261 2 -6 -10 -2 19976.80 19299.00 742.56 o
3261 1 -9 -2 10 19976.80 19299.00 742.56 o
3262 4 -6 10 2 82523.50 79728.50 1315.64 o
3262 3 -3 2 -10 82523.50 79728.50 1315.64 o
3262 2 -5 -10 -2 82523.50 79728.50 1315.64 o
3262 1 -8 -2 10 82523.50 79728.50 1315.64 o
3263 4 -5 10 2 27895.30 27483.00 864.16 o
3263 3 -2 2 -10 27895.30 27483.00 864.16 o
3263 2 -4 -10 -2 27895.30 27483.00 864.16 o
3263 1 -7 -2 10 27895.30 27483.00 864.16 o
3264 4 -4 10 2 18972.10 19026.70 691.54 o
3264 3 -1 2 -10 18972.10 19026.70 691.54 o
3264 2 -3 -10 -2 18972.10 19026.70 691.54 o
3264 1 -6 -2 10 18972.10 19026.70 691.54 o
3265 4 -3 10 2 54048.80 53503.70 1128.96 o
3265 3 0 2 -10 54048.80 53503.70 1128.96 o
3265 2 -2 -10 -2 54048.80 53503.70 1128.96 o
3265 1 -5 -2 10 54048.80 53503.70 1128.96 o
3266 4 -2 10 2 19349.00 19284.30 933.60 o
3266 3 1 2 -10 19349.00 19284.30 933.60 o
3266 2 -1 -10 -2 19349.00 19284.30 933.60 o
3266 1 -4 -2 10 19349.00 19284.30 933.60 o
3267 4 -1 10 2 250.90 525.07 281.56 <
3267 3 2 2 -10 250.90 525.07 281.56 <
3267 2 0 -10 -2 250.90 525.07 281.56 <
3267 1 -3 -2 10 250.90 525.07 281.56 <
3268 4 0 10 2 130.54 208.72 72.84 <
3268 3 3 2 -10 130.54 208.72 72.84 <
3268 2 1 -10 -2 130.54 208.72 72.84 <
3268 1 -2 -2 10 130.54 208.72 72.84 <
3269 4 1 10 2 18773.80 17683.40 907.26 o
3269 3 4 2 -10 18773.80 17683.40 907.26 o
3269 2 2 -10 -2 18773.80 17683.40 907.26 o
3269 1 -1 -2 10 18773.80 17683.40 907.26 o
3270 4 2 10 2 55606.90 54708.90 1630.05 o
3270 3 5 2 -10 55606.90 54708.90 1630.05 o
3270 2 3 -10 -2 55606.90 54708.90 1630.05 o
3270 1 0 -2 10 55606.90 54708.90 1630.05 o
3271 4 3 10 2 19395.50 20112.70 850.51 o
3271 3 6 2 -10 19395.50 20112.70 850.51 o
3271 2 4 -10 -2 19395.50 20112.70 850.51 o
3271 1 1 -2 10 19395.50 20112.70 850.51 o
3272 4 4 10 2 27002.30 25379.00 997.07 o
3272 3 7 2 -10 27002.30 25379.00 997.07 o
3272 2 5 -10 -2 27002.30 25379.00 997.07 o
3272 1 2 -2 10 27002.30 25379.00 997.07 o
3273 4 5 10 2 79131.90 73660.60 1781.63 o
3273 3 8 2 -10 79131.90 73660.60 1781.63 o
3273 2 6 -10 -2 79131.90 73660.60 1781.63 o
3273 1 3 -2 10 79131.90 73660.60 1781.63 o
3274 4 6 10 2 18768.20 17730.30 900.34 o
3274 3 9 2 -10 18768.20 17730.30 900.34 o
3274 2 7 -10 -2 18768.20 17730.30 900.34 o
3274 1 4 -2 10 18768.20 17730.30 900.34 o
3275 4 7 10 2 10208.50 9436.01 682.08 o
3275 3 10 2 -10 10208.50 9436.01 682.08 o
3275 2 8 -10 -2 10208.50 9436.01 682.08 o
3275 1 5 -2 10 10208.50 9436.01 682.08 o
3276 4 8 10 2 27438.60 25177.50 2154.77 o
3276 3 11 2 -10 27438.60 25177.50 2154.77 o
3276 2 9 -10 -2 27438.60 25177.50 2154.77 o
3276 1 6 -2 10 27438.60 25177.50 2154.77 o
3277 3 -6 0 -10 785.91 639.27 190.26 o
3277 1 -11 0 10 785.91 639.27 190.26 o
3278 3 -5 0 -10 172.60 -44.57 98.92 <
3278 1 -10 0 10 172.60 -44.57 98.92 <
3279 3 -4 0 -10 84.03 211.98 109.80 <
3279 1 -9 0 10 84.03 211.98 109.80 <
3280 3 -3 0 -10 889.97 987.20 143.51 o
3280 1 -8 0 10 889.97 987.20 143.51 o
3281 3 -2 0 -10 449.65 550.07 132.62 o
3281 1 -7 0 10 449.65 550.07 132.62 o
3282 3 -1 0 -10 10.87 63.05 57.62 <
3282 1 -6 0 10 10.87 63.05 57.62 <
3283 3 0 0 -10 324.10 566.39 143.50 o
3283 1 -5 0 10 324.10 566.39 143.50 o
3284 3 1 0 -10 684.24 763.17 176.12 o
3284 1 -4 0 10 684.24 763.17 176.12 o
3285 3 2 0 -10 639.24 562.11 102.20 o
3285 1 -3 0 10 639.24 562.11 102.20 o
3286 3 3 0 -10 868.10 830.62 135.90 o
3286 1 -2 0 10 868.10 830.62 135.90 o
3287 3 4 0 -10 374.94 297.90 92.41 o
3287 1 -1 0 10 374.94 297.90 92.41 o
3288 3 5 0 -10 284.91 332.66 104.36 o
3288 1 0 0 10 284.91 332.66 104.36 o
3289 3 6 0 -10 82.66 294.60 128.27 <
3289 1 1 0 10 82.66 294.60 128.27 <
3290 3 7 0 -10 122.26 60.88 53.27 <
3290 1 2 0 10 122.26 60.88 53.27 <
3291 3 8 0 -10 947.67 998.06 232.66 o
3291 1 3 0 10 947.67 998.06 232.66 o
3292 3 9 0 -10 71.97 6.52 54.35 <
3292 1 4 0 10 71.97 6.52 54.35 <
3293 3 10 0 -10 25.28 -35.87 76.10 <
3293 1 5 0 10 25.28 -35.87 76.10 <
3294 3 -6 -1 -10 1680.91 1462.36 258.77 o
3294 1 -11 1 10 1680.91 1462.36 258.77 o
3295 3 -5 -1 -10 2682.36 2779.20 239.21 o
3295 1 -10 1 10 2682.36 2779.20 239.21 o
3296 3 -4 -1 -10 3676.55 3564.78 258.82 o
3296 1 -9 1 10 3676.55 3564.78 258.82 o
3297 3 -3 -1 -10 1851.97 1727.83 143.53 o
3297 1 -8 1 10 1851.97 1727.83 143.53 o
3298 3 -2 -1 -10 1353.16 1301.44 120.68 o
3298 1 -7 1 10 1353.16 1301.44 120.68 o
3299 3 -1 -1 -10 599.49 621.84 92.41 o
3299 1 -6 1 10 599.49 621.84 92.41 o
3300 3 0 -1 -10 1360.01 1440.65 170.70 o
3300 1 -5 1 10 1360.01 1440.65 170.70 o
3301 3 1 -1 -10 5955.58 6110.66 292.69 o
3301 1 -4 1 10 5955.58 6110.66 292.69 o
3302 3 2 -1 -10 4801.01 4608.56 224.12 o
3302 1 -3 1 10 4801.01 4608.56 224.12 o
3303 3 3 -1 -10 4467.77 4441.36 227.40 o
3303 1 -2 1 10 4467.77 4441.36 227.40 o
3304 3 4 -1 -10 5282.08 5165.92 253.56 o
3304 1 -1 1 10 5282.08 5165.92 253.56 o
3305 3 5 -1 -10 1145.62 1106.91 134.83 o
3305 1 0 1 10 1145.62 1106.91 134.83 o
3306 3 6 -1 -10 377.05 342.46 88.06 o
3306 1 1 1 10 377.05 342.46 88.06 o
3307 3 7 -1 -10 1077.46 1150.37 157.66 o
3307 1 2 1 10 1077.46 1150.37 157.66 o
3308 3 8 -1 -10 1888.64 1969.21 209.86 o
3308 1 3 1 10 1888.64 1969.21 209.86 o
3309 3 9 -1 -10 2936.37 2725.59 262.12 o
3309 1 4 1 10 2936.37 2725.59 262.12 o
3310 3 10 -1 -10 1919.44 2050.95 268.60 o
3310 1 5 1 10 1919.44 2050.95 268.60 o
3311 4 -7 10 -2 11156.10 11117.90 777.81 o
3311 3 -5 -2 -10 11156.10 11117.90 777.81 o
3311 2 -8 -10 2 11156.10 11117.90 777.81 o
3311 1 -10 2 10 11156.10 11117.90 777.81 o
3312 4 -6 10 -2 19849.30 19766.30 972.20 o
3312 3 -4 -2 -10 19849.30 19766.30 972.20 o
3312 2 -7 -10 2 19849.30 19766.30 972.20 o
3312 1 -9 2 10 19849.30 19766.30 972.20 o
3313 4 -5 10 -2 82355.10 80625.80 1869.22 o
3313 3 -3 -2 -10 82355.10 80625.80 1869.22 o
3313 2 -6 -10 2 82355.10 80625.80 1869.22 o
3313 1 -8 2 10 82355.10 80625.80 1869.22 o
3314 4 -4 10 -2 27866.00 28398.70 641.84 o
3314 3 -2 -2 -10 27866.00 28398.70 641.84 o
3314 2 -5 -10 2 27866.00 28398.70 641.84 o
3314 1 -7 2 10 27866.00 28398.70 641.84 o
3315 4 -3 10 -2 18932.10 18934.50 582.62 o
3315 3 -1 -2 -10 18932.10 18934.50 582.62 o
3315 2 -4 -10 2 18932.10 18934.50 582.62 o
3315 1 -6 2 10 18932.10 18934.50 582.62 o
3316 4 -2 10 -2 54396.50 51752.20 1111.86 o
3316 3 0 -2 -10 54396.50 51752.20 1111.86 o
3316 2 -3 -10 2 54396.50 51752.20 1111.86 o
3316 1 -5 2 10 54396.50 51752.20 1111.86 o
3317 4 -1 10 -2 19148.00 19334.60 631.71 o
3317 3 1 -2 -10 19148.00 19334.60 631.71 o
3317 2 -2 -10 2 19148.00 19334.60 631.71 o
3317 1 -4 2 10 19148.00 19334.60 631.71 o
3318 4 0 10 -2 251.46 203.29 64.14 o
3318 3 2 -2 -10 251.46 203.29 64.14 o
3318 2 -1 -10 2 251.46 203.29 64.14 o
3318 1 -3 2 10 251.46 203.29 64.14 o
3319 4 1 10 -2 129.98 279.39 85.88 o
3319 3 3 -2 -10 129.98 279.39 85.88 o
3319 2 0 -10 2 129.98 279.39 85.88 o
3319 1 -2 2 10 129.98 279.39 85.88 o
3320 4 2 10 -2 18974.50 18516.20 657.99 o
3320 3 4 -2 -10 18974.50 18516.20 657.99 o
3320 2 1 -10 2 18974.50 18516.20 657.99 o
3320 1 -1 2 10 18974.50 18516.20 657.99 o
3321 4 3 10 -2 55259.30 54998.20 1197.80 o
3321 3 5 -2 -10 55259.30 54998.20 1197.80 o
3321 2 2 -10 2 55259.30 54998.20 1197.80 o
3321 1 0 2 10 55259.30 54998.20 1197.80 o
3322 4 4 10 -2 19435.50 19995.90 624.02 o
3322 3 6 -2 -10 19435.50 19995.90 624.02 o
3322 2 3 -10 2 19435.50 19995.90 624.02 o
3322 1 1 2 10 19435.50 19995.90 624.02 o
3323 4 5 10 -2 27031.70 25875.50 907.74 o
3323 3 7 -2 -10 27031.70 25875.50 907.74 o
3323 2 4 -10 2 27031.70 25875.50 907.74 o
3323 1 2 2 10 27031.70 25875.50 907.74 o
3324 4 6 10 -2 79299.40 75247.90 1646.15 o
3324 3 8 -2 -10 79299.40 75247.90 1646.15 o
3324 2 5 -10 2 79299.40 75247.90 1646.15 o
3324 1 3 2 10 79299.40 75247.90 1646.15 o
3325 4 7 10 -2 18895.30 16980.90 1246.67 o
3325 3 9 -2 -10 18895.30 16980.90 1246.67 o
3325 2 6 -10 2 18895.30 16980.90 1246.67 o
3325 1 4 2 10 18895.30 16980.90 1246.67 o
3326 3 -6 -3 -10 1024.54 1036.03 236.99 o
3326 1 -11 3 10 1024.54 1036.03 236.99 o
3327 3 -5 -3 -10 1571.50 1465.58 200.05 o
3327 1 -10 3 10 1571.50 1465.58 200.05 o
3328 3 -4 -3 -10 896.81 879.51 129.37 o
3328 1 -9 3 10 896.81 879.51 129.37 o
3329 3 -3 -3 -10 566.78 620.74 108.71 o
3329 1 -8 3 10 566.78 620.74 108.71 o
3330 3 -2 -3 -10 5.04 75.01 42.40 <
3330 1 -7 3 10 5.04 75.01 42.40 <
3331 3 -1 -3 -10 36.44 23.92 42.40 <
3331 1 -6 3 10 36.44 23.92 42.40 <
3332 3 0 -3 -10 290.90 306.56 58.70 o
3332 1 -5 3 10 290.90 306.56 58.70 o
3333 3 1 -3 -10 343.46 500.07 86.97 o
3333 1 -4 3 10 343.46 500.07 86.97 o
3334 3 2 -3 -10 3252.09 3162.94 201.22 o
3334 1 -3 3 10 3252.09 3162.94 201.22 o
3335 3 3 -3 -10 3132.58 3198.92 228.42 o
3335 1 -2 3 10 3132.58 3198.92 228.42 o
3336 3 4 -3 -10 209.09 241.35 76.10 o
3336 1 -1 3 10 209.09 241.35 76.10 o
3337 3 5 -3 -10 119.54 186.99 58.71 o
3337 1 0 3 10 119.54 186.99 58.71 o
3338 3 6 -3 -10 6.23 42.40 51.09 <
3338 1 1 3 10 6.23 42.40 51.09 <
3339 3 7 -3 -10 2.14 25.00 55.44 <
3339 1 2 3 10 2.14 25.00 55.44 <
3340 3 8 -3 -10 307.11 165.25 81.54 <
3340 1 3 3 10 307.11 165.25 81.54 <
3341 3 9 -3 -10 587.59 402.27 150.04 <
3341 1 4 3 10 587.59 402.27 150.04 <
3342 3 10 -3 -10 1190.87 1162.32 209.85 o
3342 1 5 3 10 1190.87 1162.32 209.85 o
3343 3 11 -3 -10 446.34 654.51 393.57 <
3343 1 6 3 10 446.34 654.51 393.57 <
3344 3 -6 -4 -10 19.32 118.49 126.10 <
3344 1 -11 4 10 19.32 118.49 126.10 <
3345 3 -5 -4 -10 396.38 484.86 116.32 o
3345 1 -10 4 10 396.38 484.86 116.32 o
3346 3 -4 -4 -10 512.58 530.51 102.19 o
3346 1 -9 4 10 512.58 530.51 102.19 o
3347 3 -3 -4 -10 21.11 44.57 56.53 <
3347 1 -8 4 10 21.11 44.57 56.53 <
3348 3 -2 -4 -10 26.89 81.53 42.40 <
3348 1 -7 4 10 26.89 81.53 42.40 <
3349 3 -1 -4 -10 166.43 176.11 44.57 o
3349 1 -6 4 10 166.43 176.11 44.57 o
3350 3 0 -4 -10 10.71 86.97 53.27 <
3350 1 -5 4 10 10.71 86.97 53.27 <
3351 3 1 -4 -10 49.97 106.54 43.48 <
3351 1 -4 4 10 49.97 106.54 43.48 <
3352 3 2 -4 -10 253.84 261.99 56.53 o
3352 1 -3 4 10 253.84 261.99 56.53 o
3353 3 3 -4 -10 112.39 111.97 41.31 <
3353 1 -2 4 10 112.39 111.97 41.31 <
3354 3 4 -4 -10 109.37 153.28 51.09 o
3354 1 -1 4 10 109.37 153.28 51.09 o
3355 3 5 -4 -10 4.23 31.53 54.35 <
3355 1 0 4 10 4.23 31.53 54.35 <
3356 3 6 -4 -10 30.66 81.53 50.01 <
3356 1 1 4 10 30.66 81.53 50.01 <
3357 3 7 -4 -10 34.26 -89.14 50.01 <
3357 1 2 4 10 34.26 -89.14 50.01 <
3358 3 8 -4 -10 98.33 36.96 91.31 <
3358 1 3 4 10 98.33 36.96 91.31 <
3359 3 9 -4 -10 225.13 56.53 67.40 <
3359 1 4 4 10 225.13 56.53 67.40 <
3360 3 10 -4 -10 466.80 603.35 200.03 o
3360 1 5 4 10 466.80 603.35 200.03 o
3361 3 11 -4 -10 145.75 4.35 86.97 <
3361 1 6 4 10 145.75 4.35 86.97 <
3362 3 -6 -5 -10 2213.43 2052.71 359.88 o
3362 1 -11 5 10 2213.43 2052.71 359.88 o
3363 3 -5 -5 -10 3012.94 2929.57 325.14 o
3363 1 -10 5 10 3012.94 2929.57 325.14 o
3364 3 -4 -5 -10 2122.21 2036.70 243.58 o
3364 1 -9 5 10 2122.21 2036.70 243.58 o
3365 3 -3 -5 -10 2045.49 2032.17 181.58 o
3365 1 -8 5 10 2045.49 2032.17 181.58 o
3366 3 -2 -5 -10 883.96 964.36 126.12 o
3366 1 -7 5 10 883.96 964.36 126.12 o
3367 3 -1 -5 -10 1297.16 1329.75 126.12 o
3367 1 -6 5 10 1297.16 1329.75 126.12 o
3368 3 0 -5 -10 2043.44 1939.80 146.79 o
3368 1 -5 5 10 2043.44 1939.80 146.79 o
3369 3 1 -5 -10 2003.46 2073.63 168.54 o
3369 1 -4 5 10 2003.46 2073.63 168.54 o
3370 3 2 -5 -10 6175.16 6302.60 295.98 o
3370 1 -3 5 10 6175.16 6302.60 295.98 o
3371 3 3 -5 -10 6126.76 6083.93 266.60 o
3371 1 -2 5 10 6126.76 6083.93 266.60 o
3372 3 4 -5 -10 1789.03 1844.28 151.15 o
3372 1 -1 5 10 1789.03 1844.28 151.15 o
3373 3 5 -5 -10 1586.21 1897.57 180.51 o
3373 1 0 5 10 1586.21 1897.57 180.51 o
3374 3 6 -5 -10 1291.21 1470.01 162.01 o
3374 1 1 5 10 1291.21 1470.01 162.01 o
3375 3 7 -5 -10 928.30 844.76 147.86 o
3375 1 2 5 10 928.30 844.76 147.86 o
3376 3 8 -5 -10 1633.33 1678.92 256.62 o
3376 1 3 5 10 1633.33 1678.92 256.62 o
3377 3 9 -5 -10 2323.42 2432.43 312.07 o
3377 1 4 5 10 2323.42 2432.43 312.07 o
3378 3 10 -5 -10 2804.09 3121.05 813.43 o
3378 1 5 5 10 2804.09 3121.05 813.43 o
3379 4 -6 10 -6 5716.76 5534.24 801.48 o
3379 3 -5 -6 -10 5716.76 5534.24 801.48 o
3379 2 -9 -10 6 5716.76 5534.24 801.48 o
3379 1 -10 6 10 5716.76 5534.24 801.48 o
3380 4 -5 10 -6 11284.90 11256.90 782.23 o
3380 3 -4 -6 -10 11284.90 11256.90 782.23 o
3380 2 -8 -10 6 11284.90 11256.90 782.23 o
3380 1 -9 6 10 11284.90 11256.90 782.23 o
3381 4 -4 10 -6 79828.80 79269.90 1638.93 o
3381 3 -3 -6 -10 79828.80 79269.90 1638.93 o
3381 2 -7 -10 6 79828.80 79269.90 1638.93 o
3381 1 -8 6 10 79828.80 79269.90 1638.93 o
3382 4 -3 10 -6 15590.40 16472.30 701.99 o
3382 3 -2 -6 -10 15590.40 16472.30 701.99 o
3382 2 -6 -10 6 15590.40 16472.30 701.99 o
3382 1 -7 6 10 15590.40 16472.30 701.99 o
3383 4 -2 10 -6 8831.28 9264.87 500.45 o
3383 3 -1 -6 -10 8831.28 9264.87 500.45 o
3383 2 -5 -10 6 8831.28 9264.87 500.45 o
3383 1 -6 6 10 8831.28 9264.87 500.45 o
3384 4 -1 10 -6 56259.20 58240.30 1441.81 o
3384 3 0 -6 -10 56259.20 58240.30 1441.81 o
3384 2 -4 -10 6 56259.20 58240.30 1441.81 o
3384 1 -5 6 10 56259.20 58240.30 1441.81 o
3385 4 0 10 -6 9395.20 10062.40 377.56 o
3385 3 1 -6 -10 9395.20 10062.40 377.56 o
3385 2 -3 -10 6 9395.20 10062.40 377.56 o
3385 1 -4 6 10 9395.20 10062.40 377.56 o
3386 4 1 10 -6 1917.29 1801.49 181.56 o
3386 3 2 -6 -10 1917.29 1801.49 181.56 o
3386 2 -2 -10 6 1917.29 1801.49 181.56 o
3386 1 -3 6 10 1917.29 1801.49 181.56 o
3387 4 2 10 -6 1521.43 1716.81 179.40 o
3387 3 3 -6 -10 1521.43 1716.81 179.40 o
3387 2 -1 -10 6 1521.43 1716.81 179.40 o
3387 1 -2 6 10 1521.43 1716.81 179.40 o
3388 4 3 10 -6 9389.62 9581.84 463.48 o
3388 3 4 -6 -10 9389.62 9581.84 463.48 o
3388 2 0 -10 6 9389.62 9581.84 463.48 o
3388 1 -1 6 10 9389.62 9581.84 463.48 o
3389 4 4 10 -6 56792.20 54954.60 1475.78 o
3389 3 5 -6 -10 56792.20 54954.60 1475.78 o
3389 2 1 -10 6 56792.20 54954.60 1475.78 o
3389 1 0 6 10 56792.20 54954.60 1475.78 o
3390 4 5 10 -6 9112.50 9241.34 516.73 o
3390 3 6 -6 -10 9112.50 9241.34 516.73 o
3390 2 2 -10 6 9112.50 9241.34 516.73 o
3390 1 1 6 10 9112.50 9241.34 516.73 o
3391 4 6 10 -6 14952.70 14375.30 869.68 o
3391 3 7 -6 -10 14952.70 14375.30 869.68 o
3391 2 3 -10 6 14952.70 14375.30 869.68 o
3391 1 2 6 10 14952.70 14375.30 869.68 o
3392 4 7 10 -6 77551.90 73815.40 2107.42 o
3392 3 8 -6 -10 77551.90 73815.40 2107.42 o
3392 2 4 -10 6 77551.90 73815.40 2107.42 o
3392 1 3 6 10 77551.90 73815.40 2107.42 o
3393 4 8 10 -6 10681.80 9421.92 1183.72 o
3393 3 9 -6 -10 10681.80 9421.92 1183.72 o
3393 2 5 -10 6 10681.80 9421.92 1183.72 o
3393 1 4 6 10 10681.80 9421.92 1183.72 o
3394 3 -5 -7 -10 123.32 20.65 76.10 <
3394 1 -10 7 10 123.32 20.65 76.10 <
3395 3 -4 -7 -10 156.60 219.59 83.71 <
3395 1 -9 7 10 156.60 219.59 83.71 <
3396 3 -3 -7 -10 50.69 -60.88 57.62 <
3396 1 -8 7 10 50.69 -60.88 57.62 <
3397 3 -2 -7 -10 250.61 291.35 75.01 o
3397 1 -7 7 10 250.61 291.35 75.01 o
3398 3 -1 -7 -10 895.00 1065.51 135.91 o
3398 1 -6 7 10 895.00 1065.51 135.91 o
3399 3 0 -7 -10 475.12 550.11 100.02 o
3399 1 -5 7 10 475.12 550.11 100.02 o
3400 3 1 -7 -10 199.72 329.39 101.10 o
3400 1 -4 7 10 199.72 329.39 101.10 o
3401 3 2 -7 -10 61.34 120.67 72.83 <
3401 1 -3 7 10 61.34 120.67 72.83 <
3402 3 3 -7 -10 34.56 81.53 50.01 <
3402 1 -2 7 10 34.56 81.53 50.01 <
3403 3 4 -7 -10 107.66 103.28 59.79 <
3403 1 -1 7 10 107.66 103.28 59.79 <
3404 3 5 -7 -10 651.59 703.38 134.81 o
3404 1 0 7 10 651.59 703.38 134.81 o
3405 3 6 -7 -10 1142.12 1202.45 178.30 o
3405 1 1 7 10 1142.12 1202.45 178.30 o
3406 3 7 -7 -10 434.18 505.51 113.06 o
3406 1 2 7 10 434.18 505.51 113.06 o
3407 3 8 -7 -10 112.82 178.28 83.71 <
3407 1 3 7 10 112.82 178.28 83.71 <
3408 3 9 -7 -10 80.80 18.48 108.71 <
3408 1 4 7 10 80.80 18.48 108.71 <
3409 3 -4 -8 -10 394.99 384.84 123.93 o
3409 1 -9 8 10 394.99 384.84 123.93 o
3410 3 -3 -8 -10 35.44 216.33 118.49 <
3410 1 -8 8 10 35.44 216.33 118.49 <
3411 3 -2 -8 -10 215.18 173.95 69.58 <
3411 1 -7 8 10 215.18 173.95 69.58 <
3412 3 -1 -8 -10 1013.33 946.92 138.07 o
3412 1 -6 8 10 1013.33 946.92 138.07 o
3413 3 0 -8 -10 397.35 477.26 129.37 o
3413 1 -5 8 10 397.35 477.26 129.37 o
3414 3 1 -8 -10 198.93 181.55 79.36 <
3414 1 -4 8 10 198.93 181.55 79.36 <
3415 3 2 -8 -10 250.67 293.52 114.14 <
3415 1 -3 8 10 250.67 293.52 114.14 <
3416 3 3 -8 -10 149.97 397.89 146.76 <
3416 1 -2 8 10 149.97 397.89 146.76 <
3417 3 4 -8 -10 374.60 341.35 98.93 o
3417 1 -1 8 10 374.60 341.35 98.93 o
3418 3 5 -8 -10 431.79 421.81 128.28 o
3418 1 0 8 10 431.79 421.81 128.28 o
3419 3 6 -8 -10 662.16 659.95 145.69 o
3419 1 1 8 10 662.16 659.95 145.69 o
3420 3 7 -8 -10 537.97 816.41 164.15 o
3420 1 2 8 10 537.97 816.41 164.15 o
3421 3 8 -8 -10 23.99 8.70 83.71 <
3421 1 3 8 10 23.99 8.70 83.71 <
3422 3 9 -8 -10 408.06 160.90 204.38 <
3422 1 4 8 10 408.06 160.90 204.38 <
3423 3 -4 -9 -10 860.81 587.07 159.81 o
3423 1 -9 9 10 860.81 587.07 159.81 o
3424 3 -3 -9 -10 259.35 219.60 95.67 <
3424 1 -8 9 10 259.35 219.60 95.67 <
3425 3 -2 -9 -10 176.43 140.24 108.71 <
3425 1 -7 9 10 176.43 140.24 108.71 <
3426 3 -1 -9 -10 18.01 -92.40 122.84 <
3426 1 -6 9 10 18.01 -92.40 122.84 <
3427 3 0 -9 -10 135.69 100.01 67.40 <
3427 1 -5 9 10 135.69 100.01 67.40 <
3428 3 1 -9 -10 1447.99 1558.03 183.75 o
3428 1 -4 9 10 1447.99 1558.03 183.75 o
3429 3 2 -9 -10 845.88 843.65 156.55 o
3429 1 -3 9 10 845.88 843.65 156.55 o
3430 3 3 -9 -10 733.08 691.46 181.56 o
3430 1 -2 9 10 733.08 691.46 181.56 o
3431 3 4 -9 -10 1251.42 1440.66 213.11 o
3431 1 -1 9 10 1251.42 1440.66 213.11 o
3432 3 5 -9 -10 168.29 306.56 126.10 <
3432 1 0 9 10 168.29 306.56 126.10 <
3433 3 6 -9 -10 5.66 114.14 103.27 <
3433 1 1 9 10 5.66 114.14 103.27 <
3434 3 7 -9 -10 173.82 205.46 86.97 <
3434 1 2 9 10 173.82 205.46 86.97 <
3435 3 8 -9 -10 524.87 513.11 142.41 o
3435 1 3 9 10 524.87 513.11 142.41 o
3436 3 9 -9 -10 681.91 818.65 350.08 <
3436 1 4 9 10 681.91 818.65 350.08 <
3437 4 -2 10 -10 20224.90 19437.30 1110.27 o
3437 3 -2 -10 -10 20224.90 19437.30 1110.27 o
3437 2 -7 -10 10 20224.90 19437.30 1110.27 o
3437 1 -7 10 10 20224.90 19437.30 1110.27 o
3438 4 -1 10 -10 13357.00 13755.90 899.87 o
3438 3 -1 -10 -10 13357.00 13755.90 899.87 o
3438 2 -6 -10 10 13357.00 13755.90 899.87 o
3438 1 -6 10 10 13357.00 13755.90 899.87 o
3439 4 0 10 -10 23099.40 22977.70 1110.72 o
3439 3 0 -10 -10 23099.40 22977.70 1110.72 o
3439 2 -5 -10 10 23099.40 22977.70 1110.72 o
3439 1 -5 10 10 23099.40 22977.70 1110.72 o
3440 4 1 10 -10 15693.10 15486.40 743.25 o
3440 3 1 -10 -10 15693.10 15486.40 743.25 o
3440 2 -4 -10 10 15693.10 15486.40 743.25 o
3440 1 -4 10 10 15693.10 15486.40 743.25 o
3441 4 2 10 -10 26.91 248.94 186.98 <
3441 3 2 -10 -10 26.91 248.94 186.98 <
3441 2 -3 -10 10 26.91 248.94 186.98 <
3441 1 -3 10 10 26.91 248.94 186.98 <
3442 4 3 10 -10 52.51 248.94 183.72 <
3442 3 3 -10 -10 52.51 248.94 183.72 <
3442 2 -2 -10 10 52.51 248.94 183.72 <
3442 1 -2 10 10 52.51 248.94 183.72 <
3443 4 4 10 -10 15215.20 16149.60 1366.93 o
3443 3 4 -10 -10 15215.20 16149.60 1366.93 o
3443 2 -1 -10 10 15215.20 16149.60 1366.93 o
3443 1 -1 10 10 15215.20 16149.60 1366.93 o
3444 4 5 10 -10 23793.10 23935.70 1679.98 o
3444 3 5 -10 -10 23793.10 23935.70 1679.98 o
3444 2 0 -10 10 23793.10 23935.70 1679.98 o
3444 1 0 10 10 23793.10 23935.70 1679.98 o
3445 4 6 10 -10 13612.60 12736.70 904.17 o
3445 3 6 -10 -10 13612.60 12736.70 904.17 o
3445 2 1 -10 10 13612.60 12736.70 904.17 o
3445 1 1 10 10 13612.60 12736.70 904.17 o
3446 4 7 10 -10 19846.20 17572.80 1594.76 o
3446 3 7 -10 -10 19846.20 17572.80 1594.76 o
3446 2 2 -10 10 19846.20 17572.80 1594.76 o
3446 1 2 10 10 19846.20 17572.80 1594.76 o
3447 3 -1 -11 -10 684.08 515.33 235.92 <
3447 1 -6 11 10 684.08 515.33 235.92 <
3448 3 0 -11 -10 309.21 555.53 165.24 o
3448 1 -5 11 10 309.21 555.53 165.24 o
3449 3 1 -11 -10 328.85 140.24 101.10 <
3449 1 -4 11 10 328.85 140.24 101.10 <
3450 3 2 -11 -10 88.22 -30.44 78.27 <
3450 1 -3 11 10 88.22 -30.44 78.27 <
3451 3 3 -11 -10 79.64 218.51 119.58 <
3451 1 -2 11 10 79.64 218.51 119.58 <
3452 3 4 -11 -10 412.71 293.52 118.50 <
3452 1 -1 11 10 412.71 293.52 118.50 <
3453 3 5 -11 -10 437.52 600.09 156.54 o
3453 1 0 11 10 437.52 600.09 156.54 o
3454 3 6 -11 -10 895.47 825.16 201.12 o
3454 1 1 11 10 895.47 825.16 201.12 o
3455 3 7 -11 -10 863.79 1115.44 355.51 o
3455 1 2 11 10 863.79 1115.44 355.51 o
3456 3 -1 -12 -10 1074.72 1072.05 376.20 <
3456 1 -6 12 10 1074.72 1072.05 376.20 <
3457 3 2 -12 -10 1076.44 1113.35 268.55 o
3457 1 -3 12 10 1076.44 1113.35 268.55 o
3458 3 3 -12 -10 1336.56 1258.99 405.53 o
3458 1 -2 12 10 1336.56 1258.99 405.53 o
3459 3 4 -12 -10 1343.45 1492.84 453.40 o
3459 1 -1 12 10 1343.45 1492.84 453.40 o
3460 3 6 -12 -10 1452.25 1699.30 553.39 o
3460 1 1 12 10 1452.25 1699.30 553.39 o
3461 4 -4 11 11 19.70 6.52 123.93 <
3461 1 -4 -11 11 19.70 6.52 123.93 <
3462 4 -3 11 11 2501.34 2660.66 564.32 o
3462 1 -3 -11 11 2501.34 2660.66 564.32 o
3463 4 -2 11 11 213.72 179.37 203.29 <
3463 1 -2 -11 11 213.72 179.37 203.29 <
3464 4 1 11 11 93.68 -156.54 223.94 <
3464 1 1 -11 11 93.68 -156.54 223.94 <
3465 2 -2 -11 -9 78.94 394.61 338.08 <
3465 1 -7 -9 11 78.94 394.61 338.08 <
3466 2 -1 -11 -9 774.68 1051.28 277.23 o
3466 1 -6 -9 11 774.68 1051.28 277.23 o
3467 2 0 -11 -9 406.24 443.55 202.20 <
3467 1 -5 -9 11 406.24 443.55 202.20 <
3468 2 1 -11 -9 2.86 -113.06 150.02 <
3468 1 -4 -9 11 2.86 -113.06 150.02 <
3469 2 2 -11 -9 4.67 52.18 133.71 <
3469 1 -3 -9 11 4.67 52.18 133.71 <
3470 2 3 -11 -9 35.24 175.02 172.85 <
3470 1 -2 -9 11 35.24 175.02 172.85 <
3471 2 4 -11 -9 32.88 283.73 169.58 <
3471 1 -1 -9 11 32.88 283.73 169.58 <
3472 2 5 -11 -9 1703.77 1882.09 315.31 o
3472 1 0 -9 11 1703.77 1882.09 315.31 o
3473 2 6 -11 -9 74.06 -42.40 76.10 <
3473 1 1 -9 11 74.06 -42.40 76.10 <
3474 2 7 -11 -9 26.35 30.44 114.14 <
3474 1 2 -9 11 26.35 30.44 114.14 <
3475 4 -8 11 7 459.62 1016.45 431.58 <
3475 1 -9 -7 11 459.62 1016.45 431.58 <
3476 4 -7 11 7 4.69 -184.80 248.94 <
3476 1 -8 -7 11 4.69 -184.80 248.94 <
3477 4 -6 11 7 284.25 621.83 234.82 <
3477 1 -7 -7 11 284.25 621.83 234.82 <
3478 4 -5 11 7 679.36 719.68 213.08 o
3478 1 -6 -7 11 679.36 719.68 213.08 o
3479 4 -4 11 7 316.56 396.79 167.41 <
3479 1 -5 -7 11 316.56 396.79 167.41 <
3480 4 -3 11 7 625.22 854.51 248.96 o
3480 1 -4 -7 11 625.22 854.51 248.96 o
3481 4 -2 11 7 263.46 169.59 77.18 <
3481 1 -3 -7 11 263.46 169.59 77.18 <
3482 4 -1 11 7 191.27 245.68 114.15 <
3482 1 -2 -7 11 191.27 245.68 114.15 <
3483 4 0 11 7 194.56 246.77 126.10 <
3483 1 -1 -7 11 194.56 246.77 126.10 <
3484 4 1 11 7 3988.23 4959.04 480.68 o
3484 1 0 -7 11 3988.23 4959.04 480.68 o
3485 4 2 11 7 170.04 380.48 167.41 <
3485 1 1 -7 11 170.04 380.48 167.41 <
3486 4 3 11 7 436.79 442.46 185.90 <
3486 1 2 -7 11 436.79 442.46 185.90 <
3487 4 4 11 7 2190.26 2502.94 383.81 o
3487 1 3 -7 11 2190.26 2502.94 383.81 o
3488 2 -6 -11 -5 17.12 -122.84 182.63 <
3488 1 -10 -5 11 17.12 -122.84 182.63 <
3489 2 -5 -11 -5 88.85 53.27 160.89 <
3489 1 -9 -5 11 88.85 53.27 160.89 <
3490 2 -4 -11 -5 1841.13 1871.23 395.77 o
3490 1 -8 -5 11 1841.13 1871.23 395.77 o
3491 2 -3 -11 -5 2797.94 2829.43 403.43 o
3491 1 -7 -5 11 2797.94 2829.43 403.43 o
3492 2 -2 -11 -5 824.86 1035.01 244.62 o
3492 1 -6 -5 11 824.86 1035.01 244.62 o
3493 2 -1 -11 -5 572.76 353.33 141.33 <
3493 1 -5 -5 11 572.76 353.33 141.33 <
3494 2 0 -11 -5 1024.95 1078.51 240.27 o
3494 1 -4 -5 11 1024.95 1078.51 240.27 o
3495 2 1 -11 -5 106.26 154.37 92.40 <
3495 1 -3 -5 11 106.26 154.37 92.40 <
3496 2 2 -11 -5 716.59 761.03 177.21 o
3496 1 -2 -5 11 716.59 761.03 177.21 o
3497 2 3 -11 -5 1363.16 1273.21 223.98 o
3497 1 -1 -5 11 1363.16 1273.21 223.98 o
3498 2 4 -11 -5 37.77 73.92 98.92 <
3498 1 0 -5 11 37.77 73.92 98.92 <
3499 2 5 -11 -5 3433.80 3533.18 401.27 o
3499 1 1 -5 11 3433.80 3533.18 401.27 o
3500 2 6 -11 -5 3470.10 4194.64 462.20 o
3500 1 2 -5 11 3470.10 4194.64 462.20 o
3501 2 7 -11 -5 108.89 441.36 205.46 <
3501 1 3 -5 11 108.89 441.36 205.46 <
3502 2 8 -11 -5 193.14 115.23 94.58 <
3502 1 4 -5 11 193.14 115.23 94.58 <
3503 4 -8 11 3 135.57 25.00 63.05 <
3503 1 -10 -3 11 135.57 25.00 63.05 <
3504 4 -7 11 3 36.94 33.70 56.53 <
3504 1 -9 -3 11 36.94 33.70 56.53 <
3505 4 -6 11 3 1527.39 1517.75 288.11 o
3505 1 -8 -3 11 1527.39 1517.75 288.11 o
3506 4 -5 11 3 4253.16 3769.28 450.23 o
3506 1 -7 -3 11 4253.16 3769.28 450.23 o
3507 4 -4 11 3 630.18 593.57 194.60 o
3507 1 -6 -3 11 630.18 593.57 194.60 o
3508 4 -3 11 3 489.86 596.83 188.07 o
3508 1 -5 -3 11 489.86 596.83 188.07 o
3509 4 -2 11 3 2269.35 2409.54 350.12 o
3509 1 -4 -3 11 2269.35 2409.54 350.12 o
3510 4 -1 11 3 27.08 164.15 133.71 <
3510 1 -3 -3 11 27.08 164.15 133.71 <
3511 4 0 11 3 1435.65 1493.86 295.73 o
3511 1 -2 -3 11 1435.65 1493.86 295.73 o
3512 4 1 11 3 2837.74 2751.24 392.57 o
3512 1 -1 -3 11 2837.74 2751.24 392.57 o
3513 4 2 11 3 77.27 152.19 77.18 <
3513 1 0 -3 11 77.27 152.19 77.18 <
3514 4 3 11 3 4990.55 4918.12 451.35 o
3514 1 1 -3 11 4990.55 4918.12 451.35 o
3515 4 4 11 3 4811.31 4814.91 458.98 o
3515 1 2 -3 11 4811.31 4814.91 458.98 o
3516 4 5 11 3 362.01 378.32 139.15 <
3516 1 3 -3 11 362.01 378.32 139.15 <
3517 4 6 11 3 709.84 863.19 221.78 o
3517 1 4 -3 11 709.84 863.19 221.78 o
3518 4 7 11 3 879.71 1924.27 597.94 o
3518 1 5 -3 11 879.71 1924.27 597.94 o
3519 2 -7 -11 -1 837.12 1059.98 341.37 o
3519 1 -10 -1 11 837.12 1059.98 341.37 o
3520 2 -6 -11 -1 3125.50 3850.52 431.70 o
3520 1 -9 -1 11 3125.50 3850.52 431.70 o
3521 2 -5 -11 -1 710.78 668.60 155.46 o
3521 1 -8 -1 11 710.78 668.60 155.46 o
3522 2 -4 -11 -1 751.30 893.65 222.87 o
3522 1 -7 -1 11 751.30 893.65 222.87 o
3523 2 -3 -11 -1 4225.68 3911.07 415.47 o
3523 1 -6 -1 11 4225.68 3911.07 415.47 o
3524 2 -2 -11 -1 3208.97 3278.79 394.76 o
3524 1 -5 -1 11 3208.97 3278.79 394.76 o
3525 2 -1 -11 -1 367.90 482.68 168.50 <
3525 1 -4 -1 11 367.90 482.68 168.50 <
3526 2 0 -11 -1 1570.39 1943.05 295.75 o
3526 1 -3 -1 11 1570.39 1943.05 295.75 o
3527 2 1 -11 -1 447.37 473.99 122.85 o
3527 1 -2 -1 11 447.37 473.99 122.85 o
3528 2 2 -11 -1 854.75 950.18 170.68 o
3528 1 -1 -1 11 854.75 950.18 170.68 o
3529 2 3 -11 -1 8783.34 9388.29 693.29 o
3529 1 0 -1 11 8783.34 9388.29 693.29 o
3530 2 4 -11 -1 878.57 1096.97 259.84 o
3530 1 1 -1 11 878.57 1096.97 259.84 o
3531 2 5 -11 -1 222.38 243.51 90.23 <
3531 1 2 -1 11 222.38 243.51 90.23 <
3532 2 6 -11 -1 5007.55 6044.31 611.28 o
3532 1 3 -1 11 5007.55 6044.31 611.28 o
3533 2 7 -11 -1 399.62 358.75 132.63 <
3533 1 4 -1 11 399.62 358.75 132.63 <
3534 2 8 -11 -1 103.46 81.53 106.53 <
3534 1 5 -1 11 103.46 81.53 106.53 <
3535 4 -7 11 -1 940.44 807.76 210.91 o
3535 1 -10 1 11 940.44 807.76 210.91 o
3536 4 -6 11 -1 3509.65 3587.37 421.92 o
3536 1 -9 1 11 3509.65 3587.37 421.92 o
3537 4 -5 11 -1 796.31 821.89 158.73 o
3537 1 -8 1 11 796.31 821.89 158.73 o
3538 4 -4 11 -1 848.45 722.97 146.77 o
3538 1 -7 1 11 848.45 722.97 146.77 o
3539 4 -3 11 -1 4754.25 5084.61 377.40 o
3539 1 -6 1 11 4754.25 5084.61 377.40 o
3540 4 -2 11 -1 3599.54 3586.55 389.32 o
3540 1 -5 1 11 3599.54 3586.55 389.32 o
3541 4 -1 11 -1 408.54 467.46 141.33 o
3541 1 -4 1 11 408.54 467.46 141.33 o
3542 4 0 11 -1 1793.11 1706.01 200.07 o
3542 1 -3 1 11 1793.11 1706.01 200.07 o
3543 4 1 11 -1 497.32 505.52 122.85 o
3543 1 -2 1 11 497.32 505.52 122.85 o
3544 4 2 11 -1 930.26 939.30 158.73 o
3544 1 -1 1 11 930.26 939.30 158.73 o
3545 4 3 11 -1 10023.00 10266.60 556.16 o
3545 1 0 1 11 10023.00 10266.60 556.16 o
3546 4 4 11 -1 991.04 981.73 177.21 o
3546 1 1 1 11 991.04 981.73 177.21 o
3547 4 5 11 -1 229.91 142.41 106.53 <
3547 1 2 1 11 229.91 142.41 106.53 <
3548 4 6 11 -1 5697.27 5335.14 555.81 o
3548 1 3 1 11 5697.27 5335.14 555.81 o
3549 4 7 11 -1 454.02 362.01 169.59 <
3549 1 4 1 11 454.02 362.01 169.59 <
3550 4 8 11 -1 111.77 126.10 106.53 <
3550 1 5 1 11 111.77 126.10 106.53 <
3551 1 -10 2 11 2534.62 2423.94 305.58 o
3552 1 -9 2 11 4011.96 4019.09 318.70 o
3553 1 -8 2 11 6860.41 6437.90 391.76 o
3554 1 -7 2 11 11037.40 10528.60 396.40 o
3555 1 -6 2 11 11737.50 11553.60 453.12 o
3556 1 -5 2 11 9452.86 9289.32 403.98 o
3557 1 -4 2 11 6776.29 6341.10 377.68 o
3558 1 -3 2 11 4473.13 4406.28 270.90 o
3559 1 -2 2 11 5545.81 5578.01 312.31 o
3560 1 -1 2 11 9202.53 9227.08 408.33 o
3561 1 0 2 11 11499.60 11769.20 477.09 o
3562 1 1 2 11 11926.60 12008.70 503.22 o
3563 1 2 2 11 9009.83 9295.68 428.91 o
3564 1 3 2 11 5294.97 5161.15 336.17 o
3565 1 4 2 11 3547.51 3483.65 320.85 o
3566 1 5 2 11 2868.00 3222.26 486.11 o
3567 2 -8 -11 3 127.73 91.31 92.40 <
3567 1 -10 3 11 127.73 91.31 92.40 <
3568 2 -7 -11 3 29.01 -55.44 75.01 <
3568 1 -9 3 11 29.01 -55.44 75.01 <
3569 2 -6 -11 3 1374.05 1711.27 284.85 o
3569 1 -8 3 11 1374.05 1711.27 284.85 o
3570 2 -5 -11 3 3803.53 3909.57 250.13 o
3570 1 -7 3 11 3803.53 3909.57 250.13 o
3571 2 -4 -11 3 573.26 589.23 135.89 o
3571 1 -6 3 11 573.26 589.23 135.89 o
3572 2 -3 -11 3 445.23 667.49 151.11 o
3572 1 -5 3 11 445.23 667.49 151.11 o
3573 2 -2 -11 3 2023.38 2042.02 189.20 o
3573 1 -4 3 11 2023.38 2042.02 189.20 o
3574 2 -1 -11 3 26.97 97.84 69.57 <
3574 1 -3 3 11 26.97 97.84 69.57 <
3575 2 0 -11 3 1283.93 1362.31 190.27 o
3575 1 -2 3 11 1283.93 1362.31 190.27 o
3576 2 1 -11 3 2485.74 2620.74 263.16 o
3576 1 -1 3 11 2485.74 2620.74 263.16 o
3577 2 2 -11 3 56.18 121.75 70.66 <
3577 1 0 3 11 56.18 121.75 70.66 <
3578 2 3 -11 3 4451.83 4193.78 363.26 o
3578 1 1 3 11 4451.83 4193.78 363.26 o
3579 2 4 -11 3 4218.37 4510.38 399.16 o
3579 1 2 3 11 4218.37 4510.38 399.16 o
3580 2 5 -11 3 300.72 423.98 165.24 <
3580 1 3 3 11 300.72 423.98 165.24 <
3581 2 6 -11 3 636.35 965.38 348.97 <
3581 1 4 3 11 636.35 965.38 348.97 <
3582 1 -10 4 11 11.71 -96.75 96.75 <
3583 1 -9 4 11 69.39 229.38 102.19 <
3584 1 -8 4 11 88.73 161.98 82.62 <
3585 1 -7 4 11 1.67 -36.96 48.92 <
3586 1 -6 4 11 49.82 102.19 54.35 <
3587 1 -5 4 11 68.59 90.23 68.49 <
3588 1 -4 4 11 39.23 55.44 53.27 <
3589 1 -3 4 11 110.54 61.96 47.83 <
3590 1 -2 4 11 29.80 33.70 54.35 <
3591 1 -1 4 11 42.19 135.88 50.01 <
3592 1 0 4 11 59.21 178.28 64.14 <
3593 1 1 4 11 0.03 36.96 60.88 <
3594 1 2 4 11 28.13 36.96 60.88 <
3595 1 3 4 11 56.58 67.40 88.05 <
3596 1 4 4 11 5.69 -15.22 119.58 <
3597 1 5 4 11 25.39 -11.96 201.11 <
3598 4 -5 11 -5 96.32 134.80 92.40 <
3598 1 -9 5 11 96.32 134.80 92.40 <
3599 4 -4 11 -5 2089.28 2313.76 334.89 o
3599 1 -8 5 11 2089.28 2313.76 334.89 o
3600 4 -3 11 -5 3160.12 3363.34 317.52 o
3600 1 -7 5 11 3160.12 3363.34 317.52 o
3601 4 -2 11 -5 947.85 1030.66 139.16 o
3601 1 -6 5 11 947.85 1030.66 139.16 o
3602 4 -1 11 -5 661.20 600.11 108.72 o
3602 1 -5 5 11 661.20 600.11 108.72 o
3603 4 0 11 -5 1158.75 977.40 143.51 o
3603 1 -4 5 11 1158.75 977.40 143.51 o
3604 4 1 11 -5 117.23 143.49 73.92 <
3604 1 -3 5 11 117.23 143.49 73.92 <
3605 4 2 11 -5 824.49 827.35 132.64 o
3605 1 -2 5 11 824.49 827.35 132.64 o
3606 4 3 11 -5 1576.60 1381.94 202.24 o
3606 1 -1 5 11 1576.60 1381.94 202.24 o
3607 4 4 11 -5 38.00 -22.83 75.01 <
3607 1 0 5 11 38.00 -22.83 75.01 <
3608 4 5 11 -5 3854.34 4039.94 355.60 o
3608 1 1 5 11 3854.34 4039.94 355.60 o
3609 4 6 11 -5 3990.81 3635.64 655.79 o
3609 1 2 5 11 3990.81 3635.64 655.79 o
3610 4 7 11 -5 132.22 229.38 139.15 <
3610 1 3 5 11 132.22 229.38 139.15 <
3611 4 8 11 -5 211.38 257.64 208.72 <
3611 1 4 5 11 211.38 257.64 208.72 <
3612 1 -10 6 11 613.46 543.58 268.53 <
3613 1 -9 6 11 1068.66 1166.60 222.88 o
3614 1 -8 6 11 3153.52 3008.21 258.84 o
3615 1 -7 6 11 4163.26 4288.99 311.10 o
3616 1 -6 6 11 5566.49 5875.23 356.87 o
3617 1 -5 6 11 4016.38 4038.88 281.73 o
3618 1 -4 6 11 1331.29 1514.62 163.10 o
3619 1 -3 6 11 1631.31 1658.23 165.28 o
3620 1 -2 6 11 1794.30 1819.21 159.85 o
3621 1 -1 6 11 2428.58 2408.81 233.81 o
3622 1 0 6 11 5559.04 5588.07 356.87 o
3623 1 1 6 11 5226.29 5362.42 369.90 o
3624 1 2 6 11 3449.05 3526.07 362.18 o
3625 1 3 6 11 2073.48 2257.42 317.52 o
3626 2 -8 -11 7 417.33 369.62 182.63 <
3626 1 -9 7 11 417.33 369.62 182.63 <
3627 2 -7 -11 7 4.64 92.40 50.01 <
3627 1 -8 7 11 4.64 92.40 50.01 <
3628 2 -6 -11 7 242.14 236.99 93.49 <
3628 1 -7 7 11 242.14 236.99 93.49 <
3629 2 -5 -11 7 611.30 665.33 139.15 o
3629 1 -6 7 11 611.30 665.33 139.15 o
3630 2 -4 -11 7 288.31 176.11 186.98 <
3630 1 -5 7 11 288.31 176.11 186.98 <
3631 2 -3 -11 7 534.38 675.13 171.77 o
3631 1 -4 7 11 534.38 675.13 171.77 o
3632 2 -2 -11 7 234.07 368.53 104.36 o
3632 1 -3 7 11 234.07 368.53 104.36 o
3633 2 -1 -11 7 163.39 182.63 119.58 <
3633 1 -2 7 11 163.39 182.63 119.58 <
3634 2 0 -11 7 159.95 140.24 94.58 <
3634 1 -1 7 11 159.95 140.24 94.58 <
3635 2 1 -11 7 3508.91 3316.90 392.59 o
3635 1 0 7 11 3508.91 3316.90 392.59 o
3636 2 2 -11 7 146.50 298.95 147.85 <
3636 1 1 7 11 146.50 298.95 147.85 <
3637 2 3 -11 7 369.05 337.01 141.33 <
3637 1 2 7 11 369.05 337.01 141.33 <
3638 2 4 -11 7 1928.52 974.21 365.33 <
3638 1 3 7 11 1928.52 974.21 365.33 <
3639 1 -9 8 11 0.86 -72.83 125.01 <
3640 1 -8 8 11 22.52 -35.87 91.31 <
3641 1 -7 8 11 45.70 61.96 151.10 <
3642 1 -6 8 11 9.23 57.62 58.70 <
3643 1 -5 8 11 1.94 53.27 76.10 <
3644 1 -4 8 11 38.08 -22.83 48.92 <
3645 1 -3 8 11 0.07 68.49 67.40 <
3646 1 -2 8 11 34.55 116.32 97.84 <
3647 1 -1 8 11 1.04 51.09 66.31 <
3648 1 0 8 11 58.80 250.03 136.97 <
3649 1 1 8 11 17.40 75.01 78.27 <
3650 1 2 8 11 10.97 10.87 82.62 <
3651 1 3 8 11 24.36 232.63 214.15 <
3652 4 -3 11 -9 32.51 89.14 136.97 <
3652 1 -8 9 11 32.51 89.14 136.97 <
3653 4 -2 11 -9 95.19 128.28 55.44 <
3653 1 -7 9 11 95.19 128.28 55.44 <
3654 4 -1 11 -9 873.72 1192.61 269.61 o
3654 1 -6 9 11 873.72 1192.61 269.61 o
3655 4 0 11 -9 457.97 613.14 164.15 o
3655 1 -5 9 11 457.97 613.14 164.15 o
3656 4 1 11 -9 3.80 -11.96 114.14 <
3656 1 -4 9 11 3.80 -11.96 114.14 <
3657 4 2 11 -9 4.67 206.54 171.76 <
3657 1 -3 9 11 4.67 206.54 171.76 <
3658 4 3 11 -9 42.10 216.33 191.33 <
3658 1 -2 9 11 42.10 216.33 191.33 <
3659 4 4 11 -9 34.80 271.77 193.50 <
3659 1 -1 9 11 34.80 271.77 193.50 <
3660 4 5 11 -9 1949.85 2172.39 509.94 o
3660 1 0 9 11 1949.85 2172.39 509.94 o
3661 4 6 11 -9 82.87 171.76 146.76 <
3661 1 1 9 11 82.87 171.76 146.76 <
3662 4 7 11 -9 37.57 143.49 106.53 <
3662 1 2 9 11 37.57 143.49 106.53 <
3663 4 8 11 -9 1045.16 812.12 372.90 <
3663 1 3 9 11 1045.16 812.12 372.90 <
3664 1 -6 10 11 606.70 392.47 129.37 o
3665 1 -5 10 11 228.11 225.03 85.88 <
3666 1 -4 10 11 237.28 315.26 104.36 o
3667 1 -3 10 11 123.51 0.00 81.53 <
3668 1 -2 10 11 4.13 -280.47 157.63 <
3669 1 -1 10 11 556.77 564.24 181.56 o
3670 1 0 10 11 394.00 482.69 135.89 o
3671 1 1 10 11 804.16 943.68 238.10 o
3672 1 2 10 11 530.81 844.72 377.24 <
3673 2 -6 -11 11 1014.89 1067.61 326.15 o
3673 1 -6 11 11 1014.89 1067.61 326.15 o
3674 2 -4 -11 11 17.38 17.39 89.14 <
3674 1 -4 11 11 17.38 17.39 89.14 <
3675 2 -3 -11 11 2206.40 2155.06 551.27 o
3675 1 -3 11 11 2206.40 2155.06 551.27 o
3676 2 -2 -11 11 188.52 329.39 208.72 <
3676 1 -2 11 11 188.52 329.39 208.72 <
3677 1 -3 12 11 38.38 8.70 123.93 <
3678 4 -7 12 8 3521.16 4551.56 942.72 o
3678 3 -2 8 -12 3521.16 4551.56 942.72 o
3678 2 -3 -12 -8 3521.16 4551.56 942.72 o
3678 1 -8 -8 12 3521.16 4551.56 942.72 o
3679 4 -6 12 8 877.13 849.07 248.96 o
3679 3 -1 8 -12 877.13 849.07 248.96 o
3679 2 -2 -12 -8 877.13 849.07 248.96 o
3679 1 -7 -8 12 877.13 849.07 248.96 o
3680 4 -5 12 8 66111.90 69148.00 2755.78 o
3680 3 0 8 -12 66111.90 69148.00 2755.78 o
3680 2 -1 -12 -8 66111.90 69148.00 2755.78 o
3680 1 -6 -8 12 66111.90 69148.00 2755.78 o
3681 4 -4 12 8 3846.43 3963.58 541.53 o
3681 3 1 8 -12 3846.43 3963.58 541.53 o
3681 2 0 -12 -8 3846.43 3963.58 541.53 o
3681 1 -5 -8 12 3846.43 3963.58 541.53 o
3682 4 -3 12 8 10542.00 10651.00 892.12 o
3682 3 2 8 -12 10542.00 10651.00 892.12 o
3682 2 1 -12 -8 10542.00 10651.00 892.12 o
3682 1 -4 -8 12 10542.00 10651.00 892.12 o
3683 4 -1 12 8 10368.90 10441.00 889.94 o
3683 3 4 8 -12 10368.90 10441.00 889.94 o
3683 2 3 -12 -8 10368.90 10441.00 889.94 o
3683 1 -2 -8 12 10368.90 10441.00 889.94 o
3684 4 0 12 8 3217.82 3485.98 532.79 o
3684 3 5 8 -12 3217.82 3485.98 532.79 o
3684 2 4 -12 -8 3217.82 3485.98 532.79 o
3684 1 -1 -8 12 3217.82 3485.98 532.79 o
3685 4 1 12 8 62301.50 63081.60 2213.14 o
3685 3 6 8 -12 62301.50 63081.60 2213.14 o
3685 2 5 -12 -8 62301.50 63081.60 2213.14 o
3685 1 0 -8 12 62301.50 63081.60 2213.14 o
3686 4 2 12 8 859.35 928.43 292.45 o
3686 3 7 8 -12 859.35 928.43 292.45 o
3686 2 6 -12 -8 859.35 928.43 292.45 o
3686 1 1 -8 12 859.35 928.43 292.45 o
3687 4 3 12 8 3567.35 3562.10 712.20 o
3687 3 8 8 -12 3567.35 3562.10 712.20 o
3687 2 7 -12 -8 3567.35 3562.10 712.20 o
3687 1 2 -8 12 3567.35 3562.10 712.20 o
3688 4 -7 12 4 1509.68 1777.58 444.67 o
3688 3 -3 4 -12 1509.68 1777.58 444.67 o
3688 2 -5 -12 -4 1509.68 1777.58 444.67 o
3688 1 -9 -4 12 1509.68 1777.58 444.67 o
3689 4 -6 12 4 1022.06 1187.16 276.13 o
3689 3 -2 4 -12 1022.06 1187.16 276.13 o
3689 2 -4 -12 -4 1022.06 1187.16 276.13 o
3689 1 -8 -4 12 1022.06 1187.16 276.13 o
3690 4 -5 12 4 27718.80 25016.10 1256.14 o
3690 3 -1 4 -12 27718.80 25016.10 1256.14 o
3690 2 -3 -12 -4 27718.80 25016.10 1256.14 o
3690 1 -7 -4 12 27718.80 25016.10 1256.14 o
3691 4 -4 12 4 27444.50 23955.60 1219.24 o
3691 3 0 4 -12 27444.50 23955.60 1219.24 o
3691 2 -2 -12 -4 27444.50 23955.60 1219.24 o
3691 1 -6 -4 12 27444.50 23955.60 1219.24 o
3692 4 -3 12 4 25253.60 24508.70 1229.85 o
3692 3 1 4 -12 25253.60 24508.70 1229.85 o
3692 2 -1 -12 -4 25253.60 24508.70 1229.85 o
3692 1 -5 -4 12 25253.60 24508.70 1229.85 o
3693 4 -2 12 4 22241.20 20259.60 1115.30 o
3693 3 2 4 -12 22241.20 20259.60 1115.30 o
3693 2 0 -12 -4 22241.20 20259.60 1115.30 o
3693 1 -4 -4 12 22241.20 20259.60 1115.30 o
3694 4 0 12 4 22639.50 23096.40 1191.58 o
3694 3 4 4 -12 22639.50 23096.40 1191.58 o
3694 2 2 -12 -4 22639.50 23096.40 1191.58 o
3694 1 -2 -4 12 22639.50 23096.40 1191.58 o
3695 4 1 12 4 24169.00 23408.50 1215.57 o
3695 3 5 4 -12 24169.00 23408.50 1215.57 o
3695 2 3 -12 -4 24169.00 23408.50 1215.57 o
3695 1 -1 -4 12 24169.00 23408.50 1215.57 o
3696 4 2 12 4 25349.80 25241.50 1046.96 o
3696 3 6 4 -12 25349.80 25241.50 1046.96 o
3696 2 4 -12 -4 25349.80 25241.50 1046.96 o
3696 1 0 -4 12 25349.80 25241.50 1046.96 o
3697 4 3 12 4 25536.10 26939.30 1128.51 o
3697 3 7 4 -12 25536.10 26939.30 1128.51 o
3697 2 5 -12 -4 25536.10 26939.30 1128.51 o
3697 1 1 -4 12 25536.10 26939.30 1128.51 o
3698 4 4 12 4 476.11 645.74 184.81 o
3698 3 8 4 -12 476.11 645.74 184.81 o
3698 2 6 -12 -4 476.11 645.74 184.81 o
3698 1 2 -4 12 476.11 645.74 184.81 o
3699 4 5 12 4 1385.72 1425.32 288.11 o
3699 3 9 4 -12 1385.72 1425.32 288.11 o
3699 2 7 -12 -4 1385.72 1425.32 288.11 o
3699 1 3 -4 12 1385.72 1425.32 288.11 o
3700 4 6 12 4 8875.44 8751.19 1017.07 o
3700 3 10 4 -12 8875.44 8751.19 1017.07 o
3700 2 8 -12 -4 8875.44 8751.19 1017.07 o
3700 1 4 -4 12 8875.44 8751.19 1017.07 o
3701 4 -6 12 0 2697.50 2360.44 347.92 o
3701 3 -3 0 -12 2697.50 2360.44 347.92 o
3701 2 -6 -12 0 2697.50 2360.44 347.92 o
3701 1 -9 0 12 2697.50 2360.44 347.92 o
3702 4 -5 12 0 931.59 1329.59 255.48 o
3702 3 -2 0 -12 931.59 1329.59 255.48 o
3702 2 -5 -12 0 931.59 1329.59 255.48 o
3702 1 -8 0 12 931.59 1329.59 255.48 o
3703 4 -4 12 0 5214.33 4501.61 385.01 o
3703 3 -1 0 -12 5214.33 4501.61 385.01 o
3703 2 -4 -12 0 5214.33 4501.61 385.01 o
3703 1 -7 0 12 5214.33 4501.61 385.01 o
3704 4 -3 12 0 72923.40 68775.30 1854.95 o
3704 3 0 0 -12 72923.40 68775.30 1854.95 o
3704 2 -3 -12 0 72923.40 68775.30 1854.95 o
3704 1 -6 0 12 72923.40 68775.30 1854.95 o
3705 4 -2 12 0 15168.00 15206.10 860.99 o
3705 3 1 0 -12 15168.00 15206.10 860.99 o
3705 2 -2 -12 0 15168.00 15206.10 860.99 o
3705 1 -5 0 12 15168.00 15206.10 860.99 o
3706 4 -1 12 0 30128.70 28978.60 1195.81 o
3706 3 2 0 -12 30128.70 28978.60 1195.81 o
3706 2 -1 -12 0 30128.70 28978.60 1195.81 o
3706 1 -4 0 12 30128.70 28978.60 1195.81 o
3707 4 0 12 0 91026.30 82081.10 2043.37 o
3707 3 3 0 -12 91026.30 82081.10 2043.37 o
3707 2 0 -12 0 91026.30 82081.10 2043.37 o
3707 1 -3 0 12 91026.30 82081.10 2043.37 o
3708 4 1 12 0 29735.50 27961.50 1197.99 o
3708 3 4 0 -12 29735.50 27961.50 1197.99 o
3708 2 1 -12 0 29735.50 27961.50 1197.99 o
3708 1 -2 0 12 29735.50 27961.50 1197.99 o
3709 4 2 12 0 13944.10 12686.20 633.50 o
3709 3 5 0 -12 13944.10 12686.20 633.50 o
3709 2 2 -12 0 13944.10 12686.20 633.50 o
3709 1 -1 0 12 13944.10 12686.20 633.50 o
3710 4 3 12 0 68504.50 67422.50 1527.91 o
3710 3 6 0 -12 68504.50 67422.50 1527.91 o
3710 2 3 -12 0 68504.50 67422.50 1527.91 o
3710 1 0 0 12 68504.50 67422.50 1527.91 o
3711 4 4 12 0 5283.62 5013.87 437.22 o
3711 3 7 0 -12 5283.62 5013.87 437.22 o
3711 2 4 -12 0 5283.62 5013.87 437.22 o
3711 1 1 0 12 5283.62 5013.87 437.22 o
3712 4 5 12 0 884.58 975.18 238.09 o
3712 3 8 0 -12 884.58 975.18 238.09 o
3712 2 5 -12 0 884.58 975.18 238.09 o
3712 1 2 0 12 884.58 975.18 238.09 o
3713 4 6 12 0 1628.81 1650.46 319.65 o
3713 3 9 0 -12 1628.81 1650.46 319.65 o
3713 2 6 -12 0 1628.81 1650.46 319.65 o
3713 1 3 0 12 1628.81 1650.46 319.65 o
3714 4 7 12 0 15615.70 14241.80 977.31 o
3714 3 10 0 -12 15615.70 14241.80 977.31 o
3714 2 7 -12 0 15615.70 14241.80 977.31 o
3714 1 4 0 12 15615.70 14241.80 977.31 o
3715 3 -3 -1 -12 13.51 100.01 82.62 <
3715 1 -9 1 12 13.51 100.01 82.62 <
3716 3 -2 -1 -12 63.76 70.66 57.62 <
3716 1 -8 1 12 63.76 70.66 57.62 <
3717 3 -1 -1 -12 132.19 240.25 76.10 o
3717 1 -7 1 12 132.19 240.25 76.10 o
3718 3 0 -1 -12 36.83 -5.44 54.35 <
3718 1 -6 1 12 36.83 -5.44 54.35 <
3719 3 1 -1 -12 19.42 33.70 59.79 <
3719 1 -5 1 12 19.42 33.70 59.79 <
3720 3 2 -1 -12 113.61 96.75 86.97 <
3720 1 -4 1 12 113.61 96.75 86.97 <
3721 3 3 -1 -12 43.91 160.89 80.44 <
3721 1 -3 1 12 43.91 160.89 80.44 <
3722 3 4 -1 -12 112.15 72.84 48.92 <
3722 1 -2 1 12 112.15 72.84 48.92 <
3723 3 5 -1 -12 19.37 46.74 56.53 <
3723 1 -1 1 12 19.37 46.74 56.53 <
3724 3 6 -1 -12 18.23 142.41 67.40 <
3724 1 0 1 12 18.23 142.41 67.40 <
3725 3 7 -1 -12 177.19 260.90 84.79 o
3725 1 1 1 12 177.19 260.90 84.79 o
3726 3 8 -1 -12 40.21 -4.35 85.88 <
3726 1 2 1 12 40.21 -4.35 85.88 <
3727 3 9 -1 -12 5.98 121.75 92.40 <
3727 1 3 1 12 5.98 121.75 92.40 <
3728 3 10 -1 -12 266.29 354.40 115.23 o
3728 1 4 1 12 266.29 354.40 115.23 o
3729 3 -3 -2 -12 688.35 662.05 134.80 o
3729 1 -9 2 12 688.35 662.05 134.80 o
3730 3 -2 -2 -12 477.82 442.48 102.19 o
3730 1 -8 2 12 477.82 442.48 102.19 o
3731 3 -1 -2 -12 413.19 410.93 98.93 o
3731 1 -7 2 12 413.19 410.93 98.93 o
3732 3 0 -2 -12 397.35 316.35 91.32 o
3732 1 -6 2 12 397.35 316.35 91.32 o
3733 3 1 -2 -12 282.33 247.88 84.80 <
3733 1 -5 2 12 282.33 247.88 84.80 <
3734 3 2 -2 -12 719.73 601.17 125.02 o
3734 1 -4 2 12 719.73 601.17 125.02 o
3735 3 3 -2 -12 369.89 376.15 97.84 o
3735 1 -3 2 12 369.89 376.15 97.84 o
3736 3 4 -2 -12 302.58 328.33 95.67 o
3736 1 -2 2 12 302.58 328.33 95.67 o
3737 3 5 -2 -12 642.84 745.76 132.63 o
3737 1 -1 2 12 642.84 745.76 132.63 o
3738 3 6 -2 -12 244.95 193.51 63.05 o
3738 1 0 2 12 244.95 193.51 63.05 o
3739 3 7 -2 -12 335.74 429.42 106.54 o
3739 1 1 2 12 335.74 429.42 106.54 o
3740 3 8 -2 -12 608.07 609.89 135.89 o
3740 1 2 2 12 608.07 609.89 135.89 o
3741 3 9 -2 -12 338.70 443.57 119.59 o
3741 1 3 2 12 338.70 443.57 119.59 o
3742 3 10 -2 -12 48.99 -25.00 84.79 <
3742 1 4 2 12 48.99 -25.00 84.79 <
3743 3 -4 -3 -12 503.52 779.47 294.61 <
3743 1 -10 3 12 503.52 779.47 294.61 <
3744 3 -3 -3 -12 42.84 0.00 70.66 <
3744 1 -9 3 12 42.84 0.00 70.66 <
3745 3 -2 -3 -12 91.86 307.64 103.27 <
3745 1 -8 3 12 91.86 307.64 103.27 <
3746 3 -1 -3 -12 1235.51 1032.85 150.04 o
3746 1 -7 3 12 1235.51 1032.85 150.04 o
3747 3 0 -3 -12 284.42 263.08 83.71 o
3747 1 -6 3 12 284.42 263.08 83.71 o
3748 3 1 -3 -12 113.52 223.94 96.75 <
3748 1 -5 3 12 113.52 223.94 96.75 <
3749 3 2 -3 -12 366.47 380.49 91.32 o
3749 1 -4 3 12 366.47 380.49 91.32 o
3750 3 3 -3 -12 181.03 273.95 85.88 o
3750 1 -3 3 12 181.03 273.95 85.88 o
3751 3 4 -3 -12 343.25 356.58 90.23 o
3751 1 -2 3 12 343.25 356.58 90.23 o
3752 3 5 -3 -12 132.46 177.20 92.40 <
3752 1 -1 3 12 132.46 177.20 92.40 <
3753 3 6 -3 -12 286.76 288.09 95.67 o
3753 1 0 3 12 286.76 288.09 95.67 o
3754 3 7 -3 -12 947.54 1053.56 162.00 o
3754 1 1 3 12 947.54 1053.56 162.00 o
3755 3 8 -3 -12 68.73 -21.74 76.10 <
3755 1 2 3 12 68.73 -21.74 76.10 <
3756 3 9 -3 -12 36.93 88.05 80.44 <
3756 1 3 3 12 36.93 88.05 80.44 <
3757 3 10 -3 -12 386.36 433.77 195.69 <
3757 1 4 3 12 386.36 433.77 195.69 <
3758 4 -5 12 -4 1506.19 1630.80 296.81 o
3758 3 -3 -4 -12 1506.19 1630.80 296.81 o
3758 2 -7 -12 4 1506.19 1630.80 296.81 o
3758 1 -9 4 12 1506.19 1630.80 296.81 o
3759 4 -4 12 -4 982.57 947.96 222.86 o
3759 3 -2 -4 -12 982.57 947.96 222.86 o
3759 2 -6 -12 4 982.57 947.96 222.86 o
3759 1 -8 4 12 982.57 947.96 222.86 o
3760 4 -3 12 -4 27537.00 27628.90 803.90 o
3760 3 -1 -4 -12 27537.00 27628.90 803.90 o
3760 2 -5 -12 4 27537.00 27628.90 803.90 o
3760 1 -7 4 12 27537.00 27628.90 803.90 o
3761 4 -2 12 -4 27302.30 26690.60 904.25 o
3761 3 0 -4 -12 27302.30 26690.60 904.25 o
3761 2 -4 -12 4 27302.30 26690.60 904.25 o
3761 1 -6 4 12 27302.30 26690.60 904.25 o
3762 4 -1 12 -4 25148.30 23455.40 837.62 o
3762 3 1 -4 -12 25148.30 23455.40 837.62 o
3762 2 -3 -12 4 25148.30 23455.40 837.62 o
3762 1 -5 4 12 25148.30 23455.40 837.62 o
3763 4 0 12 -4 22273.80 21875.40 803.83 o
3763 3 2 -4 -12 22273.80 21875.40 803.83 o
3763 2 -2 -12 4 22273.80 21875.40 803.83 o
3763 1 -4 4 12 22273.80 21875.40 803.83 o
3764 4 1 12 -4 106086.00 102151.00 1283.54 o
3764 3 3 -4 -12 106086.00 102151.00 1283.54 o
3764 2 -1 -12 4 106086.00 102151.00 1283.54 o
3764 1 -3 4 12 106086.00 102151.00 1283.54 o
3765 4 2 12 -4 22606.90 21862.80 680.73 o
3765 3 4 -4 -12 22606.90 21862.80 680.73 o
3765 2 0 -12 4 22606.90 21862.80 680.73 o
3765 1 -2 4 12 22606.90 21862.80 680.73 o
3766 4 3 12 -4 24274.00 23540.20 855.12 o
3766 3 5 -4 -12 24274.00 23540.20 855.12 o
3766 2 1 -12 4 24274.00 23540.20 855.12 o
3766 1 -1 4 12 24274.00 23540.20 855.12 o
3767 4 4 12 -4 25491.60 23491.30 884.74 o
3767 3 6 -4 -12 25491.60 23491.30 884.74 o
3767 2 2 -12 4 25491.60 23491.30 884.74 o
3767 1 0 4 12 25491.60 23491.30 884.74 o
3768 4 5 12 -4 25717.40 24166.20 934.75 o
3768 3 7 -4 -12 25717.40 24166.20 934.75 o
3768 2 3 -12 4 25717.40 24166.20 934.75 o
3768 1 1 4 12 25717.40 24166.20 934.75 o
3769 4 6 12 -4 515.47 487.04 170.68 <
3769 3 8 -4 -12 515.47 487.04 170.68 <
3769 2 4 -12 4 515.47 487.04 170.68 <
3769 1 2 4 12 515.47 487.04 170.68 <
3770 4 7 12 -4 1389.20 1571.01 488.15 o
3770 3 9 -4 -12 1389.20 1571.01 488.15 o
3770 2 5 -12 4 1389.20 1571.01 488.15 o
3770 1 3 4 12 1389.20 1571.01 488.15 o
3771 3 -3 -5 -12 669.12 706.66 172.86 o
3771 1 -9 5 12 669.12 706.66 172.86 o
3772 3 -2 -5 -12 592.16 639.26 142.42 o
3772 1 -8 5 12 592.16 639.26 142.42 o
3773 3 -1 -5 -12 13.19 127.19 72.83 <
3773 1 -7 5 12 13.19 127.19 72.83 <
3774 3 0 -5 -12 461.90 584.89 117.41 o
3774 1 -6 5 12 461.90 584.89 117.41 o
3775 3 1 -5 -12 669.14 659.93 125.03 o
3775 1 -5 5 12 669.14 659.93 125.03 o
3776 3 2 -5 -12 454.35 649.02 114.15 o
3776 1 -4 5 12 454.35 649.02 114.15 o
3777 3 3 -5 -12 881.27 932.83 128.29 o
3777 1 -3 5 12 881.27 932.83 128.29 o
3778 3 4 -5 -12 409.30 406.59 88.06 o
3778 1 -2 5 12 409.30 406.59 88.06 o
3779 3 5 -5 -12 790.76 1123.05 150.03 o
3779 1 -1 5 12 790.76 1123.05 150.03 o
3780 3 6 -5 -12 538.89 655.55 118.50 o
3780 1 0 5 12 538.89 655.55 118.50 o
3781 3 7 -5 -12 11.60 152.19 88.05 <
3781 1 1 5 12 11.60 152.19 88.05 <
3782 3 8 -5 -12 710.44 983.87 192.43 o
3782 1 2 5 12 710.44 983.87 192.43 o
3783 3 9 -5 -12 724.21 863.21 203.30 o
3783 1 3 5 12 724.21 863.21 203.30 o
3784 3 -3 -6 -12 925.31 976.33 260.93 o
3784 1 -9 6 12 925.31 976.33 260.93 o
3785 3 -2 -6 -12 1668.52 1577.56 217.45 o
3785 1 -8 6 12 1668.52 1577.56 217.45 o
3786 3 -1 -6 -12 2230.31 2338.91 233.78 o
3786 1 -7 6 12 2230.31 2338.91 233.78 o
3787 3 0 -6 -12 2390.34 2455.42 234.89 o
3787 1 -6 6 12 2390.34 2455.42 234.89 o
3788 3 1 -6 -12 2600.56 2636.70 244.64 o
3788 1 -5 6 12 2600.56 2636.70 244.64 o
3789 3 2 -6 -12 1502.56 1367.95 151.15 o
3789 1 -4 6 12 1502.56 1367.95 151.15 o
3790 3 3 -6 -12 1839.83 1890.89 185.94 o
3790 1 -3 6 12 1839.83 1890.89 185.94 o
3791 3 4 -6 -12 2141.01 2427.90 216.37 o
3791 1 -2 6 12 2141.01 2427.90 216.37 o
3792 3 5 -6 -12 1684.88 1718.20 204.44 o
3792 1 -1 6 12 1684.88 1718.20 204.44 o
3793 3 6 -6 -12 2513.64 2584.77 255.54 o
3793 1 0 6 12 2513.64 2584.77 255.54 o
3794 3 7 -6 -12 2094.74 2222.61 280.55 o
3794 1 1 6 12 2094.74 2222.61 280.55 o
3795 3 8 -6 -12 1191.77 1397.19 231.60 o
3795 1 2 6 12 1191.77 1397.19 231.60 o
3796 3 9 -6 -12 1124.96 1278.54 400.09 o
3796 1 3 6 12 1124.96 1278.54 400.09 o
3797 3 -3 -7 -12 645.23 454.42 119.58 o
3797 1 -9 7 12 645.23 454.42 119.58 o
3798 3 -2 -7 -12 955.97 933.87 216.35 o
3798 1 -8 7 12 955.97 933.87 216.35 o
3799 3 -1 -7 -12 149.30 -13.05 111.97 <
3799 1 -7 7 12 149.30 -13.05 111.97 <
3800 3 0 -7 -12 810.64 1112.17 202.21 o
3800 1 -6 7 12 810.64 1112.17 202.21 o
3801 3 1 -7 -12 898.28 902.37 207.65 o
3801 1 -5 7 12 898.28 902.37 207.65 o
3802 3 2 -7 -12 263.17 281.57 86.97 o
3802 1 -4 7 12 263.17 281.57 86.97 o
3803 3 3 -7 -12 355.03 355.49 110.89 o
3803 1 -3 7 12 355.03 355.49 110.89 o
3804 3 4 -7 -12 365.34 560.95 140.24 o
3804 1 -2 7 12 365.34 560.95 140.24 o
3805 3 5 -7 -12 848.98 943.69 156.56 o
3805 1 -1 7 12 848.98 943.69 156.56 o
3806 3 6 -7 -12 676.96 1013.26 200.04 o
3806 1 0 7 12 676.96 1013.26 200.04 o
3807 3 7 -7 -12 177.61 445.71 152.19 <
3807 1 1 7 12 177.61 445.71 152.19 <
3808 3 8 -7 -12 674.85 789.31 203.31 o
3808 1 2 7 12 674.85 789.31 203.31 o
3809 3 9 -7 -12 495.78 795.80 320.71 <
3809 1 3 7 12 495.78 795.80 320.71 <
3810 4 -3 12 -8 3522.41 3711.06 716.55 o
3810 3 -2 -8 -12 3522.41 3711.06 716.55 o
3810 2 -7 -12 8 3522.41 3711.06 716.55 o
3810 1 -8 8 12 3522.41 3711.06 716.55 o
3811 4 -2 12 -8 878.24 643.60 195.69 o
3811 3 -1 -8 -12 878.24 643.60 195.69 o
3811 2 -6 -12 8 878.24 643.60 195.69 o
3811 1 -7 8 12 878.24 643.60 195.69 o
3812 4 -1 12 -8 65573.10 63786.20 1895.43 o
3812 3 0 -8 -12 65573.10 63786.20 1895.43 o
3812 2 -5 -12 8 65573.10 63786.20 1895.43 o
3812 1 -6 8 12 65573.10 63786.20 1895.43 o
3813 4 0 12 -8 3761.88 3215.24 559.98 o
3813 3 1 -8 -12 3761.88 3215.24 559.98 o
3813 2 -4 -12 8 3761.88 3215.24 559.98 o
3813 1 -5 8 12 3761.88 3215.24 559.98 o
3814 4 1 12 -8 10531.20 10805.40 740.89 o
3814 3 2 -8 -12 10531.20 10805.40 740.89 o
3814 2 -3 -12 8 10531.20 10805.40 740.89 o
3814 1 -4 8 12 10531.20 10805.40 740.89 o
3815 4 2 12 -8 81277.70 83311.60 1941.14 o
3815 3 3 -8 -12 81277.70 83311.60 1941.14 o
3815 2 -2 -12 8 81277.70 83311.60 1941.14 o
3815 1 -3 8 12 81277.70 83311.60 1941.14 o
3816 4 3 12 -8 10379.80 10774.00 1084.69 o
3816 3 4 -8 -12 10379.80 10774.00 1084.69 o
3816 2 -1 -12 8 10379.80 10774.00 1084.69 o
3816 1 -2 8 12 10379.80 10774.00 1084.69 o
3817 4 4 12 -8 3302.30 3616.70 641.57 o
3817 3 5 -8 -12 3302.30 3616.70 641.57 o
3817 2 0 -12 8 3302.30 3616.70 641.57 o
3817 1 -1 8 12 3302.30 3616.70 641.57 o
3818 4 5 12 -8 62838.40 59204.70 1893.97 o
3818 3 6 -8 -12 62838.40 59204.70 1893.97 o
3818 2 1 -12 8 62838.40 59204.70 1893.97 o
3818 1 0 8 12 62838.40 59204.70 1893.97 o
3819 4 6 12 -8 858.25 850.16 252.22 o
3819 3 7 -8 -12 858.25 850.16 252.22 o
3819 2 2 -12 8 858.25 850.16 252.22 o
3819 1 1 8 12 858.25 850.16 252.22 o
3820 3 0 -9 -12 444.43 492.47 143.50 o
3820 1 -6 9 12 444.43 492.47 143.50 o
3821 3 1 -9 -12 659.99 677.30 163.07 o
3821 1 -5 9 12 659.99 677.30 163.07 o
3822 3 2 -9 -12 1310.24 1161.23 237.03 o
3822 1 -4 9 12 1310.24 1161.23 237.03 o
3823 3 3 -9 -12 1004.02 941.52 214.18 o
3823 1 -3 9 12 1004.02 941.52 214.18 o
3824 3 4 -9 -12 1568.29 1809.18 305.52 o
3824 1 -2 9 12 1568.29 1809.18 305.52 o
3825 3 5 -9 -12 616.13 385.94 152.20 <
3825 1 -1 9 12 616.13 385.94 152.20 <
3826 3 6 -9 -12 453.90 624.02 191.34 o
3826 1 0 9 12 453.90 624.02 191.34 o
3827 3 7 -9 -12 1454.74 1207.90 317.47 o
3827 1 1 9 12 1454.74 1207.90 317.47 o
3828 3 0 -10 -12 1829.54 1620.00 428.38 o
3828 1 -6 10 12 1829.54 1620.00 428.38 o
3829 3 1 -10 -12 1360.24 1390.68 415.36 o
3829 1 -5 10 12 1360.24 1390.68 415.36 o
3830 3 2 -10 -12 1721.52 1805.86 360.95 o
3830 1 -4 10 12 1721.52 1805.86 360.95 o
3831 3 3 -10 -12 1265.82 1448.20 301.17 o
3831 1 -3 10 12 1265.82 1448.20 301.17 o
3832 3 4 -10 -12 1133.67 1156.90 392.52 <
3832 1 -2 10 12 1133.67 1156.90 392.52 <
3833 4 -5 13 9 3369.12 3227.46 624.18 o
3833 1 -6 -9 13 3369.12 3227.46 624.18 o
3834 4 -4 13 9 2914.95 3510.04 688.31 o
3834 1 -5 -9 13 2914.95 3510.04 688.31 o
3835 4 -3 13 9 5899.95 5929.83 882.08 o
3835 1 -4 -9 13 5899.95 5929.83 882.08 o
3836 2 -2 -13 -7 261.95 98.93 173.94 <
3836 1 -7 -7 13 261.95 98.93 173.94 <
3837 2 -1 -13 -7 1037.17 841.49 275.06 o
3837 1 -6 -7 13 1037.17 841.49 275.06 o
3838 2 0 -13 -7 118.71 129.36 123.93 <
3838 1 -5 -7 13 118.71 129.36 123.93 <
3839 2 1 -13 -7 34.79 134.80 126.10 <
3839 1 -4 -7 13 34.79 134.80 126.10 <
3840 2 2 -13 -7 89.85 120.67 132.62 <
3840 1 -3 -7 13 89.85 120.67 132.62 <
3841 2 3 -13 -7 91.38 143.49 127.19 <
3841 1 -2 -7 13 91.38 143.49 127.19 <
3842 2 4 -13 -7 320.20 355.49 169.59 <
3842 1 -1 -7 13 320.20 355.49 169.59 <
3843 2 5 -13 -7 624.82 852.34 254.40 o
3843 1 0 -7 13 624.82 852.34 254.40 o
3844 2 6 -13 -7 293.90 359.83 161.98 <
3844 1 1 -7 13 293.90 359.83 161.98 <
3845 4 -7 13 5 2634.30 2328.05 413.20 o
3845 1 -9 -5 13 2634.30 2328.05 413.20 o
3846 4 -6 13 5 320.31 365.27 196.77 <
3846 1 -8 -5 13 320.31 365.27 196.77 <
3847 4 -5 13 5 1235.19 1113.33 292.47 o
3847 1 -7 -5 13 1235.19 1113.33 292.47 o
3848 4 -4 13 5 1390.92 1113.32 264.20 o
3848 1 -6 -5 13 1390.92 1113.32 264.20 o
3849 4 -3 13 5 4373.16 4756.91 578.57 o
3849 1 -5 -5 13 4373.16 4756.91 578.57 o
3850 4 -2 13 5 4893.96 4424.55 557.96 o
3850 1 -4 -5 13 4893.96 4424.55 557.96 o
3851 4 -1 13 5 2578.50 2517.22 420.80 o
3851 1 -3 -5 13 2578.50 2517.22 420.80 o
3852 4 0 13 5 6022.97 5854.00 647.18 o
3852 1 -2 -5 13 6022.97 5854.00 647.18 o
3853 4 1 13 5 1908.17 1998.40 379.46 o
3853 1 -1 -5 13 1908.17 1998.40 379.46 o
3854 4 2 13 5 1184.82 1543.81 280.49 o
3854 1 0 -5 13 1184.82 1543.81 280.49 o
3855 4 3 13 5 2025.55 2494.19 349.01 o
3855 1 1 -5 13 2025.55 2494.19 349.01 o
3856 4 4 13 5 118.79 279.38 217.41 <
3856 1 2 -5 13 118.79 279.38 217.41 <
3857 2 -6 -13 -3 269.36 238.08 172.85 <
3857 1 -10 -3 13 269.36 238.08 172.85 <
3858 2 -5 -13 -3 70.86 84.79 169.59 <
3858 1 -9 -3 13 70.86 84.79 169.59 <
3859 2 -4 -13 -3 1378.46 1424.27 307.69 o
3859 1 -8 -3 13 1378.46 1424.27 307.69 o
3860 2 -3 -13 -3 742.72 855.59 237.00 o
3860 1 -7 -3 13 742.72 855.59 237.00 o
3861 2 -2 -13 -3 88.41 73.92 71.75 <
3861 1 -6 -3 13 88.41 73.92 71.75 <
3862 2 -1 -13 -3 3.71 133.71 134.80 <
3862 1 -5 -3 13 3.71 133.71 134.80 <
3863 2 0 -13 -3 7.54 89.14 92.40 <
3863 1 -4 -3 13 7.54 89.14 92.40 <
3864 2 1 -13 -3 20.73 -13.05 115.23 <
3864 1 -3 -3 13 20.73 -13.05 115.23 <
3865 2 2 -13 -3 66.24 325.04 156.54 <
3865 1 -2 -3 13 66.24 325.04 156.54 <
3866 2 3 -13 -3 156.05 325.04 186.98 <
3866 1 -1 -3 13 156.05 325.04 186.98 <
3867 2 4 -13 -3 369.28 469.64 182.64 <
3867 1 0 -3 13 369.28 469.64 182.64 <
3868 2 5 -13 -3 317.22 367.45 177.20 <
3868 1 1 -3 13 317.22 367.45 177.20 <
3869 2 6 -13 -3 1235.80 1401.50 326.18 o
3869 1 2 -3 13 1235.80 1401.50 326.18 o
3870 2 7 -13 -3 862.82 827.33 316.36 <
3870 1 3 -3 13 862.82 827.33 316.36 <
3871 4 -6 13 1 45.84 101.10 135.89 <
3871 1 -9 -1 13 45.84 101.10 135.89 <
3872 4 -5 13 1 626.92 616.42 164.16 o
3872 1 -8 -1 13 626.92 616.42 164.16 o
3873 4 -4 13 1 1.62 -59.79 101.10 <
3873 1 -7 -1 13 1.62 -59.79 101.10 <
3874 4 -3 13 1 5.12 110.88 109.79 <
3874 1 -6 -1 13 5.12 110.88 109.79 <
3875 4 -2 13 1 175.72 53.27 85.88 <
3875 1 -5 -1 13 175.72 53.27 85.88 <
3876 4 -1 13 1 1383.69 1378.58 273.98 o
3876 1 -4 -1 13 1383.69 1378.58 273.98 o
3877 4 0 13 1 3161.50 3235.13 429.54 o
3877 1 -3 -1 13 3161.50 3235.13 429.54 o
3878 4 1 13 1 188.39 101.10 78.27 <
3878 1 -2 -1 13 188.39 101.10 78.27 <
3879 4 2 13 1 118.66 234.81 146.76 <
3879 1 -1 -1 13 118.66 234.81 146.76 <
3880 4 3 13 1 9.02 -71.75 138.06 <
3880 1 0 -1 13 9.02 -71.75 138.06 <
3881 4 4 13 1 16.33 179.37 126.10 <
3881 1 1 -1 13 16.33 179.37 126.10 <
3882 4 5 13 1 2289.38 1800.57 351.20 o
3882 1 2 -1 13 2289.38 1800.57 351.20 o
3883 4 6 13 1 57.77 -23.92 165.24 <
3883 1 3 -1 13 57.77 -23.92 165.24 <
3884 2 -6 -13 1 33.51 116.32 140.23 <
3884 1 -9 1 13 33.51 116.32 140.23 <
3885 2 -5 -13 1 532.37 680.56 196.77 o
3885 1 -8 1 13 532.37 680.56 196.77 o
3886 2 -4 -13 1 1.40 27.18 59.79 <
3886 1 -7 1 13 1.40 27.18 59.79 <
3887 2 -3 -13 1 3.42 -96.75 84.79 <
3887 1 -6 1 13 3.42 -96.75 84.79 <
3888 2 -2 -13 1 146.95 86.97 85.88 <
3888 1 -5 1 13 146.95 86.97 85.88 <
3889 2 -1 -13 1 1239.57 1251.38 258.76 o
3889 1 -4 1 13 1239.57 1251.38 258.76 o
3890 2 0 -13 1 2775.85 2920.86 389.30 o
3890 1 -3 1 13 2775.85 2920.86 389.30 o
3891 2 1 -13 1 163.37 373.96 182.63 <
3891 1 -2 1 13 163.37 373.96 182.63 <
3892 2 2 -13 1 109.91 11.96 76.10 <
3892 1 -1 1 13 109.91 11.96 76.10 <
3893 2 3 -13 1 7.47 4.35 78.27 <
3893 1 0 1 13 7.47 4.35 78.27 <
3894 2 4 -13 1 11.49 93.49 116.32 <
3894 1 1 1 13 11.49 93.49 116.32 <
3895 2 5 -13 1 2019.33 2064.78 305.53 o
3895 1 2 1 13 2019.33 2064.78 305.53 o
3896 2 6 -13 1 41.37 128.28 206.55 <
3896 1 3 1 13 41.37 128.28 206.55 <
3897 1 -9 2 13 26.84 259.81 217.42 <
3898 1 -8 2 13 16.76 -75.01 57.62 <
3899 1 -7 2 13 37.86 21.74 55.44 <
3900 1 -6 2 13 1.13 48.92 66.31 <
3901 1 -5 2 13 25.97 44.57 65.22 <
3902 1 -4 2 13 288.41 268.52 91.32 <
3903 1 -3 2 13 382.38 350.06 109.80 o
3904 1 -2 2 13 84.60 131.54 97.84 <
3905 1 -1 2 13 1.37 -9.78 77.18 <
3906 1 0 2 13 26.91 -3.26 71.75 <
3907 1 1 2 13 19.19 43.48 63.05 <
3908 1 2 2 13 24.68 52.18 79.36 <
3909 1 3 2 13 129.53 4.35 102.19 <
3910 4 -4 13 -3 1561.34 1663.46 298.99 o
3910 1 -8 3 13 1561.34 1663.46 298.99 o
3911 4 -3 13 -3 837.81 791.45 161.99 o
3911 1 -7 3 13 837.81 791.45 161.99 o
3912 4 -2 13 -3 107.73 246.77 84.79 <
3912 1 -6 3 13 107.73 246.77 84.79 <
3913 4 -1 13 -3 5.58 31.53 84.79 <
3913 1 -5 3 13 5.58 31.53 84.79 <
3914 4 0 13 -3 10.42 20.65 77.18 <
3914 1 -4 3 13 10.42 20.65 77.18 <
3915 4 1 13 -3 25.76 13.05 77.18 <
3915 1 -3 3 13 25.76 13.05 77.18 <
3916 4 2 13 -3 67.88 79.36 113.06 <
3916 1 -2 3 13 67.88 79.36 113.06 <
3917 4 3 13 -3 184.12 225.03 115.23 <
3917 1 -1 3 13 184.12 225.03 115.23 <
3918 4 4 13 -3 429.77 600.09 147.85 o
3918 1 0 3 13 429.77 600.09 147.85 o
3919 4 5 13 -3 376.14 316.35 123.93 <
3919 1 1 3 13 376.14 316.35 123.93 <
3920 4 6 13 -3 1482.15 1536.32 319.66 o
3920 1 2 3 13 1482.15 1536.32 319.66 o
3921 1 -9 4 13 688.36 484.88 194.60 <
3922 1 -8 4 13 553.30 467.48 144.59 o
3923 1 -7 4 13 380.21 178.29 83.71 <
3924 1 -6 4 13 761.13 745.82 140.25 o
3925 1 -5 4 13 659.18 712.10 120.68 o
3926 1 -4 4 13 712.53 712.11 132.64 o
3927 1 -3 4 13 940.70 996.99 155.47 o
3928 1 -2 4 13 614.09 721.89 123.94 o
3929 1 -1 4 13 759.19 752.34 139.16 o
3930 1 0 4 13 625.95 790.38 144.59 o
3931 1 1 4 13 312.80 279.39 90.23 o
3932 1 2 4 13 598.85 694.70 163.07 o
3933 2 -7 -13 5 2270.74 2636.86 557.82 o
3933 1 -9 5 13 2270.74 2636.86 557.82 o
3934 2 -6 -13 5 268.44 228.29 128.28 <
3934 1 -8 5 13 268.44 228.29 128.28 <
3935 2 -5 -13 5 1046.53 979.60 225.06 o
3935 1 -7 5 13 1046.53 979.60 225.06 o
3936 2 -4 -13 5 1214.03 1280.75 217.45 o
3936 1 -6 5 13 1214.03 1280.75 217.45 o
3937 2 -3 -13 5 3837.79 3781.39 358.89 o
3937 1 -5 5 13 3837.79 3781.39 358.89 o
3938 2 -2 -13 5 4245.17 4328.84 377.41 o
3938 1 -4 5 13 4245.17 4328.84 377.41 o
3939 2 -1 -13 5 2264.80 2226.90 267.49 o
3939 1 -3 5 13 2264.80 2226.90 267.49 o
3940 2 0 -13 5 5311.75 5500.50 430.73 o
3940 1 -2 5 13 5311.75 5500.50 430.73 o
3941 2 1 -13 5 1687.63 1293.85 213.10 o
3941 1 -1 5 13 1687.63 1293.85 213.10 o
3942 2 2 -13 5 1052.34 955.64 188.08 o
3942 1 0 5 13 1052.34 955.64 188.08 o
3943 2 3 -13 5 1792.49 1655.91 475.14 o
3943 1 1 5 13 1792.49 1655.91 475.14 o
3944 2 4 -13 5 116.51 260.90 214.15 <
3944 1 2 5 13 116.51 260.90 214.15 <
3945 1 -9 6 13 0.12 407.65 156.54 <
3946 1 -8 6 13 0.71 227.20 105.45 <
3947 1 -7 6 13 64.62 58.70 80.44 <
3948 1 -6 6 13 58.50 76.10 63.05 <
3949 1 -5 6 13 120.58 222.85 84.79 <
3950 1 -4 6 13 122.69 328.30 97.84 o
3951 1 -3 6 13 103.31 147.84 79.36 <
3952 1 -2 6 13 179.67 177.20 79.36 <
3953 1 -1 6 13 5.59 -5.44 56.53 <
3954 1 0 6 13 57.33 226.11 90.23 <
3955 1 1 6 13 6.51 21.74 89.14 <
3956 4 -2 13 -7 311.83 437.02 181.55 <
3956 1 -7 7 13 311.83 437.02 181.55 <
3957 4 -1 13 -7 1186.32 1103.51 252.23 o
3957 1 -6 7 13 1186.32 1103.51 252.23 o
3958 4 0 13 -7 138.81 422.88 210.90 <
3958 1 -5 7 13 138.81 422.88 210.90 <
3959 4 1 13 -7 34.88 11.96 92.40 <
3959 1 -4 7 13 34.88 11.96 92.40 <
3960 4 2 13 -7 99.48 113.06 82.62 <
3960 1 -3 7 13 99.48 113.06 82.62 <
3961 4 3 13 -7 100.93 106.53 88.05 <
3961 1 -2 7 13 100.93 106.53 88.05 <
3962 4 4 13 -7 378.06 535.95 177.20 o
3962 1 -1 7 13 378.06 535.95 177.20 o
3963 4 5 13 -7 736.32 1256.76 398.99 o
3963 1 0 7 13 736.32 1256.76 398.99 o
3964 1 -7 8 13 1310.35 1543.92 302.26 o
3965 1 -6 8 13 618.86 452.26 116.33 o
3966 1 -5 8 13 1188.64 1414.52 284.86 o
3967 1 -4 8 13 1499.91 2409.46 462.10 o
3968 1 -3 8 13 1150.93 1279.69 240.28 o
3969 1 -2 8 13 1709.86 1646.22 270.74 o
3970 1 -1 8 13 864.83 924.12 364.21 <
3971 1 0 8 13 714.01 1036.08 272.88 o
3972 1 1 8 13 1294.07 1371.04 503.40 <
3973 2 -5 -13 9 2935.23 2714.20 570.90 o
3973 1 -6 9 13 2935.23 2714.20 570.90 o
3974 2 -3 -13 9 5194.58 4689.92 773.31 o
3974 1 -4 9 13 5194.58 4689.92 773.31 o
3975 2 -2 -13 9 9142.14 9949.60 1141.42 o
3975 1 -3 9 13 9142.14 9949.60 1141.42 o
3976 2 -1 -13 9 2458.84 1739.76 466.47 o
3976 1 -2 9 13 2458.84 1739.76 466.47 o
3977 1 -4 10 13 58.36 -31.53 114.14 <
3978 4 -5 14 6 8749.23 6628.70 895.21 o
3978 3 0 6 -14 8749.23 6628.70 895.21 o
3978 2 -2 -14 -6 8749.23 6628.70 895.21 o
3978 1 -7 -6 14 8749.23 6628.70 895.21 o
3979 4 -4 14 6 21969.20 21342.60 1305.53 o
3979 3 1 6 -14 21969.20 21342.60 1305.53 o
3979 2 -1 -14 -6 21969.20 21342.60 1305.53 o
3979 1 -6 -6 14 21969.20 21342.60 1305.53 o
3980 4 -3 14 6 11031.20 10100.00 886.73 o
3980 3 2 6 -14 11031.20 10100.00 886.73 o
3980 2 0 -14 -6 11031.20 10100.00 886.73 o
3980 1 -5 -6 14 11031.20 10100.00 886.73 o
3981 4 -2 14 6 111.05 470.71 231.55 <
3981 3 3 6 -14 111.05 470.71 231.55 <
3981 2 1 -14 -6 111.05 470.71 231.55 <
3981 1 -4 -6 14 111.05 470.71 231.55 <
3982 4 -1 14 6 62.30 91.31 126.10 <
3982 3 4 6 -14 62.30 91.31 126.10 <
3982 2 2 -14 -6 62.30 91.31 126.10 <
3982 1 -3 -6 14 62.30 91.31 126.10 <
3983 4 -5 14 2 13634.90 11779.90 892.34 o
3983 3 -1 2 -14 13634.90 11779.90 892.34 o
3983 2 -4 -14 -2 13634.90 11779.90 892.34 o
3983 1 -8 -2 14 13634.90 11779.90 892.34 o
3984 4 -4 14 2 7602.28 7707.59 721.16 o
3984 3 0 2 -14 7602.28 7707.59 721.16 o
3984 2 -3 -14 -2 7602.28 7707.59 721.16 o
3984 1 -7 -2 14 7602.28 7707.59 721.16 o
3985 4 -3 14 2 32417.40 30964.00 1446.35 o
3985 3 1 2 -14 32417.40 30964.00 1446.35 o
3985 2 -2 -14 -2 32417.40 30964.00 1446.35 o
3985 1 -6 -2 14 32417.40 30964.00 1446.35 o
3986 4 -2 14 2 9271.22 9613.73 794.16 o
3986 3 2 2 -14 9271.22 9613.73 794.16 o
3986 2 -1 -14 -2 9271.22 9613.73 794.16 o
3986 1 -5 -2 14 9271.22 9613.73 794.16 o
3987 4 -1 14 2 680.25 975.16 294.61 o
3987 3 3 2 -14 680.25 975.16 294.61 o
3987 2 0 -14 -2 680.25 975.16 294.61 o
3987 1 -4 -2 14 680.25 975.16 294.61 o
3988 4 0 14 2 417.75 210.90 138.06 <
3988 3 4 2 -14 417.75 210.90 138.06 <
3988 2 1 -14 -2 417.75 210.90 138.06 <
3988 1 -3 -2 14 417.75 210.90 138.06 <
3989 4 1 14 2 9247.01 8159.89 739.83 o
3989 3 5 2 -14 9247.01 8159.89 739.83 o
3989 2 2 -14 -2 9247.01 8159.89 739.83 o
3989 1 -2 -2 14 9247.01 8159.89 739.83 o
3990 4 2 14 2 32987.70 30366.40 1454.89 o
3990 3 6 2 -14 32987.70 30366.40 1454.89 o
3990 2 3 -14 -2 32987.70 30366.40 1454.89 o
3990 1 -1 -2 14 32987.70 30366.40 1454.89 o
3991 4 3 14 2 7921.80 6896.30 699.42 o
3991 3 7 2 -14 7921.80 6896.30 699.42 o
3991 2 4 -14 -2 7921.80 6896.30 699.42 o
3991 1 0 -2 14 7921.80 6896.30 699.42 o
3992 4 4 14 2 12847.80 11695.40 1413.50 o
3992 3 8 2 -14 12847.80 11695.40 1413.50 o
3992 2 5 -14 -2 12847.80 11695.40 1413.50 o
3992 1 1 -2 14 12847.80 11695.40 1413.50 o
3993 3 -1 0 -14 444.83 260.93 132.64 <
3993 1 -8 0 14 444.83 260.93 132.64 <
3994 3 0 0 -14 1347.88 1439.42 240.27 o
3994 1 -7 0 14 1347.88 1439.42 240.27 o
3995 3 1 0 -14 906.19 752.34 222.87 o
3995 1 -6 0 14 906.19 752.34 222.87 o
3996 3 2 0 -14 1223.44 1128.61 269.65 o
3996 1 -5 0 14 1223.44 1128.61 269.65 o
3997 3 3 0 -14 1843.10 1560.22 300.08 o
3997 1 -4 0 14 1843.10 1560.22 300.08 o
3998 3 4 0 -14 1399.24 1489.66 319.68 o
3998 1 -3 0 14 1399.24 1489.66 319.68 o
3999 3 5 0 -14 1493.77 1702.62 332.70 o
3999 1 -2 0 14 1493.77 1702.62 332.70 o
4000 3 6 0 -14 844.16 994.79 259.84 o
4000 1 -1 0 14 844.16 994.79 259.84 o
4001 3 7 0 -14 822.76 936.14 273.99 o
4001 1 0 0 14 822.76 936.14 273.99 o
4002 3 8 0 -14 931.65 1352.38 302.22 o
4002 1 1 0 14 931.65 1352.38 302.22 o
4003 3 9 0 -14 304.97 369.63 176.12 <
4003 1 2 0 14 304.97 369.63 176.12 <
4004 3 -1 -1 -14 1540.85 1503.71 304.44 o
4004 1 -8 1 14 1540.85 1503.71 304.44 o
4005 3 0 -1 -14 2234.99 2189.96 232.70 o
4005 1 -7 1 14 2234.99 2189.96 232.70 o
4006 3 1 -1 -14 3111.21 3122.00 277.29 o
4006 1 -6 1 14 3111.21 3122.00 277.29 o
4007 3 2 -1 -14 2558.58 1981.23 250.10 o
4007 1 -5 1 14 2558.58 1981.23 250.10 o
4008 3 3 -1 -14 6891.90 7302.94 478.74 o
4008 1 -4 1 14 6891.90 7302.94 478.74 o
4009 3 4 -1 -14 6860.55 7357.38 486.36 o
4009 1 -3 1 14 6860.55 7357.38 486.36 o
4010 3 5 -1 -14 2303.64 2391.28 281.65 o
4010 1 -2 1 14 2303.64 2391.28 281.65 o
4011 3 6 -1 -14 2620.43 2914.54 316.47 o
4011 1 -1 1 14 2620.43 2914.54 316.47 o
4012 3 7 -1 -14 2177.61 2245.43 279.46 o
4012 1 0 1 14 2177.61 2245.43 279.46 o
4013 3 8 -1 -14 1574.70 1703.76 250.07 o
4013 1 1 1 14 1574.70 1703.76 250.07 o
4014 3 9 -1 -14 2503.67 2588.10 389.30 o
4014 1 2 1 14 2503.67 2588.10 389.30 o
4015 4 -3 14 -2 7633.31 7613.14 538.43 o
4015 3 0 -2 -14 7633.31 7613.14 538.43 o
4015 2 -4 -14 2 7633.31 7613.14 538.43 o
4015 1 -7 2 14 7633.31 7613.14 538.43 o
4016 4 -2 14 -2 32269.40 29332.30 1058.21 o
4016 3 1 -2 -14 32269.40 29332.30 1058.21 o
4016 2 -3 -14 2 32269.40 29332.30 1058.21 o
4016 1 -6 2 14 32269.40 29332.30 1058.21 o
4017 4 -1 14 -2 9377.20 8335.06 561.40 o
4017 3 2 -2 -14 9377.20 8335.06 561.40 o
4017 2 -2 -14 2 9377.20 8335.06 561.40 o
4017 1 -5 2 14 9377.20 8335.06 561.40 o
4018 4 0 14 -2 658.55 426.15 152.20 <
4018 3 3 -2 -14 658.55 426.15 152.20 <
4018 2 -1 -14 2 658.55 426.15 152.20 <
4018 1 -4 2 14 658.55 426.15 152.20 <
4019 4 1 14 -2 439.46 445.73 181.55 <
4019 3 4 -2 -14 439.46 445.73 181.55 <
4019 2 0 -14 2 439.46 445.73 181.55 <
4019 1 -3 2 14 439.46 445.73 181.55 <
4020 4 2 14 -2 9141.13 9527.78 761.53 o
4020 3 5 -2 -14 9141.13 9527.78 761.53 o
4020 2 1 -14 2 9141.13 9527.78 761.53 o
4020 1 -2 2 14 9141.13 9527.78 761.53 o
4021 4 3 14 -2 33135.70 32088.70 1426.72 o
4021 3 6 -2 -14 33135.70 32088.70 1426.72 o
4021 2 2 -14 2 33135.70 32088.70 1426.72 o
4021 1 -1 2 14 33135.70 32088.70 1426.72 o
4022 4 4 14 -2 7890.74 7449.79 699.40 o
4022 3 7 -2 -14 7890.74 7449.79 699.40 o
4022 2 3 -14 2 7890.74 7449.79 699.40 o
4022 1 0 2 14 7890.74 7449.79 699.40 o
4023 4 5 14 -2 12933.80 11357.70 885.80 o
4023 3 8 -2 -14 12933.80 11357.70 885.80 o
4023 2 4 -14 2 12933.80 11357.70 885.80 o
4023 1 1 2 14 12933.80 11357.70 885.80 o
4024 4 6 14 -2 47566.70 43313.50 2603.04 o
4024 3 9 -2 -14 47566.70 43313.50 2603.04 o
4024 2 5 -14 2 47566.70 43313.50 2603.04 o
4024 1 2 2 14 47566.70 43313.50 2603.04 o
4025 3 -1 -3 -14 1288.01 1232.91 300.07 o
4025 1 -8 3 14 1288.01 1232.91 300.07 o
4026 3 0 -3 -14 642.07 572.92 133.72 o
4026 1 -7 3 14 642.07 572.92 133.72 o
4027 3 1 -3 -14 1124.76 1063.29 168.52 o
4027 1 -6 3 14 1124.76 1063.29 168.52 o
4028 3 2 -3 -14 4536.33 4752.96 341.52 o
4028 1 -5 3 14 4536.33 4752.96 341.52 o
4029 3 3 -3 -14 3081.67 3197.15 282.74 o
4029 1 -4 3 14 3081.67 3197.15 282.74 o
4030 3 4 -3 -14 2854.54 2804.68 265.35 o
4030 1 -3 3 14 2854.54 2804.68 265.35 o
4031 3 5 -3 -14 4111.10 4178.98 370.91 o
4031 1 -2 3 14 4111.10 4178.98 370.91 o
4032 3 6 -3 -14 992.67 1063.31 200.05 o
4032 1 -1 3 14 992.67 1063.31 200.05 o
4033 3 7 -3 -14 513.28 791.46 153.29 o
4033 1 0 3 14 513.28 791.46 153.29 o
4034 3 8 -3 -14 1149.94 981.78 258.76 o
4034 1 1 3 14 1149.94 981.78 258.76 o
4035 3 -1 -4 -14 624.10 558.77 228.29 <
4035 1 -8 4 14 624.10 558.77 228.29 <
4036 3 0 -4 -14 88.29 203.29 71.75 <
4036 1 -7 4 14 88.29 203.29 71.75 <
4037 3 1 -4 -14 495.81 600.10 130.46 o
4037 1 -6 4 14 495.81 600.10 130.46 o
4038 3 2 -4 -14 842.46 917.55 151.11 o
4038 1 -5 4 14 842.46 917.55 151.11 o
4039 3 3 -4 -14 830.56 893.70 144.60 o
4039 1 -4 4 14 830.56 893.70 144.60 o
4040 3 4 -4 -14 1083.28 1302.45 184.82 o
4040 1 -3 4 14 1083.28 1302.45 184.82 o
4041 3 5 -4 -14 524.99 452.27 138.07 o
4041 1 -2 4 14 524.99 452.27 138.07 o
4042 3 6 -4 -14 450.42 692.51 160.90 o
4042 1 -1 4 14 450.42 692.51 160.90 o
4043 3 7 -4 -14 266.59 47.83 76.10 <
4043 1 0 4 14 266.59 47.83 76.10 <
4044 3 8 -4 -14 242.02 216.35 191.34 <
4044 1 1 4 14 242.02 216.35 191.34 <
4045 3 -1 -5 -14 1257.25 417.50 300.08 <
4045 1 -8 5 14 1257.25 417.50 300.08 <
4046 3 0 -5 -14 697.17 640.33 166.33 o
4046 1 -7 5 14 697.17 640.33 166.33 o
4047 3 1 -5 -14 1176.24 1182.91 182.65 o
4047 1 -6 5 14 1176.24 1182.91 182.65 o
4048 3 2 -5 -14 3998.18 4083.78 325.18 o
4048 1 -5 5 14 3998.18 4083.78 325.18 o
4049 3 3 -5 -14 2548.28 2408.56 246.84 o
4049 1 -4 5 14 2548.28 2408.56 246.84 o
4050 3 4 -5 -14 2325.73 2098.73 265.33 o
4050 1 -3 5 14 2325.73 2098.73 265.33 o
4051 3 5 -5 -14 3642.50 3895.85 366.53 o
4051 1 -2 5 14 3642.50 3895.85 366.53 o
4052 3 6 -5 -14 1171.23 1189.43 171.78 o
4052 1 -1 5 14 1171.23 1189.43 171.78 o
4053 3 7 -5 -14 585.05 812.11 313.11 <
4053 1 0 5 14 585.05 812.11 313.11 <
4054 3 8 -5 -14 1244.97 1467.77 454.46 o
4054 1 1 5 14 1244.97 1467.77 454.46 o
4055 4 -1 14 -6 22156.60 20350.10 1537.67 o
4055 3 1 -6 -14 22156.60 20350.10 1537.67 o
4055 2 -4 -14 6 22156.60 20350.10 1537.67 o
4055 1 -6 6 14 22156.60 20350.10 1537.67 o
4056 4 0 14 -6 10903.00 9499.57 602.70 o
4056 3 2 -6 -14 10903.00 9499.57 602.70 o
4056 2 -3 -14 6 10903.00 9499.57 602.70 o
4056 1 -5 6 14 10903.00 9499.57 602.70 o
4057 4 1 14 -6 104.12 45.66 93.49 <
4057 3 3 -6 -14 104.12 45.66 93.49 <
4057 2 -2 -14 6 104.12 45.66 93.49 <
4057 1 -4 6 14 104.12 45.66 93.49 <
4058 4 2 14 -6 69.24 70.66 131.54 <
4058 3 4 -6 -14 69.24 70.66 131.54 <
4058 2 -1 -14 6 69.24 70.66 131.54 <
4058 1 -3 6 14 69.24 70.66 131.54 <
4059 4 3 14 -6 10738.90 8880.31 743.11 o
4059 3 5 -6 -14 10738.90 8880.31 743.11 o
4059 2 0 -14 6 10738.90 8880.31 743.11 o
4059 1 -2 6 14 10738.90 8880.31 743.11 o
4060 4 4 14 -6 22599.80 20254.70 1107.36 o
4060 3 6 -6 -14 22599.80 20254.70 1107.36 o
4060 2 1 -14 6 22599.80 20254.70 1107.36 o
4060 1 -1 6 14 22599.80 20254.70 1107.36 o
4061 4 5 14 -6 9158.67 8031.88 1037.70 o
4061 3 7 -6 -14 9158.67 8031.88 1037.70 o
4061 2 2 -14 6 9158.67 8031.88 1037.70 o
4061 1 0 6 14 9158.67 8031.88 1037.70 o
4062 3 0 -7 -14 152.50 446.79 244.60 <
4062 1 -7 7 14 152.50 446.79 244.60 <
4063 3 1 -7 -14 447.99 467.46 243.51 <
4063 1 -6 7 14 447.99 467.46 243.51 <
4064 3 2 -7 -14 262.09 128.28 146.76 <
4064 1 -5 7 14 262.09 128.28 146.76 <
4065 3 3 -7 -14 2114.17 1754.98 487.13 o
4065 1 -4 7 14 2114.17 1754.98 487.13 o
4066 3 4 -7 -14 2086.07 2026.82 498.01 o
4066 1 -3 7 14 2086.07 2026.82 498.01 o
4067 3 5 -7 -14 196.12 320.70 173.94 <
4067 1 -2 7 14 196.12 320.70 173.94 <
4068 3 6 -7 -14 317.66 296.79 94.58 o
4068 1 -1 7 14 317.66 296.79 94.58 o
4069 3 7 -7 -14 109.48 690.31 372.87 <
4069 1 0 7 14 109.48 690.31 372.87 <
4070 3 5 -8 -14 26.32 125.01 161.97 <
4070 1 -2 8 14 26.32 125.01 161.97 <
4071 4 -5 15 3 129.98 -151.11 202.20 <
4071 1 -8 -3 15 129.98 -151.11 202.20 <
4072 4 -4 15 3 595.49 680.54 390.28 <
4072 1 -7 -3 15 595.49 680.54 390.28 <
4073 4 -3 15 3 309.96 -114.14 244.60 <
4073 1 -6 -3 15 309.96 -114.14 244.60 <
4074 4 -2 15 3 300.79 193.51 223.95 <
4074 1 -5 -3 15 300.79 193.51 223.95 <
4075 4 -1 15 3 259.77 548.99 285.91 <
4075 1 -4 -3 15 259.77 548.99 285.91 <
4076 2 -3 -15 -1 100.70 189.15 289.16 <
4076 1 -7 -1 15 100.70 189.15 289.16 <
4077 2 -2 -15 -1 66.14 367.43 210.89 <
4077 1 -6 -1 15 66.14 367.43 210.89 <
4078 2 -1 -15 -1 632.23 747.96 206.56 o
4078 1 -5 -1 15 632.23 747.96 206.56 o
4079 2 0 -15 -1 20.71 8.70 81.53 <
4079 1 -4 -1 15 20.71 8.70 81.53 <
4080 2 1 -15 -1 364.31 256.56 175.03 <
4080 1 -3 -1 15 364.31 256.56 175.03 <
4081 2 2 -15 -1 759.93 476.19 184.82 <
4081 1 -2 -1 15 759.93 476.19 184.82 <
4082 2 3 -15 -1 159.12 323.96 194.59 <
4082 1 -1 -1 15 159.12 323.96 194.59 <
4083 4 -3 15 -1 111.62 301.12 282.64 <
4083 1 -7 1 15 111.62 301.12 282.64 <
4084 4 -2 15 -1 74.10 365.26 197.85 <
4084 1 -6 1 15 74.10 365.26 197.85 <
4085 4 -1 15 -1 721.17 701.21 233.74 <
4085 1 -5 1 15 721.17 701.21 233.74 <
4086 4 0 15 -1 28.84 277.21 157.63 <
4086 1 -4 1 15 28.84 277.21 157.63 <
4087 4 1 15 -1 413.17 538.12 205.46 <
4087 1 -3 1 15 413.17 538.12 205.46 <
4088 4 2 15 -1 900.04 688.19 210.91 o
4088 1 -2 1 15 900.04 688.19 210.91 o
4089 4 3 15 -1 203.02 259.82 243.51 <
4089 1 -1 1 15 203.02 259.82 243.51 <
4090 4 4 15 -1 2042.42 2431.09 603.42 o
4090 1 0 1 15 2042.42 2431.09 603.42 o
4091 1 -8 2 15 2547.02 2242.31 599.18 o
4092 1 -7 2 15 2979.56 2886.26 456.76 o
4093 1 -6 2 15 2078.73 2183.47 320.78 o
4094 1 -5 2 15 893.99 1052.42 167.43 o
4095 1 -4 2 15 710.80 703.41 157.64 o
4096 1 -3 2 15 951.96 946.97 175.04 o
4097 1 -2 2 15 1746.51 1818.03 299.02 o
4098 1 -1 2 15 3169.88 3972.80 775.42 o
4099 1 0 2 15 3253.31 2979.88 689.51 o
4100 1 1 2 15 2276.97 1958.41 592.63 o
4101 2 -3 -15 3 286.06 695.74 213.07 o
4101 1 -6 3 15 286.06 695.74 213.07 o
4102 2 -2 -15 3 244.64 157.63 96.75 <
4102 1 -5 3 15 244.64 157.63 96.75 <
4103 2 -1 -15 3 225.66 283.73 119.58 <
4103 1 -4 3 15 225.66 283.73 119.58 <
4104 2 0 -15 3 65.71 248.94 158.71 <
4104 1 -3 3 15 65.71 248.94 158.71 <
4105 2 1 -15 3 61.33 178.28 230.46 <
4105 1 -2 3 15 61.33 178.28 230.46 <
4106 2 2 -15 3 2496.92 2876.12 656.78 o
4106 1 -1 3 15 2496.92 2876.12 656.78 o
4107 2 3 -15 3 74.74 31.53 177.20 <
4107 1 0 3 15 74.74 31.53 177.20 <
4108 1 -6 4 15 243.14 270.69 122.84 <
4109 1 -5 4 15 340.40 466.38 185.90 <
4110 1 -4 4 15 259.40 164.15 83.71 <
4111 1 -3 4 15 342.88 312.01 150.02 <
4112 1 -2 4 15 231.52 15.22 102.19 <
4113 1 -1 4 15 150.07 235.90 172.85 <
4114 1 0 4 15 261.85 86.97 77.18 <
4115 4 -1 15 -5 453.99 385.93 147.85 <
4115 1 -6 5 15 453.99 385.93 147.85 <
4116 4 0 15 -5 16.90 -38.05 72.83 <
4116 1 -5 5 15 16.90 -38.05 72.83 <
4117 4 1 15 -5 115.77 171.76 243.51 <
4117 1 -4 5 15 115.77 171.76 243.51 <
4118 4 2 15 -5 14.45 115.23 169.58 <
4118 1 -3 5 15 14.45 115.23 169.58 <
4119 4 3 15 -5 12.89 0.00 97.84 <
4119 1 -2 5 15 12.89 0.00 97.84 <
4120 4 4 15 -5 2321.94 2737.91 608.91 o
4120 1 -1 5 15 2321.94 2737.91 608.91 o
4121 1 -5 6 15 385.08 440.29 250.04 <
4122 1 -2 6 15 854.72 686.02 319.64 <
4123 3 4 -2 -16 347.72 189.16 120.67 <
4123 1 -4 2 16 347.72 189.16 120.67 <
4124 3 4 -3 -16 281.03 75.01 72.84 <
4124 1 -4 3 16 281.03 75.01 72.84 <
4125 4 0 -2 0 0.87 182.63 40.22 o
4125 2 0 2 0 0.87 182.63 40.22 o
4126 4 1 -2 0 0.23 554.41 26.09 o
4126 2 1 2 0 0.23 554.41 26.09 o
4127 4 2 -2 0 9.27 230.46 21.74 o
4127 2 2 2 0 9.27 230.46 21.74 o
4128 4 3 -2 0 88.99 111.97 20.66 o
4128 2 3 2 0 88.99 111.97 20.66 o
4129 4 4 -2 0 103.69 154.37 29.35 o
4129 2 4 2 0 103.69 154.37 29.35 o
4130 4 5 -2 0 16.96 38.05 31.53 <
4130 2 5 2 0 16.96 38.05 31.53 <
4131 4 6 -2 0 70.79 113.06 48.92 <
4131 2 6 2 0 70.79 113.06 48.92 <
4132 4 7 -2 0 352.65 295.71 69.58 o
4132 2 7 2 0 352.65 295.71 69.58 o
4133 4 8 -2 0 135.14 132.63 65.23 <
4133 2 8 2 0 135.14 132.63 65.23 <
4134 4 9 -2 0 769.44 914.35 177.22 o
4134 2 9 2 0 769.44 914.35 177.22 o
4135 4 10 -2 0 12.77 91.31 59.79 <
4135 2 10 2 0 12.77 91.31 59.79 <
4136 4 11 -2 0 1150.13 773.04 192.45 o
4136 2 11 2 0 1150.13 773.04 192.45 o
4137 4 0 -6 0 63.12 226.12 56.53 o
4137 2 0 6 0 63.12 226.12 56.53 o
4138 4 1 -6 0 28.29 34.79 19.57 <
4138 2 1 6 0 28.29 34.79 19.57 <
4139 4 2 -6 0 0.13 23.92 32.61 <
4139 2 2 6 0 0.13 23.92 32.61 <
4140 4 3 -6 0 0.12 7.61 28.26 <
4140 2 3 6 0 0.12 7.61 28.26 <
4141 4 4 -6 0 0.59 -6.52 27.18 <
4141 2 4 6 0 0.59 -6.52 27.18 <
4142 4 5 -6 0 61.33 55.44 31.53 <
4142 2 5 6 0 61.33 55.44 31.53 <
4143 4 6 -6 0 48.51 132.62 56.53 <
4143 2 6 6 0 48.51 132.62 56.53 <
4144 4 7 -6 0 397.15 476.18 93.50 o
4144 2 7 6 0 397.15 476.18 93.50 o
4145 4 8 -6 0 162.89 110.89 83.71 <
4145 2 8 6 0 162.89 110.89 83.71 <
4146 4 9 -6 0 640.31 703.41 173.95 o
4146 2 9 6 0 640.31 703.41 173.95 o
4147 4 10 -6 0 0.06 116.32 101.10 <
4147 2 10 6 0 0.06 116.32 101.10 <
4148 4 0 -10 0 956.05 1102.54 159.84 o
4148 2 0 10 0 956.05 1102.54 159.84 o
4149 4 1 -10 0 736.87 666.49 85.89 o
4149 2 1 10 0 736.87 666.49 85.89 o
4150 4 2 -10 0 439.85 408.78 73.93 o
4150 2 2 10 0 439.85 408.78 73.93 o
4151 4 3 -10 0 188.23 163.07 59.79 <
4151 2 3 10 0 188.23 163.07 59.79 <
4152 4 4 -10 0 91.88 97.84 48.92 <
4152 2 4 10 0 91.88 97.84 48.92 <
4153 4 5 -10 0 437.50 417.47 72.84 o
4153 2 5 10 0 437.50 417.47 72.84 o
4154 4 6 -10 0 716.72 688.20 105.46 o
4154 2 6 10 0 716.72 688.20 105.46 o
4155 4 7 -10 0 53.65 72.83 68.49 <
4155 2 7 10 0 53.65 72.83 68.49 <
4156 4 8 -10 0 112.40 269.60 91.32 <
4156 2 8 10 0 112.40 269.60 91.32 <
4157 4 9 -10 0 1276.02 1165.56 329.45 o
4157 2 9 10 0 1276.02 1165.56 329.45 o
4158 4 0 -14 0 1861.55 1899.70 355.58 o
4158 2 0 14 0 1861.55 1899.70 355.58 o
4159 4 1 -14 0 1829.30 1504.96 208.78 o
4159 2 1 14 0 1829.30 1504.96 208.78 o
4160 4 2 -14 0 1329.31 1114.49 192.45 o
4160 2 2 14 0 1329.31 1114.49 192.45 o
4161 4 3 -14 0 963.89 864.36 175.05 o
4161 2 3 14 0 963.89 864.36 175.05 o
4162 4 4 -14 0 1041.74 1182.93 180.48 o
4162 2 4 14 0 1041.74 1182.93 180.48 o
4163 4 5 -14 0 710.50 547.94 332.68 <
4163 2 5 14 0 710.50 547.94 332.68 <
4164 4 6 -14 0 705.88 160.90 161.99 <
4164 2 6 14 0 705.88 160.90 161.99 <
4165 3 1 -1 -15 96.81 11.96 94.58 <
4165 2 -3 -15 1 96.81 11.96 94.58 <
4166 3 2 -1 -15 342.00 410.94 164.16 <
4166 2 -2 -15 1 342.00 410.94 164.16 <
4167 3 3 -1 -15 132.28 55.44 158.72 <
4167 2 -1 -15 1 132.28 55.44 158.72 <
4168 3 4 -1 -15 16.76 -145.67 111.97 <
4168 2 0 -15 1 16.76 -145.67 111.97 <
4169 3 5 -1 -15 236.64 275.05 159.81 <
4169 2 1 -15 1 236.64 275.05 159.81 <
4170 3 6 -1 -15 22.43 -154.37 96.75 <
4170 2 2 -15 1 22.43 -154.37 96.75 <
4171 3 7 -1 -15 32.09 242.42 238.07 <
4171 2 3 -15 1 32.09 242.42 238.07 <
4172 3 8 -1 -15 514.10 917.63 416.41 <
4172 2 4 -15 1 514.10 917.63 416.41 <
4173 3 -4 -1 -11 146.67 323.96 132.63 <
4173 2 -7 -11 1 146.67 323.96 132.63 <
4174 3 -3 -1 -11 1851.19 1956.72 306.72 o
4174 2 -6 -11 1 1851.19 1956.72 306.72 o
4175 3 -2 -1 -11 42.24 -92.40 72.84 <
4175 2 -5 -11 1 42.24 -92.40 72.84 <
4176 3 -1 -1 -11 309.97 395.74 119.59 o
4176 2 -4 -11 1 309.97 395.74 119.59 o
4177 3 0 -1 -11 3297.25 3206.07 374.37 o
4177 2 -3 -11 1 3297.25 3206.07 374.37 o
4178 3 1 -1 -11 242.83 131.55 66.32 <
4178 2 -2 -11 1 242.83 131.55 66.32 <
4179 3 2 -1 -11 145.07 150.03 107.63 <
4179 2 -1 -11 1 145.07 150.03 107.63 <
4180 3 3 -1 -11 590.99 490.37 119.60 o
4180 2 0 -11 1 590.99 490.37 119.60 o
4181 3 4 -1 -11 118.50 76.10 58.71 <
4181 2 1 -11 1 118.50 76.10 58.71 <
4182 3 5 -1 -11 1095.74 1015.77 180.53 o
4182 2 2 -11 1 1095.74 1015.77 180.53 o
4183 3 6 -1 -11 1467.15 1438.98 216.45 o
4183 2 3 -11 1 1467.15 1438.98 216.45 o
4184 3 7 -1 -11 266.32 320.72 105.46 o
4184 2 4 -11 1 266.32 320.72 105.46 o
4185 3 8 -1 -11 240.90 458.78 204.39 <
4185 2 5 -11 1 240.90 458.78 204.39 <
4186 3 9 -1 -11 1072.91 841.69 226.19 o
4186 2 6 -11 1 1072.91 841.69 226.19 o
4187 3 10 -1 -11 288.15 476.18 216.35 <
4187 2 7 -11 1 288.15 476.18 216.35 <
4188 3 -8 -1 -7 583.85 584.94 247.89 <
4188 2 -10 -7 1 583.85 584.94 247.89 <
4189 3 -7 -1 -7 577.18 693.67 182.66 o
4189 2 -9 -7 1 577.18 693.67 182.66 o
4190 3 -6 -1 -7 883.78 957.97 217.47 o
4190 2 -8 -7 1 883.78 957.97 217.47 o
4191 3 -5 -1 -7 351.81 371.83 131.55 <
4191 2 -7 -7 1 351.81 371.83 131.55 <
4192 3 -4 -1 -7 1.74 -5.44 55.44 <
4192 2 -6 -7 1 1.74 -5.44 55.44 <
4193 3 -3 -1 -7 4228.32 3986.83 233.05 o
4193 2 -5 -7 1 4228.32 3986.83 233.05 o
4194 3 -2 -1 -7 3945.54 3812.42 194.98 o
4194 2 -4 -7 1 3945.54 3812.42 194.98 o
4195 3 -1 -1 -7 315.32 401.22 81.55 o
4195 2 -3 -7 1 315.32 401.22 81.55 o
4196 3 0 -1 -7 2440.71 2270.78 155.67 o
4196 2 -2 -7 1 2440.71 2270.78 155.67 o
4197 3 1 -1 -7 1431.14 1553.71 150.15 o
4197 2 -1 -7 1 1431.14 1553.71 150.15 o
4198 3 2 -1 -7 493.95 477.39 84.82 o
4198 2 0 -7 1 493.95 477.39 84.82 o
4199 3 3 -1 -7 1846.46 1804.49 167.61 o
4199 2 1 -7 1 1846.46 1804.49 167.61 o
4200 3 4 -1 -7 1315.52 1393.59 200.17 o
4200 2 2 -7 1 1315.52 1393.59 200.17 o
4201 3 5 -1 -7 1635.69 1671.17 138.18 o
4201 2 3 -7 1 1635.69 1671.17 138.18 o
4202 3 6 -1 -7 3491.50 3437.70 263.52 o
4202 2 4 -7 1 3491.50 3437.70 263.52 o
4203 3 7 -1 -7 2370.15 2407.06 223.08 o
4203 2 5 -7 1 2370.15 2407.06 223.08 o
4204 3 8 -1 -7 14.22 -35.87 60.88 <
4204 2 6 -7 1 14.22 -35.87 60.88 <
4205 3 9 -1 -7 177.22 133.72 142.42 <
4205 2 7 -7 1 177.22 133.72 142.42 <
4206 3 10 -1 -7 2703.93 2651.48 596.23 o
4206 2 8 -7 1 2703.93 2651.48 596.23 o
4207 3 -10 -1 -3 1532.14 1603.02 394.77 o
4207 2 -11 -3 1 1532.14 1603.02 394.77 o
4208 3 -9 -1 -3 535.62 476.21 151.13 o
4208 2 -10 -3 1 535.62 476.21 151.13 o
4209 3 -8 -1 -3 124.99 146.76 76.10 <
4209 2 -9 -3 1 124.99 146.76 76.10 <
4210 3 -7 -1 -3 7.33 59.79 46.74 <
4210 2 -8 -3 1 7.33 59.79 46.74 <
4211 3 -6 -1 -3 345.55 380.53 108.72 o
4211 2 -7 -3 1 345.55 380.53 108.72 o
4212 3 -5 -1 -3 2678.76 2511.15 183.96 o
4212 2 -6 -3 1 2678.76 2511.15 183.96 o
4213 3 -4 -1 -3 111.04 170.68 57.62 <
4213 2 -5 -3 1 111.04 170.68 57.62 <
4214 3 -3 -1 -3 1363.89 1366.71 107.73 o
4214 2 -4 -3 1 1363.89 1366.71 107.73 o
4215 3 -2 -1 -3 6697.98 6820.53 185.90 o
4215 2 -3 -3 1 6697.98 6820.53 185.90 o
4216 3 -1 -1 -3 888.40 883.64 56.59 o
4216 2 -2 -3 1 888.40 883.64 56.59 o
4217 3 0 -1 -3 259.96 321.90 29.36 o
4217 2 -1 -3 1 259.96 321.90 29.36 o
4218 3 1 -1 -3 461.01 464.49 38.07 o
4218 2 0 -3 1 461.01 464.49 38.07 o
4219 3 2 -1 -3 603.91 753.91 62.01 o
4219 2 1 -3 1 603.91 753.91 62.01 o
4220 3 3 -1 -3 3018.04 3067.57 133.04 o
4220 2 2 -3 1 3018.04 3067.57 133.04 o
4221 3 4 -1 -3 3982.36 3794.41 161.42 o
4221 2 3 -3 1 3982.36 3794.41 161.42 o
4222 3 5 -1 -3 1334.76 1623.34 176.26 o
4222 2 4 -3 1 1334.76 1623.34 176.26 o
4223 3 6 -1 -3 259.71 296.82 101.11 <
4223 2 5 -3 1 259.71 296.82 101.11 <
4224 3 7 -1 -3 2453.22 2613.07 265.55 o
4224 2 6 -3 1 2453.22 2613.07 265.55 o
4225 3 8 -1 -3 748.78 647.01 138.10 o
4225 2 7 -3 1 748.78 647.01 138.10 o
4226 3 9 -1 -3 479.95 658.88 306.61 <
4226 2 8 -3 1 479.95 658.88 306.61 <
4227 3 10 -1 -3 1325.59 1849.89 457.85 o
4227 2 9 -3 1 1325.59 1849.89 457.85 o
4228 3 11 -1 -3 2190.41 2590.00 558.03 o
4228 2 10 -3 1 2190.41 2590.00 558.03 o
4229 3 -11 -1 1 82.83 -4.35 46.75 <
4229 2 -11 1 1 82.83 -4.35 46.75 <
4230 3 -10 -1 1 1.25 103.27 168.50 <
4230 2 -10 1 1 1.25 103.27 168.50 <
4231 3 -9 -1 1 8.02 14.13 90.23 <
4231 2 -9 1 1 8.02 14.13 90.23 <
4232 3 -8 -1 1 28.03 123.93 83.71 <
4232 2 -8 1 1 28.03 123.93 83.71 <
4233 3 -7 -1 1 384.75 269.64 101.11 <
4233 2 -7 1 1 384.75 269.64 101.11 <
4234 3 -6 -1 1 682.40 667.70 119.62 o
4234 2 -6 1 1 682.40 667.70 119.62 o
4235 3 -5 -1 1 1770.38 1569.34 159.98 o
4235 2 -5 1 1 1770.38 1569.34 159.98 o
4236 3 -4 -1 1 1203.70 1205.66 104.46 o
4236 2 -4 1 1 1203.70 1205.66 104.46 o
4237 3 -3 -1 1 37.02 504.42 76.10 o
4237 2 -3 1 1 37.02 504.42 76.10 o
4238 3 -2 -1 1 60.39 227.22 34.79 o
4238 2 -2 1 1 60.39 227.22 34.79 o
4239 3 1 -1 1 5.63 460.92 56.53 o
4239 2 1 1 1 5.63 460.92 56.53 o
4240 3 2 -1 1 75.17 226.13 33.70 o
4240 2 2 1 1 75.17 226.13 33.70 o
4241 3 3 -1 1 378.13 462.17 51.11 o
4241 2 3 1 1 378.13 462.17 51.11 o
4242 3 4 -1 1 1032.75 1010.64 109.88 o
4242 2 4 1 1 1032.75 1010.64 109.88 o
4243 3 5 -1 1 1204.01 1274.94 133.80 o
4243 2 5 1 1 1204.01 1274.94 133.80 o
4244 3 6 -1 1 904.69 949.43 130.51 o
4244 2 6 1 1 904.69 949.43 130.51 o
4245 3 7 -1 1 329.09 347.91 90.24 o
4245 2 7 1 1 329.09 347.91 90.24 o
4246 3 8 -1 1 1974.71 1598.03 190.37 o
4246 2 8 1 1 1974.71 1598.03 190.37 o
4247 3 9 -1 1 104.41 332.66 185.90 <
4247 2 9 1 1 104.41 332.66 185.90 <
4248 3 10 -1 1 161.58 127.19 56.53 <
4248 2 10 1 1 161.58 127.19 56.53 <
4249 3 11 -1 1 1417.52 987.45 296.89 o
4249 2 11 1 1 1417.52 987.45 296.89 o
4250 3 -12 -1 5 41.39 -191.33 138.06 <
4250 2 -11 5 1 41.39 -191.33 138.06 <
4251 3 -11 -1 5 22.47 378.30 297.86 <
4251 2 -10 5 1 22.47 378.30 297.86 <
4252 3 -10 -1 5 735.70 948.13 389.25 <
4252 2 -9 5 1 735.70 948.13 389.25 <
4253 3 -9 -1 5 1930.34 2241.87 587.39 o
4253 2 -8 5 1 1930.34 2241.87 587.39 o
4254 3 -8 -1 5 399.90 400.10 126.12 o
4254 2 -7 5 1 399.90 400.10 126.12 o
4255 3 -7 -1 5 28.91 108.71 57.62 <
4255 2 -6 5 1 28.91 108.71 57.62 <
4256 3 -6 -1 5 1279.23 1171.52 140.32 o
4256 2 -5 5 1 1279.23 1171.52 140.32 o
4257 3 -5 -1 5 133.76 209.82 67.40 o
4257 2 -4 5 1 133.76 209.82 67.40 o
4258 3 -4 -1 5 23.33 153.28 51.09 o
4258 2 -3 5 1 23.33 153.28 51.09 o
4259 3 -3 -1 5 830.36 900.66 101.16 o
4259 2 -2 5 1 830.36 900.66 101.16 o
4260 3 -2 -1 5 2325.12 2206.88 138.34 o
4260 2 -1 5 1 2325.12 2206.88 138.34 o
4261 3 -1 -1 5 3273.05 3278.09 188.60 o
4261 2 0 5 1 3273.05 3278.09 188.60 o
4262 3 0 -1 5 1016.50 993.29 77.24 o
4262 2 1 5 1 1016.50 993.29 77.24 o
4263 3 1 -1 5 123.12 157.64 48.92 o
4263 2 2 5 1 123.12 157.64 48.92 o
4264 3 2 -1 5 2.30 64.14 28.26 <
4264 2 3 5 1 2.30 64.14 28.26 <
4265 3 3 -1 5 75.47 142.41 43.49 o
4265 2 4 5 1 75.47 142.41 43.49 o
4266 3 4 -1 5 1537.14 1490.38 140.34 o
4266 2 5 5 1 1537.14 1490.38 140.34 o
4267 3 5 -1 5 23.75 54.35 55.44 <
4267 2 6 5 1 23.75 54.35 55.44 <
4268 3 6 -1 5 86.05 30.44 65.23 <
4268 2 7 5 1 86.05 30.44 65.23 <
4269 3 7 -1 5 3978.87 4514.99 429.95 o
4269 2 8 5 1 3978.87 4514.99 429.95 o
4270 3 8 -1 5 60.07 57.62 92.40 <
4270 2 9 5 1 60.07 57.62 92.40 <
4271 3 9 -1 5 374.64 233.74 119.59 <
4271 2 10 5 1 374.64 233.74 119.59 <
4272 3 -11 -1 9 293.46 1040.39 454.42 <
4272 2 -9 9 1 293.46 1040.39 454.42 <
4273 3 -10 -1 9 334.78 226.13 131.54 <
4273 2 -8 9 1 334.78 226.13 131.54 <
4274 3 -9 -1 9 1916.17 1705.45 258.86 o
4274 2 -7 9 1 1916.17 1705.45 258.86 o
4275 3 -8 -1 9 1474.50 1507.35 231.65 o
4275 2 -6 9 1 1474.50 1507.35 231.65 o
4276 3 -7 -1 9 1.59 16.31 81.53 <
4276 2 -5 9 1 1.59 16.31 81.53 <
4277 3 -6 -1 9 127.08 108.71 75.01 <
4277 2 -4 9 1 127.08 108.71 75.01 <
4278 3 -5 -1 9 696.95 667.66 180.51 o
4278 2 -3 9 1 696.95 667.66 180.51 o
4279 3 -4 -1 9 1170.30 950.60 201.21 o
4279 2 -2 9 1 1170.30 950.60 201.21 o
4280 3 -3 -1 9 1790.52 1739.53 195.82 o
4280 2 -1 9 1 1790.52 1739.53 195.82 o
4281 3 -2 -1 9 1203.22 1120.31 154.45 o
4281 2 0 9 1 1203.22 1120.31 154.45 o
4282 3 -1 -1 9 1713.29 1716.83 150.14 o
4282 2 1 9 1 1713.29 1716.83 150.14 o
4283 3 0 -1 9 571.30 476.26 105.47 o
4283 2 2 9 1 571.30 476.26 105.47 o
4284 3 1 -1 9 240.49 355.51 111.98 o
4284 2 3 9 1 240.49 355.51 111.98 o
4285 3 2 -1 9 184.76 248.96 94.58 <
4285 2 4 9 1 184.76 248.96 94.58 <
4286 3 3 -1 9 12.50 89.14 56.53 <
4286 2 5 9 1 12.50 89.14 56.53 <
4287 3 4 -1 9 2518.93 2340.32 249.15 o
4287 2 6 9 1 2518.93 2340.32 249.15 o
4288 3 5 -1 9 1792.96 1806.62 237.11 o
4288 2 7 9 1 1792.96 1806.62 237.11 o
4289 3 6 -1 9 335.43 501.17 138.07 o
4289 2 8 9 1 335.43 501.17 138.07 o
4290 3 7 -1 9 972.91 946.03 229.44 o
4290 2 9 9 1 972.91 946.03 229.44 o
4291 3 -10 -1 13 36.37 134.80 322.86 <
4291 2 -7 13 1 36.37 134.80 322.86 <
4292 3 -9 -1 13 25.69 371.78 161.97 <
4292 2 -6 13 1 25.69 371.78 161.97 <
4293 3 -8 -1 13 233.06 229.38 145.68 <
4293 2 -5 13 1 233.06 229.38 145.68 <
4294 3 -7 -1 13 0.57 90.23 67.40 <
4294 2 -4 13 1 0.57 90.23 67.40 <
4295 3 -6 -1 13 3.39 31.53 125.01 <
4295 2 -3 13 1 3.39 31.53 125.01 <
4296 3 -5 -1 13 68.99 261.99 150.02 <
4296 2 -2 13 1 68.99 261.99 150.02 <
4297 3 -4 -1 13 411.79 424.02 151.13 <
4297 2 -1 13 1 411.79 424.02 151.13 <
4298 3 -3 -1 13 1030.94 848.19 228.36 o
4298 2 0 13 1 1030.94 848.19 228.36 o
4299 3 -2 -1 13 64.71 119.58 75.01 <
4299 2 1 13 1 64.71 119.58 75.01 <
4300 3 -1 -1 13 29.56 157.63 138.06 <
4300 2 2 13 1 29.56 157.63 138.06 <
4301 3 0 -1 13 3.67 -103.27 120.67 <
4301 2 3 13 1 3.67 -103.27 120.67 <
4302 3 1 -1 13 9.88 89.14 161.97 <
4302 2 4 13 1 9.88 89.14 161.97 <
4303 3 2 -1 13 732.43 720.88 188.10 o
4303 2 5 13 1 732.43 720.88 188.10 o
4304 3 3 -1 13 33.81 -10.87 85.88 <
4304 2 6 13 1 33.81 -10.87 85.88 <
4305 4 -10 0 -2 330.48 243.52 231.56 <
4305 2 -11 0 2 330.48 243.52 231.56 <
4306 4 -9 0 -2 116.01 72.84 98.93 <
4306 2 -10 0 2 116.01 72.84 98.93 <
4307 4 -8 0 -2 238.24 213.08 115.24 <
4307 2 -9 0 2 238.24 213.08 115.24 <
4308 4 -7 0 -2 354.61 460.96 148.94 o
4308 2 -8 0 2 354.61 460.96 148.94 o
4309 4 -6 0 -2 173.53 129.37 79.36 <
4309 2 -7 0 2 173.53 129.37 79.36 <
4310 4 -5 0 -2 253.88 206.56 83.71 <
4310 2 -6 0 2 253.88 206.56 83.71 <
4311 4 -4 0 -2 5.10 53.27 47.83 <
4311 2 -5 0 2 5.10 53.27 47.83 <
4312 4 -3 0 -2 253.77 530.54 144.59 o
4312 2 -4 0 2 253.77 530.54 144.59 o
4313 4 -2 0 -2 6.06 82.62 42.40 <
4313 2 -3 0 2 6.06 82.62 42.40 <
4314 4 -1 0 -2 2.97 118.49 29.35 o
4314 2 -2 0 2 2.97 118.49 29.35 o
4315 4 0 0 -2 2.83 787.04 52.18 o
4315 2 -1 0 2 2.83 787.04 52.18 o
4316 4 1 0 -2 3.85 813.14 47.83 o
4316 2 0 0 2 3.85 813.14 47.83 o
4317 4 2 0 -2 2.10 104.36 20.65 o
4317 2 1 0 2 2.10 104.36 20.65 o
4318 4 3 0 -2 7.13 21.74 18.48 <
4318 2 2 0 2 7.13 21.74 18.48 <
4319 4 4 0 -2 289.78 472.96 59.80 o
4319 2 3 0 2 289.78 472.96 59.80 o
4320 4 5 0 -2 3.72 46.74 39.13 <
4320 2 4 0 2 3.72 46.74 39.13 <
4321 4 6 0 -2 252.72 230.48 59.79 o
4321 2 5 0 2 252.72 230.48 59.79 o
4322 4 7 0 -2 161.01 198.94 75.01 <
4322 2 6 0 2 161.01 198.94 75.01 <
4323 4 8 0 -2 309.26 447.90 119.58 o
4323 2 7 0 2 309.26 447.90 119.58 o
4324 4 9 0 -2 236.58 235.91 148.94 <
4324 2 8 0 2 236.58 235.91 148.94 <
4325 4 10 0 -2 114.15 96.75 32.61 <
4325 2 9 0 2 114.15 96.75 32.61 <
4326 4 11 0 -2 343.34 491.39 229.39 <
4326 2 10 0 2 343.34 491.39 229.39 <
4327 4 -10 -4 -2 145.60 240.25 188.07 <
4327 2 -11 4 2 145.60 240.25 188.07 <
4328 4 -9 -4 -2 246.52 383.75 130.45 <
4328 2 -10 4 2 246.52 383.75 130.45 <
4329 4 -8 -4 -2 381.67 491.39 98.93 o
4329 2 -9 4 2 381.67 491.39 98.93 o
4330 4 -7 -4 -2 153.08 186.98 79.36 <
4330 2 -8 4 2 153.08 186.98 79.36 <
4331 4 -6 -4 -2 42.21 -6.52 36.96 <
4331 2 -7 4 2 42.21 -6.52 36.96 <
4332 4 -5 -4 -2 515.03 518.61 86.98 o
4332 2 -6 4 2 515.03 518.61 86.98 o
4333 4 -4 -4 -2 86.74 64.14 35.87 <
4333 2 -5 4 2 86.74 64.14 35.87 <
4334 4 -3 -4 -2 2.99 70.66 27.18 <
4334 2 -4 4 2 2.99 70.66 27.18 <
4335 4 -2 -4 -2 95.02 97.84 25.00 o
4335 2 -3 4 2 95.02 97.84 25.00 o
4336 4 -1 -4 -2 77.93 185.90 36.96 o
4336 2 -2 4 2 77.93 185.90 36.96 o
4337 4 0 -4 -2 33.81 158.72 23.92 o
4337 2 -1 4 2 33.81 158.72 23.92 o
4338 4 1 -4 -2 28.90 179.37 25.00 o
4338 2 0 4 2 28.90 179.37 25.00 o
4339 4 2 -4 -2 83.98 189.16 30.44 o
4339 2 1 4 2 83.98 189.16 30.44 o
4340 4 3 -4 -2 100.26 121.76 25.00 o
4340 2 2 4 2 100.26 121.76 25.00 o
4341 4 4 -4 -2 2.98 92.40 29.35 o
4341 2 3 4 2 2.98 92.40 29.35 o
4342 4 5 -4 -2 107.68 98.93 27.18 o
4342 2 4 4 2 107.68 98.93 27.18 o
4343 4 6 -4 -2 502.23 561.00 80.45 o
4343 2 5 4 2 502.23 561.00 80.45 o
4344 4 7 -4 -2 52.26 2.17 54.35 <
4344 2 6 4 2 52.26 2.17 54.35 <
4345 4 8 -4 -2 156.12 115.23 50.01 <
4345 2 7 4 2 156.12 115.23 50.01 <
4346 4 9 -4 -2 361.41 458.77 113.06 o
4346 2 8 4 2 361.41 458.77 113.06 o
4347 4 10 -4 -2 264.07 145.68 103.28 <
4347 2 9 4 2 264.07 145.68 103.28 <
4348 4 11 -4 -2 126.50 270.68 166.32 <
4348 2 10 4 2 126.50 270.68 166.32 <
4349 4 -9 -8 -2 9.89 -36.96 138.06 <
4349 2 -10 8 2 9.89 -36.96 138.06 <
4350 4 -8 -8 -2 25.68 172.85 122.84 <
4350 2 -9 8 2 25.68 172.85 122.84 <
4351 4 -7 -8 -2 496.90 427.26 110.89 o
4351 2 -8 8 2 496.90 427.26 110.89 o
4352 4 -6 -8 -2 338.56 334.84 78.27 o
4352 2 -7 8 2 338.56 334.84 78.27 o
4353 4 -5 -8 -2 6.67 52.18 53.27 <
4353 2 -6 8 2 6.67 52.18 53.27 <
4354 4 -4 -8 -2 128.18 114.15 53.27 <
4354 2 -5 8 2 128.18 114.15 53.27 <
4355 4 -3 -8 -2 487.70 443.57 63.06 o
4355 2 -4 8 2 487.70 443.57 63.06 o
4356 4 -2 -8 -2 182.00 147.85 50.01 <
4356 2 -3 8 2 182.00 147.85 50.01 <
4357 4 -1 -8 -2 144.05 206.55 40.22 o
4357 2 -2 8 2 144.05 206.55 40.22 o
4358 4 0 -8 -2 179.32 186.99 55.44 o
4358 2 -1 8 2 179.32 186.99 55.44 o
4359 4 1 -8 -2 187.09 200.03 57.62 o
4359 2 0 8 2 187.09 200.03 57.62 o
4360 4 2 -8 -2 139.89 186.98 46.75 o
4360 2 1 8 2 139.89 186.98 46.75 o
4361 4 3 -8 -2 193.65 173.94 50.01 o
4361 2 2 8 2 193.65 173.94 50.01 o
4362 4 4 -8 -2 538.60 537.10 64.15 o
4362 2 3 8 2 538.60 537.10 64.15 o
4363 4 5 -8 -2 130.80 111.97 48.92 <
4363 2 4 8 2 130.80 111.97 48.92 <
4364 4 6 -8 -2 4.58 28.26 40.22 <
4364 2 5 8 2 4.58 28.26 40.22 <
4365 4 7 -8 -2 346.23 429.42 104.37 o
4365 2 6 8 2 346.23 429.42 104.37 o
4366 4 8 -8 -2 479.90 589.24 134.81 o
4366 2 7 8 2 479.90 589.24 134.81 o
4367 4 9 -8 -2 19.55 97.84 66.31 <
4367 2 8 8 2 19.55 97.84 66.31 <
4368 4 10 -8 -2 6.77 133.71 92.40 <
4368 2 9 8 2 6.77 133.71 92.40 <
4369 4 -7 -12 -2 9.03 66.31 107.62 <
4369 2 -8 12 2 9.03 66.31 107.62 <
4370 4 -6 -12 -2 53.96 -10.87 63.05 <
4370 2 -7 12 2 53.96 -10.87 63.05 <
4371 4 -5 -12 -2 605.20 510.97 136.98 o
4371 2 -6 12 2 605.20 510.97 136.98 o
4372 4 -4 -12 -2 334.76 322.87 79.36 o
4372 2 -5 12 2 334.76 322.87 79.36 o
4373 4 -3 -12 -2 145.62 34.79 83.71 <
4373 2 -4 12 2 145.62 34.79 83.71 <
4374 4 -2 -12 -2 331.87 232.65 68.49 o
4374 2 -3 12 2 331.87 232.65 68.49 o
4375 4 -1 -12 -2 382.08 358.76 91.32 o
4375 2 -2 12 2 382.08 358.76 91.32 o
4376 4 0 -12 -2 285.05 287.00 108.71 <
4376 2 -1 12 2 285.05 287.00 108.71 <
4377 4 1 -12 -2 279.84 153.29 69.58 <
4377 2 0 12 2 279.84 153.29 69.58 <
4378 4 2 -12 -2 400.99 370.72 85.89 o
4378 2 1 12 2 400.99 370.72 85.89 o
4379 4 3 -12 -2 352.44 255.48 81.54 o
4379 2 2 12 2 352.44 255.48 81.54 o
4380 4 4 -12 -2 157.23 171.76 82.62 <
4380 2 3 12 2 157.23 171.76 82.62 <
4381 4 5 -12 -2 382.49 456.61 106.54 o
4381 2 4 12 2 382.49 456.61 106.54 o
4382 4 6 -12 -2 631.81 634.92 129.38 o
4382 2 5 12 2 631.81 634.92 129.38 o
4383 4 7 -12 -2 59.56 -69.57 70.66 <
4383 2 6 12 2 59.56 -69.57 70.66 <
4384 4 0 -16 -2 289.40 558.78 294.61 <
4384 2 -1 16 2 289.40 558.78 294.61 <
4385 3 -2 -3 -13 588.54 500.11 204.39 <
4385 2 -6 -13 3 588.54 500.11 204.39 <
4386 3 -1 -3 -13 143.69 116.32 131.54 <
4386 2 -5 -13 3 143.69 116.32 131.54 <
4387 3 0 -3 -13 153.13 129.37 79.36 <
4387 2 -4 -13 3 153.13 129.37 79.36 <
4388 3 1 -3 -13 69.02 164.15 92.40 <
4388 2 -3 -13 3 69.02 164.15 92.40 <
4389 3 2 -3 -13 11.54 -6.52 59.79 <
4389 2 -2 -13 3 11.54 -6.52 59.79 <
4390 3 3 -3 -13 11.41 -16.31 104.36 <
4390 2 -1 -13 3 11.41 -16.31 104.36 <
4391 3 4 -3 -13 5.96 92.40 104.36 <
4391 2 0 -13 3 5.96 92.40 104.36 <
4392 3 5 -3 -13 3.71 104.36 83.70 <
4392 2 1 -13 3 3.71 104.36 83.70 <
4393 3 6 -3 -13 44.97 20.65 59.79 <
4393 2 2 -13 3 44.97 20.65 59.79 <
4394 3 7 -3 -13 261.58 482.70 140.24 o
4394 2 3 -13 3 261.58 482.70 140.24 o
4395 3 8 -3 -13 496.39 522.96 150.04 o
4395 2 4 -13 3 496.39 522.96 150.04 o
4396 3 9 -3 -13 29.21 -129.36 125.01 <
4396 2 5 -13 3 29.21 -129.36 125.01 <
4397 3 -6 -3 -9 1606.70 1373.56 278.41 o
4397 2 -9 -9 3 1606.70 1373.56 278.41 o
4398 3 -5 -3 -9 40.93 -76.10 90.23 <
4398 2 -8 -9 3 40.93 -76.10 90.23 <
4399 3 -4 -3 -9 335.08 481.61 130.46 o
4399 2 -7 -9 3 335.08 481.61 130.46 o
4400 3 -3 -3 -9 252.04 243.53 79.36 o
4400 2 -6 -9 3 252.04 243.53 79.36 o
4401 3 -2 -3 -9 84.70 150.02 51.09 <
4401 2 -5 -9 3 84.70 150.02 51.09 <
4402 3 -1 -3 -9 320.20 246.79 60.88 o
4402 2 -4 -9 3 320.20 246.79 60.88 o
4403 3 0 -3 -9 100.93 101.10 43.48 <
4403 2 -3 -9 3 100.93 101.10 43.48 <
4404 3 1 -3 -9 11.05 -35.87 38.05 <
4404 2 -2 -9 3 11.05 -35.87 38.05 <
4405 3 2 -3 -9 409.54 378.37 85.89 o
4405 2 -1 -9 3 409.54 378.37 85.89 o
4406 3 3 -3 -9 195.28 187.00 58.71 o
4406 2 0 -9 3 195.28 187.00 58.71 o
4407 3 4 -3 -9 0.99 39.13 61.96 <
4407 2 1 -9 3 0.99 39.13 61.96 <
4408 3 5 -3 -9 460.07 301.18 86.98 o
4408 2 2 -9 3 460.07 301.18 86.98 o
4409 3 6 -3 -9 64.33 108.71 65.23 <
4409 2 3 -9 3 64.33 108.71 65.23 <
4410 3 7 -3 -9 104.08 147.85 73.92 <
4410 2 4 -9 3 104.08 147.85 73.92 <
4411 3 8 -3 -9 144.11 98.93 91.32 <
4411 2 5 -9 3 144.11 98.93 91.32 <
4412 3 9 -3 -9 3.42 -223.94 139.15 <
4412 2 6 -9 3 3.42 -223.94 139.15 <
4413 3 -9 -3 -5 83.44 302.21 203.29 <
4413 2 -11 -5 3 83.44 302.21 203.29 <
4414 3 -8 -3 -5 39.90 -35.87 92.40 <
4414 2 -10 -5 3 39.90 -35.87 92.40 <
4415 3 -7 -3 -5 1923.06 1905.62 296.94 o
4415 2 -9 -5 3 1923.06 1905.62 296.94 o
4416 3 -6 -3 -5 143.42 310.92 128.28 <
4416 2 -8 -5 3 143.42 310.92 128.28 <
4417 3 -5 -3 -5 476.15 494.71 116.34 o
4417 2 -7 -5 3 476.15 494.71 116.34 o
4418 3 -4 -3 -5 1232.39 1385.62 171.84 o
4418 2 -6 -5 3 1232.39 1385.62 171.84 o
4419 3 -3 -3 -5 1052.01 1211.60 119.64 o
4419 2 -5 -5 3 1052.01 1211.60 119.64 o
4420 3 -2 -3 -5 443.87 480.61 71.77 o
4420 2 -4 -5 3 443.87 480.61 71.77 o
4421 3 -1 -3 -5 170.35 238.10 47.84 o
4421 2 -3 -5 3 170.35 238.10 47.84 o
4422 3 0 -3 -5 31.98 81.53 29.35 <
4422 2 -2 -5 3 31.98 81.53 29.35 <
4423 3 1 -3 -5 4.97 21.74 21.74 <
4423 2 -1 -5 3 4.97 21.74 21.74 <
4424 3 2 -3 -5 1.55 -8.70 17.39 <
4424 2 0 -5 3 1.55 -8.70 17.39 <
4425 3 3 -3 -5 162.90 191.35 38.05 o
4425 2 1 -5 3 162.90 191.35 38.05 o
4426 3 4 -3 -5 2.89 18.48 28.26 <
4426 2 2 -5 3 2.89 18.48 28.26 <
4427 3 5 -3 -5 1228.51 1250.98 113.13 o
4427 2 3 -5 3 1228.51 1250.98 113.13 o
4428 3 6 -3 -5 1676.74 1686.42 189.32 o
4428 2 4 -5 3 1676.74 1686.42 189.32 o
4429 3 7 -3 -5 290.36 58.71 45.66 <
4429 2 5 -5 3 290.36 58.71 45.66 <
4430 3 8 -3 -5 129.18 73.92 116.32 <
4430 2 6 -5 3 129.18 73.92 116.32 <
4431 3 9 -3 -5 83.41 69.58 96.75 <
4431 2 7 -5 3 83.41 69.58 96.75 <
4432 3 10 -3 -5 43.27 133.71 140.24 <
4432 2 8 -5 3 43.27 133.71 140.24 <
4433 3 11 -3 -5 9.71 -48.92 139.15 <
4433 2 9 -5 3 9.71 -48.92 139.15 <
4434 3 12 -3 -5 24.48 -6.52 80.44 <
4434 2 10 -5 3 24.48 -6.52 80.44 <
4435 3 -10 -3 -1 2237.79 2303.85 338.29 o
4435 2 -11 -1 3 2237.79 2303.85 338.29 o
4436 3 -9 -3 -1 1339.69 1124.50 291.45 o
4436 2 -10 -1 3 1339.69 1124.50 291.45 o
4437 3 -8 -3 -1 484.61 625.17 196.79 o
4437 2 -9 -1 3 484.61 625.17 196.79 o
4438 3 -7 -3 -1 775.90 900.36 230.53 o
4438 2 -8 -1 3 775.90 900.36 230.53 o
4439 3 -6 -3 -1 2507.93 2090.57 317.77 o
4439 2 -7 -1 3 2507.93 2090.57 317.77 o
4440 3 -5 -3 -1 266.12 260.93 122.86 <
4440 2 -6 -1 3 266.12 260.93 122.86 <
4441 3 -4 -3 -1 1347.82 1276.24 213.25 o
4441 2 -5 -1 3 1347.82 1276.24 213.25 o
4442 3 -3 -3 -1 4066.96 3541.98 290.08 o
4442 2 -4 -1 3 4066.96 3541.98 290.08 o
4443 3 -2 -3 -1 3083.69 2993.01 240.97 o
4443 2 -3 -1 3 3083.69 2993.01 240.97 o
4444 3 -1 -3 -1 597.87 685.38 99.00 o
4444 2 -2 -1 3 597.87 685.38 99.00 o
4445 3 0 -3 -1 459.56 452.52 43.51 o
4445 2 -1 -1 3 459.56 452.52 43.51 o
4446 3 1 -3 -1 275.83 308.84 31.54 o
4446 2 0 -1 3 275.83 308.84 31.54 o
4447 3 2 -3 -1 916.23 810.67 68.55 o
4447 2 1 -1 3 916.23 810.67 68.55 o
4448 3 3 -3 -1 6653.31 7325.17 244.97 o
4448 2 2 -1 3 6653.31 7325.17 244.97 o
4449 3 4 -3 -1 1366.04 1252.45 104.46 o
4449 2 3 -1 3 1366.04 1252.45 104.46 o
4450 3 5 -3 -1 126.72 131.54 56.53 <
4450 2 4 -1 3 126.72 131.54 56.53 <
4451 3 6 -3 -1 2657.76 2676.65 200.29 o
4451 2 5 -1 3 2657.76 2676.65 200.29 o
4452 3 7 -3 -1 330.06 454.46 111.99 o
4452 2 6 -1 3 330.06 454.46 111.99 o
4453 3 8 -3 -1 6.92 34.79 86.97 <
4453 2 7 -1 3 6.92 34.79 86.97 <
4454 3 9 -3 -1 122.72 169.59 106.54 <
4454 2 8 -1 3 122.72 169.59 106.54 <
4455 3 10 -3 -1 529.37 426.20 266.38 <
4455 2 9 -1 3 529.37 426.20 266.38 <
4456 3 11 -3 -1 1511.86 2073.94 542.68 o
4456 2 10 -1 3 1511.86 2073.94 542.68 o
4457 3 -11 -3 3 68.40 -3.26 189.15 <
4457 2 -11 3 3 68.40 -3.26 189.15 <
4458 3 -10 -3 3 266.40 400.08 196.78 <
4458 2 -10 3 3 266.40 400.08 196.78 <
4459 3 -9 -3 3 3712.45 3509.10 482.17 o
4459 2 -9 3 3 3712.45 3509.10 482.17 o
4460 3 -8 -3 3 309.65 142.42 81.54 <
4460 2 -8 3 3 309.65 142.42 81.54 <
4461 3 -7 -3 3 54.15 120.67 77.18 <
4461 2 -7 3 3 54.15 120.67 77.18 <
4462 3 -6 -3 3 3591.81 3565.52 308.20 o
4462 2 -6 3 3 3591.81 3565.52 308.20 o
4463 3 -5 -3 3 5412.63 5366.71 369.70 o
4463 2 -5 3 3 5412.63 5366.71 369.70 o
4464 3 -4 -3 3 2783.08 2693.65 212.40 o
4464 2 -4 3 3 2783.08 2693.65 212.40 o
4465 3 -3 -3 3 2322.78 2076.04 215.66 o
4465 2 -3 3 3 2322.78 2076.04 215.66 o
4466 3 -2 -3 3 3257.57 3005.58 235.56 o
4466 2 -2 3 3 3257.57 3005.58 235.56 o
4467 3 -1 -3 3 997.28 995.73 91.41 o
4467 2 -1 3 3 997.28 995.73 91.41 o
4468 3 0 -3 3 2484.93 2447.85 104.63 o
4468 2 0 3 3 2484.93 2447.85 104.63 o
4469 3 1 -3 3 4105.48 3747.06 180.04 o
4469 2 1 3 3 4105.48 3747.06 180.04 o
4470 3 2 -3 3 702.58 749.40 80.49 o
4470 2 2 3 3 702.58 749.40 80.49 o
4471 3 3 -3 3 6078.63 6097.42 237.92 o
4471 2 3 3 3 6078.63 6097.42 237.92 o
4472 3 4 -3 3 6121.72 5894.18 255.23 o
4472 2 4 3 3 6121.72 5894.18 255.23 o
4473 3 5 -3 3 17.41 21.74 48.92 <
4473 2 5 3 3 17.41 21.74 48.92 <
4474 3 6 -3 3 533.54 442.54 96.77 o
4474 2 6 3 3 533.54 442.54 96.77 o
4475 3 7 -3 3 1235.72 1300.71 192.50 o
4475 2 7 3 3 1235.72 1300.71 192.50 o
4476 3 8 -3 3 821.03 747.02 193.55 o
4476 2 8 3 3 821.03 747.02 193.55 o
4477 3 9 -3 3 791.10 620.86 146.79 o
4477 2 9 3 3 791.10 620.86 146.79 o
4478 3 10 -3 3 68.71 90.23 115.23 <
4478 2 10 3 3 68.71 90.23 115.23 <
4479 3 -11 -3 7 995.44 1216.79 483.89 <
4479 2 -10 7 3 995.44 1216.79 483.89 <
4480 3 -10 -3 7 41.05 -26.09 152.19 <
4480 2 -9 7 3 41.05 -26.09 152.19 <
4481 3 -9 -3 7 715.96 832.91 270.75 o
4481 2 -8 7 3 715.96 832.91 270.75 o
4482 3 -8 -3 7 2219.74 1917.02 315.52 o
4482 2 -7 7 3 2219.74 1917.02 315.52 o
4483 3 -7 -3 7 696.30 581.76 193.56 o
4483 2 -6 7 3 696.30 581.76 193.56 o
4484 3 -6 -3 7 809.35 605.73 188.13 o
4484 2 -5 7 3 809.35 605.73 188.13 o
4485 3 -5 -3 7 3347.51 3222.05 325.58 o
4485 2 -4 7 3 3347.51 3222.05 325.58 o
4486 3 -4 -3 7 2684.58 2908.95 285.23 o
4486 2 -3 7 3 2684.58 2908.95 285.23 o
4487 3 -3 -3 7 485.64 380.59 116.35 o
4487 2 -2 7 3 485.64 380.59 116.35 o
4488 3 -2 -3 7 1536.47 1691.90 164.29 o
4488 2 -1 7 3 1536.47 1691.90 164.29 o
4489 3 -1 -3 7 585.30 461.09 133.76 o
4489 2 0 7 3 585.30 461.09 133.76 o
4490 3 0 -3 7 830.55 874.45 134.87 o
4490 2 1 7 3 830.55 874.45 134.87 o
4491 3 1 -3 7 6757.09 6474.64 303.23 o
4491 2 2 7 3 6757.09 6474.64 303.23 o
4492 3 2 -3 7 969.81 984.26 147.91 o
4492 2 3 7 3 969.81 984.26 147.91 o
4493 3 3 -3 7 227.64 183.74 70.67 <
4493 2 4 7 3 227.64 183.74 70.67 <
4494 3 4 -3 7 3540.40 3296.04 249.27 o
4494 2 5 7 3 3540.40 3296.04 249.27 o
4495 3 5 -3 7 448.19 300.08 75.02 o
4495 2 6 7 3 448.19 300.08 75.02 o
4496 3 6 -3 7 127.10 61.97 65.23 <
4496 2 7 7 3 127.10 61.97 65.23 <
4497 3 7 -3 7 465.77 314.21 108.72 <
4497 2 8 7 3 465.77 314.21 108.72 <
4498 3 -11 -3 11 730.60 143.53 141.35 <
4498 2 -9 11 3 730.60 143.53 141.35 <
4499 3 -10 -3 11 30.31 50.01 121.75 <
4499 2 -8 11 3 30.31 50.01 121.75 <
4500 3 -9 -3 11 17.47 130.45 86.97 <
4500 2 -7 11 3 17.47 130.45 86.97 <
4501 3 -8 -3 11 445.06 569.72 189.18 o
4501 2 -6 11 3 445.06 569.72 189.18 o
4502 3 -7 -3 11 1275.68 1521.52 267.54 o
4502 2 -5 11 3 1275.68 1521.52 267.54 o
4503 3 -6 -3 11 173.57 278.31 122.85 <
4503 2 -4 11 3 173.57 278.31 122.85 <
4504 3 -5 -3 11 135.54 181.55 133.72 <
4504 2 -3 11 3 135.54 181.55 133.72 <
4505 3 -4 -3 11 690.57 515.41 182.68 <
4505 2 -2 11 3 690.57 515.41 182.68 <
4506 3 -3 -3 11 3.73 163.06 102.19 <
4506 2 -1 11 3 3.73 163.06 102.19 <
4507 3 -2 -3 11 430.79 462.09 192.45 <
4507 2 0 11 3 430.79 462.09 192.45 <
4508 3 -1 -3 11 934.80 846.01 195.74 o
4508 2 1 11 3 934.80 846.01 195.74 o
4509 3 0 -3 11 43.83 79.36 150.02 <
4509 2 2 11 3 43.83 79.36 150.02 <
4510 3 1 -3 11 1516.33 1738.10 326.30 o
4510 2 3 11 3 1516.33 1738.10 326.30 o
4511 3 2 -3 11 1579.44 1445.40 279.51 o
4511 2 4 11 3 1579.44 1445.40 279.51 o
4512 3 3 -3 11 145.51 185.90 108.71 <
4512 2 5 11 3 145.51 185.90 108.71 <
4513 3 4 -3 11 210.59 337.02 125.02 <
4513 2 6 11 3 210.59 337.02 125.02 <
4514 3 5 -3 11 283.13 102.19 113.07 <
4514 2 7 11 3 283.13 102.19 113.07 <
4515 3 -4 -3 15 88.58 88.06 117.41 <
4515 2 -1 15 3 88.58 88.06 117.41 <
4516 3 -3 -3 15 32.46 194.59 192.41 <
4516 2 0 15 3 32.46 194.59 192.41 <
4517 3 -2 -3 15 50.96 450.05 296.77 <
4517 2 1 15 3 50.96 450.05 296.77 <
4518 3 -1 -3 15 981.44 909.01 332.72 <
4518 2 2 15 3 981.44 909.01 332.72 <
4519 3 0 -3 15 33.40 298.95 234.81 <
4519 2 3 15 3 33.40 298.95 234.81 <
4520 4 -10 -2 -4 676.39 478.37 188.09 <
4520 2 -12 2 4 676.39 478.37 188.09 <
4521 4 -9 -2 -4 12.70 63.05 72.83 <
4521 2 -11 2 4 12.70 63.05 72.83 <
4522 4 -8 -2 -4 996.90 1098.11 189.18 o
4522 2 -10 2 4 996.90 1098.11 189.18 o
4523 4 -7 -2 -4 38.26 278.29 107.62 <
4523 2 -9 2 4 38.26 278.29 107.62 <
4524 4 -6 -2 -4 146.32 218.51 101.10 <
4524 2 -8 2 4 146.32 218.51 101.10 <
4525 4 -5 -2 -4 212.11 158.72 63.05 <
4525 2 -7 2 4 212.11 158.72 63.05 <
4526 4 -4 -2 -4 214.24 194.60 61.97 o
4526 2 -6 2 4 214.24 194.60 61.97 o
4527 4 -3 -2 -4 20.97 -8.70 47.83 <
4527 2 -5 2 4 20.97 -8.70 47.83 <
4528 4 -2 -2 -4 28.99 5.44 36.96 <
4528 2 -4 2 4 28.99 5.44 36.96 <
4529 4 -1 -2 -4 99.87 201.12 51.10 o
4529 2 -3 2 4 99.87 201.12 51.10 o
4530 4 0 -2 -4 66.17 195.68 47.83 o
4530 2 -2 2 4 66.17 195.68 47.83 o
4531 4 1 -2 -4 33.38 206.55 35.87 o
4531 2 -1 2 4 33.38 206.55 35.87 o
4532 4 2 -2 -4 89.71 182.64 21.74 o
4532 2 0 2 4 89.71 182.64 21.74 o
4533 4 3 -2 -4 78.25 85.88 14.13 o
4533 2 1 2 4 78.25 85.88 14.13 o
4534 4 4 -2 -4 36.37 42.40 22.83 <
4534 2 2 2 4 36.37 42.40 22.83 <
4535 4 5 -2 -4 24.57 35.87 26.09 <
4535 2 3 2 4 24.57 35.87 26.09 <
4536 4 6 -2 -4 206.65 197.86 30.44 o
4536 2 4 2 4 206.65 197.86 30.44 o
4537 4 7 -2 -4 245.08 241.35 47.83 o
4537 2 5 2 4 245.08 241.35 47.83 o
4538 4 8 -2 -4 156.76 61.97 41.31 <
4538 2 6 2 4 156.76 61.97 41.31 <
4539 4 9 -2 -4 33.50 94.58 57.62 <
4539 2 7 2 4 33.50 94.58 57.62 <
4540 4 10 -2 -4 1056.48 806.77 143.52 o
4540 2 8 2 4 1056.48 806.77 143.52 o
4541 4 11 -2 -4 9.85 -27.18 92.40 <
4541 2 9 2 4 9.85 -27.18 92.40 <
4542 4 -9 -6 -4 61.68 107.62 175.02 <
4542 2 -11 6 4 61.68 107.62 175.02 <
4543 4 -8 -6 -4 405.99 288.09 101.11 <
4543 2 -10 6 4 405.99 288.09 101.11 <
4544 4 -7 -6 -4 144.11 70.66 85.88 <
4544 2 -9 6 4 144.11 70.66 85.88 <
4545 4 -6 -6 -4 316.70 250.04 89.14 <
4545 2 -8 6 4 316.70 250.04 89.14 <
4546 4 -5 -6 -4 7.38 76.10 79.36 <
4546 2 -7 6 4 7.38 76.10 79.36 <
4547 4 -4 -6 -4 15.70 36.96 45.66 <
4547 2 -6 6 4 15.70 36.96 45.66 <
4548 4 -3 -6 -4 278.02 289.18 61.97 o
4548 2 -5 6 4 278.02 289.18 61.97 o
4549 4 -2 -6 -4 249.78 320.71 56.53 o
4549 2 -4 6 4 249.78 320.71 56.53 o
4550 4 -1 -6 -4 84.62 65.23 33.70 <
4550 2 -3 6 4 84.62 65.23 33.70 <
4551 4 0 -6 -4 29.95 35.87 32.61 <
4551 2 -2 6 4 29.95 35.87 32.61 <
4552 4 1 -6 -4 9.02 131.54 31.53 o
4552 2 -1 6 4 9.02 131.54 31.53 o
4553 4 2 -6 -4 21.39 53.27 21.74 <
4553 2 0 6 4 21.39 53.27 21.74 <
4554 4 3 -6 -4 111.91 80.45 27.18 <
4554 2 1 6 4 111.91 80.45 27.18 <
4555 4 4 -6 -4 251.26 262.00 40.22 o
4555 2 2 6 4 251.26 262.00 40.22 o
4556 4 5 -6 -4 291.78 306.58 45.66 o
4556 2 3 6 4 291.78 306.58 45.66 o
4557 4 6 -6 -4 23.23 10.87 35.87 <
4557 2 4 6 4 23.23 10.87 35.87 <
4558 4 7 -6 -4 7.68 43.48 48.92 <
4558 2 5 6 4 7.68 43.48 48.92 <
4559 4 8 -6 -4 367.96 404.43 80.45 o
4559 2 6 6 4 367.96 404.43 80.45 o
4560 4 9 -6 -4 161.96 14.13 72.84 <
4560 2 7 6 4 161.96 14.13 72.84 <
4561 4 10 -6 -4 395.02 260.91 97.84 <
4561 2 8 6 4 395.02 260.91 97.84 <
4562 4 11 -6 -4 85.21 82.62 159.80 <
4562 2 9 6 4 85.21 82.62 159.80 <
4563 4 -7 -10 -4 283.52 466.38 358.75 <
4563 2 -9 10 4 283.52 466.38 358.75 <
4564 4 -6 -10 -4 505.65 480.53 113.07 o
4564 2 -8 10 4 505.65 480.53 113.07 o
4565 4 -5 -10 -4 15.14 129.36 96.75 <
4565 2 -7 10 4 15.14 129.36 96.75 <
4566 4 -4 -10 -4 0.53 10.87 55.44 <
4566 2 -6 10 4 0.53 10.87 55.44 <
4567 4 -3 -10 -4 38.11 7.61 53.27 <
4567 2 -5 10 4 38.11 7.61 53.27 <
4568 4 -2 -10 -4 28.86 83.71 61.96 <
4568 2 -4 10 4 28.86 83.71 61.96 <
4569 4 -1 -10 -4 55.82 133.71 55.44 <
4569 2 -3 10 4 55.82 133.71 55.44 <
4570 4 0 -10 -4 193.13 178.29 44.57 o
4570 2 -2 10 4 193.13 178.29 44.57 o
4571 4 1 -10 -4 218.28 244.60 59.79 o
4571 2 -1 10 4 218.28 244.60 59.79 o
4572 4 2 -10 -4 164.93 208.72 59.79 o
4572 2 0 10 4 164.93 208.72 59.79 o
4573 4 3 -10 -4 63.69 158.72 44.57 o
4573 2 1 10 4 63.69 158.72 44.57 o
4574 4 4 -10 -4 21.24 40.22 39.13 <
4574 2 2 10 4 21.24 40.22 39.13 <
4575 4 5 -10 -4 30.34 14.13 34.79 <
4575 2 3 10 4 30.34 14.13 34.79 <
4576 4 6 -10 -4 0.56 -46.74 63.05 <
4576 2 4 10 4 0.56 -46.74 63.05 <
4577 4 7 -10 -4 11.69 50.01 86.97 <
4577 2 5 10 4 11.69 50.01 86.97 <
4578 4 8 -10 -4 492.09 618.59 164.16 o
4578 2 6 10 4 492.09 618.59 164.16 o
4579 4 9 -10 -4 251.82 206.55 106.54 <
4579 2 7 10 4 251.82 206.55 106.54 <
4580 4 -2 -14 -4 404.21 479.43 135.89 o
4580 2 -4 14 4 404.21 479.43 135.89 o
4581 4 -1 -14 -4 661.86 543.60 115.24 o
4581 2 -3 14 4 661.86 543.60 115.24 o
4582 4 0 -14 -4 911.08 652.33 125.03 o
4582 2 -2 14 4 911.08 652.33 125.03 o
4583 4 1 -14 -4 1205.33 953.55 154.39 o
4583 2 -1 14 4 1205.33 953.55 154.39 o
4584 4 2 -14 -4 940.26 764.33 167.44 o
4584 2 0 14 4 940.26 764.33 167.44 o
4585 4 3 -14 -4 613.28 609.90 151.12 o
4585 2 1 14 4 613.28 609.90 151.12 o
4586 4 4 -14 -4 399.63 339.19 95.67 o
4586 2 2 14 4 399.63 339.19 95.67 o
4587 4 5 -14 -4 238.49 161.98 76.10 <
4587 2 3 14 4 238.49 161.98 76.10 <
4588 4 6 -14 -4 563.03 215.26 158.72 <
4588 2 4 14 4 563.03 215.26 158.72 <
4589 3 2 -5 -15 1.70 211.98 83.71 <
4589 2 -3 -15 5 1.70 211.98 83.71 <
4590 3 3 -5 -15 3.43 -45.66 105.45 <
4590 2 -2 -15 5 3.43 -45.66 105.45 <
4591 3 4 -5 -15 53.98 -109.79 179.37 <
4591 2 -1 -15 5 53.98 -109.79 179.37 <
4592 3 5 -5 -15 3.71 250.03 195.67 <
4592 2 0 -15 5 3.71 250.03 195.67 <
4593 3 6 -5 -15 150.20 -148.93 191.33 <
4593 2 1 -15 5 150.20 -148.93 191.33 <
4594 3 -4 -5 -11 56.88 -163.07 81.53 <
4594 2 -8 -11 5 56.88 -163.07 81.53 <
4595 3 -3 -5 -11 54.71 102.19 111.97 <
4595 2 -7 -11 5 54.71 102.19 111.97 <
4596 3 -2 -5 -11 1357.02 1129.88 191.40 o
4596 2 -6 -11 5 1357.02 1129.88 191.40 o
4597 3 -1 -5 -11 1178.82 1153.85 183.79 o
4597 2 -5 -11 5 1178.82 1153.85 183.79 o
4598 3 0 -5 -11 5.36 127.19 65.22 <
4598 2 -4 -11 5 5.36 127.19 65.22 <
4599 3 1 -5 -11 548.00 537.10 102.20 o
4599 2 -3 -11 5 548.00 537.10 102.20 o
4600 3 2 -5 -11 280.56 323.98 76.10 o
4600 2 -2 -11 5 280.56 323.98 76.10 o
4601 3 3 -5 -11 32.91 1.09 51.09 <
4601 2 -1 -11 5 32.91 1.09 51.09 <
4602 3 4 -5 -11 365.67 529.47 96.76 o
4602 2 0 -11 5 365.67 529.47 96.76 o
4603 3 5 -5 -11 227.87 273.96 92.41 <
4603 2 1 -11 5 227.87 273.96 92.41 <
4604 3 6 -5 -11 320.52 364.20 91.32 o
4604 2 2 -11 5 320.52 364.20 91.32 o
4605 3 7 -5 -11 991.98 1278.80 250.11 o
4605 2 3 -11 5 991.98 1278.80 250.11 o
4606 3 8 -5 -11 669.61 543.65 245.73 <
4606 2 4 -11 5 669.61 543.65 245.73 <
4607 3 9 -5 -11 24.50 38.05 180.46 <
4607 2 5 -11 5 24.50 38.05 180.46 <
4608 3 -7 -5 -7 79.12 91.32 78.27 <
4608 2 -10 -7 5 79.12 91.32 78.27 <
4609 3 -6 -5 -7 4.25 63.05 59.79 <
4609 2 -9 -7 5 4.25 63.05 59.79 <
4610 3 -5 -5 -7 197.95 175.03 102.19 <
4610 2 -8 -7 5 197.95 175.03 102.19 <
4611 3 -4 -5 -7 1556.19 1347.61 196.87 o
4611 2 -7 -7 5 1556.19 1347.61 196.87 o
4612 3 -3 -5 -7 40.94 -35.87 73.92 <
4612 2 -6 -7 5 40.94 -35.87 73.92 <
4613 3 -2 -5 -7 582.24 580.64 112.00 o
4613 2 -5 -7 5 582.24 580.64 112.00 o
4614 3 -1 -5 -7 3148.38 3383.25 255.81 o
4614 2 -4 -7 5 3148.38 3383.25 255.81 o
4615 3 0 -5 -7 361.84 494.72 77.20 o
4615 2 -3 -7 5 361.84 494.72 77.20 o
4616 3 1 -5 -7 83.52 154.37 40.22 o
4616 2 -2 -7 5 83.52 154.37 40.22 o
4617 3 2 -5 -7 184.72 287.01 66.32 o
4617 2 -1 -7 5 184.72 287.01 66.32 o
4618 3 3 -5 -7 243.91 296.80 79.36 o
4618 2 0 -7 5 243.91 296.80 79.36 o
4619 3 4 -5 -7 1261.69 1484.78 147.93 o
4619 2 1 -7 5 1261.69 1484.78 147.93 o
4620 3 5 -5 -7 1776.25 2078.01 164.28 o
4620 2 2 -7 5 1776.25 2078.01 164.28 o
4621 3 6 -5 -7 576.94 544.75 95.68 o
4621 2 3 -7 5 576.94 544.75 95.68 o
4622 3 7 -5 -7 97.43 120.67 75.01 <
4622 2 4 -7 5 97.43 120.67 75.01 <
4623 3 8 -5 -7 1341.26 1218.10 200.12 o
4623 2 5 -7 5 1341.26 1218.10 200.12 o
4624 3 9 -5 -7 390.97 588.19 205.48 <
4624 2 6 -7 5 390.97 588.19 205.48 <
4625 3 10 -5 -7 361.59 207.66 140.25 <
4625 2 7 -7 5 361.59 207.66 140.25 <
4626 3 -9 -5 -3 12.70 43.48 135.88 <
4626 2 -11 -3 5 12.70 43.48 135.88 <
4627 3 -8 -5 -3 54.47 200.02 148.93 <
4627 2 -10 -3 5 54.47 200.02 148.93 <
4628 3 -7 -5 -3 103.82 91.32 116.32 <
4628 2 -9 -3 5 103.82 91.32 116.32 <
4629 3 -6 -5 -3 125.13 223.95 147.85 <
4629 2 -8 -3 5 125.13 223.95 147.85 <
4630 3 -5 -5 -3 280.54 252.23 109.81 <
4630 2 -7 -3 5 280.54 252.23 109.81 <
4631 3 -4 -5 -3 1755.00 1723.28 252.40 o
4631 2 -6 -3 5 1755.00 1723.28 252.40 o
4632 3 -3 -5 -3 1224.61 1254.25 153.38 o
4632 2 -5 -3 5 1224.61 1254.25 153.38 o
4633 3 -2 -5 -3 1.34 103.27 63.05 <
4633 2 -4 -3 5 1.34 103.27 63.05 <
4634 3 -1 -5 -3 165.90 179.39 60.88 <
4634 2 -3 -3 5 165.90 179.39 60.88 <
4635 3 0 -5 -3 3.82 118.49 46.74 <
4635 2 -2 -3 5 3.82 118.49 46.74 <
4636 3 1 -5 -3 5.49 19.57 28.26 <
4636 2 -1 -3 5 5.49 19.57 28.26 <
4637 3 2 -5 -3 22.50 70.66 27.18 <
4637 2 0 -3 5 22.50 70.66 27.18 <
4638 3 3 -5 -3 172.43 233.75 47.84 o
4638 2 1 -3 5 172.43 233.75 47.84 o
4639 3 4 -5 -3 444.16 553.47 104.39 o
4639 2 2 -3 5 444.16 553.47 104.39 o
4640 3 5 -5 -3 992.29 1040.91 154.45 o
4640 2 3 -3 5 992.29 1040.91 154.45 o
4641 3 6 -5 -3 1146.82 1096.40 132.70 o
4641 2 4 -3 5 1146.82 1096.40 132.70 o
4642 3 7 -5 -3 482.69 520.81 131.56 o
4642 2 5 -3 5 482.69 520.81 131.56 o
4643 3 8 -5 -3 138.87 362.02 101.10 o
4643 2 6 -3 5 138.87 362.02 101.10 o
4644 3 9 -5 -3 1807.92 1662.10 267.59 o
4644 2 7 -3 5 1807.92 1662.10 267.59 o
4645 3 10 -5 -3 43.73 143.50 100.01 <
4645 2 8 -3 5 43.73 143.50 100.01 <
4646 3 11 -5 -3 75.54 204.38 111.97 <
4646 2 9 -3 5 75.54 204.38 111.97 <
4647 3 -11 -5 1 52.49 252.20 198.94 <
4647 2 -12 1 5 52.49 252.20 198.94 <
4648 3 -10 -5 1 15.13 202.20 83.71 <
4648 2 -11 1 5 15.13 202.20 83.71 <
4649 3 -9 -5 1 694.82 882.91 247.91 o
4649 2 -10 1 5 694.82 882.91 247.91 o
4650 3 -8 -5 1 1862.61 2044.00 405.76 o
4650 2 -9 1 5 1862.61 2044.00 405.76 o
4651 3 -7 -5 1 359.18 281.60 166.35 <
4651 2 -8 1 5 359.18 281.60 166.35 <
4652 3 -6 -5 1 21.00 2.17 125.02 <
4652 2 -7 1 5 21.00 2.17 125.02 <
4653 3 -5 -5 1 1251.48 1194.40 166.43 o
4653 2 -6 1 5 1251.48 1194.40 166.43 o
4654 3 -4 -5 1 125.85 132.63 50.01 <
4654 2 -5 1 5 125.85 132.63 50.01 <
4655 3 -3 -5 1 29.64 318.52 102.19 o
4655 2 -4 1 5 29.64 318.52 102.19 o
4656 3 -2 -5 1 803.19 720.12 135.98 o
4656 2 -3 1 5 803.19 720.12 135.98 o
4657 3 -1 -5 1 2344.58 2081.54 223.29 o
4657 2 -2 1 5 2344.58 2081.54 223.29 o
4658 3 0 -5 1 3239.99 2916.33 161.35 o
4658 2 -1 1 5 3239.99 2916.33 161.35 o
4659 3 1 -5 1 983.00 1040.14 101.18 o
4659 2 0 1 5 983.00 1040.14 101.18 o
4660 3 2 -5 1 131.58 146.77 40.23 o
4660 2 1 1 5 131.58 146.77 40.23 o
4661 3 3 -5 1 0.91 -53.27 45.66 <
4661 2 2 1 5 0.91 -53.27 45.66 <
4662 3 4 -5 1 83.44 189.16 90.23 <
4662 2 3 1 5 83.44 189.16 90.23 <
4663 3 5 -5 1 1540.48 1750.38 145.77 o
4663 2 4 1 5 1540.48 1750.38 145.77 o
4664 3 6 -5 1 17.09 20.65 45.66 <
4664 2 5 1 5 17.09 20.65 45.66 <
4665 3 7 -5 1 105.04 111.97 80.45 <
4665 2 6 1 5 105.04 111.97 80.45 <
4666 3 8 -5 1 3948.65 4293.02 335.26 o
4666 2 7 1 5 3948.65 4293.02 335.26 o
4667 3 9 -5 1 51.94 211.98 100.01 <
4667 2 8 1 5 51.94 211.98 100.01 <
4668 3 10 -5 1 335.79 389.22 272.89 <
4668 2 9 1 5 335.79 389.22 272.89 <
4669 3 -11 -5 5 1324.17 1274.52 491.54 <
4669 2 -11 5 5 1324.17 1274.52 491.54 <
4670 3 -10 -5 5 1002.34 700.28 238.14 <
4670 2 -10 5 5 1002.34 700.28 238.14 <
4671 3 -9 -5 5 1188.56 1421.35 328.42 o
4671 2 -9 5 5 1188.56 1421.35 328.42 o
4672 3 -8 -5 5 4261.10 4413.59 566.12 o
4672 2 -8 5 5 4261.10 4413.59 566.12 o
4673 3 -7 -5 5 3677.38 3798.24 372.31 o
4673 2 -7 5 5 3677.38 3798.24 372.31 o
4674 3 -6 -5 5 343.93 512.09 143.51 o
4674 2 -6 5 5 343.93 512.09 143.51 o
4675 3 -5 -5 5 1056.64 1113.74 209.91 o
4675 2 -5 5 5 1056.64 1113.74 209.91 o
4676 3 -4 -5 5 2695.12 2452.72 289.58 o
4676 2 -4 5 5 2695.12 2452.72 289.58 o
4677 3 -3 -5 5 3891.50 4469.27 501.19 o
4677 2 -3 5 5 3891.50 4469.27 501.19 o
4678 3 -2 -5 5 5312.63 5499.94 372.99 o
4678 2 -2 5 5 5312.63 5499.94 372.99 o
4679 3 -1 -5 5 4197.20 3932.34 269.20 o
4679 2 -1 5 5 4197.20 3932.34 269.20 o
4680 3 0 -5 5 5157.47 4973.46 218.09 o
4680 2 0 5 5 5157.47 4973.46 218.09 o
4681 3 1 -5 5 2471.75 2363.30 151.31 o
4681 2 1 5 5 2471.75 2363.30 151.31 o
4682 3 2 -5 5 1457.64 1355.50 138.16 o
4682 2 2 5 5 1457.64 1355.50 138.16 o
4683 3 3 -5 5 1194.57 1251.91 151.19 o
4683 2 3 5 5 1194.57 1251.91 151.19 o
4684 3 4 -5 5 248.85 408.78 122.85 o
4684 2 4 5 5 248.85 408.78 122.85 o
4685 3 5 -5 5 5355.13 5604.05 697.10 o
4685 2 5 5 5 5355.13 5604.05 697.10 o
4686 3 6 -5 5 3870.88 3921.79 297.15 o
4686 2 6 5 5 3870.88 3921.79 297.15 o
4687 3 7 -5 5 25.82 -42.40 95.66 <
4687 2 7 5 5 25.82 -42.40 95.66 <
4688 3 8 -5 5 2178.12 2368.03 374.19 o
4688 2 8 5 5 2178.12 2368.03 374.19 o
4689 3 9 -5 5 1809.49 1739.09 427.43 o
4689 2 9 5 5 1809.49 1739.09 427.43 o
4690 3 -10 -5 9 3668.31 4048.89 887.91 o
4690 2 -9 9 5 3668.31 4048.89 887.91 o
4691 3 -9 -5 9 1468.87 1199.51 283.84 o
4691 2 -8 9 5 1468.87 1199.51 283.84 o
4692 3 -8 -5 9 1563.12 1666.14 344.76 o
4692 2 -7 9 5 1563.12 1666.14 344.76 o
4693 3 -7 -5 9 3027.61 3175.12 375.40 o
4693 2 -6 9 5 3027.61 3175.12 375.40 o
4694 3 -6 -5 9 1339.49 1121.29 228.39 o
4694 2 -5 9 5 1339.49 1121.29 228.39 o
4695 3 -5 -5 9 1658.28 1479.28 256.70 o
4695 2 -4 9 5 1658.28 1479.28 256.70 o
4696 3 -4 -5 9 2699.91 2844.48 321.01 o
4696 2 -3 9 5 2699.91 2844.48 321.01 o
4697 3 -3 -5 9 4683.80 4062.47 365.95 o
4697 2 -2 9 5 4683.80 4062.47 365.95 o
4698 3 -2 -5 9 6908.26 7253.34 464.37 o
4698 2 -1 9 5 6908.26 7253.34 464.37 o
4699 3 -1 -5 9 2750.13 2672.72 378.71 o
4699 2 0 9 5 2750.13 2672.72 378.71 o
4700 3 0 -5 9 2171.47 2094.40 254.59 o
4700 2 1 9 5 2171.47 2094.40 254.59 o
4701 3 1 -5 9 1357.34 1207.29 212.09 o
4701 2 2 9 5 1357.34 1207.29 212.09 o
4702 3 2 -5 9 1172.87 1314.85 206.63 o
4702 2 3 9 5 1172.87 1314.85 206.63 o
4703 3 3 -5 9 4491.43 4784.69 399.54 o
4703 2 4 9 5 4491.43 4784.69 399.54 o
4704 3 4 -5 9 684.41 523.01 180.50 <
4704 2 5 9 5 684.41 523.01 180.50 <
4705 3 5 -5 9 1022.94 937.37 215.31 o
4705 2 6 9 5 1022.94 937.37 215.31 o
4706 3 6 -5 9 6445.90 6888.98 625.08 o
4706 2 7 9 5 6445.90 6888.98 625.08 o
4707 3 -8 -5 13 124.82 52.18 102.19 <
4707 2 -6 13 5 124.82 52.18 102.19 <
4708 3 -7 -5 13 463.18 669.70 202.21 o
4708 2 -5 13 5 463.18 669.70 202.21 o
4709 3 -6 -5 13 464.88 494.68 225.05 <
4709 2 -4 13 5 464.88 494.68 225.05 <
4710 3 -5 -5 13 1428.70 1233.24 315.38 o
4710 2 -3 13 5 1428.70 1233.24 315.38 o
4711 3 -4 -5 13 1678.17 1697.67 361.07 o
4711 2 -2 13 5 1678.17 1697.67 361.07 o
4712 3 -3 -5 13 839.44 845.95 255.52 o
4712 2 -1 13 5 839.44 845.95 255.52 o
4713 3 -2 -5 13 1926.67 1532.57 348.06 o
4713 2 0 13 5 1926.67 1532.57 348.06 o
4714 3 -1 -5 13 602.81 642.58 252.25 <
4714 2 1 13 5 602.81 642.58 252.25 <
4715 3 0 -5 13 367.20 489.24 217.44 <
4715 2 2 13 5 367.20 489.24 217.44 <
4716 3 1 -5 13 638.24 706.73 240.29 <
4716 2 3 13 5 638.24 706.73 240.29 <
4717 3 2 -5 13 19.25 -90.23 126.10 <
4717 2 4 13 5 19.25 -90.23 126.10 <
4718 4 -9 0 -6 181.40 446.80 207.64 <
4718 2 -12 0 6 181.40 446.80 207.64 <
4719 4 -8 0 -6 115.56 -130.45 126.10 <
4719 2 -11 0 6 115.56 -130.45 126.10 <
4720 4 -7 0 -6 217.54 296.79 148.94 <
4720 2 -10 0 6 217.54 296.79 148.94 <
4721 4 -6 0 -6 328.53 654.46 218.52 <
4721 2 -9 0 6 328.53 654.46 218.52 <
4722 4 -5 0 -6 184.07 192.42 156.54 <
4722 2 -8 0 6 184.07 192.42 156.54 <
4723 4 -4 0 -6 256.68 208.73 161.99 <
4723 2 -7 0 6 256.68 208.73 161.99 <
4724 4 -3 0 -6 32.96 -52.18 48.92 <
4724 2 -6 0 6 32.96 -52.18 48.92 <
4725 4 -2 0 -6 33.77 -3.26 69.57 <
4725 2 -5 0 6 33.77 -3.26 69.57 <
4726 4 -1 0 -6 13.11 104.36 77.18 <
4726 2 -4 0 6 13.11 104.36 77.18 <
4727 4 0 0 -6 5.54 115.23 69.57 <
4727 2 -3 0 6 5.54 115.23 69.57 <
4728 4 1 0 -6 37.48 67.40 51.09 <
4728 2 -2 0 6 37.48 67.40 51.09 <
4729 4 2 0 -6 51.19 101.10 36.96 <
4729 2 -1 0 6 51.19 101.10 36.96 <
4730 4 3 0 -6 3.82 47.83 36.96 <
4730 2 0 0 6 3.82 47.83 36.96 <
4731 4 4 0 -6 12.25 10.87 26.09 <
4731 2 1 0 6 12.25 10.87 26.09 <
4732 4 5 0 -6 48.67 106.54 44.57 <
4732 2 2 0 6 48.67 106.54 44.57 <
4733 4 6 0 -6 49.45 126.10 64.14 <
4733 2 3 0 6 49.45 126.10 64.14 <
4734 4 7 0 -6 222.04 236.99 72.84 o
4734 2 4 0 6 222.04 236.99 72.84 o
4735 4 8 0 -6 230.02 335.93 86.97 o
4735 2 5 0 6 230.02 335.93 86.97 o
4736 4 9 0 -6 324.36 209.82 114.15 <
4736 2 6 0 6 324.36 209.82 114.15 <
4737 4 10 0 -6 169.43 50.01 109.80 <
4737 2 7 0 6 169.43 50.01 109.80 <
4738 4 11 0 -6 119.43 -21.74 75.01 <
4738 2 8 0 6 119.43 -21.74 75.01 <
4739 4 -8 -4 -6 22.03 42.40 83.71 <
4739 2 -11 4 6 22.03 42.40 83.71 <
4740 4 -7 -4 -6 105.91 235.90 109.80 <
4740 2 -10 4 6 105.91 235.90 109.80 <
4741 4 -6 -4 -6 349.49 305.49 119.59 <
4741 2 -9 4 6 349.49 305.49 119.59 <
4742 4 -5 -4 -6 199.74 213.08 113.06 <
4742 2 -8 4 6 199.74 213.08 113.06 <
4743 4 -4 -4 -6 60.31 126.10 90.23 <
4743 2 -7 4 6 60.31 126.10 90.23 <
4744 4 -3 -4 -6 105.68 157.63 60.88 <
4744 2 -6 4 6 105.68 157.63 60.88 <
4745 4 -2 -4 -6 427.07 520.75 114.15 o
4745 2 -5 4 6 427.07 520.75 114.15 o
4746 4 -1 -4 -6 95.24 132.63 52.18 <
4746 2 -4 4 6 95.24 132.63 52.18 <
4747 4 0 -4 -6 54.24 166.33 51.09 o
4747 2 -3 4 6 54.24 166.33 51.09 o
4748 4 1 -4 -6 20.59 134.80 54.35 <
4748 2 -2 4 6 20.59 134.80 54.35 <
4749 4 2 -4 -6 27.53 51.09 32.61 <
4749 2 -1 4 6 27.53 51.09 32.61 <
4750 4 3 -4 -6 39.80 150.02 46.74 o
4750 2 0 4 6 39.80 150.02 46.74 o
4751 4 4 -4 -6 94.84 135.89 42.40 o
4751 2 1 4 6 94.84 135.89 42.40 o
4752 4 5 -4 -6 492.70 445.77 64.15 o
4752 2 2 4 6 492.70 445.77 64.15 o
4753 4 6 -4 -6 77.32 144.58 46.74 o
4753 2 3 4 6 77.32 144.58 46.74 o
4754 4 7 -4 -6 56.89 59.79 44.57 <
4754 2 4 4 6 56.89 59.79 44.57 <
4755 4 8 -4 -6 193.82 82.62 61.97 <
4755 2 5 4 6 193.82 82.62 61.97 <
4756 4 9 -4 -6 277.96 276.12 98.93 <
4756 2 6 4 6 277.96 276.12 98.93 <
4757 4 10 -4 -6 97.52 138.06 103.27 <
4757 2 7 4 6 97.52 138.06 103.27 <
4758 4 11 -4 -6 27.06 -5.44 81.53 <
4758 2 8 4 6 27.06 -5.44 81.53 <
4759 4 -6 -8 -6 32.25 -3.26 68.49 <
4759 2 -9 8 6 32.25 -3.26 68.49 <
4760 4 -5 -8 -6 143.74 103.28 72.84 <
4760 2 -8 8 6 143.74 103.28 72.84 <
4761 4 -4 -8 -6 1240.30 1288.49 175.06 o
4761 2 -7 8 6 1240.30 1288.49 175.06 o
4762 4 -3 -8 -6 797.17 807.79 138.07 o
4762 2 -6 8 6 797.17 807.79 138.07 o
4763 4 -2 -8 -6 524.18 564.26 109.81 o
4763 2 -5 8 6 524.18 564.26 109.81 o
4764 4 -1 -8 -6 887.19 903.53 118.51 o
4764 2 -4 8 6 887.19 903.53 118.51 o
4765 4 0 -8 -6 773.66 810.00 105.46 o
4765 2 -3 8 6 773.66 810.00 105.46 o
4766 4 1 -8 -6 620.73 529.49 76.11 o
4766 2 -2 8 6 620.73 529.49 76.11 o
4767 4 2 -8 -6 581.27 535.99 80.45 o
4767 2 -1 8 6 581.27 535.99 80.45 o
4768 4 3 -8 -6 811.49 915.50 104.38 o
4768 2 0 8 6 811.49 915.50 104.38 o
4769 4 4 -8 -6 891.81 922.02 121.78 o
4769 2 1 8 6 891.81 922.02 121.78 o
4770 4 5 -8 -6 484.51 601.20 92.41 o
4770 2 2 8 6 484.51 601.20 92.41 o
4771 4 6 -8 -6 891.65 920.94 132.65 o
4771 2 3 8 6 891.65 920.94 132.65 o
4772 4 7 -8 -6 1195.23 1261.26 163.09 o
4772 2 4 8 6 1195.23 1261.26 163.09 o
4773 4 8 -8 -6 121.42 117.41 64.14 <
4773 2 5 8 6 121.42 117.41 64.14 <
4774 4 9 -8 -6 38.15 -20.65 64.14 <
4774 2 6 8 6 38.15 -20.65 64.14 <
4775 4 10 -8 -6 790.84 1060.00 403.35 <
4775 2 7 8 6 790.84 1060.00 403.35 <
4776 4 -5 -12 -6 1285.58 1155.77 380.55 o
4776 2 -8 12 6 1285.58 1155.77 380.55 o
4777 4 -4 -12 -6 623.25 546.84 148.94 o
4777 2 -7 12 6 623.25 546.84 148.94 o
4778 4 -3 -12 -6 1320.91 1343.92 177.23 o
4778 2 -6 12 6 1320.91 1343.92 177.23 o
4779 4 -2 -12 -6 1988.33 2139.96 214.21 o
4779 2 -5 12 6 1988.33 2139.96 214.21 o
4780 4 -1 -12 -6 1590.75 1649.51 202.25 o
4780 2 -4 12 6 1590.75 1649.51 202.25 o
4781 4 0 -12 -6 1415.27 1407.03 145.70 o
4781 2 -3 12 6 1415.27 1407.03 145.70 o
4782 4 1 -12 -6 1413.07 1256.94 150.05 o
4782 2 -2 12 6 1413.07 1256.94 150.05 o
4783 4 2 -12 -6 1457.60 1265.69 151.14 o
4783 2 -1 12 6 1457.60 1265.69 151.14 o
4784 4 3 -12 -6 1376.11 1380.89 180.49 o
4784 2 0 12 6 1376.11 1380.89 180.49 o
4785 4 4 -12 -6 1608.45 1461.42 207.69 o
4785 2 1 12 6 1608.45 1461.42 207.69 o
4786 4 5 -12 -6 2105.60 1687.77 265.35 o
4786 2 2 12 6 2105.60 1687.77 265.35 o
4787 4 6 -12 -6 1267.65 1137.29 237.02 o
4787 2 3 12 6 1267.65 1137.29 237.02 o
4788 4 7 -12 -6 655.19 603.39 216.35 <
4788 2 4 12 6 655.19 603.39 216.35 <
4789 3 -1 -7 -13 125.67 91.32 89.14 <
4789 2 -6 -13 7 125.67 91.32 89.14 <
4790 3 0 -7 -13 274.96 532.70 203.29 <
4790 2 -5 -13 7 274.96 532.70 203.29 <
4791 3 1 -7 -13 142.10 243.51 155.46 <
4791 2 -4 -13 7 142.10 243.51 155.46 <
4792 3 2 -7 -13 28.52 64.14 77.18 <
4792 2 -3 -13 7 28.52 64.14 77.18 <
4793 3 3 -7 -13 28.44 -16.31 38.05 <
4793 2 -2 -13 7 28.44 -16.31 38.05 <
4794 3 4 -7 -13 4.71 8.70 78.27 <
4794 2 -1 -13 7 4.71 8.70 78.27 <
4795 3 5 -7 -13 50.29 43.48 90.23 <
4795 2 0 -13 7 50.29 43.48 90.23 <
4796 3 6 -7 -13 393.55 468.58 298.98 <
4796 2 1 -13 7 393.55 468.58 298.98 <
4797 3 7 -7 -13 120.46 -191.33 192.42 <
4797 2 2 -13 7 120.46 -191.33 192.42 <
4798 3 -5 -7 -9 50.70 171.76 168.50 <
4798 2 -9 -9 7 50.70 171.76 168.50 <
4799 3 -4 -7 -9 190.63 196.77 79.36 <
4799 2 -8 -9 7 190.63 196.77 79.36 <
4800 3 -3 -7 -9 703.20 569.73 143.52 o
4800 2 -7 -9 7 703.20 569.73 143.52 o
4801 3 -2 -7 -9 545.78 456.64 120.68 o
4801 2 -6 -9 7 545.78 456.64 120.68 o
4802 3 -1 -7 -9 239.18 238.09 73.93 o
4802 2 -5 -9 7 239.18 238.09 73.93 o
4803 3 0 -7 -9 124.02 150.02 85.88 <
4803 2 -4 -9 7 124.02 150.02 85.88 <
4804 3 1 -7 -9 52.68 97.84 60.88 <
4804 2 -3 -9 7 52.68 97.84 60.88 <
4805 3 2 -7 -9 11.44 120.67 77.18 <
4805 2 -2 -9 7 11.44 120.67 77.18 <
4806 3 3 -7 -9 30.10 138.06 67.40 <
4806 2 -1 -9 7 30.10 138.06 67.40 <
4807 3 4 -7 -9 129.91 29.35 51.09 <
4807 2 0 -9 7 129.91 29.35 51.09 <
4808 3 5 -7 -9 19.37 102.18 81.53 <
4808 2 1 -9 7 19.37 102.18 81.53 <
4809 3 6 -7 -9 739.11 865.51 225.07 o
4809 2 2 -9 7 739.11 865.51 225.07 o
4810 3 7 -7 -9 943.37 898.21 219.66 o
4810 2 3 -9 7 943.37 898.21 219.66 o
4811 3 8 -7 -9 64.16 156.54 57.62 <
4811 2 4 -9 7 64.16 156.54 57.62 <
4812 3 9 -7 -9 9.75 67.40 157.63 <
4812 2 5 -9 7 9.75 67.40 157.63 <
4813 3 -8 -7 -5 789.99 553.44 294.66 <
4813 2 -11 -5 7 789.99 553.44 294.66 <
4814 3 -7 -7 -5 394.46 167.43 113.07 <
4814 2 -10 -5 7 394.46 167.43 113.07 <
4815 3 -6 -7 -5 412.64 377.26 152.21 <
4815 2 -9 -5 7 412.64 377.26 152.21 <
4816 3 -5 -7 -5 1388.07 1407.30 288.20 o
4816 2 -8 -5 7 1388.07 1407.30 288.20 o
4817 3 -4 -7 -5 94.11 148.93 95.67 <
4817 2 -7 -5 7 94.11 148.93 95.67 <
4818 3 -3 -7 -5 567.15 789.40 182.67 o
4818 2 -6 -5 7 567.15 789.40 182.67 o
4819 3 -2 -7 -5 1849.61 2120.31 270.89 o
4819 2 -5 -5 7 1849.61 2120.31 270.89 o
4820 3 -1 -7 -5 1314.00 1392.25 201.22 o
4820 2 -4 -5 7 1314.00 1392.25 201.22 o
4821 3 0 -7 -5 223.38 298.98 66.32 o
4821 2 -3 -5 7 223.38 298.98 66.32 o
4822 3 1 -7 -5 173.82 169.60 43.49 o
4822 2 -2 -5 7 173.82 169.60 43.49 o
4823 3 2 -7 -5 97.24 142.41 46.75 o
4823 2 -1 -5 7 97.24 142.41 46.75 o
4824 3 3 -7 -5 392.79 592.55 119.60 o
4824 2 0 -5 7 392.79 592.55 119.60 o
4825 3 4 -7 -5 3075.66 3131.99 244.94 o
4825 2 1 -5 7 3075.66 3131.99 244.94 o
4826 3 5 -7 -5 585.52 578.46 134.83 o
4826 2 2 -5 7 585.52 578.46 134.83 o
4827 3 6 -7 -5 64.52 77.18 83.71 <
4827 2 3 -5 7 64.52 77.18 83.71 <
4828 3 7 -7 -5 1531.13 1806.63 267.57 o
4828 2 4 -5 7 1531.13 1806.63 267.57 o
4829 3 8 -7 -5 177.57 73.93 86.97 <
4829 2 5 -5 7 177.57 73.93 86.97 <
4830 3 9 -7 -5 2.68 -68.49 91.31 <
4830 2 6 -5 7 2.68 -68.49 91.31 <
4831 3 10 -7 -5 79.72 -60.88 58.70 <
4831 2 7 -5 7 79.72 -60.88 58.70 <
4832 3 11 -7 -5 330.54 396.82 296.80 <
4832 2 8 -5 7 330.54 396.82 296.80 <
4833 3 -10 -7 -1 31.26 459.84 419.61 <
4833 2 -12 -1 7 31.26 459.84 419.61 <
4834 3 -9 -7 -1 158.29 306.57 205.47 <
4834 2 -11 -1 7 158.29 306.57 205.47 <
4835 3 -8 -7 -1 2774.36 2521.90 455.86 o
4835 2 -10 -1 7 2774.36 2521.90 455.86 o
4836 3 -7 -7 -1 186.13 371.80 136.98 <
4836 2 -9 -1 7 186.13 371.80 136.98 <
4837 3 -6 -7 -1 16.02 213.07 172.85 <
4837 2 -8 -1 7 16.02 213.07 172.85 <
4838 3 -5 -7 -1 2443.90 2030.43 327.52 o
4838 2 -7 -1 7 2443.90 2030.43 327.52 o
4839 3 -4 -7 -1 3617.35 3765.02 409.38 o
4839 2 -6 -1 7 3617.35 3765.02 409.38 o
4840 3 -3 -7 -1 1661.54 1465.50 245.88 o
4840 2 -5 -1 7 1661.54 1465.50 245.88 o
4841 3 -2 -7 -1 1332.21 1123.77 182.76 o
4841 2 -4 -1 7 1332.21 1123.77 182.76 o
4842 3 -1 -7 -1 1919.76 1986.06 229.62 o
4842 2 -3 -1 7 1919.76 1986.06 229.62 o
4843 3 0 -7 -1 539.99 471.93 88.08 o
4843 2 -2 -1 7 539.99 471.93 88.08 o
4844 3 1 -7 -1 1436.52 1494.95 142.53 o
4844 2 -1 -1 7 1436.52 1494.95 142.53 o
4845 3 2 -7 -1 2400.27 2464.66 198.13 o
4845 2 0 -1 7 2400.27 2464.66 198.13 o
4846 3 3 -7 -1 376.84 349.00 51.10 o
4846 2 1 -1 7 376.84 349.00 51.10 o
4847 3 4 -7 -1 4075.88 3915.34 299.51 o
4847 2 2 -1 7 4075.88 3915.34 299.51 o
4848 3 5 -7 -1 4130.08 4370.53 343.06 o
4848 2 3 -1 7 4130.08 4370.53 343.06 o
4849 3 6 -7 -1 4.50 -80.44 69.57 <
4849 2 4 -1 7 4.50 -80.44 69.57 <
4850 3 7 -7 -1 379.62 378.35 133.73 <
4850 2 5 -1 7 379.62 378.35 133.73 <
4851 3 8 -7 -1 862.62 891.66 209.87 o
4851 2 6 -1 7 862.62 891.66 209.87 o
4852 3 9 -7 -1 583.54 1058.99 248.98 o
4852 2 7 -1 7 583.54 1058.99 248.98 o
4853 3 10 -7 -1 589.04 611.03 191.36 o
4853 2 8 -1 7 589.04 611.03 191.36 o
4854 3 -11 -7 3 1786.38 2279.56 563.37 o
4854 2 -12 3 7 1786.38 2279.56 563.37 o
4855 3 -10 -7 3 1025.55 1088.46 325.12 o
4855 2 -11 3 7 1025.55 1088.46 325.12 o
4856 3 -9 -7 3 35.27 -78.27 134.80 <
4856 2 -10 3 7 35.27 -78.27 134.80 <
4857 3 -8 -7 3 746.22 1019.91 316.41 o
4857 2 -9 3 7 746.22 1019.91 316.41 o
4858 3 -7 -7 3 2293.12 2612.10 471.07 o
4858 2 -8 3 7 2293.12 2612.10 471.07 o
4859 3 -6 -7 3 729.98 1175.44 226.17 o
4859 2 -7 3 7 729.98 1175.44 226.17 o
4860 3 -5 -7 3 837.31 875.40 182.69 o
4860 2 -6 3 7 837.31 875.40 182.69 o
4861 3 -4 -7 3 3438.50 2769.90 309.22 o
4861 2 -5 3 7 3438.50 2769.90 309.22 o
4862 3 -3 -7 3 2774.49 2506.98 279.76 o
4862 2 -4 3 7 2774.49 2506.98 279.76 o
4863 3 -2 -7 3 516.64 293.59 83.73 o
4863 2 -3 3 7 516.64 293.59 83.73 o
4864 3 -1 -7 3 1550.57 1132.63 167.55 o
4864 2 -2 3 7 1550.57 1132.63 167.55 o
4865 3 0 -7 3 617.66 675.29 163.11 o
4865 2 -1 3 7 617.66 675.29 163.11 o
4866 3 1 -7 3 901.73 828.70 109.84 o
4866 2 0 3 7 901.73 828.70 109.84 o
4867 3 2 -7 3 6730.43 6846.74 274.87 o
4867 2 1 3 7 6730.43 6846.74 274.87 o
4868 3 3 -7 3 991.17 955.96 106.58 o
4868 2 2 3 7 991.17 955.96 106.58 o
4869 3 4 -7 3 269.70 223.96 89.15 <
4869 2 3 3 7 269.70 223.96 89.15 <
4870 3 5 -7 3 3540.61 3797.84 354.86 o
4870 2 4 3 7 3540.61 3797.84 354.86 o
4871 3 6 -7 3 451.97 524.05 196.79 <
4871 2 5 3 7 451.97 524.05 196.79 <
4872 3 7 -7 3 137.77 27.18 94.58 <
4872 2 6 3 7 137.77 27.18 94.58 <
4873 3 8 -7 3 471.22 538.17 200.05 <
4873 2 7 3 7 471.22 538.17 200.05 <
4874 3 -11 -7 7 33.72 -117.40 181.54 <
4874 2 -11 7 7 33.72 -117.40 181.54 <
4875 3 -10 -7 7 976.51 740.50 267.49 <
4875 2 -10 7 7 976.51 740.50 267.49 <
4876 3 -9 -7 7 55.20 240.25 151.11 <
4876 2 -9 7 7 55.20 240.25 151.11 <
4877 3 -8 -7 7 8.79 -98.92 117.40 <
4877 2 -8 7 7 8.79 -98.92 117.40 <
4878 3 -7 -7 7 647.69 817.66 290.31 <
4878 2 -7 7 7 647.69 817.66 290.31 <
4879 3 -6 -7 7 1774.90 1652.32 353.52 o
4879 2 -6 7 7 1774.90 1652.32 353.52 o
4880 3 -5 -7 7 286.29 637.10 229.40 <
4880 2 -5 7 7 286.29 637.10 229.40 <
4881 3 -4 -7 7 225.03 403.34 213.09 <
4881 2 -4 7 7 225.03 403.34 213.09 <
4882 3 -3 -7 7 988.91 1250.65 302.33 o
4882 2 -3 7 7 988.91 1250.65 302.33 o
4883 3 -2 -7 7 9.02 123.93 82.62 <
4883 2 -2 7 7 9.02 123.93 82.62 <
4884 3 -1 -7 7 627.74 579.57 123.96 o
4884 2 -1 7 7 627.74 579.57 123.96 o
4885 3 0 -7 7 1282.68 1084.39 164.24 o
4885 2 0 7 7 1282.68 1084.39 164.24 o
4886 3 1 -7 7 16.67 66.31 64.14 <
4886 2 1 7 7 16.67 66.31 64.14 <
4887 3 2 -7 7 2082.86 2141.02 239.34 o
4887 2 2 7 7 2082.86 2141.02 239.34 o
4888 3 3 -7 7 2084.22 2090.87 239.33 o
4888 2 3 7 7 2084.22 2090.87 239.33 o
4889 3 4 -7 7 123.18 73.92 154.37 <
4889 2 4 7 7 123.18 73.92 154.37 <
4890 3 5 -7 7 293.29 408.78 194.60 <
4890 2 5 7 7 293.29 408.78 194.60 <
4891 3 6 -7 7 390.46 407.70 192.43 <
4891 2 6 7 7 390.46 407.70 192.43 <
4892 3 -9 -7 11 127.81 173.94 150.02 <
4892 2 -8 11 7 127.81 173.94 150.02 <
4893 3 -8 -7 11 0.70 -4.35 71.75 <
4893 2 -7 11 7 0.70 -4.35 71.75 <
4894 3 -7 -7 11 104.51 296.78 172.85 <
4894 2 -6 11 7 104.51 296.78 172.85 <
4895 3 -6 -7 11 197.81 304.40 148.94 <
4895 2 -5 11 7 197.81 304.40 148.94 <
4896 3 -5 -7 11 86.65 70.66 103.28 <
4896 2 -4 11 7 86.65 70.66 103.28 <
4897 3 -4 -7 11 227.08 138.07 102.19 <
4897 2 -3 11 7 227.08 138.07 102.19 <
4898 3 -3 -7 11 81.50 50.01 78.27 <
4898 2 -2 11 7 81.50 50.01 78.27 <
4899 3 -2 -7 11 69.62 101.10 108.71 <
4899 2 -1 11 7 69.62 101.10 108.71 <
4900 3 -1 -7 11 80.79 -28.26 135.89 <
4900 2 0 11 7 80.79 -28.26 135.89 <
4901 3 0 -7 11 1289.05 1036.38 287.10 o
4901 2 1 11 7 1289.05 1036.38 287.10 o
4902 3 1 -7 11 59.91 -23.92 50.01 <
4902 2 2 11 7 59.91 -23.92 50.01 <
4903 3 2 -7 11 165.54 470.72 182.63 <
4903 2 3 11 7 165.54 470.72 182.63 <
4904 3 3 -7 11 705.65 795.89 445.79 <
4904 2 4 11 7 705.65 795.89 445.79 <
4905 4 -7 -2 -8 205.81 143.50 101.10 <
4905 2 -11 2 8 205.81 143.50 101.10 <
4906 4 -6 -2 -8 289.26 323.96 118.50 <
4906 2 -10 2 8 289.26 323.96 118.50 <
4907 4 -5 -2 -8 513.84 526.18 144.59 o
4907 2 -9 2 8 513.84 526.18 144.59 o
4908 4 -4 -2 -8 27.34 128.28 128.28 <
4908 2 -8 2 8 27.34 128.28 128.28 <
4909 4 -3 -2 -8 57.55 142.41 64.14 <
4909 2 -7 2 8 57.55 142.41 64.14 <
4910 4 -2 -2 -8 310.03 325.06 88.06 o
4910 2 -6 2 8 310.03 325.06 88.06 o
4911 4 -1 -2 -8 376.25 360.95 88.06 o
4911 2 -5 2 8 376.25 360.95 88.06 o
4912 4 0 -2 -8 217.12 175.02 60.88 <
4912 2 -4 2 8 217.12 175.02 60.88 <
4913 4 1 -2 -8 210.39 143.51 59.79 <
4913 2 -3 2 8 210.39 143.51 59.79 <
4914 4 2 -2 -8 194.49 264.17 53.27 o
4914 2 -2 2 8 194.49 264.17 53.27 o
4915 4 3 -2 -8 160.52 210.90 59.79 o
4915 2 -1 2 8 160.52 210.90 59.79 o
4916 4 4 -2 -8 283.07 221.79 48.92 o
4916 2 0 2 8 283.07 221.79 48.92 o
4917 4 5 -2 -8 357.47 406.60 64.14 o
4917 2 1 2 8 357.47 406.60 64.14 o
4918 4 6 -2 -8 311.82 375.07 63.06 o
4918 2 2 2 8 311.82 375.07 63.06 o
4919 4 7 -2 -8 75.24 56.53 53.27 <
4919 2 3 2 8 75.24 56.53 53.27 <
4920 4 8 -2 -8 19.12 82.62 53.27 <
4920 2 4 2 8 19.12 82.62 53.27 <
4921 4 9 -2 -8 589.47 485.99 98.94 o
4921 2 5 2 8 589.47 485.99 98.94 o
4922 4 10 -2 -8 299.73 368.54 110.89 o
4922 2 6 2 8 299.73 368.54 110.89 o
4923 4 11 -2 -8 222.41 342.44 122.84 <
4923 2 7 2 8 222.41 342.44 122.84 <
4924 4 12 -2 -8 138.65 116.32 143.50 <
4924 2 8 2 8 138.65 116.32 143.50 <
4925 4 -7 -6 -8 1483.37 1356.90 384.89 o
4925 2 -11 6 8 1483.37 1356.90 384.89 o
4926 4 -6 -6 -8 111.18 165.24 98.92 <
4926 2 -10 6 8 111.18 165.24 98.92 <
4927 4 -5 -6 -8 54.17 152.19 84.79 <
4927 2 -9 6 8 54.17 152.19 84.79 <
4928 4 -4 -6 -8 818.18 864.31 164.16 o
4928 2 -8 6 8 818.18 864.31 164.16 o
4929 4 -3 -6 -8 1020.50 1127.51 159.83 o
4929 2 -7 6 8 1020.50 1127.51 159.83 o
4930 4 -2 -6 -8 765.26 460.98 89.15 o
4930 2 -6 6 8 765.26 460.98 89.15 o
4931 4 -1 -6 -8 803.57 741.49 135.90 o
4931 2 -5 6 8 803.57 741.49 135.90 o
4932 4 0 -6 -8 939.77 955.77 137.01 o
4932 2 -4 6 8 939.77 955.77 137.01 o
4933 4 1 -6 -8 738.35 815.40 106.55 o
4933 2 -3 6 8 738.35 815.40 106.55 o
4934 4 2 -6 -8 648.07 727.36 96.76 o
4934 2 -2 6 8 648.07 727.36 96.76 o
4935 4 3 -6 -8 851.75 873.14 112.00 o
4935 2 -1 6 8 851.75 873.14 112.00 o
4936 4 4 -6 -8 858.35 611.03 115.25 o
4936 2 0 6 8 858.35 611.03 115.25 o
4937 4 5 -6 -8 876.29 949.22 132.65 o
4937 2 1 6 8 876.29 949.22 132.65 o
4938 4 6 -6 -8 816.48 820.89 110.90 o
4938 2 2 6 8 816.48 820.89 110.90 o
4939 4 7 -6 -8 1023.27 777.41 119.60 o
4939 2 3 6 8 1023.27 777.41 119.60 o
4940 4 8 -6 -8 943.81 1062.29 153.31 o
4940 2 4 6 8 943.81 1062.29 153.31 o
4941 4 9 -6 -8 52.60 -14.13 67.40 <
4941 2 5 6 8 52.60 -14.13 67.40 <
4942 4 10 -6 -8 137.16 263.08 105.45 <
4942 2 6 6 8 137.16 263.08 105.45 <
4943 4 -4 -10 -8 54.85 172.85 93.49 <
4943 2 -8 10 8 54.85 172.85 93.49 <
4944 4 -3 -10 -8 180.77 180.46 81.53 <
4944 2 -7 10 8 180.77 180.46 81.53 <
4945 4 -2 -10 -8 536.83 460.96 110.89 o
4945 2 -6 10 8 536.83 460.96 110.89 o
4946 4 -1 -10 -8 516.45 600.12 131.55 o
4946 2 -5 10 8 516.45 600.12 131.55 o
4947 4 0 -10 -8 315.20 320.70 88.06 o
4947 2 -4 10 8 315.20 320.70 88.06 o
4948 4 1 -10 -8 207.02 290.26 95.67 o
4948 2 -3 10 8 207.02 290.26 95.67 o
4949 4 2 -10 -8 131.10 8.70 54.35 <
4949 2 -2 10 8 131.10 8.70 54.35 <
4950 4 3 -10 -8 175.38 109.80 71.75 <
4950 2 -1 10 8 175.38 109.80 71.75 <
4951 4 4 -10 -8 386.45 373.99 136.98 <
4951 2 0 10 8 386.45 373.99 136.98 <
4952 4 5 -10 -8 520.16 724.06 159.81 o
4952 2 1 10 8 520.16 724.06 159.81 o
4953 4 6 -10 -8 565.67 466.40 100.02 o
4953 2 2 10 8 565.67 466.40 100.02 o
4954 4 7 -10 -8 222.95 246.78 91.32 <
4954 2 3 10 8 222.95 246.78 91.32 <
4955 4 8 -10 -8 54.19 90.23 91.32 <
4955 2 4 10 8 54.19 90.23 91.32 <
4956 4 9 -10 -8 473.62 474.01 219.61 <
4956 2 5 10 8 473.62 474.01 219.61 <
4957 4 3 -14 -8 42.19 82.62 111.97 <
4957 2 -1 14 8 42.19 82.62 111.97 <
4958 4 4 -14 -8 9.21 305.47 265.25 <
4958 2 0 14 8 9.21 305.47 265.25 <
4959 3 -2 -9 -11 22.90 63.05 121.75 <
4959 2 -7 -11 9 22.90 63.05 121.75 <
4960 3 -1 -9 -11 24.97 -102.19 134.80 <
4960 2 -6 -11 9 24.97 -102.19 134.80 <
4961 3 0 -9 -11 649.38 1014.42 240.29 o
4961 2 -5 -11 9 649.38 1014.42 240.29 o
4962 3 1 -9 -11 7.62 30.44 69.57 <
4962 2 -4 -11 9 7.62 30.44 69.57 <
4963 3 2 -9 -11 16.49 26.09 116.32 <
4963 2 -3 -11 9 16.49 26.09 116.32 <
4964 3 3 -9 -11 0.62 -76.10 48.92 <
4964 2 -2 -11 9 0.62 -76.10 48.92 <
4965 3 4 -9 -11 2.00 206.54 155.45 <
4965 2 -1 -11 9 2.00 206.54 155.45 <
4966 3 5 -9 -11 142.61 91.32 103.28 <
4966 2 0 -11 9 142.61 91.32 103.28 <
4967 3 6 -9 -11 272.54 278.31 177.21 <
4967 2 1 -11 9 272.54 278.31 177.21 <
4968 3 7 -9 -11 38.42 -50.01 56.53 <
4968 2 2 -11 9 38.42 -50.01 56.53 <
4969 3 8 -9 -11 6.31 -79.36 106.53 <
4969 2 3 -11 9 6.31 -79.36 106.53 <
4970 3 -6 -9 -7 110.43 215.25 221.77 <
4970 2 -10 -7 9 110.43 215.25 221.77 <
4971 3 -5 -9 -7 13.74 35.87 94.58 <
4971 2 -9 -7 9 13.74 35.87 94.58 <
4972 3 -4 -9 -7 70.72 106.54 80.45 <
4972 2 -8 -7 9 70.72 106.54 80.45 <
4973 3 -3 -9 -7 977.53 806.84 163.11 o
4973 2 -7 -7 9 977.53 806.84 163.11 o
4974 3 -2 -9 -7 702.61 531.71 121.78 o
4974 2 -6 -7 9 702.61 531.71 121.78 o
4975 3 -1 -9 -7 10.14 44.57 78.27 <
4975 2 -5 -7 9 10.14 44.57 78.27 <
4976 3 0 -9 -7 124.84 125.02 47.83 <
4976 2 -4 -7 9 124.84 125.02 47.83 <
4977 3 1 -9 -7 39.77 -43.48 56.53 <
4977 2 -3 -7 9 39.77 -43.48 56.53 <
4978 3 2 -9 -7 9.82 171.76 86.97 <
4978 2 -2 -7 9 9.82 171.76 86.97 <
4979 3 3 -9 -7 37.98 400.05 209.81 <
4979 2 -1 -7 9 37.98 400.05 209.81 <
4980 3 4 -9 -7 130.46 186.99 145.67 <
4980 2 0 -7 9 130.46 186.99 145.67 <
4981 3 5 -9 -7 249.11 228.30 126.11 <
4981 2 1 -7 9 249.11 228.30 126.11 <
4982 3 6 -9 -7 509.54 508.84 166.35 o
4982 2 2 -7 9 509.54 508.84 166.35 o
4983 3 7 -9 -7 641.97 911.17 249.00 o
4983 2 3 -7 9 641.97 911.17 249.00 o
4984 3 8 -9 -7 181.79 258.74 141.33 <
4984 2 4 -7 9 181.79 258.74 141.33 <
4985 3 9 -9 -7 39.05 158.72 180.46 <
4985 2 5 -7 9 39.05 158.72 180.46 <
4986 3 -8 -9 -3 70.69 479.41 491.37 <
4986 2 -11 -3 9 70.69 479.41 491.37 <
4987 3 -7 -9 -3 398.77 -4.35 157.65 <
4987 2 -10 -3 9 398.77 -4.35 157.65 <
4988 3 -6 -9 -3 2.17 78.27 101.10 <
4988 2 -9 -3 9 2.17 78.27 101.10 <
4989 3 -5 -9 -3 166.38 159.81 96.75 <
4989 2 -8 -3 9 166.38 159.81 96.75 <
4990 3 -4 -9 -3 104.25 255.47 97.84 <
4990 2 -7 -3 9 104.25 255.47 97.84 <
4991 3 -3 -9 -3 63.31 92.40 69.57 <
4991 2 -6 -3 9 63.31 92.40 69.57 <
4992 3 -2 -9 -3 485.51 406.64 142.43 <
4992 2 -5 -3 9 485.51 406.64 142.43 <
4993 3 -1 -9 -3 0.46 26.09 84.79 <
4993 2 -4 -3 9 0.46 26.09 84.79 <
4994 3 0 -9 -3 223.93 252.22 84.80 <
4994 2 -3 -3 9 223.93 252.22 84.80 <
4995 3 1 -9 -3 402.77 354.45 82.63 o
4995 2 -2 -3 9 402.77 354.45 82.63 o
4996 3 2 -9 -3 6.46 -35.87 45.66 <
4996 2 -1 -3 9 6.46 -35.87 45.66 <
4997 3 3 -9 -3 82.41 154.37 75.01 <
4997 2 0 -3 9 82.41 154.37 75.01 <
4998 3 4 -9 -3 267.60 387.05 152.21 <
4998 2 1 -3 9 267.60 387.05 152.21 <
4999 3 5 -9 -3 68.17 269.60 122.84 <
4999 2 2 -3 9 68.17 269.60 122.84 <
5000 3 6 -9 -3 250.14 317.45 130.46 <
5000 2 3 -3 9 250.14 317.45 130.46 <
5001 3 7 -9 -3 282.17 264.19 110.89 <
5001 2 4 -3 9 282.17 264.19 110.89 <
5002 3 8 -9 -3 20.14 115.23 109.80 <
5002 2 5 -3 9 20.14 115.23 109.80 <
5003 3 9 -9 -3 1534.66 1628.11 275.16 o
5003 2 6 -3 9 1534.66 1628.11 275.16 o
5004 3 10 -9 -3 261.14 156.55 219.61 <
5004 2 7 -3 9 261.14 156.55 219.61 <
5005 3 -9 -9 1 232.15 510.97 245.70 <
5005 2 -11 1 9 232.15 510.97 245.70 <
5006 3 -8 -9 1 269.61 363.12 207.65 <
5006 2 -10 1 9 269.61 363.12 207.65 <
5007 3 -7 -9 1 1774.13 1337.95 307.84 o
5007 2 -9 1 9 1774.13 1337.95 307.84 o
5008 3 -6 -9 1 1362.73 1458.54 346.96 o
5008 2 -8 1 9 1362.73 1458.54 346.96 o
5009 3 -5 -9 1 2.23 206.54 190.24 <
5009 2 -7 1 9 2.23 206.54 190.24 <
5010 3 -4 -9 1 99.39 120.67 111.97 <
5010 2 -6 1 9 99.39 120.67 111.97 <
5011 3 -3 -9 1 681.90 1102.63 233.79 o
5011 2 -5 1 9 681.90 1102.63 233.79 o
5012 3 -2 -9 1 1157.92 1046.32 222.97 o
5012 2 -4 1 9 1157.92 1046.32 222.97 o
5013 3 -1 -9 1 1665.57 1745.19 254.60 o
5013 2 -3 1 9 1665.57 1745.19 254.60 o
5014 3 0 -9 1 1185.37 1249.76 165.33 o
5014 2 -2 1 9 1185.37 1249.76 165.33 o
5015 3 1 -9 1 1768.32 1754.81 200.18 o
5015 2 -1 1 9 1768.32 1754.81 200.18 o
5016 3 2 -9 1 579.14 552.37 106.56 o
5016 2 0 1 9 579.14 552.37 106.56 o
5017 3 3 -9 1 249.96 216.35 77.19 <
5017 2 1 1 9 249.96 216.35 77.19 <
5018 3 4 -9 1 208.31 204.38 71.75 <
5018 2 2 1 9 208.31 204.38 71.75 <
5019 3 5 -9 1 4.75 114.14 101.10 <
5019 2 3 1 9 4.75 114.14 101.10 <
5020 3 6 -9 1 2584.45 2741.66 334.00 o
5020 2 4 1 9 2584.45 2741.66 334.00 o
5021 3 7 -9 1 1787.00 1805.53 290.41 o
5021 2 5 1 9 1787.00 1805.53 290.41 o
5022 3 8 -9 1 246.97 82.63 168.51 <
5022 2 6 1 9 246.97 82.63 168.51 <
5023 3 -9 -9 5 3495.48 3726.11 598.53 o
5023 2 -10 5 9 3495.48 3726.11 598.53 o
5024 3 -8 -9 5 1369.19 1350.76 383.91 o
5024 2 -9 5 9 1369.19 1350.76 383.91 o
5025 3 -7 -9 5 1460.72 1578.16 377.41 o
5025 2 -8 5 9 1460.72 1578.16 377.41 o
5026 3 -6 -9 5 2900.67 3199.35 385.23 o
5026 2 -7 5 9 2900.67 3199.35 385.23 o
5027 3 -5 -9 5 1299.37 1287.73 230.57 o
5027 2 -6 5 9 1299.37 1287.73 230.57 o
5028 3 -4 -9 5 1578.84 1326.00 243.66 o
5028 2 -5 5 9 1578.84 1326.00 243.66 o
5029 3 -3 -9 5 2602.91 2508.44 411.36 o
5029 2 -4 5 9 2602.91 2508.44 411.36 o
5030 3 -2 -9 5 4673.81 4269.44 383.38 o
5030 2 -3 5 9 4673.81 4269.44 383.38 o
5031 3 -1 -9 5 6814.73 5944.65 452.42 o
5031 2 -2 5 9 6814.73 5944.65 452.42 o
5032 3 0 -9 5 2696.69 2453.00 268.81 o
5032 2 -1 5 9 2696.69 2453.00 268.81 o
5033 3 1 -9 5 2180.93 2416.42 335.10 o
5033 2 0 5 9 2180.93 2416.42 335.10 o
5034 3 2 -9 5 1394.57 1575.95 229.49 o
5034 2 1 5 9 1394.57 1575.95 229.49 o
5035 3 3 -9 5 1222.17 1100.56 235.99 o
5035 2 2 5 9 1222.17 1100.56 235.99 o
5036 3 4 -9 5 4478.69 5314.91 596.59 o
5036 2 3 5 9 4478.69 5314.91 596.59 o
5037 3 5 -9 5 729.65 603.45 223.98 <
5037 2 4 5 9 729.65 603.45 223.98 <
5038 3 6 -9 5 1109.86 867.73 262.06 o
5038 2 5 5 9 1109.86 867.73 262.06 o
5039 3 -8 -9 9 2685.64 2100.73 674.50 o
5039 2 -8 9 9 2685.64 2100.73 674.50 o
5040 3 -7 -9 9 997.81 873.18 276.20 o
5040 2 -7 9 9 997.81 873.18 276.20 o
5041 3 -6 -9 9 1922.77 2205.87 414.42 o
5041 2 -6 9 9 1922.77 2205.87 414.42 o
5042 3 -5 -9 9 2095.53 2204.95 343.74 o
5042 2 -5 9 9 2095.53 2204.95 343.74 o
5043 3 -4 -9 9 4135.55 4318.14 451.73 o
5043 2 -4 9 9 4135.55 4318.14 451.73 o
5044 3 -3 -9 9 4636.28 5271.55 472.50 o
5044 2 -3 9 9 4636.28 5271.55 472.50 o
5045 3 -2 -9 9 3105.13 3558.33 485.33 o
5045 2 -2 9 9 3105.13 3558.33 485.33 o
5046 3 -1 -9 9 5134.30 5937.65 620.66 o
5046 2 -1 9 9 5134.30 5937.65 620.66 o
5047 3 0 -9 9 2492.73 2245.49 393.83 o
5047 2 0 9 9 2492.73 2245.49 393.83 o
5048 3 1 -9 9 1850.97 1648.94 328.48 o
5048 2 1 9 9 1850.97 1648.94 328.48 o
5049 3 2 -9 9 2340.75 2238.76 392.71 o
5049 2 2 9 9 2340.75 2238.76 392.71 o
5050 3 3 -9 9 635.21 594.74 215.28 <
5050 2 3 9 9 635.21 594.74 215.28 <
5051 3 4 -9 9 4851.41 5599.42 690.13 o
5051 2 4 9 9 4851.41 5599.42 690.13 o
5052 3 5 -9 9 4122.89 3934.13 931.57 o
5052 2 5 9 9 4122.89 3934.13 931.57 o
5053 3 -2 -9 13 915.09 649.14 318.59 <
5053 2 -1 13 9 915.09 649.14 318.59 <
5054 3 -1 -9 13 1157.55 1319.03 407.78 o
5054 2 0 13 9 1157.55 1319.03 407.78 o
5055 4 -5 0 -10 63.82 -7.61 150.02 <
5055 2 -10 0 10 63.82 -7.61 150.02 <
5056 4 -4 0 -10 61.27 189.15 161.98 <
5056 2 -9 0 10 61.27 189.15 161.98 <
5057 4 -3 0 -10 742.84 932.84 256.58 o
5057 2 -8 0 10 742.84 932.84 256.58 o
5058 4 -2 0 -10 194.78 108.71 75.01 <
5058 2 -7 0 10 194.78 108.71 75.01 <
5059 4 -1 0 -10 45.01 116.32 125.02 <
5059 2 -6 0 10 45.01 116.32 125.02 <
5060 4 0 0 -10 239.88 95.67 90.23 <
5060 2 -5 0 10 239.88 95.67 90.23 <
5061 4 1 0 -10 391.81 347.89 154.37 <
5061 2 -4 0 10 391.81 347.89 154.37 <
5062 4 2 0 -10 627.68 650.18 151.13 o
5062 2 -3 0 10 627.68 650.18 151.13 o
5063 4 3 0 -10 579.48 544.68 97.85 o
5063 2 -2 0 10 579.48 544.68 97.85 o
5064 4 4 0 -10 456.32 352.26 76.11 o
5064 2 -1 0 10 456.32 352.26 76.11 o
5065 4 5 0 -10 247.82 271.78 102.19 <
5065 2 0 0 10 247.82 271.78 102.19 <
5066 4 6 0 -10 29.92 4.35 86.97 <
5066 2 1 0 10 29.92 4.35 86.97 <
5067 4 7 0 -10 262.99 429.43 132.63 o
5067 2 2 0 10 262.99 429.43 132.63 o
5068 4 8 0 -10 728.86 808.89 169.60 o
5068 2 3 0 10 728.86 808.89 169.60 o
5069 4 9 0 -10 63.66 115.23 114.14 <
5069 2 4 0 10 63.66 115.23 114.14 <
5070 4 10 0 -10 94.55 251.12 128.28 <
5070 2 5 0 10 94.55 251.12 128.28 <
5071 4 -5 -4 -10 353.61 339.19 130.46 <
5071 2 -10 4 10 353.61 339.19 130.46 <
5072 4 -4 -4 -10 265.51 185.89 97.84 <
5072 2 -9 4 10 265.51 185.89 97.84 <
5073 4 -3 -4 -10 56.04 206.55 95.66 <
5073 2 -8 4 10 56.04 206.55 95.66 <
5074 4 -2 -4 -10 25.28 -35.87 64.14 <
5074 2 -7 4 10 25.28 -35.87 64.14 <
5075 4 -1 -4 -10 64.71 101.10 64.14 <
5075 2 -6 4 10 64.71 101.10 64.14 <
5076 4 0 -4 -10 5.30 20.65 71.75 <
5076 2 -5 4 10 5.30 20.65 71.75 <
5077 4 1 -4 -10 70.06 171.76 61.96 <
5077 2 -4 4 10 70.06 171.76 61.96 <
5078 4 2 -4 -10 131.83 202.20 75.01 <
5078 2 -3 4 10 131.83 202.20 75.01 <
5079 4 3 -4 -10 161.44 200.03 71.75 <
5079 2 -2 4 10 161.44 200.03 71.75 <
5080 4 4 -4 -10 57.56 118.49 81.53 <
5080 2 -1 4 10 57.56 118.49 81.53 <
5081 4 5 -4 -10 6.66 44.57 48.92 <
5081 2 0 4 10 6.66 44.57 48.92 <
5082 4 6 -4 -10 93.05 178.29 92.40 <
5082 2 1 4 10 93.05 178.29 92.40 <
5083 4 7 -4 -10 23.68 123.93 90.23 <
5083 2 2 4 10 23.68 123.93 90.23 <
5084 4 8 -4 -10 39.70 80.44 91.31 <
5084 2 3 4 10 39.70 80.44 91.31 <
5085 4 9 -4 -10 324.97 331.58 128.28 <
5085 2 4 4 10 324.97 331.58 128.28 <
5086 4 10 -4 -10 337.72 242.43 116.32 <
5086 2 5 4 10 337.72 242.43 116.32 <
5087 4 11 -4 -10 52.82 111.97 233.72 <
5087 2 6 4 10 52.82 111.97 233.72 <
5088 4 -4 -8 -10 323.27 61.97 84.80 <
5088 2 -9 8 10 323.27 61.97 84.80 <
5089 4 -3 -8 -10 22.60 45.66 126.10 <
5089 2 -8 8 10 22.60 45.66 126.10 <
5090 4 -2 -8 -10 335.77 450.08 115.24 o
5090 2 -7 8 10 335.77 450.08 115.24 o
5091 4 -1 -8 -10 634.46 757.75 165.25 o
5091 2 -6 8 10 634.46 757.75 165.25 o
5092 4 0 -8 -10 335.79 562.05 142.41 o
5092 2 -5 8 10 335.79 562.05 142.41 o
5093 4 1 -8 -10 248.15 221.78 81.54 <
5093 2 -4 8 10 248.15 221.78 81.54 <
5094 4 2 -8 -10 149.88 113.06 58.70 <
5094 2 -3 8 10 149.88 113.06 58.70 <
5095 4 3 -8 -10 170.96 148.93 171.76 <
5095 2 -2 8 10 170.96 148.93 171.76 <
5096 4 4 -8 -10 211.19 222.86 111.97 <
5096 2 -1 8 10 211.19 222.86 111.97 <
5097 4 5 -8 -10 328.22 308.75 134.80 <
5097 2 0 8 10 328.22 308.75 134.80 <
5098 4 6 -8 -10 707.14 567.53 135.90 o
5098 2 1 8 10 707.14 567.53 135.90 o
5099 4 7 -8 -10 267.60 198.94 116.32 <
5099 2 2 8 10 267.60 198.94 116.32 <
5100 4 8 -8 -10 24.98 236.98 110.88 <
5100 2 3 8 10 24.98 236.98 110.88 <
5101 4 9 -8 -10 319.85 746.86 214.16 o
5101 2 4 8 10 319.85 746.86 214.16 o
5102 4 0 -12 -10 1271.29 958.98 349.02 <
5102 2 -5 12 10 1271.29 958.98 349.02 <
5103 4 2 -12 -10 993.58 878.50 258.77 o
5103 2 -3 12 10 993.58 878.50 258.77 o
5104 4 3 -12 -10 938.86 1078.51 293.55 o
5104 2 -2 12 10 938.86 1078.51 293.55 o
5105 4 4 -12 -10 1176.74 814.37 246.81 o
5105 2 -1 12 10 1176.74 814.37 246.81 o
5106 4 5 -12 -10 1263.95 1649.40 449.05 o
5106 2 0 12 10 1263.95 1649.40 449.05 o
5107 3 -2 -11 -9 28.60 88.05 132.62 <
5107 2 -7 -9 11 28.60 88.05 132.62 <
5108 3 -1 -11 -9 280.60 301.14 161.99 <
5108 2 -6 -9 11 280.60 301.14 161.99 <
5109 3 0 -11 -9 147.14 619.66 232.64 <
5109 2 -5 -9 11 147.14 619.66 232.64 <
5110 3 1 -11 -9 1.04 44.57 48.92 <
5110 2 -4 -9 11 1.04 44.57 48.92 <
5111 3 2 -11 -9 1.69 -36.96 102.18 <
5111 2 -3 -9 11 1.69 -36.96 102.18 <
5112 3 3 -11 -9 12.77 65.22 47.83 <
5112 2 -2 -9 11 12.77 65.22 47.83 <
5113 3 4 -11 -9 11.91 -78.27 76.10 <
5113 2 -1 -9 11 11.91 -78.27 76.10 <
5114 3 5 -11 -9 617.18 688.25 216.37 o
5114 2 0 -9 11 617.18 688.25 216.37 o
5115 3 6 -11 -9 26.83 -65.22 69.57 <
5115 2 1 -9 11 26.83 -65.22 69.57 <
5116 3 7 -11 -9 9.56 189.15 178.28 <
5116 2 2 -9 11 9.56 189.15 178.28 <
5117 3 -5 -11 -5 32.18 84.79 60.88 <
5117 2 -9 -5 11 32.18 84.79 60.88 <
5118 3 -4 -11 -5 666.90 736.10 248.99 <
5118 2 -8 -5 11 666.90 736.10 248.99 <
5119 3 -3 -11 -5 1013.45 1153.74 258.80 o
5119 2 -7 -5 11 1013.45 1153.74 258.80 o
5120 3 -2 -11 -5 298.81 294.63 143.51 <
5120 2 -6 -5 11 298.81 294.63 143.51 <
5121 3 -1 -11 -5 207.49 408.77 146.77 <
5121 2 -5 -5 11 207.49 408.77 146.77 <
5122 3 0 -11 -5 371.25 381.61 128.29 <
5122 2 -4 -5 11 371.25 381.61 128.29 <
5123 3 1 -11 -5 38.48 132.62 59.79 <
5123 2 -3 -5 11 38.48 132.62 59.79 <
5124 3 2 -11 -5 259.59 276.14 127.20 <
5124 2 -2 -5 11 259.59 276.14 127.20 <
5125 3 3 -11 -5 493.82 855.70 267.47 o
5125 2 -1 -5 11 493.82 855.70 267.47 o
5126 3 4 -11 -5 13.67 69.57 104.36 <
5126 2 0 -5 11 13.67 69.57 104.36 <
5127 3 5 -11 -5 1243.73 1313.66 272.95 o
5127 2 1 -5 11 1243.73 1313.66 272.95 o
5128 3 6 -11 -5 1257.05 1599.77 319.74 o
5128 2 2 -5 11 1257.05 1599.77 319.74 o
5129 3 7 -11 -5 39.46 217.42 198.94 <
5129 2 3 -5 11 39.46 217.42 198.94 <
5130 3 8 -11 -5 69.95 0.00 65.23 <
5130 2 4 -5 11 69.95 0.00 65.23 <
5131 3 9 -11 -5 213.97 379.41 256.57 <
5131 2 5 -5 11 213.97 379.41 256.57 <
5132 3 -7 -11 -1 303.21 106.54 157.64 <
5132 2 -10 -1 11 303.21 106.54 157.64 <
5133 3 -6 -11 -1 1132.06 915.60 259.89 o
5133 2 -9 -1 11 1132.06 915.60 259.89 o
5134 3 -5 -11 -1 257.44 393.55 196.77 <
5134 2 -8 -1 11 257.44 393.55 196.77 <
5135 3 -4 -11 -1 272.13 248.96 130.46 <
5135 2 -7 -1 11 272.13 248.96 130.46 <
5136 3 -3 -11 -1 1530.57 1447.62 287.13 o
5136 2 -6 -1 11 1530.57 1447.62 287.13 o
5137 3 -2 -11 -1 1162.29 1259.32 239.25 o
5137 2 -5 -1 11 1162.29 1259.32 239.25 o
5138 3 -1 -11 -1 133.24 214.16 133.72 <
5138 2 -4 -1 11 133.24 214.16 133.72 <
5139 3 0 -11 -1 568.85 822.02 179.41 o
5139 2 -3 -1 11 568.85 822.02 179.41 o
5140 3 1 -11 -1 162.03 157.63 68.49 <
5140 2 -2 -1 11 162.03 157.63 68.49 <
5141 3 2 -11 -1 309.54 204.39 60.88 o
5141 2 -1 -1 11 309.54 204.39 60.88 o
5142 3 3 -11 -1 3181.63 3610.13 325.42 o
5142 2 0 -1 11 3181.63 3610.13 325.42 o
5143 3 4 -11 -1 318.23 381.60 109.81 o
5143 2 1 -1 11 318.23 381.60 109.81 o
5144 3 5 -11 -1 80.51 179.37 100.01 <
5144 2 2 -1 11 80.51 179.37 100.01 <
5145 3 6 -11 -1 1813.88 2333.10 329.57 o
5145 2 3 -1 11 1813.88 2333.10 329.57 o
5146 3 7 -11 -1 144.75 242.43 140.24 <
5146 2 4 -1 11 144.75 242.43 140.24 <
5147 3 8 -11 -1 37.47 219.59 164.15 <
5147 2 5 -1 11 37.47 219.59 164.15 <
5148 3 -8 -11 3 46.25 364.17 311.99 <
5148 2 -10 3 11 46.25 364.17 311.99 <
5149 3 -7 -11 3 10.52 175.02 183.72 <
5149 2 -9 3 11 10.52 175.02 183.72 <
5150 3 -6 -11 3 497.66 605.58 198.96 o
5150 2 -8 3 11 497.66 605.58 198.96 o
5151 3 -5 -11 3 1377.62 1187.55 300.15 o
5151 2 -7 3 11 1377.62 1187.55 300.15 o
5152 3 -4 -11 3 207.61 107.63 101.10 <
5152 2 -6 3 11 207.61 107.63 101.10 <
5153 3 -3 -11 3 161.25 208.73 95.67 <
5153 2 -5 3 11 161.25 208.73 95.67 <
5154 3 -2 -11 3 732.87 716.55 162.01 o
5154 2 -4 3 11 732.87 716.55 162.01 o
5155 3 -1 -11 3 9.76 106.53 111.97 <
5155 2 -3 3 11 9.76 106.53 111.97 <
5156 3 0 -11 3 465.03 402.28 132.64 o
5156 2 -2 3 11 465.03 402.28 132.64 o
5157 3 1 -11 3 900.42 933.03 222.93 o
5157 2 -1 3 11 900.42 933.03 222.93 o
5158 3 2 -11 3 20.37 85.88 95.66 <
5158 2 0 3 11 20.37 85.88 95.66 <
5159 3 3 -11 3 1612.45 1284.45 265.37 o
5159 2 1 3 11 1612.45 1284.45 265.37 o
5160 3 4 -11 3 1528.04 1864.19 399.16 o
5160 2 2 3 11 1528.04 1864.19 399.16 o
5161 3 5 -11 3 108.96 314.18 220.69 <
5161 2 3 3 11 108.96 314.18 220.69 <
5162 3 6 -11 3 230.48 425.07 272.87 <
5162 2 4 3 11 230.48 425.07 272.87 <
5163 3 -7 -11 7 1.68 -292.42 376.13 <
5163 2 -8 7 11 1.68 -292.42 376.13 <
5164 3 -6 -11 7 87.73 400.06 223.95 <
5164 2 -7 7 11 87.73 400.06 223.95 <
5165 3 -5 -11 7 221.40 178.29 157.63 <
5165 2 -6 7 11 221.40 178.29 157.63 <
5166 3 -4 -11 7 104.41 216.33 186.98 <
5166 2 -5 7 11 104.41 216.33 186.98 <
5167 3 -3 -11 7 193.60 214.17 201.12 <
5167 2 -4 7 11 193.60 214.17 201.12 <
5168 3 -2 -11 7 84.78 43.48 108.71 <
5168 2 -3 7 11 84.78 43.48 108.71 <
5169 3 -1 -11 7 59.19 98.93 143.50 <
5169 2 -2 7 11 59.19 98.93 143.50 <
5170 3 0 -11 7 57.96 7.61 48.92 <
5170 2 -1 7 11 57.96 7.61 48.92 <
5171 3 1 -11 7 1271.02 883.06 408.90 <
5171 2 0 7 11 1271.02 883.06 408.90 <
5172 3 2 -11 7 53.07 55.44 143.50 <
5172 2 1 7 11 53.07 55.44 143.50 <
5173 3 3 -11 7 133.71 69.58 128.28 <
5173 2 2 7 11 133.71 69.58 128.28 <
5174 3 4 -11 7 698.56 695.87 204.41 o
5174 2 3 7 11 698.56 695.87 204.41 o
5175 3 5 -11 7 38.83 -45.66 316.34 <
5175 2 4 7 11 38.83 -45.66 316.34 <
5176 3 -4 -11 11 6.30 163.06 182.63 <
5176 2 -4 11 11 6.30 163.06 182.63 <
5177 3 -3 -11 11 799.21 668.70 330.54 <
5177 2 -3 11 11 799.21 668.70 330.54 <
5178 3 -2 -11 11 68.29 84.79 110.88 <
5178 2 -2 11 11 68.29 84.79 110.88 <
5179 3 -1 -11 11 0.50 -136.97 166.32 <
5179 2 -1 11 11 0.50 -136.97 166.32 <
5180 4 -3 -2 -12 374.95 321.79 114.15 <
5180 2 -9 2 12 374.95 321.79 114.15 <
5181 4 -2 -2 -12 449.05 268.53 121.76 <
5181 2 -8 2 12 449.05 268.53 121.76 <
5182 4 -1 -2 -12 292.00 390.28 126.11 o
5182 2 -7 2 12 292.00 390.28 126.11 o
5183 4 0 -2 -12 241.35 190.24 82.62 <
5183 2 -6 2 12 241.35 190.24 82.62 <
5184 4 1 -2 -12 408.52 378.34 120.68 o
5184 2 -5 2 12 408.52 378.34 120.68 o
5185 4 2 -2 -12 365.68 339.18 88.06 o
5185 2 -4 2 12 365.68 339.18 88.06 o
5186 4 3 -2 -12 296.22 277.22 75.01 o
5186 2 -3 2 12 296.22 277.22 75.01 o
5187 4 4 -2 -12 452.95 415.31 82.63 o
5187 2 -2 2 12 452.95 415.31 82.63 o
5188 4 5 -2 -12 332.55 368.53 85.88 o
5188 2 -1 2 12 332.55 368.53 85.88 o
5189 4 6 -2 -12 272.95 284.83 88.06 o
5189 2 0 2 12 272.95 284.83 88.06 o
5190 4 7 -2 -12 307.71 382.67 94.58 o
5190 2 1 2 12 307.71 382.67 94.58 o
5191 4 8 -2 -12 420.68 340.27 133.72 <
5191 2 2 2 12 420.68 340.27 133.72 <
5192 4 9 -2 -12 447.21 369.64 146.77 <
5192 2 3 2 12 447.21 369.64 146.77 <
5193 4 10 -2 -12 18.53 38.05 119.58 <
5193 2 4 2 12 18.53 38.05 119.58 <
5194 4 -3 -6 -12 842.84 1004.60 352.26 <
5194 2 -9 6 12 842.84 1004.60 352.26 <
5195 4 -2 -6 -12 1096.18 1122.02 233.75 o
5195 2 -8 6 12 1096.18 1122.02 233.75 o
5196 4 -1 -6 -12 1719.05 1695.20 260.97 o
5196 2 -7 6 12 1719.05 1695.20 260.97 o
5197 4 0 -6 -12 1977.92 1905.18 264.25 o
5197 2 -6 6 12 1977.92 1905.18 264.25 o
5198 4 1 -6 -12 1620.46 1675.53 240.29 o
5198 2 -5 6 12 1620.46 1675.53 240.29 o
5199 4 2 -6 -12 1526.36 1324.46 210.96 o
5199 2 -4 6 12 1526.36 1324.46 210.96 o
5200 4 3 -6 -12 1473.40 1642.98 255.53 o
5200 2 -3 6 12 1473.40 1642.98 255.53 o
5201 4 4 -6 -12 1391.69 1542.85 213.11 o
5201 2 -2 6 12 1391.69 1542.85 213.11 o
5202 4 5 -6 -12 1811.20 2072.72 254.47 o
5202 2 -1 6 12 1811.20 2072.72 254.47 o
5203 4 6 -6 -12 1949.38 1980.17 272.94 o
5203 2 0 6 12 1949.38 1980.17 272.94 o
5204 4 7 -6 -12 1744.52 1678.92 276.20 o
5204 2 1 6 12 1744.52 1678.92 276.20 o
5205 4 8 -6 -12 1194.10 676.30 193.54 o
5205 2 2 6 12 1194.10 676.30 193.54 o
5206 4 9 -6 -12 799.25 602.30 373.99 <
5206 2 3 6 12 799.25 602.30 373.99 <
5207 4 0 -10 -12 1260.25 1398.20 399.02 o
5207 2 -6 10 12 1260.25 1398.20 399.02 o
5208 4 2 -10 -12 1081.77 756.70 247.88 o
5208 2 -4 10 12 1081.77 756.70 247.88 o
5209 4 3 -10 -12 1013.71 1089.42 390.32 <
5209 2 -3 10 12 1013.71 1089.42 390.32 <
5210 4 4 -10 -12 1204.69 1383.06 440.36 o
5210 2 -2 10 12 1204.69 1383.06 440.36 o
5211 3 -2 -13 -7 94.91 -51.09 167.42 <
5211 2 -7 -7 13 94.91 -51.09 167.42 <
5212 3 -1 -13 -7 375.70 616.44 216.35 <
5212 2 -6 -7 13 375.70 616.44 216.35 <
5213 3 0 -13 -7 43.01 -22.83 144.58 <
5213 2 -5 -7 13 43.01 -22.83 144.58 <
5214 3 1 -13 -7 12.60 -5.44 101.10 <
5214 2 -4 -7 13 12.60 -5.44 101.10 <
5215 3 2 -13 -7 32.54 117.40 127.19 <
5215 2 -3 -7 13 32.54 117.40 127.19 <
5216 3 3 -13 -7 33.09 345.69 165.24 <
5216 2 -2 -7 13 33.09 345.69 165.24 <
5217 3 4 -13 -7 116.01 185.90 133.72 <
5217 2 -1 -7 13 116.01 185.90 133.72 <
5218 3 -4 -13 -3 499.31 541.44 208.75 <
5218 2 -8 -3 13 499.31 541.44 208.75 <
5219 3 -3 -13 -3 269.02 381.59 170.68 <
5219 2 -7 -3 13 269.02 381.59 170.68 <
5220 3 -2 -13 -3 32.04 117.41 121.75 <
5220 2 -6 -3 13 32.04 117.41 121.75 <
5221 3 -1 -13 -3 1.35 131.54 114.14 <
5221 2 -5 -3 13 1.35 131.54 114.14 <
5222 3 0 -13 -3 2.73 203.28 121.75 <
5222 2 -4 -3 13 2.73 203.28 121.75 <
5223 3 1 -13 -3 7.51 0.00 122.84 <
5223 2 -3 -3 13 7.51 0.00 122.84 <
5224 3 2 -13 -3 23.98 19.57 107.62 <
5224 2 -2 -3 13 23.98 19.57 107.62 <
5225 3 3 -13 -3 56.54 141.32 101.10 <
5225 2 -1 -3 13 56.54 141.32 101.10 <
5226 3 4 -13 -3 133.78 203.29 84.80 <
5226 2 0 -3 13 133.78 203.29 84.80 <
5227 3 5 -13 -3 114.93 57.62 60.88 <
5227 2 1 -3 13 114.93 57.62 60.88 <
5228 3 6 -13 -3 447.78 486.01 169.62 <
5228 2 2 -3 13 447.78 486.01 169.62 <
5229 3 7 -13 -3 312.50 376.15 219.60 <
5229 2 3 -3 13 312.50 376.15 219.60 <
5230 3 -5 -13 1 192.88 332.67 185.90 <
5230 2 -8 1 13 192.88 332.67 185.90 <
5231 3 -4 -13 1 0.51 22.83 111.97 <
5231 2 -7 1 13 0.51 22.83 111.97 <
5232 3 -3 -13 1 1.24 -78.27 77.18 <
5232 2 -6 1 13 1.24 -78.27 77.18 <
5233 3 -2 -13 1 53.25 190.24 132.63 <
5233 2 -5 1 13 53.25 190.24 132.63 <
5234 3 -1 -13 1 448.96 533.82 157.65 o
5234 2 -4 1 13 448.96 533.82 157.65 o
5235 3 0 -13 1 1005.50 1097.22 195.74 o
5235 2 -3 1 13 1005.50 1097.22 195.74 o
5236 3 1 -13 1 59.18 46.75 95.66 <
5236 2 -2 1 13 59.18 46.75 95.66 <
5237 3 2 -13 1 39.80 165.24 158.71 <
5237 2 -1 1 13 39.80 165.24 158.71 <
5238 3 3 -13 1 2.71 164.15 106.53 <
5238 2 0 1 13 2.71 164.15 106.53 <
5239 3 4 -13 1 4.17 -6.52 80.44 <
5239 2 1 1 13 4.17 -6.52 80.44 <
5240 3 5 -13 1 731.44 459.93 379.47 <
5240 2 2 1 13 731.44 459.93 379.47 <
5241 3 -6 -13 5 97.26 -267.43 343.53 <
5241 2 -8 5 13 97.26 -267.43 343.53 <
5242 3 -5 -13 5 379.16 317.47 162.00 <
5242 2 -7 5 13 379.16 317.47 162.00 <
5243 3 -4 -13 5 439.77 179.39 145.69 <
5243 2 -6 5 13 439.77 179.39 145.69 <
5244 3 -3 -13 5 1390.17 800.43 277.32 <
5244 2 -5 5 13 1390.17 800.43 277.32 <
5245 3 -2 -13 5 1537.84 1421.56 365.45 o
5245 2 -4 5 13 1537.84 1421.56 365.45 o
5246 3 -1 -13 5 820.38 840.52 305.55 <
5246 2 -3 5 13 820.38 840.52 305.55 <
5247 3 1 -13 5 611.29 511.02 310.96 <
5247 2 -1 5 13 611.29 511.02 310.96 <
5248 3 2 -13 5 381.17 562.08 352.25 <
5248 2 0 5 13 381.17 562.08 352.25 <
5249 3 3 -13 5 649.27 1531.96 541.46 <
5249 2 1 5 13 649.27 1531.96 541.46 <
5250 3 4 -13 5 42.18 53.27 91.31 <
5250 2 2 5 13 42.18 53.27 91.31 <
5251 3 -4 -13 9 920.99 679.61 312.08 <
5251 2 -5 9 13 920.99 679.61 312.08 <
5252 3 -3 -13 9 1881.61 2076.31 536.21 o
5252 2 -4 9 13 1881.61 2076.31 536.21 o
5253 3 -2 -13 9 3311.57 2686.52 594.10 o
5253 2 -3 9 13 3311.57 2686.52 594.10 o
5254 4 -1 0 -14 602.95 244.62 148.95 <
5254 2 -8 0 14 602.95 244.62 148.95 <
5255 4 0 0 -14 814.63 873.00 269.62 o
5255 2 -7 0 14 814.63 873.00 269.62 o
5256 4 1 0 -14 694.75 719.72 230.48 o
5256 2 -6 0 14 694.75 719.72 230.48 o
5257 4 2 0 -14 1116.83 823.08 207.67 o
5257 2 -5 0 14 1116.83 823.08 207.67 o
5258 4 3 0 -14 1251.87 1363.43 210.93 o
5258 2 -4 0 14 1251.87 1363.43 210.93 o
5259 4 4 0 -14 1344.68 1621.23 307.72 o
5259 2 -3 0 14 1344.68 1621.23 307.72 o
5260 4 5 0 -14 1059.29 977.43 248.98 o
5260 2 -2 0 14 1059.29 977.43 248.98 o
5261 4 6 0 -14 706.94 1026.32 250.06 o
5261 2 -1 0 14 706.94 1026.32 250.06 o
5262 4 7 0 -14 923.37 1117.71 257.68 o
5262 2 0 0 14 923.37 1117.71 257.68 o
5263 4 8 0 -14 499.81 784.90 231.56 o
5263 2 1 0 14 499.81 784.90 231.56 o
5264 4 0 -4 -14 160.93 156.54 126.11 <
5264 2 -7 4 14 160.93 156.54 126.11 <
5265 4 1 -4 -14 374.33 290.27 111.97 <
5265 2 -6 4 14 374.33 290.27 111.97 <
5266 4 2 -4 -14 514.42 565.31 144.59 o
5266 2 -5 4 14 514.42 565.31 144.59 o
5267 4 3 -4 -14 792.95 605.59 172.87 o
5267 2 -4 4 14 792.95 605.59 172.87 o
5268 4 4 -4 -14 739.74 1105.67 292.45 o
5268 2 -3 4 14 739.74 1105.67 292.45 o
5269 4 5 -4 -14 580.59 667.54 169.60 o
5269 2 -2 4 14 580.59 667.54 169.60 o
5270 4 6 -4 -14 383.43 485.95 120.67 o
5270 2 -1 4 14 383.43 485.95 120.67 o
5271 4 7 -4 -14 123.38 119.58 75.01 <
5271 2 0 4 14 123.38 119.58 75.01 <
5272 4 8 -4 -14 386.39 928.44 437.04 <
5272 2 1 4 14 386.39 928.44 437.04 <
5273 4 2 -8 -14 14.96 332.65 201.11 <
5273 2 -5 8 14 14.96 332.65 201.11 <
5274 3 2 -15 -5 4.89 35.87 130.45 <
5274 2 -3 -5 15 4.89 35.87 130.45 <
5275 3 3 -15 -5 4.67 -182.63 202.20 <
5275 2 -2 -5 15 4.67 -182.63 202.20 <
5276 3 4 -15 -5 721.70 1005.79 414.27 <
5276 2 -1 -5 15 721.70 1005.79 414.27 <
5277 3 -3 -15 -1 36.47 437.01 297.86 <
5277 2 -7 -1 15 36.47 437.01 297.86 <
5278 3 -2 -15 -1 23.96 -131.54 81.53 <
5278 2 -6 -1 15 23.96 -131.54 81.53 <
5279 3 -1 -15 -1 229.02 360.93 155.46 <
5279 2 -5 -1 15 229.02 360.93 155.46 <
5280 3 0 -15 -1 7.51 126.10 118.49 <
5280 2 -4 -1 15 7.51 126.10 118.49 <
5281 3 1 -15 -1 131.96 38.05 81.53 <
5281 2 -3 -1 15 131.96 38.05 81.53 <
5282 3 2 -15 -1 275.33 364.21 146.77 <
5282 2 -2 -1 15 275.33 364.21 146.77 <
5283 3 3 -15 -1 57.68 -26.09 94.58 <
5283 2 -1 -1 15 57.68 -26.09 94.58 <
5284 3 4 -15 -1 660.22 753.47 254.42 <
5284 2 0 -1 15 660.22 753.47 254.42 <
5285 3 5 -15 -1 571.22 745.88 350.10 <
5285 2 1 -1 15 571.22 745.88 350.10 <
5286 3 -4 -15 3 195.57 -310.92 244.60 <
5286 2 -7 3 15 195.57 -310.92 244.60 <
5287 3 -3 -15 3 103.59 55.44 102.19 <
5287 2 -6 3 15 103.59 55.44 102.19 <
5288 3 -2 -15 3 88.65 121.76 134.80 <
5288 2 -5 3 15 88.65 121.76 134.80 <
5289 3 1 -15 3 22.24 192.42 171.76 <
5289 2 -2 3 15 22.24 192.42 171.76 <
5290 3 2 -15 3 904.52 1110.22 439.30 <
5290 2 -1 3 15 904.52 1110.22 439.30 <
5291 3 3 -15 3 27.08 -50.01 263.08 <
5291 2 0 3 15 27.08 -50.01 263.08 <
5292 4 3 -2 -16 272.36 28.27 134.80 <
5292 2 -5 2 16 272.36 28.27 134.80 <
5293 4 4 -2 -16 278.47 899.05 431.59 <
5293 2 -4 2 16 278.47 899.05 431.59 <
5294 4 5 -2 -16 215.81 310.91 129.36 <
5294 2 -3 2 16 215.81 310.91 129.36 <
5295 4 6 -2 -16 349.47 184.82 230.48 <
5295 2 -2 2 16 349.47 184.82 230.48 <
5296 4 1 -1 -15 70.83 134.80 67.40 <
5296 3 -3 -15 1 70.83 134.80 67.40 <
5297 4 2 -1 -15 363.18 226.13 153.29 <
5297 3 -2 -15 1 363.18 226.13 153.29 <
5298 4 3 -1 -15 180.68 41.31 97.84 <
5298 3 -1 -15 1 180.68 41.31 97.84 <
5299 4 4 -1 -15 8.34 -128.27 123.93 <
5299 3 0 -15 1 8.34 -128.27 123.93 <
5300 4 5 -1 -15 311.93 92.41 94.58 <
5300 3 1 -15 1 311.93 92.41 94.58 <
5301 4 6 -1 -15 33.11 109.79 178.28 <
5301 3 2 -15 1 33.11 109.79 178.28 <
5302 4 7 -1 -15 50.83 20.65 117.40 <
5302 3 3 -15 1 50.83 20.65 117.40 <
5303 4 -4 -1 -11 198.14 34.79 225.03 <
5303 3 -7 -11 1 198.14 34.79 225.03 <
5304 4 -3 -1 -11 2478.95 2572.34 467.70 o
5304 3 -6 -11 1 2478.95 2572.34 467.70 o
5305 4 -2 -1 -11 118.35 44.57 106.54 <
5305 3 -5 -11 1 118.35 44.57 106.54 <
5306 4 -1 -1 -11 437.94 382.69 118.50 o
5306 3 -4 -11 1 437.94 382.69 118.50 o
5307 4 0 -1 -11 4335.43 4414.06 498.43 o
5307 3 -3 -11 1 4335.43 4414.06 498.43 o
5308 4 1 -1 -11 438.11 688.21 209.83 o
5308 3 -2 -11 1 438.11 688.21 209.83 o
5309 4 2 -1 -11 225.46 420.73 138.07 o
5309 3 -1 -11 1 225.46 420.73 138.07 o
5310 4 3 -1 -11 774.22 766.55 148.96 o
5310 3 0 -11 1 774.22 766.55 148.96 o
5311 4 4 -1 -11 185.51 109.80 92.41 <
5311 3 1 -11 1 185.51 109.80 92.41 <
5312 4 5 -1 -11 1604.70 1773.79 216.42 o
5312 3 2 -11 1 1604.70 1773.79 216.42 o
5313 4 6 -1 -11 2107.48 2091.58 239.29 o
5313 3 3 -11 1 2107.48 2091.58 239.29 o
5314 4 7 -1 -11 373.52 71.75 88.06 <
5314 3 4 -11 1 373.52 71.75 88.06 <
5315 4 8 -1 -11 355.63 456.61 153.29 <
5315 3 5 -11 1 355.63 456.61 153.29 <
5316 4 9 -1 -11 1560.44 1714.91 280.56 o
5316 3 6 -11 1 1560.44 1714.91 280.56 o
5317 4 10 -1 -11 417.82 476.18 206.56 <
5317 3 7 -11 1 417.82 476.18 206.56 <
5318 4 -8 -1 -7 808.24 877.41 267.46 o
5318 3 -10 -7 1 808.24 877.41 267.46 o
5319 4 -7 -1 -7 801.35 1205.78 364.23 o
5319 3 -9 -7 1 801.35 1205.78 364.23 o
5320 4 -6 -1 -7 1178.07 1089.55 280.54 o
5320 3 -8 -7 1 1178.07 1089.55 280.54 o
5321 4 -5 -1 -7 525.88 489.25 182.65 <
5321 3 -7 -7 1 525.88 489.25 182.65 <
5322 4 -4 -1 -7 6.74 121.75 113.06 <
5322 3 -6 -7 1 6.74 121.75 113.06 <
5323 4 -3 -1 -7 5640.04 5210.87 380.06 o
5323 3 -5 -7 1 5640.04 5210.87 380.06 o
5324 4 -2 -1 -7 5614.63 4936.54 370.35 o
5324 3 -4 -7 1 5614.63 4936.54 370.35 o
5325 4 -1 -1 -7 529.40 655.65 183.76 o
5325 3 -3 -7 1 529.40 655.65 183.76 o
5326 4 0 -1 -7 3279.63 3523.73 349.43 o
5326 3 -2 -7 1 3279.63 3523.73 349.43 o
5327 4 1 -1 -7 1968.55 2121.66 245.90 o
5327 3 -1 -7 1 1968.55 2121.66 245.90 o
5328 4 2 -1 -7 749.06 789.49 119.62 o
5328 3 0 -7 1 749.06 789.49 119.62 o
5329 4 3 -1 -7 2643.35 2774.21 204.61 o
5329 3 1 -7 1 2643.35 2774.21 204.61 o
5330 4 4 -1 -7 1826.47 2033.27 159.92 o
5330 3 2 -7 1 1826.47 2033.27 159.92 o
5331 4 5 -1 -7 2278.49 2260.87 150.15 o
5331 3 3 -7 1 2278.49 2260.87 150.15 o
5332 4 6 -1 -7 4974.77 4971.98 340.83 o
5332 3 4 -7 1 4974.77 4971.98 340.83 o
5333 4 7 -1 -7 3358.23 3440.84 309.04 o
5333 3 5 -7 1 3358.23 3440.84 309.04 o
5334 4 8 -1 -7 22.34 16.31 106.53 <
5334 3 6 -7 1 22.34 16.31 106.53 <
5335 4 9 -1 -7 256.51 335.93 138.07 <
5335 3 7 -7 1 256.51 335.93 138.07 <
5336 4 10 -1 -7 3808.70 3351.07 447.17 o
5336 3 8 -7 1 3808.70 3351.07 447.17 o
5337 4 11 -1 -7 218.04 307.66 146.76 <
5337 3 9 -7 1 218.04 307.66 146.76 <
5338 4 -10 -1 -3 2066.95 2266.41 634.03 o
5338 3 -11 -3 1 2066.95 2266.41 634.03 o
5339 4 -9 -1 -3 724.07 953.51 253.33 o
5339 3 -10 -3 1 724.07 953.51 253.33 o
5340 4 -8 -1 -3 167.59 52.18 104.36 <
5340 3 -9 -3 1 167.59 52.18 104.36 <
5341 4 -7 -1 -3 9.42 101.10 105.45 <
5341 3 -8 -3 1 9.42 101.10 105.45 <
5342 4 -6 -1 -3 448.92 460.98 162.00 <
5342 3 -7 -3 1 448.92 460.98 162.00 <
5343 4 -5 -1 -3 3636.78 3337.32 414.72 o
5343 3 -6 -3 1 3636.78 3337.32 414.72 o
5344 4 -4 -1 -3 176.93 181.56 85.89 <
5344 3 -5 -3 1 176.93 181.56 85.89 <
5345 4 -3 -1 -3 1872.13 1811.76 188.25 o
5345 3 -4 -3 1 1872.13 1811.76 188.25 o
5346 4 -2 -1 -3 9104.63 8559.29 366.34 o
5346 3 -3 -3 1 9104.63 8559.29 366.34 o
5347 4 -1 -1 -3 1260.94 1286.28 136.03 o
5347 3 -2 -3 1 1260.94 1286.28 136.03 o
5348 4 0 -1 -3 381.05 474.15 75.04 o
5348 3 -1 -3 1 381.05 474.15 75.04 o
5349 4 1 -1 -3 628.84 558.04 39.16 o
5349 3 0 -3 1 628.84 558.04 39.16 o
5350 4 2 -1 -3 817.01 973.66 65.27 o
5350 3 1 -3 1 817.01 973.66 65.27 o
5351 4 3 -1 -3 4233.98 4258.40 131.95 o
5351 3 2 -3 1 4233.98 4258.40 131.95 o
5352 4 4 -1 -3 5582.86 5668.17 196.32 o
5352 3 3 -3 1 5582.86 5668.17 196.32 o
5353 4 5 -1 -3 1846.63 1846.39 115.33 o
5353 3 4 -3 1 1846.63 1846.39 115.33 o
5354 4 6 -1 -3 365.41 287.03 55.45 o
5354 3 5 -3 1 365.41 287.03 55.45 o
5355 4 7 -1 -3 3442.75 3482.65 231.81 o
5355 3 6 -3 1 3442.75 3482.65 231.81 o
5356 4 8 -1 -3 1067.37 1188.54 142.45 o
5356 3 7 -3 1 1067.37 1188.54 142.45 o
5357 4 9 -1 -3 663.79 769.78 176.14 o
5357 3 8 -3 1 663.79 769.78 176.14 o
5358 4 10 -1 -3 1835.84 1936.89 301.25 o
5358 3 9 -3 1 1835.84 1936.89 301.25 o
5359 4 11 -1 -3 3071.43 2802.12 397.04 o
5359 3 10 -3 1 3071.43 2802.12 397.04 o
5360 4 -11 -1 1 113.40 205.46 148.93 <
5360 3 -11 1 1 113.40 205.46 148.93 <
5361 4 -10 -1 1 1.72 -52.18 76.10 <
5361 3 -10 1 1 1.72 -52.18 76.10 <
5362 4 -9 -1 1 10.98 110.88 106.53 <
5362 3 -9 1 1 10.98 110.88 106.53 <
5363 4 -8 -1 1 38.37 111.97 73.92 <
5363 3 -8 1 1 38.37 111.97 73.92 <
5364 4 -7 -1 1 526.74 691.50 145.69 o
5364 3 -7 1 1 526.74 691.50 145.69 o
5365 4 -6 -1 1 934.24 900.42 148.98 o
5365 3 -6 1 1 934.24 900.42 148.98 o
5366 4 -5 -1 1 2423.73 2542.29 220.93 o
5366 3 -5 1 1 2423.73 2542.29 220.93 o
5367 4 -4 -1 1 1647.92 1743.21 129.49 o
5367 3 -4 1 1 1647.92 1743.21 129.49 o
5368 4 -3 -1 1 50.68 423.98 55.44 o
5368 3 -3 1 1 50.68 423.98 55.44 o
5369 4 -2 -1 1 82.67 280.49 38.05 o
5369 3 -2 1 1 82.67 280.49 38.05 o
5370 4 1 -1 1 7.70 346.78 38.05 o
5370 3 1 1 1 7.70 346.78 38.05 o
5371 4 2 -1 1 102.92 248.96 57.62 o
5371 3 2 1 1 102.92 248.96 57.62 o
5372 4 3 -1 1 517.68 494.80 92.43 o
5372 3 3 1 1 517.68 494.80 92.43 o
5373 4 4 -1 1 1413.88 1483.87 147.95 o
5373 3 4 1 1 1413.88 1483.87 147.95 o
5374 4 5 -1 1 1648.35 1584.97 164.26 o
5374 3 5 1 1 1648.35 1584.97 164.26 o
5375 4 6 -1 1 1238.57 1085.37 205.55 o
5375 3 6 1 1 1238.57 1085.37 205.55 o
5376 4 7 -1 1 450.54 421.84 118.51 o
5376 3 7 1 1 450.54 421.84 118.51 o
5377 4 8 -1 1 2703.46 2618.43 268.70 o
5377 3 8 1 1 2703.46 2618.43 268.70 o
5378 4 9 -1 1 142.94 222.86 95.67 <
5378 3 9 1 1 142.94 222.86 95.67 <
5379 4 10 -1 1 221.21 447.90 266.35 <
5379 3 10 1 1 221.21 447.90 266.35 <
5380 4 11 -1 1 1940.65 1564.91 403.46 o
5380 3 11 1 1 1940.65 1564.91 403.46 o
5381 3 -10 2 1 13.54 63.05 56.53 <
5382 3 -9 2 1 0.44 -48.92 51.09 <
5383 3 -8 2 1 9.37 0.00 44.57 <
5384 3 -7 2 1 13.90 63.05 40.22 <
5385 3 -6 2 1 10.96 18.48 44.57 <
5386 3 -5 2 1 143.59 183.78 40.24 o
5387 3 -4 2 1 383.86 372.20 46.80 o
5388 3 -3 2 1 349.47 306.96 35.92 o
5389 3 -2 2 1 27.95 21.74 20.66 <
5390 3 -1 2 1 17.35 33.70 9.78 o
5391 3 0 2 1 36.58 43.50 10.87 o
5392 3 1 2 1 0.02 4.35 9.78 <
5393 3 2 2 1 253.18 272.07 31.56 o
5394 3 3 2 1 557.31 527.11 52.28 o
5395 3 4 2 1 388.22 353.65 46.79 o
5396 3 5 2 1 129.90 90.25 41.32 <
5397 3 6 2 1 1.82 22.83 53.27 <
5398 3 7 2 1 1.83 131.54 67.40 <
5399 3 8 2 1 5.39 -51.09 55.44 <
5400 3 9 2 1 37.21 93.49 65.23 <
5401 3 10 2 1 103.78 56.53 53.27 <
5402 3 -11 4 1 8.42 -330.47 297.86 <
5403 3 -10 4 1 19.94 10.87 126.10 <
5404 3 -9 4 1 18.05 -105.45 98.93 <
5405 3 -8 4 1 26.79 27.18 67.40 <
5406 3 -7 4 1 60.95 53.27 38.05 <
5407 3 -6 4 1 18.90 61.97 43.48 <
5408 3 -5 4 1 30.66 29.35 36.96 <
5409 3 -4 4 1 68.80 70.67 29.36 <
5410 3 -3 4 1 15.09 16.31 18.48 <
5411 3 -2 4 1 51.57 70.67 26.09 <
5412 3 -1 4 1 91.83 73.95 28.27 <
5413 3 0 4 1 55.28 88.07 20.66 o
5414 3 1 4 1 96.81 93.52 26.10 o
5415 3 2 4 1 26.87 19.57 26.09 <
5416 3 3 4 1 16.19 27.18 21.74 <
5417 3 4 4 1 50.57 77.19 31.53 <
5418 3 5 4 1 5.81 28.26 43.48 <
5419 3 6 4 1 14.26 58.70 47.83 <
5420 3 7 4 1 44.79 26.09 56.53 <
5421 3 8 4 1 8.38 -78.27 73.92 <
5422 3 9 4 1 7.89 -66.31 66.31 <
5423 3 10 4 1 8.67 -77.18 123.93 <
5424 4 -12 -1 5 74.14 356.57 259.82 <
5424 3 -11 5 1 74.14 356.57 259.82 <
5425 4 -11 -1 5 19.18 -82.62 142.41 <
5425 3 -10 5 1 19.18 -82.62 142.41 <
5426 4 -10 -1 5 941.93 1086.22 222.90 o
5426 3 -9 5 1 941.93 1086.22 222.90 o
5427 4 -9 -1 5 2533.77 2389.80 303.48 o
5427 3 -8 5 1 2533.77 2389.80 303.48 o
5428 4 -8 -1 5 482.88 375.09 85.89 o
5428 3 -7 5 1 482.88 375.09 85.89 o
5429 4 -7 -1 5 27.07 -15.22 55.44 <
5429 3 -6 5 1 27.07 -15.22 55.44 <
5430 4 -6 -1 5 1706.55 1608.80 109.86 o
5430 3 -5 5 1 1706.55 1608.80 109.86 o
5431 4 -5 -1 5 170.58 148.94 36.96 o
5431 3 -4 5 1 170.58 148.94 36.96 o
5432 4 -4 -1 5 41.89 167.41 33.70 o
5432 3 -3 5 1 41.89 167.41 33.70 o
5433 4 -3 -1 5 1093.55 1118.21 75.05 o
5433 3 -2 5 1 1093.55 1118.21 75.05 o
5434 4 -2 -1 5 3213.89 3118.61 166.66 o
5434 3 -1 5 1 3213.89 3118.61 166.66 o
5435 4 -1 -1 5 4429.22 4616.79 220.21 o
5435 3 0 5 1 4429.22 4616.79 220.21 o
5436 4 0 -1 5 1339.17 1383.87 165.37 o
5436 3 1 5 1 1339.17 1383.87 165.37 o
5437 4 1 -1 5 182.01 168.51 78.28 <
5437 3 2 5 1 182.01 168.51 78.28 <
5438 4 2 -1 5 0.95 -9.78 79.36 <
5438 3 3 5 1 0.95 -9.78 79.36 <
5439 4 3 -1 5 115.96 245.69 89.14 <
5439 3 4 5 1 115.96 245.69 89.14 <
5440 4 4 -1 5 2111.15 1616.58 271.97 o
5440 3 5 5 1 2111.15 1616.58 271.97 o
5441 4 5 -1 5 22.03 -63.05 108.71 <
5441 3 6 5 1 22.03 -63.05 108.71 <
5442 4 6 -1 5 147.94 257.65 183.72 <
5442 3 7 5 1 147.94 257.65 183.72 <
5443 4 7 -1 5 5403.60 4759.90 576.89 o
5443 3 8 5 1 5403.60 4759.90 576.89 o
5444 4 8 -1 5 69.46 142.41 163.06 <
5444 3 9 5 1 69.46 142.41 163.06 <
5445 4 9 -1 5 451.95 288.10 167.42 <
5445 3 10 5 1 451.95 288.10 167.42 <
5446 3 -11 6 1 3.77 169.58 165.24 <
5447 3 -10 6 1 0.23 105.45 100.01 <
5448 3 -9 6 1 58.41 109.80 94.58 <
5449 3 -8 6 1 143.43 235.94 103.29 <
5450 3 -7 6 1 107.29 93.50 61.97 <
5451 3 -6 6 1 73.30 95.67 76.10 <
5452 3 -5 6 1 1.15 35.87 42.40 <
5453 3 -4 6 1 13.25 66.31 41.31 <
5454 3 -3 6 1 1.47 -19.57 30.44 <
5455 3 -2 6 1 10.73 30.44 26.09 <
5456 3 -1 6 1 330.57 314.45 53.31 o
5457 3 0 6 1 501.31 562.79 59.87 o
5458 3 1 6 1 58.99 111.99 34.79 o
5459 3 2 6 1 4.62 80.44 38.05 <
5460 3 3 6 1 22.47 -30.44 34.79 <
5461 3 4 6 1 45.94 16.31 58.71 <
5462 3 5 6 1 10.09 108.71 72.84 <
5463 3 6 6 1 47.01 108.71 71.75 <
5464 3 7 6 1 96.89 240.27 78.28 o
5465 3 8 6 1 76.10 18.48 52.18 <
5466 3 9 6 1 0.29 186.98 90.23 <
5467 3 10 6 1 5.78 20.65 121.75 <
5468 3 -10 8 1 10.33 59.79 75.01 <
5469 3 -9 8 1 33.53 131.54 104.36 <
5470 3 -8 8 1 43.81 127.19 104.36 <
5471 3 -7 8 1 12.89 72.84 75.01 <
5472 3 -6 8 1 89.38 167.43 69.58 <
5473 3 -5 8 1 37.59 71.75 54.36 <
5474 3 -4 8 1 0.30 -26.09 51.09 <
5475 3 -3 8 1 70.57 73.93 57.62 <
5476 3 -2 8 1 37.02 40.22 36.96 <
5477 3 -1 8 1 34.31 79.36 41.31 <
5478 3 0 8 1 111.49 120.69 40.23 o
5479 3 1 8 1 22.22 34.79 38.05 <
5480 3 2 8 1 56.13 73.93 54.36 <
5481 3 3 8 1 27.24 39.14 44.57 <
5482 3 4 8 1 2.90 53.27 39.13 <
5483 3 5 8 1 44.02 84.80 80.45 <
5484 3 6 8 1 32.63 60.88 67.40 <
5485 3 7 8 1 0.93 113.06 102.18 <
5486 3 8 8 1 36.05 54.36 98.93 <
5487 3 9 8 1 11.48 -7.61 205.46 <
5488 4 -11 -1 9 304.68 480.51 165.24 <
5488 3 -9 9 1 304.68 480.51 165.24 <
5489 4 -10 -1 9 355.11 265.27 103.28 <
5489 3 -8 9 1 355.11 265.27 103.28 <
5490 4 -9 -1 9 2396.22 3121.58 362.19 o
5490 3 -7 9 1 2396.22 3121.58 362.19 o
5491 4 -8 -1 9 1840.38 1733.57 238.18 o
5491 3 -6 9 1 1840.38 1733.57 238.18 o
5492 4 -7 -1 9 3.18 42.40 55.44 <
5492 3 -5 9 1 3.18 42.40 55.44 <
5493 4 -6 -1 9 130.22 275.04 115.23 <
5493 3 -4 9 1 130.22 275.04 115.23 <
5494 4 -5 -1 9 930.03 911.23 141.36 o
5494 3 -3 9 1 930.03 911.23 141.36 o
5495 4 -4 -1 9 1582.29 1610.80 154.45 o
5495 3 -2 9 1 1582.29 1610.80 154.45 o
5496 4 -3 -1 9 2253.72 2311.76 205.61 o
5496 3 -1 9 1 2253.72 2311.76 205.61 o
5497 4 -2 -1 9 1619.54 1720.70 187.08 o
5497 3 0 9 1 1619.54 1720.70 187.08 o
5498 4 -1 -1 9 2433.84 2380.50 280.70 o
5498 3 1 9 1 2433.84 2380.50 280.70 o
5499 4 0 -1 9 795.04 756.80 183.76 o
5499 3 2 9 1 795.04 756.80 183.76 o
5500 4 1 -1 9 344.41 260.93 128.29 <
5500 3 3 9 1 344.41 260.93 128.29 <
5501 4 2 -1 9 290.24 255.49 117.41 <
5501 3 4 9 1 290.24 255.49 117.41 <
5502 4 3 -1 9 4.88 183.72 135.88 <
5502 3 5 9 1 4.88 183.72 135.88 <
5503 4 4 -1 9 3556.74 3684.01 527.69 o
5503 3 6 9 1 3556.74 3684.01 527.69 o
5504 4 5 -1 9 2448.16 2767.03 470.96 o
5504 3 7 9 1 2448.16 2767.03 470.96 o
5505 4 6 -1 9 320.02 145.68 140.24 <
5505 3 8 9 1 320.02 145.68 140.24 <
5506 3 -9 10 1 171.37 142.43 127.21 <
5507 3 -8 10 1 282.58 425.17 118.53 o
5508 3 -7 10 1 447.34 265.38 96.80 <
5509 3 -6 10 1 228.61 104.39 79.38 <
5510 3 -5 10 1 211.96 331.65 103.30 o
5511 3 -4 10 1 95.85 125.03 67.41 <
5512 3 -3 10 1 86.22 136.99 73.93 <
5513 3 -2 10 1 622.74 648.51 92.49 o
5514 3 -1 10 1 591.43 567.98 89.22 o
5515 3 0 10 1 539.33 481.98 88.13 o
5516 3 1 10 1 789.00 792.36 111.02 o
5517 3 2 10 1 178.39 233.78 65.24 o
5518 3 3 10 1 62.27 82.63 55.45 <
5519 3 4 10 1 142.83 291.39 83.72 o
5520 3 5 10 1 132.15 233.76 89.15 <
5521 3 6 10 1 380.94 442.64 121.81 o
5522 3 7 10 1 348.24 309.93 144.64 <
5523 3 8 10 1 151.61 195.71 219.62 <
5524 3 -7 12 1 44.29 179.38 189.16 <
5525 3 -6 12 1 1.58 -5.44 98.92 <
5526 3 -5 12 1 0.21 -47.83 52.18 <
5527 3 -4 12 1 25.10 126.11 59.79 <
5528 3 -3 12 1 15.81 51.09 44.57 <
5529 3 -2 12 1 1.86 14.13 63.05 <
5530 3 -1 12 1 22.39 38.05 43.48 <
5531 3 0 12 1 0.43 8.70 55.44 <
5532 3 1 12 1 32.47 123.93 66.31 <
5533 3 2 12 1 2.18 14.13 56.53 <
5534 3 3 12 1 7.60 -119.58 77.18 <
5535 3 4 12 1 17.62 -1.09 84.79 <
5536 3 5 12 1 17.59 203.29 114.14 <
5537 3 6 12 1 0.78 125.01 120.67 <
5538 4 -10 -1 13 22.82 65.22 70.66 <
5538 3 -7 13 1 22.82 65.22 70.66 <
5539 4 -9 -1 13 13.79 40.22 68.49 <
5539 3 -6 13 1 13.79 40.22 68.49 <
5540 4 -8 -1 13 255.40 115.24 88.06 <
5540 3 -5 13 1 255.40 115.24 88.06 <
5541 4 -7 -1 13 0.68 -33.70 132.62 <
5541 3 -4 13 1 0.68 -33.70 132.62 <
5542 4 -6 -1 13 1.25 82.62 51.09 <
5542 3 -3 13 1 1.25 82.62 51.09 <
5543 4 -5 -1 13 69.57 133.71 104.36 <
5543 3 -2 13 1 69.57 133.71 104.36 <
5544 4 -4 -1 13 622.55 600.16 167.43 o
5544 3 -1 13 1 622.55 600.16 167.43 o
5545 4 -3 -1 13 1371.71 1259.23 215.31 o
5545 3 0 13 1 1371.71 1259.23 215.31 o
5546 4 -2 -1 13 79.92 319.61 129.36 <
5546 3 1 13 1 79.92 319.61 129.36 <
5547 4 -1 -1 13 56.66 98.93 95.66 <
5547 3 2 13 1 56.66 98.93 95.66 <
5548 4 0 -1 13 3.50 -84.79 95.66 <
5548 3 3 13 1 3.50 -84.79 95.66 <
5549 4 1 -1 13 4.51 -3.26 73.92 <
5549 3 4 13 1 4.51 -3.26 73.92 <
5550 4 2 -1 13 1002.41 776.33 343.59 <
5550 3 5 13 1 1002.41 776.33 343.59 <
5551 3 -6 14 1 418.67 423.05 267.53 <
5552 3 -5 14 1 186.39 428.39 225.07 <
5553 3 -4 14 1 224.22 227.25 106.56 <
5554 3 -3 14 1 416.13 418.71 145.73 <
5555 3 -2 14 1 238.14 267.49 102.21 <
5556 3 -1 14 1 739.23 823.59 151.23 o
5557 3 0 14 1 956.66 893.44 150.18 o
5558 3 1 14 1 316.02 345.81 105.48 o
5559 3 2 14 1 411.03 317.57 116.37 <
5560 3 3 14 1 274.22 396.90 127.22 o
5561 3 4 14 1 142.39 239.19 122.86 <
5562 3 -2 16 1 5.60 102.19 163.06 <
5563 3 -1 16 1 8.04 88.05 97.84 <
5564 3 0 16 1 7.48 159.80 78.27 <
5565 3 1 16 1 15.88 239.16 177.20 <
5566 3 2 16 1 0.01 -63.05 168.50 <
5567 4 -2 -3 -13 584.36 563.16 305.50 <
5567 3 -6 -13 3 584.36 563.16 305.50 <
5568 4 -1 -3 -13 151.63 -7.61 115.23 <
5568 3 -5 -13 3 151.63 -7.61 115.23 <
5569 4 0 -3 -13 179.29 348.96 145.67 <
5569 3 -4 -13 3 179.29 348.96 145.67 <
5570 4 1 -3 -13 74.83 165.24 100.01 <
5570 3 -3 -13 3 74.83 165.24 100.01 <
5571 4 2 -3 -13 35.46 228.29 164.15 <
5571 3 -2 -13 3 35.46 228.29 164.15 <
5572 4 3 -3 -13 9.47 45.66 134.80 <
5572 3 -1 -13 3 9.47 45.66 134.80 <
5573 4 4 -3 -13 3.06 169.58 110.88 <
5573 3 0 -13 3 3.06 169.58 110.88 <
5574 4 5 -3 -13 1.35 -34.79 134.80 <
5574 3 1 -13 3 1.35 -34.79 134.80 <
5575 4 6 -3 -13 41.12 73.92 154.37 <
5575 3 2 -13 3 41.12 73.92 154.37 <
5576 4 7 -3 -13 369.53 454.43 207.65 <
5576 3 3 -13 3 369.53 454.43 207.65 <
5577 4 8 -3 -13 683.35 857.82 443.59 <
5577 3 4 -13 3 683.35 857.82 443.59 <
5578 4 9 -3 -13 34.34 53.27 216.33 <
5578 3 5 -13 3 34.34 53.27 216.33 <
5579 4 -6 -3 -9 2089.88 2597.04 510.05 o
5579 3 -9 -9 3 2089.88 2597.04 510.05 o
5580 4 -5 -3 -9 23.23 93.49 168.50 <
5580 3 -8 -9 3 23.23 93.49 168.50 <
5581 4 -4 -3 -9 375.90 242.44 142.42 <
5581 3 -7 -9 3 375.90 242.44 142.42 <
5582 4 -3 -3 -9 342.56 413.12 143.51 <
5582 3 -6 -9 3 342.56 413.12 143.51 <
5583 4 -2 -3 -9 89.97 -1.09 90.23 <
5583 3 -5 -9 3 89.97 -1.09 90.23 <
5584 4 -1 -3 -9 355.85 450.09 130.46 o
5584 3 -4 -9 3 355.85 450.09 130.46 o
5585 4 0 -3 -9 109.07 175.02 91.32 <
5585 3 -3 -9 3 109.07 175.02 91.32 <
5586 4 1 -3 -9 7.89 111.97 82.62 <
5586 3 -2 -9 3 7.89 111.97 82.62 <
5587 4 2 -3 -9 550.17 529.50 129.38 o
5587 3 -1 -9 3 550.17 529.50 129.38 o
5588 4 3 -3 -9 312.57 346.81 117.42 <
5588 3 0 -9 3 312.57 346.81 117.42 <
5589 4 4 -3 -9 0.51 8.70 148.93 <
5589 3 1 -9 3 0.51 8.70 148.93 <
5590 4 5 -3 -9 669.47 892.67 122.86 o
5590 3 2 -9 3 669.47 892.67 122.86 o
5591 4 6 -3 -9 86.34 84.79 64.14 <
5591 3 3 -9 3 86.34 84.79 64.14 <
5592 4 7 -3 -9 142.58 80.45 64.14 <
5592 3 4 -9 3 142.58 80.45 64.14 <
5593 4 8 -3 -9 232.14 155.46 118.50 <
5593 3 5 -9 3 232.14 155.46 118.50 <
5594 4 9 -3 -9 2.70 57.62 163.06 <
5594 3 6 -9 3 2.70 57.62 163.06 <
5595 4 10 -3 -9 537.56 456.62 353.34 <
5595 3 7 -9 3 537.56 456.62 353.34 <
5596 4 -9 -3 -5 101.97 151.11 166.33 <
5596 3 -11 -5 3 101.97 151.11 166.33 <
5597 4 -8 -3 -5 60.77 -27.18 111.97 <
5597 3 -10 -5 3 60.77 -27.18 111.97 <
5598 4 -7 -3 -5 2454.15 3045.51 476.40 o
5598 3 -9 -5 3 2454.15 3045.51 476.40 o
5599 4 -6 -3 -5 189.49 327.23 208.73 <
5599 3 -8 -5 3 189.49 327.23 208.73 <
5600 4 -5 -3 -5 663.35 882.88 245.73 o
5600 3 -7 -5 3 663.35 882.88 245.73 o
5601 4 -4 -3 -5 1553.95 1440.00 213.17 o
5601 3 -6 -5 3 1553.95 1440.00 213.17 o
5602 4 -3 -3 -5 1347.71 1547.67 218.61 o
5602 3 -5 -5 3 1347.71 1547.67 218.61 o
5603 4 -2 -3 -5 608.89 616.53 147.88 o
5603 3 -4 -5 3 608.89 616.53 147.88 o
5604 4 -1 -3 -5 236.73 271.80 109.81 <
5604 3 -3 -5 3 236.73 271.80 109.81 <
5605 4 0 -3 -5 28.83 153.28 81.53 <
5605 3 -2 -5 3 28.83 153.28 81.53 <
5606 4 1 -3 -5 7.63 1.09 86.97 <
5606 3 -1 -5 3 7.63 1.09 86.97 <
5607 4 2 -3 -5 5.71 183.72 84.79 <
5607 3 0 -5 3 5.71 183.72 84.79 <
5608 4 3 -3 -5 227.63 271.80 51.10 o
5608 3 1 -5 3 227.63 271.80 51.10 o
5609 4 4 -3 -5 1.50 156.54 43.48 o
5609 3 2 -5 3 1.50 156.54 43.48 o
5610 4 5 -3 -5 1673.77 1577.32 132.71 o
5610 3 3 -5 3 1673.77 1577.32 132.71 o
5611 4 6 -3 -5 2416.31 2508.96 188.23 o
5611 3 4 -5 3 2416.31 2508.96 188.23 o
5612 4 7 -3 -5 381.47 358.78 67.41 o
5612 3 5 -5 3 381.47 358.78 67.41 o
5613 4 8 -3 -5 170.08 185.90 60.88 o
5613 3 6 -5 3 170.08 185.90 60.88 o
5614 4 9 -3 -5 146.22 215.25 94.58 <
5614 3 7 -5 3 146.22 215.25 94.58 <
5615 4 10 -3 -5 76.80 183.72 120.67 <
5615 3 8 -5 3 76.80 183.72 120.67 <
5616 4 11 -3 -5 18.03 57.62 91.31 <
5616 3 9 -5 3 18.03 57.62 91.31 <
5617 4 -10 -3 -1 2990.92 3081.59 675.49 o
5617 3 -11 -1 3 2990.92 3081.59 675.49 o
5618 4 -9 -3 -1 1813.04 1892.29 530.71 o
5618 3 -10 -1 3 1813.04 1892.29 530.71 o
5619 4 -8 -3 -1 656.74 677.36 196.79 o
5619 3 -9 -1 3 656.74 677.36 196.79 o
5620 4 -7 -3 -1 1019.97 1006.92 255.54 o
5620 3 -8 -1 3 1019.97 1006.92 255.54 o
5621 4 -6 -3 -1 3349.23 2873.04 363.48 o
5621 3 -7 -1 3 3349.23 2873.04 363.48 o
5622 4 -5 -3 -1 354.47 316.38 85.89 o
5622 3 -6 -1 3 354.47 316.38 85.89 o
5623 4 -4 -3 -1 1825.94 1595.03 150.15 o
5623 3 -5 -1 3 1825.94 1595.03 150.15 o
5624 4 -3 -3 -1 5436.95 4864.77 209.38 o
5624 3 -4 -1 3 5436.95 4864.77 209.38 o
5625 4 -2 -3 -1 4119.53 3604.70 153.74 o
5625 3 -3 -1 3 4119.53 3604.70 153.74 o
5626 4 -1 -3 -1 828.29 964.97 104.44 o
5626 3 -2 -1 3 828.29 964.97 104.44 o
5627 4 0 -3 -1 631.47 636.36 53.30 o
5627 3 -1 -1 3 631.47 636.36 53.30 o
5628 4 1 -3 -1 352.48 399.09 39.15 o
5628 3 0 -1 3 352.48 399.09 39.15 o
5629 4 2 -3 -1 1209.70 1111.00 101.20 o
5629 3 1 -1 3 1209.70 1111.00 101.20 o
5630 4 3 -3 -1 9173.86 8235.07 240.60 o
5630 3 2 -1 3 9173.86 8235.07 240.60 o
5631 4 4 -3 -1 1865.27 1683.35 106.64 o
5631 3 3 -1 3 1865.27 1683.35 106.64 o
5632 4 5 -3 -1 148.59 115.24 34.79 o
5632 3 4 -1 3 148.59 115.24 34.79 o
5633 4 6 -3 -1 3669.11 3563.79 247.09 o
5633 3 5 -1 3 3669.11 3563.79 247.09 o
5634 4 7 -3 -1 476.01 549.05 90.24 o
5634 3 6 -1 3 476.01 549.05 90.24 o
5635 4 8 -3 -1 10.10 88.05 70.66 <
5635 3 7 -1 3 10.10 88.05 70.66 <
5636 4 9 -3 -1 171.55 226.12 103.28 <
5636 3 8 -1 3 171.55 226.12 103.28 <
5637 4 10 -3 -1 733.95 655.61 238.11 <
5637 3 9 -1 3 733.95 655.61 238.11 <
5638 4 11 -3 -1 2100.40 1852.08 417.61 o
5638 3 10 -1 3 2100.40 1852.08 417.61 o
5639 3 -12 2 3 409.19 366.50 238.17 <
5640 3 -11 2 3 496.63 648.24 311.07 <
5641 3 -10 2 3 431.47 505.74 179.46 <
5642 3 -9 2 3 238.29 183.77 85.91 <
5643 3 -8 2 3 228.93 320.79 91.34 o
5644 3 -7 2 3 430.49 422.09 78.33 o
5645 3 -6 2 3 951.84 882.18 86.04 o
5646 3 -5 2 3 1906.26 1906.56 120.11 o
5647 3 -4 2 3 2186.47 2042.31 112.67 o
5648 3 -3 2 3 1646.20 1530.74 80.91 o
5649 3 -2 2 3 935.36 936.42 58.94 o
5650 3 -1 2 3 378.13 360.46 25.05 o
5651 3 0 2 3 533.89 508.90 31.60 o
5652 3 1 2 3 1294.30 1265.17 66.65 o
5653 3 2 2 3 1783.42 1786.35 80.90 o
5654 3 3 2 3 1832.87 1819.67 93.93 o
5655 3 4 2 3 1171.93 1149.75 81.74 o
5656 3 5 2 3 463.22 472.19 67.46 o
5657 3 6 2 3 208.91 439.32 115.27 o
5658 3 7 2 3 140.12 139.17 53.28 <
5659 3 8 2 3 208.72 189.20 66.33 <
5660 3 9 2 3 330.87 365.39 120.71 o
5661 3 10 2 3 289.89 293.60 125.05 <
5662 4 -11 -3 3 93.64 168.50 125.02 <
5662 3 -11 3 3 93.64 168.50 125.02 <
5663 4 -10 -3 3 364.71 650.12 193.51 o
5663 3 -10 3 3 364.71 650.12 193.51 o
5664 4 -9 -3 3 5082.51 5183.10 559.45 o
5664 3 -9 3 3 5082.51 5183.10 559.45 o
5665 4 -8 -3 3 423.93 441.40 122.85 o
5665 3 -8 3 3 423.93 441.40 122.85 o
5666 4 -7 -3 3 74.14 86.97 58.70 <
5666 3 -7 3 3 74.14 86.97 58.70 <
5667 4 -6 -3 3 4917.36 4845.14 308.20 o
5667 3 -6 3 3 4917.36 4845.14 308.20 o
5668 4 -5 -3 3 7410.13 7721.26 346.80 o
5668 3 -5 3 3 7410.13 7721.26 346.80 o
5669 4 -4 -3 3 3810.18 3817.72 210.22 o
5669 3 -4 3 3 3810.18 3817.72 210.22 o
5670 4 -3 -3 3 3180.00 3161.98 133.97 o
5670 3 -3 3 3 3180.00 3161.98 133.97 o
5671 4 -2 -3 3 4459.76 4475.65 118.87 o
5671 3 -2 3 3 4459.76 4475.65 118.87 o
5672 4 -1 -3 3 1365.32 1375.52 78.35 o
5672 3 -1 3 3 1365.32 1375.52 78.35 o
5673 4 0 -3 3 3401.99 3683.76 164.57 o
5673 3 0 3 3 3401.99 3683.76 164.57 o
5674 4 1 -3 3 5620.60 5736.26 224.78 o
5674 3 1 3 3 5620.60 5736.26 224.78 o
5675 4 2 -3 3 961.87 1246.47 150.10 o
5675 3 2 3 3 961.87 1246.47 150.10 o
5676 4 3 -3 3 8321.92 7599.13 315.40 o
5676 3 3 3 3 8321.92 7599.13 315.40 o
5677 4 4 -3 3 8380.92 6687.12 729.68 o
5677 3 4 3 3 8380.92 6687.12 729.68 o
5678 4 5 -3 3 23.83 136.97 121.75 <
5678 3 5 3 3 23.83 136.97 121.75 <
5679 4 6 -3 3 730.45 564.31 175.06 o
5679 3 6 3 3 730.45 564.31 175.06 o
5680 4 7 -3 3 1691.76 1648.73 222.95 o
5680 3 7 3 3 1691.76 1648.73 222.95 o
5681 4 8 -3 3 1124.03 1085.19 183.76 o
5681 3 8 3 3 1124.03 1085.19 183.76 o
5682 4 9 -3 3 1083.05 1261.30 241.39 o
5682 3 9 3 3 1083.05 1261.30 241.39 o
5683 4 10 -3 3 94.06 13.05 133.71 <
5683 3 10 3 3 94.06 13.05 133.71 <
5684 3 -11 4 3 0.58 -53.27 143.49 <
5685 3 -10 4 3 0.57 131.54 82.62 <
5686 3 -9 4 3 4.37 -7.61 79.36 <
5687 3 -8 4 3 1.00 -45.66 76.10 <
5688 3 -7 4 3 2.29 48.92 57.62 <
5689 3 -6 4 3 3.78 61.96 51.09 <
5690 3 -5 4 3 9.00 32.61 36.96 <
5691 3 -4 4 3 0.50 9.78 27.18 <
5692 3 -3 4 3 3.73 0.00 27.18 <
5693 3 -2 4 3 0.18 -5.44 29.35 <
5694 3 -1 4 3 13.84 55.44 25.00 <
5695 3 0 4 3 0.62 -16.31 19.57 <
5696 3 1 4 3 1.30 15.22 23.92 <
5697 3 2 4 3 5.61 -16.31 25.00 <
5698 3 3 4 3 4.22 73.92 41.31 <
5699 3 4 4 3 1.78 17.39 40.22 <
5700 3 5 4 3 10.35 -5.44 48.92 <
5701 3 6 4 3 0.05 86.97 66.31 <
5702 3 7 4 3 3.73 94.58 68.49 <
5703 3 8 4 3 2.61 88.05 83.71 <
5704 3 9 4 3 0.22 -64.14 82.62 <
5705 3 10 4 3 1.65 313.08 246.77 <
5706 3 -11 6 3 141.64 160.91 85.89 <
5707 3 -10 6 3 49.35 -5.44 107.63 <
5708 3 -9 6 3 45.33 154.37 97.84 <
5709 3 -8 6 3 5.49 -3.26 69.57 <
5710 3 -7 6 3 21.36 50.01 52.18 <
5711 3 -6 6 3 243.36 237.07 70.69 o
5712 3 -5 6 3 408.64 465.61 92.47 o
5713 3 -4 6 3 641.42 579.07 78.37 o
5714 3 -3 6 3 351.11 411.23 54.40 o
5715 3 -2 6 3 7.94 135.89 51.09 <
5716 3 -1 6 3 13.73 73.92 43.48 <
5717 3 0 6 3 15.86 190.25 57.62 o
5718 3 1 6 3 57.97 105.46 35.88 <
5719 3 2 6 3 504.73 553.91 70.73 o
5720 3 3 6 3 466.63 474.38 58.75 o
5721 3 4 6 3 199.02 139.19 52.20 <
5722 3 5 6 3 63.03 126.11 71.75 <
5723 3 6 6 3 0.05 32.61 59.79 <
5724 3 7 6 3 3.40 8.70 82.62 <
5725 3 8 6 3 22.07 -26.09 58.70 <
5726 3 9 6 3 26.98 -161.98 145.67 <
5727 4 -11 -3 7 1409.64 1650.66 293.60 o
5727 3 -10 7 3 1409.64 1650.66 293.60 o
5728 4 -10 -3 7 47.02 40.22 92.40 <
5728 3 -9 7 3 47.02 40.22 92.40 <
5729 4 -9 -3 7 1027.55 1267.85 218.56 o
5729 3 -8 7 3 1027.55 1267.85 218.56 o
5730 4 -8 -3 7 3153.46 3323.78 341.63 o
5730 3 -7 7 3 3153.46 3323.78 341.63 o
5731 4 -7 -3 7 1006.09 952.56 171.81 o
5731 3 -6 7 3 1006.09 952.56 171.81 o
5732 4 -6 -3 7 1151.80 1187.53 174.00 o
5732 3 -5 7 3 1151.80 1187.53 174.00 o
5733 4 -5 -3 7 4725.63 4467.75 320.14 o
5733 3 -4 7 3 4725.63 4467.75 320.14 o
5734 4 -4 -3 7 3817.01 3445.67 187.25 o
5734 3 -3 7 3 3817.01 3445.67 187.25 o
5735 4 -3 -3 7 713.81 718.77 115.26 o
5735 3 -2 7 3 713.81 718.77 115.26 o
5736 4 -2 -3 7 2125.97 2439.39 225.23 o
5736 3 -1 7 3 2125.97 2439.39 225.23 o
5737 4 -1 -3 7 852.61 829.74 118.53 o
5737 3 0 7 3 852.61 829.74 118.53 o
5738 4 0 -3 7 1250.03 1455.25 195.77 o
5738 3 1 7 3 1250.03 1455.25 195.77 o
5739 4 1 -3 7 9212.86 9705.42 554.10 o
5739 3 2 7 3 9212.86 9705.42 554.10 o
5740 4 2 -3 7 1362.27 1433.43 237.09 o
5740 3 3 7 3 1362.27 1433.43 237.09 o
5741 4 3 -3 7 378.27 556.65 168.52 o
5741 3 4 7 3 378.27 556.65 168.52 o
5742 4 4 -3 7 4850.26 4972.36 513.78 o
5742 3 5 7 3 4850.26 4972.36 513.78 o
5743 4 5 -3 7 619.98 602.33 154.39 o
5743 3 6 7 3 619.98 602.33 154.39 o
5744 4 6 -3 7 190.88 -34.79 93.49 <
5744 3 7 7 3 190.88 -34.79 93.49 <
5745 4 7 -3 7 646.58 912.18 259.85 o
5745 3 8 7 3 646.58 912.18 259.85 o
5746 4 8 -3 7 753.77 967.65 479.47 <
5746 3 9 7 3 753.77 967.65 479.47 <
5747 3 -10 8 3 4.00 -201.11 106.53 <
5748 3 -9 8 3 8.65 -96.75 97.84 <
5749 3 -8 8 3 7.68 -18.48 98.92 <
5750 3 -7 8 3 8.70 90.23 93.49 <
5751 3 -6 8 3 36.56 57.62 61.97 <
5752 3 -5 8 3 0.23 56.53 61.96 <
5753 3 -4 8 3 26.42 173.94 61.97 <
5754 3 -3 8 3 18.14 -22.83 54.36 <
5755 3 -2 8 3 1.83 28.26 48.92 <
5756 3 -1 8 3 5.94 40.22 32.61 <
5757 3 0 8 3 0.85 4.35 44.57 <
5758 3 1 8 3 5.45 81.53 59.79 <
5759 3 2 8 3 40.02 70.66 40.22 <
5760 3 3 8 3 1.15 8.70 48.92 <
5761 3 4 8 3 6.37 9.78 66.31 <
5762 3 5 8 3 12.05 -35.87 65.23 <
5763 3 6 8 3 7.73 108.71 102.19 <
5764 3 7 8 3 0.32 166.32 120.67 <
5765 3 8 8 3 1.18 69.57 96.75 <
5766 3 9 8 3 0.00 301.12 392.43 <
5767 3 -9 10 3 125.95 -79.37 50.01 <
5768 3 -8 10 3 108.78 82.63 81.54 <
5769 3 -7 10 3 57.54 159.81 109.80 <
5770 3 -6 10 3 44.98 111.97 113.06 <
5771 3 -5 10 3 7.63 8.70 76.10 <
5772 3 -4 10 3 1.43 9.78 43.48 <
5773 3 -3 10 3 40.24 90.23 65.23 <
5774 3 -2 10 3 49.58 84.80 58.71 <
5775 3 -1 10 3 458.35 422.08 85.94 o
5776 3 0 10 3 294.84 238.18 72.87 o
5777 3 1 10 3 13.73 23.92 58.70 <
5778 3 2 10 3 34.06 98.93 67.40 <
5779 3 3 10 3 0.90 28.26 63.05 <
5780 3 4 10 3 4.50 100.01 60.88 <
5781 3 5 10 3 112.09 234.84 109.81 <
5782 3 6 10 3 102.43 204.39 110.89 <
5783 3 7 10 3 165.41 95.68 153.30 <
5784 4 -10 -3 11 66.64 448.97 175.02 <
5784 3 -8 11 3 66.64 448.97 175.02 <
5785 4 -9 -3 11 12.91 339.17 175.02 <
5785 3 -7 11 3 12.91 339.17 175.02 <
5786 4 -8 -3 11 691.98 778.47 225.06 o
5786 3 -6 11 3 691.98 778.47 225.06 o
5787 4 -7 -3 11 1906.59 1864.11 326.27 o
5787 3 -5 11 3 1906.59 1864.11 326.27 o
5788 4 -6 -3 11 291.30 504.44 292.45 <
5788 3 -4 11 3 291.30 504.44 292.45 <
5789 4 -5 -3 11 226.13 328.32 108.71 o
5789 3 -3 11 3 226.13 328.32 108.71 o
5790 4 -4 -3 11 1012.26 1235.26 155.49 o
5790 3 -2 11 3 1012.26 1235.26 155.49 o
5791 4 -3 -3 11 14.64 -27.18 55.44 <
5791 3 -1 11 3 14.64 -27.18 55.44 <
5792 4 -2 -3 11 644.07 905.69 195.71 o
5792 3 0 11 3 644.07 905.69 195.71 o
5793 4 -1 -3 11 1226.07 1296.20 238.14 o
5793 3 1 11 3 1226.07 1296.20 238.14 o
5794 4 0 -3 11 22.98 63.05 94.58 <
5794 3 2 11 3 22.98 63.05 94.58 <
5795 4 1 -3 11 2229.72 2350.46 363.28 o
5795 3 3 11 3 2229.72 2350.46 363.28 o
5796 4 2 -3 11 2083.15 2147.99 377.39 o
5796 3 4 11 3 2083.15 2147.99 377.39 o
5797 4 3 -3 11 141.68 65.23 109.80 <
5797 3 5 11 3 141.68 65.23 109.80 <
5798 4 4 -3 11 319.89 417.47 185.90 <
5798 3 6 11 3 319.89 417.47 185.90 <
5799 3 -8 12 3 74.75 81.54 182.64 <
5800 3 -7 12 3 14.77 127.19 108.71 <
5801 3 -6 12 3 11.22 164.15 110.88 <
5802 3 -5 12 3 176.61 72.85 85.90 <
5803 3 -4 12 3 40.35 64.14 56.53 <
5804 3 -3 12 3 24.83 6.52 56.53 <
5805 3 -2 12 3 69.54 88.06 60.88 <
5806 3 -1 12 3 6.03 88.05 89.14 <
5807 3 0 12 3 59.94 145.68 70.67 <
5808 3 1 12 3 46.24 152.20 67.40 <
5809 3 2 12 3 14.61 191.33 88.05 <
5810 3 3 12 3 142.72 193.53 101.11 <
5811 3 4 12 3 27.33 -42.40 56.53 <
5812 3 5 12 3 1.37 75.01 95.66 <
5813 3 -5 14 3 158.95 164.18 167.44 <
5814 3 -4 14 3 66.37 13.05 79.36 <
5815 3 -3 14 3 142.82 109.81 75.02 <
5816 3 -2 14 3 616.81 815.86 164.26 o
5817 3 -1 14 3 318.98 306.66 118.53 <
5818 3 0 14 3 378.95 452.41 158.78 <
5819 3 1 14 3 494.57 801.61 179.46 o
5820 3 2 14 3 71.95 202.21 121.76 <
5821 3 3 14 3 103.68 48.92 128.29 <
5822 3 4 14 3 193.59 131.56 100.03 <
5823 4 -6 -3 15 147.01 179.37 106.54 <
5823 3 -3 15 3 147.01 179.37 106.54 <
5824 4 -5 -3 15 112.87 81.53 158.72 <
5824 3 -2 15 3 112.87 81.53 158.72 <
5825 4 -4 -3 15 110.50 451.15 178.28 <
5825 3 -1 15 3 110.50 451.15 178.28 <
5826 4 -3 -3 15 30.80 -153.28 148.93 <
5826 3 0 15 3 30.80 -153.28 148.93 <
5827 4 -2 -3 15 24.44 10.87 117.40 <
5827 3 1 15 3 24.44 10.87 117.40 <
5828 4 -1 -3 15 1223.11 1276.53 427.32 <
5828 3 2 15 3 1223.11 1276.53 427.32 <
5829 3 -2 16 3 15.20 1.09 83.71 <
5830 4 1 -5 -15 965.86 1141.63 347.93 o
5830 3 -4 -15 5 965.86 1141.63 347.93 o
5831 4 2 -5 -15 7.02 94.58 157.63 <
5831 3 -3 -15 5 7.02 94.58 157.63 <
5832 4 3 -5 -15 7.00 473.97 245.68 <
5832 3 -2 -15 5 7.00 473.97 245.68 <
5833 4 -4 -5 -11 98.55 147.85 195.68 <
5833 3 -8 -11 5 98.55 147.85 195.68 <
5834 4 -3 -5 -11 50.95 -158.71 142.41 <
5834 3 -7 -11 5 50.95 -158.71 142.41 <
5835 4 -2 -5 -11 1702.73 2082.51 419.76 o
5835 3 -6 -11 5 1702.73 2082.51 419.76 o
5836 4 -1 -5 -11 1718.77 1767.21 291.45 o
5836 3 -5 -11 5 1718.77 1767.21 291.45 o
5837 4 0 -5 -11 20.48 -23.92 75.01 <
5837 3 -4 -11 5 20.48 -23.92 75.01 <
5838 4 1 -5 -11 665.11 675.18 243.54 <
5838 3 -3 -11 5 665.11 675.18 243.54 <
5839 4 2 -5 -11 351.09 271.79 188.08 <
5839 3 -2 -11 5 351.09 271.79 188.08 <
5840 4 3 -5 -11 53.86 58.70 90.23 <
5840 3 -1 -11 5 53.86 58.70 90.23 <
5841 4 4 -5 -11 509.32 342.47 110.90 o
5841 3 0 -11 5 509.32 342.47 110.90 o
5842 4 5 -5 -11 279.63 328.32 262.00 <
5842 3 1 -11 5 279.63 328.32 262.00 <
5843 4 6 -5 -11 404.17 201.13 119.59 <
5843 3 2 -11 5 404.17 201.13 119.59 <
5844 4 7 -5 -11 1390.24 1458.23 491.51 <
5844 3 3 -11 5 1390.24 1458.23 491.51 <
5845 4 8 -5 -11 911.21 889.40 225.07 o
5845 3 4 -11 5 911.21 889.40 225.07 o
5846 4 9 -5 -11 45.53 188.07 150.02 <
5846 3 5 -11 5 45.53 188.07 150.02 <
5847 4 -8 -5 -7 453.68 812.12 418.56 <
5847 3 -11 -7 5 453.68 812.12 418.56 <
5848 4 -7 -5 -7 109.35 94.58 105.45 <
5848 3 -10 -7 5 109.35 94.58 105.45 <
5849 4 -6 -5 -7 3.37 -238.07 180.46 <
5849 3 -9 -7 5 3.37 -238.07 180.46 <
5850 4 -5 -5 -7 239.26 326.14 159.81 <
5850 3 -8 -7 5 239.26 326.14 159.81 <
5851 4 -4 -5 -7 2094.13 2385.23 330.65 o
5851 3 -7 -7 5 2094.13 2385.23 330.65 o
5852 4 -3 -5 -7 93.39 165.24 119.58 <
5852 3 -6 -7 5 93.39 165.24 119.58 <
5853 4 -2 -5 -7 803.44 801.37 181.59 o
5853 3 -5 -7 5 803.44 801.37 181.59 o
5854 4 -1 -5 -7 4199.65 4601.35 324.39 o
5854 3 -4 -7 5 4199.65 4601.35 324.39 o
5855 4 0 -5 -7 544.64 813.29 179.40 o
5855 3 -3 -7 5 544.64 813.29 179.40 o
5856 4 1 -5 -7 136.04 117.41 118.50 <
5856 3 -2 -7 5 136.04 117.41 118.50 <
5857 4 2 -5 -7 235.67 246.79 82.62 <
5857 3 -1 -7 5 235.67 246.79 82.62 <
5858 4 3 -5 -7 301.40 242.44 82.63 <
5858 3 0 -7 5 301.40 242.44 82.63 <
5859 4 4 -5 -7 1808.64 1955.78 183.83 o
5859 3 1 -7 5 1808.64 1955.78 183.83 o
5860 4 5 -5 -7 2544.97 2526.26 260.02 o
5860 3 2 -7 5 2544.97 2526.26 260.02 o
5861 4 6 -5 -7 773.45 764.39 152.23 o
5861 3 3 -7 5 773.45 764.39 152.23 o
5862 4 7 -5 -7 127.99 33.70 64.14 <
5862 3 4 -7 5 127.99 33.70 64.14 <
5863 4 8 -5 -7 1907.19 1907.64 333.89 o
5863 3 5 -7 5 1907.19 1907.64 333.89 o
5864 4 9 -5 -7 568.76 446.85 220.71 <
5864 3 6 -7 5 568.76 446.85 220.71 <
5865 4 -9 -5 -3 12.65 66.31 122.84 <
5865 3 -11 -3 5 12.65 66.31 122.84 <
5866 4 -8 -5 -3 56.99 -46.74 127.19 <
5866 3 -10 -3 5 56.99 -46.74 127.19 <
5867 4 -7 -5 -3 110.06 141.32 78.27 <
5867 3 -9 -3 5 110.06 141.32 78.27 <
5868 4 -6 -5 -3 178.10 217.43 105.45 <
5868 3 -8 -3 5 178.10 217.43 105.45 <
5869 4 -5 -5 -3 400.13 339.21 93.50 o
5869 3 -7 -3 5 400.13 339.21 93.50 o
5870 4 -4 -5 -3 2281.77 2362.99 273.07 o
5870 3 -6 -3 5 2281.77 2362.99 273.07 o
5871 4 -3 -5 -3 1684.66 1451.14 152.29 o
5871 3 -5 -3 5 1684.66 1451.14 152.29 o
5872 4 -2 -5 -3 4.29 143.49 81.53 <
5872 3 -4 -3 5 4.29 143.49 81.53 <
5873 4 -1 -5 -3 222.51 427.27 146.77 <
5873 3 -3 -3 5 222.51 427.27 146.77 <
5874 4 0 -5 -3 1.64 44.57 43.48 <
5874 3 -2 -3 5 1.64 44.57 43.48 <
5875 4 1 -5 -3 6.70 33.70 31.53 <
5875 3 -1 -3 5 6.70 33.70 31.53 <
5876 4 2 -5 -3 45.75 142.41 29.35 o
5876 3 0 -3 5 45.75 142.41 29.35 o
5877 4 3 -5 -3 232.57 280.50 57.62 o
5877 3 1 -3 5 232.57 280.50 57.62 o
5878 4 4 -5 -3 606.86 589.35 98.95 o
5878 3 2 -3 5 606.86 589.35 98.95 o
5879 4 5 -5 -3 1450.94 1514.05 121.82 o
5879 3 3 -3 5 1450.94 1514.05 121.82 o
5880 4 6 -5 -3 1703.16 1695.73 162.07 o
5880 3 4 -3 5 1703.16 1695.73 162.07 o
5881 4 7 -5 -3 649.36 628.45 101.12 o
5881 3 5 -3 5 649.36 628.45 101.12 o
5882 4 8 -5 -3 196.97 164.16 81.53 <
5882 3 6 -3 5 196.97 164.16 81.53 <
5883 4 9 -5 -3 2653.54 2824.92 289.35 o
5883 3 7 -3 5 2653.54 2824.92 289.35 o
5884 4 10 -5 -3 53.73 32.61 63.05 <
5884 3 8 -3 5 53.73 32.61 63.05 <
5885 4 11 -5 -3 115.68 223.94 50.01 o
5885 3 9 -3 5 115.68 223.94 50.01 o
5886 4 -11 -5 1 54.37 481.58 290.25 <
5886 3 -12 1 5 54.37 481.58 290.25 <
5887 4 -10 -5 1 32.29 394.61 206.55 <
5887 3 -11 1 5 32.29 394.61 206.55 <
5888 4 -9 -5 1 1016.55 890.53 376.22 <
5888 3 -10 1 5 1016.55 890.53 376.22 <
5889 4 -8 -5 1 2659.02 2731.50 379.65 o
5889 3 -9 1 5 2659.02 2731.50 379.65 o
5890 4 -7 -5 1 556.38 456.65 157.65 <
5890 3 -8 1 5 556.38 456.65 157.65 <
5891 4 -6 -5 1 41.26 32.61 105.45 <
5891 3 -7 1 5 41.26 32.61 105.45 <
5892 4 -5 -5 1 1758.14 1608.85 165.35 o
5892 3 -6 1 5 1758.14 1608.85 165.35 o
5893 4 -4 -5 1 184.84 178.29 59.79 <
5893 3 -5 1 5 184.84 178.29 59.79 <
5894 4 -3 -5 1 30.64 209.81 56.53 o
5894 3 -4 1 5 30.64 209.81 56.53 o
5895 4 -2 -5 1 1142.87 1075.83 103.34 o
5895 3 -3 1 5 1142.87 1075.83 103.34 o
5896 4 -1 -5 1 3179.14 3084.73 180.81 o
5896 3 -2 1 5 3179.14 3084.73 180.81 o
5897 4 0 -5 1 4487.43 4257.30 208.23 o
5897 3 -1 1 5 4487.43 4257.30 208.23 o
5898 4 1 -5 1 1398.22 1299.08 81.60 o
5898 3 0 1 5 1398.22 1299.08 81.60 o
5899 4 2 -5 1 166.70 191.34 39.14 o
5899 3 1 1 5 166.70 191.34 39.14 o
5900 4 3 -5 1 3.43 7.61 21.74 <
5900 3 2 1 5 3.43 7.61 21.74 <
5901 4 4 -5 1 101.60 151.11 48.92 o
5901 3 3 1 5 101.60 151.11 48.92 o
5902 4 5 -5 1 2102.26 2051.72 162.09 o
5902 3 4 1 5 2102.26 2051.72 162.09 o
5903 4 6 -5 1 33.87 77.18 63.05 <
5903 3 5 1 5 33.87 77.18 63.05 <
5904 4 7 -5 1 113.69 206.55 89.14 <
5904 3 6 1 5 113.69 206.55 89.14 <
5905 4 8 -5 1 5449.50 5219.33 474.58 o
5905 3 7 1 5 5449.50 5219.33 474.58 o
5906 4 9 -5 1 83.87 25.00 56.53 <
5906 3 8 1 5 83.87 25.00 56.53 <
5907 4 10 -5 1 520.62 812.14 198.96 o
5907 3 9 1 5 520.62 812.14 198.96 o
5908 3 -12 2 5 3.67 133.71 113.06 <
5909 3 -11 2 5 8.84 84.79 131.54 <
5910 3 -10 2 5 66.95 -17.39 68.49 <
5911 3 -9 2 5 150.17 175.05 86.98 <
5912 3 -8 2 5 151.31 245.73 73.94 o
5913 3 -7 2 5 83.64 36.97 55.45 <
5914 3 -6 2 5 3.17 5.44 31.53 <
5915 3 -5 2 5 1.71 36.96 35.87 <
5916 3 -4 2 5 6.08 8.70 36.96 <
5917 3 -3 2 5 84.98 81.55 28.27 <
5918 3 -2 2 5 412.47 390.75 38.10 o
5919 3 -1 2 5 526.46 552.05 47.91 o
5920 3 0 2 5 176.87 153.36 27.19 o
5921 3 1 2 5 18.36 14.13 22.83 <
5922 3 2 2 5 6.00 8.70 11.96 <
5923 3 3 2 5 5.47 13.05 30.44 <
5924 3 4 2 5 25.58 93.49 26.09 o
5925 3 5 2 5 103.38 105.46 40.23 <
5926 3 6 2 5 143.48 80.46 41.32 <
5927 3 7 2 5 83.61 57.62 46.75 <
5928 3 8 2 5 6.86 -7.61 58.70 <
5929 3 9 2 5 0.22 95.66 101.10 <
5930 3 -11 4 5 38.28 119.58 140.24 <
5931 3 -10 4 5 66.79 219.61 121.76 <
5932 3 -9 4 5 83.54 193.52 113.07 <
5933 3 -8 4 5 64.72 8.70 83.71 <
5934 3 -7 4 5 140.91 237.03 82.64 <
5935 3 -6 4 5 109.43 105.47 39.14 <
5936 3 -5 4 5 62.75 39.14 42.40 <
5937 3 -4 4 5 164.02 177.26 47.85 o
5938 3 -3 4 5 141.60 147.89 53.28 <
5939 3 -2 4 5 150.34 201.19 53.29 o
5940 3 -1 4 5 221.27 245.82 40.24 o
5941 3 0 4 5 126.61 108.74 28.27 o
5942 3 1 4 5 156.67 112.01 30.45 o
5943 3 2 4 5 112.85 101.12 36.97 <
5944 3 3 4 5 38.31 83.71 41.31 <
5945 3 4 4 5 104.53 117.42 42.40 <
5946 3 5 4 5 86.09 109.81 56.53 <
5947 3 6 4 5 38.49 46.75 52.18 <
5948 3 7 4 5 66.61 39.14 53.27 <
5949 3 8 4 5 39.82 46.75 66.31 <
5950 3 9 4 5 19.69 -41.31 105.45 <
5951 4 -11 -5 5 1812.83 1900.91 315.37 o
5951 3 -11 5 5 1812.83 1900.91 315.37 o
5952 4 -10 -5 5 1372.26 1564.76 268.59 o
5952 3 -10 5 5 1372.26 1564.76 268.59 o
5953 4 -9 -5 5 1627.20 1570.33 243.60 o
5953 3 -9 5 5 1627.20 1570.33 243.60 o
5954 4 -8 -5 5 5833.63 6285.07 469.23 o
5954 3 -8 5 5 5833.63 6285.07 469.23 o
5955 4 -7 -5 5 5034.51 5218.90 399.53 o
5955 3 -7 5 5 5034.51 5218.90 399.53 o
5956 4 -6 -5 5 470.85 517.53 90.24 o
5956 3 -6 5 5 470.85 517.53 90.24 o
5957 4 -5 -5 5 1446.59 1541.17 146.83 o
5957 3 -5 5 5 1446.59 1541.17 146.83 o
5958 4 -4 -5 5 3689.74 3653.49 174.18 o
5958 3 -4 5 5 3689.74 3653.49 174.18 o
5959 4 -3 -5 5 5327.63 5695.00 252.77 o
5959 3 -3 5 5 5327.63 5695.00 252.77 o
5960 4 -2 -5 5 7273.23 7562.28 238.84 o
5960 3 -2 5 5 7273.23 7562.28 238.84 o
5961 4 -1 -5 5 5746.16 5721.95 249.59 o
5961 3 -1 5 5 5746.16 5721.95 249.59 o
5962 4 0 -5 5 7060.81 7384.41 314.04 o
5962 3 0 5 5 7060.81 7384.41 314.04 o
5963 4 1 -5 5 3383.94 3329.96 228.60 o
5963 3 1 5 5 3383.94 3329.96 228.60 o
5964 4 2 -5 5 1995.57 2016.94 194.73 o
5964 3 2 5 5 1995.57 2016.94 194.73 o
5965 4 3 -5 5 1635.43 1849.04 197.96 o
5965 3 3 5 5 1635.43 1849.04 197.96 o
5966 4 4 -5 5 340.69 338.11 102.20 o
5966 3 4 5 5 340.69 338.11 102.20 o
5967 4 5 -5 5 7331.42 7476.42 474.90 o
5967 3 5 5 5 7331.42 7476.42 474.90 o
5968 4 6 -5 5 5299.40 5099.53 431.04 o
5968 3 6 5 5 5299.40 5099.53 431.04 o
5969 4 7 -5 5 35.34 116.32 116.32 <
5969 3 7 5 5 35.34 116.32 116.32 <
5970 4 8 -5 5 2981.95 3646.14 447.07 o
5970 3 8 5 5 2981.95 3646.14 447.07 o
5971 3 -11 6 5 79.40 -22.83 152.20 <
5972 3 -10 6 5 111.58 183.74 91.33 <
5973 3 -9 6 5 205.06 269.66 114.17 <
5974 3 -8 6 5 291.59 414.33 108.75 o
5975 3 -7 6 5 142.24 256.60 90.25 <
5976 3 -6 6 5 92.81 142.43 76.11 <
5977 3 -5 6 5 24.87 -39.14 34.79 <
5978 3 -4 6 5 34.77 70.66 42.40 <
5979 3 -3 6 5 392.30 490.65 90.30 o
5980 3 -2 6 5 497.47 466.83 79.44 o
5981 3 -1 6 5 490.82 435.27 64.20 o
5982 3 0 6 5 527.34 513.65 67.47 o
5983 3 1 6 5 91.75 100.03 41.32 <
5984 3 2 6 5 13.91 23.92 64.14 <
5985 3 3 6 5 44.71 30.44 33.70 <
5986 3 4 6 5 79.91 109.81 66.32 <
5987 3 5 6 5 259.97 224.01 76.12 <
5988 3 6 6 5 250.77 252.28 86.99 <
5989 3 7 6 5 115.52 141.34 83.72 <
5990 3 8 6 5 82.11 100.02 91.32 <
5991 3 -10 8 5 81.00 -30.44 101.11 <
5992 3 -9 8 5 113.26 325.08 116.33 <
5993 3 -8 8 5 229.66 263.14 94.60 <
5994 3 -7 8 5 90.50 117.42 60.88 <
5995 3 -6 8 5 135.04 257.68 95.68 <
5996 3 -5 8 5 246.62 318.63 106.57 <
5997 3 -4 8 5 82.44 138.08 73.93 <
5998 3 -3 8 5 195.63 131.58 44.58 <
5999 3 -2 8 5 285.82 256.67 59.82 o
6000 3 -1 8 5 194.76 183.78 56.55 o
6001 3 0 8 5 314.53 343.70 65.26 o
6002 3 1 8 5 122.66 96.77 38.06 <
6003 3 2 8 5 90.93 142.43 59.80 <
6004 3 3 8 5 208.59 299.03 101.13 <
6005 3 4 8 5 52.21 -28.27 76.10 <
6006 3 5 8 5 81.90 45.66 59.80 <
6007 3 6 8 5 182.69 240.29 100.03 <
6008 3 7 8 5 56.10 65.23 100.02 <
6009 3 8 8 5 51.07 233.73 191.34 <
6010 4 -11 -5 9 2754.93 3100.90 767.88 o
6010 3 -10 9 5 2754.93 3100.90 767.88 o
6011 4 -10 -5 9 4746.43 5020.58 510.33 o
6011 3 -9 9 5 4746.43 5020.58 510.33 o
6012 4 -9 -5 9 1852.75 2114.10 318.64 o
6012 3 -8 9 5 1852.75 2114.10 318.64 o
6013 4 -8 -5 9 1977.48 2206.66 305.60 o
6013 3 -7 9 5 1977.48 2206.66 305.60 o
6014 4 -7 -5 9 3942.92 3876.95 462.45 o
6014 3 -6 9 5 3942.92 3876.95 462.45 o
6015 4 -6 -5 9 1770.07 1920.66 303.43 o
6015 3 -5 9 5 1770.07 1920.66 303.43 o
6016 4 -5 -5 9 2144.40 1743.60 280.63 o
6016 3 -4 9 5 2144.40 1743.60 280.63 o
6017 4 -4 -5 9 3542.59 3567.03 316.66 o
6017 3 -3 9 5 3542.59 3567.03 316.66 o
6018 4 -3 -5 9 6396.80 6400.84 431.30 o
6018 3 -2 9 5 6396.80 6400.84 431.30 o
6019 4 -2 -5 9 9310.59 9760.51 456.74 o
6019 3 -1 9 5 9310.59 9760.51 456.74 o
6020 4 -1 -5 9 3681.41 3785.99 303.62 o
6020 3 0 9 5 3681.41 3785.99 303.62 o
6021 4 0 -5 9 2988.66 3398.91 360.13 o
6021 3 1 9 5 2988.66 3398.91 360.13 o
6022 4 1 -5 9 1917.70 1888.15 284.96 o
6022 3 2 9 5 1917.70 1888.15 284.96 o
6023 4 2 -5 9 1684.38 1623.71 280.59 o
6023 3 3 9 5 1684.38 1623.71 280.59 o
6024 4 3 -5 9 6131.82 6501.52 602.03 o
6024 3 4 9 5 6131.82 6501.52 602.03 o
6025 4 4 -5 9 1008.88 816.58 229.43 o
6025 3 5 9 5 1008.88 816.58 229.43 o
6026 4 5 -5 9 1538.69 1015.67 277.30 o
6026 3 6 9 5 1538.69 1015.67 277.30 o
6027 4 6 -5 9 8768.12 7505.35 801.50 o
6027 3 7 9 5 8768.12 7505.35 801.50 o
6028 3 -9 10 5 317.22 205.52 129.40 <
6029 3 -8 10 5 267.42 207.69 106.56 <
6030 3 -7 10 5 311.00 454.56 123.97 o
6031 3 -6 10 5 112.95 190.26 103.29 <
6032 3 -5 10 5 135.74 84.81 84.81 <
6033 3 -4 10 5 280.93 262.08 90.26 <
6034 3 -3 10 5 199.70 138.10 86.99 <
6035 3 -2 10 5 674.12 665.91 125.13 o
6036 3 -1 10 5 866.23 690.04 114.28 o
6037 3 0 10 5 291.21 351.27 83.74 o
6038 3 1 10 5 289.24 266.44 82.65 o
6039 3 2 10 5 163.77 69.59 65.24 <
6040 3 3 10 5 90.53 75.02 80.45 <
6041 3 4 10 5 277.04 358.85 135.93 <
6042 3 5 10 5 268.99 387.11 118.53 o
6043 3 6 10 5 333.57 507.84 144.63 o
6044 3 -7 12 5 139.70 182.65 133.73 <
6045 3 -6 12 5 64.14 284.83 120.67 <
6046 3 -5 12 5 4.68 -18.48 75.01 <
6047 3 -4 12 5 118.10 39.14 61.97 <
6048 3 -3 12 5 62.25 84.80 75.01 <
6049 3 -2 12 5 63.86 82.62 75.01 <
6050 3 -1 12 5 168.67 302.27 96.77 o
6051 3 0 12 5 41.93 13.05 98.93 <
6052 3 1 12 5 100.50 73.93 86.98 <
6053 3 2 12 5 63.59 122.85 113.06 <
6054 3 3 12 5 0.04 -39.13 63.05 <
6055 3 4 12 5 85.90 -60.88 123.94 <
6056 3 5 12 5 69.61 273.96 314.19 <
6057 4 -8 -5 13 127.35 19.57 128.28 <
6057 3 -6 13 5 127.35 19.57 128.28 <
6058 4 -7 -5 13 501.28 501.19 134.81 o
6058 3 -5 13 5 501.28 501.19 134.81 o
6059 4 -6 -5 13 596.69 571.87 135.90 o
6059 3 -4 13 5 596.69 571.87 135.90 o
6060 4 -5 -5 13 1894.98 2096.73 289.28 o
6060 3 -3 13 5 1894.98 2096.73 289.28 o
6061 4 -4 -5 13 2075.88 2516.59 378.47 o
6061 3 -2 13 5 2075.88 2516.59 378.47 o
6062 4 -3 -5 13 1119.42 951.42 319.68 <
6062 3 -1 13 5 1119.42 951.42 319.68 <
6063 4 -2 -5 13 2634.48 2752.96 387.22 o
6063 3 0 13 5 2634.48 2752.96 387.22 o
6064 4 -1 -5 13 839.10 737.17 215.28 o
6064 3 1 13 5 839.10 737.17 215.28 o
6065 4 0 -5 13 525.09 509.90 197.87 <
6065 3 2 13 5 525.09 509.90 197.87 <
6066 4 1 -5 13 891.66 1218.84 289.21 o
6066 3 3 13 5 891.66 1218.84 289.21 o
6067 3 -5 14 5 106.28 764.30 316.37 <
6068 3 -4 14 5 80.21 383.77 136.98 <
6069 3 -3 14 5 473.54 489.43 150.09 o
6070 3 -2 14 5 340.70 470.88 153.33 o
6071 3 -1 14 5 286.27 384.94 194.65 <
6072 3 0 14 5 550.19 430.73 207.75 <
6073 3 1 14 5 161.35 266.38 145.69 <
6074 3 2 14 5 100.81 78.28 102.20 <
6075 3 3 14 5 190.42 150.05 266.39 <
6076 4 -1 -7 -13 141.88 105.45 278.30 <
6076 3 -6 -13 7 141.88 105.45 278.30 <
6077 4 0 -7 -13 300.12 551.18 184.81 <
6077 3 -5 -13 7 300.12 551.18 184.81 <
6078 4 1 -7 -13 153.50 256.56 175.02 <
6078 3 -4 -13 7 153.50 256.56 175.02 <
6079 4 2 -7 -13 46.28 364.17 275.03 <
6079 3 -3 -13 7 46.28 364.17 275.03 <
6080 4 3 -7 -13 45.43 260.90 146.76 <
6080 3 -2 -13 7 45.43 260.90 146.76 <
6081 4 4 -7 -13 18.90 -167.41 203.28 <
6081 3 -1 -13 7 18.90 -167.41 203.28 <
6082 4 5 -7 -13 57.33 367.44 257.64 <
6082 3 0 -13 7 57.33 367.44 257.64 <
6083 4 6 -7 -13 510.18 327.24 202.22 <
6083 3 1 -13 7 510.18 327.24 202.22 <
6084 4 -5 -7 -9 51.14 58.70 139.15 <
6084 3 -9 -9 7 51.14 58.70 139.15 <
6085 4 -4 -7 -9 247.67 519.65 205.47 <
6085 3 -8 -9 7 247.67 519.65 205.47 <
6086 4 -3 -7 -9 867.42 894.83 285.95 o
6086 3 -7 -9 7 867.42 894.83 285.95 o
6087 4 -2 -7 -9 691.18 1011.14 306.60 o
6087 3 -6 -9 7 691.18 1011.14 306.60 o
6088 4 -1 -7 -9 343.54 204.39 157.64 <
6088 3 -5 -9 7 343.54 204.39 157.64 <
6089 4 0 -7 -9 180.10 240.26 188.07 <
6089 3 -4 -9 7 180.10 240.26 188.07 <
6090 4 1 -7 -9 48.93 30.44 101.10 <
6090 3 -3 -9 7 48.93 30.44 101.10 <
6091 4 2 -7 -9 13.10 179.37 103.27 <
6091 3 -2 -9 7 13.10 179.37 103.27 <
6092 4 3 -7 -9 56.47 7.61 77.18 <
6092 3 -1 -9 7 56.47 7.61 77.18 <
6093 4 4 -7 -9 169.76 164.16 103.28 <
6093 3 0 -9 7 169.76 164.16 103.28 <
6094 4 5 -7 -9 11.94 190.24 117.40 <
6094 3 1 -9 7 11.94 190.24 117.40 <
6095 4 6 -7 -9 952.94 1081.88 218.55 o
6095 3 2 -9 7 952.94 1081.88 218.55 o
6096 4 7 -7 -9 1343.31 1286.41 237.06 o
6096 3 3 -9 7 1343.31 1286.41 237.06 o
6097 4 8 -7 -9 97.99 34.79 119.58 <
6097 3 4 -9 7 97.99 34.79 119.58 <
6098 4 9 -7 -9 19.56 -30.44 136.97 <
6098 3 5 -9 7 19.56 -30.44 136.97 <
6099 4 10 -7 -9 153.38 283.74 319.61 <
6099 3 6 -9 7 153.38 283.74 319.61 <
6100 4 -7 -7 -5 489.25 577.29 213.09 <
6100 3 -10 -5 7 489.25 577.29 213.09 <
6101 4 -6 -7 -5 531.38 161.99 188.09 <
6101 3 -9 -5 7 531.38 161.99 188.09 <
6102 4 -5 -7 -5 1829.27 1697.68 263.19 o
6102 3 -8 -5 7 1829.27 1697.68 263.19 o
6103 4 -4 -7 -5 134.24 -10.87 75.01 <
6103 3 -7 -5 7 134.24 -10.87 75.01 <
6104 4 -3 -7 -5 792.86 581.72 154.40 o
6104 3 -6 -5 7 792.86 581.72 154.40 o
6105 4 -2 -7 -5 2418.88 2484.75 388.38 o
6105 3 -5 -5 7 2418.88 2484.75 388.38 o
6106 4 -1 -7 -5 1717.54 2048.14 340.45 o
6106 3 -4 -5 7 1717.54 2048.14 340.45 o
6107 4 0 -7 -5 338.37 202.22 91.33 <
6107 3 -3 -5 7 338.37 202.22 91.33 <
6108 4 1 -7 -5 255.20 319.63 72.84 o
6108 3 -2 -5 7 255.20 319.63 72.84 o
6109 4 2 -7 -5 111.44 114.15 54.36 <
6109 3 -1 -5 7 111.44 114.15 54.36 <
6110 4 3 -7 -5 488.51 655.61 102.20 o
6110 3 0 -5 7 488.51 655.61 102.20 o
6111 4 4 -7 -5 4321.24 4275.06 324.41 o
6111 3 1 -5 7 4321.24 4275.06 324.41 o
6112 4 5 -7 -5 795.30 943.81 154.40 o
6112 3 2 -5 7 795.30 943.81 154.40 o
6113 4 6 -7 -5 51.05 145.67 80.44 <
6113 3 3 -5 7 51.05 145.67 80.44 <
6114 4 7 -7 -5 2132.52 2324.36 270.83 o
6114 3 4 -5 7 2132.52 2324.36 270.83 o
6115 4 8 -7 -5 274.79 366.37 109.80 o
6115 3 5 -5 7 274.79 366.37 109.80 o
6116 4 9 -7 -5 6.11 81.53 52.18 <
6116 3 6 -5 7 6.11 81.53 52.18 <
6117 4 -9 -7 -1 205.48 316.35 217.42 <
6117 3 -11 -1 7 205.48 316.35 217.42 <
6118 4 -8 -7 -1 3691.22 3299.79 718.06 o
6118 3 -10 -1 7 3691.22 3299.79 718.06 o
6119 4 -7 -7 -1 240.93 321.79 146.76 <
6119 3 -9 -1 7 240.93 321.79 146.76 <
6120 4 -6 -7 -1 19.06 9.78 78.27 <
6120 3 -8 -1 7 19.06 9.78 78.27 <
6121 4 -5 -7 -1 3232.33 2867.19 304.67 o
6121 3 -7 -1 7 3232.33 2867.19 304.67 o
6122 4 -4 -7 -1 4757.44 4523.90 285.26 o
6122 3 -6 -1 7 4757.44 4523.90 285.26 o
6123 4 -3 -7 -1 2235.54 2092.18 180.60 o
6123 3 -5 -1 7 2235.54 2092.18 180.60 o
6124 4 -2 -7 -1 1798.38 1656.83 155.57 o
6124 3 -4 -1 7 1798.38 1656.83 155.57 o
6125 4 -1 -7 -1 2512.75 2265.74 169.77 o
6125 3 -3 -1 7 2512.75 2265.74 169.77 o
6126 4 0 -7 -1 666.46 610.03 125.05 o
6126 3 -2 -1 7 666.46 610.03 125.05 o
6127 4 1 -7 -1 1957.40 1876.84 133.83 o
6127 3 -1 -1 7 1957.40 1876.84 133.83 o
6128 4 2 -7 -1 3347.84 3206.01 225.35 o
6128 3 0 -1 7 3347.84 3206.01 225.35 o
6129 4 3 -7 -1 418.29 419.67 86.98 o
6129 3 1 -1 7 418.29 419.67 86.98 o
6130 4 4 -7 -1 5367.29 4828.01 247.23 o
6130 3 2 -1 7 5367.29 4828.01 247.23 o
6131 4 5 -7 -1 5802.84 5478.13 251.58 o
6131 3 3 -1 7 5802.84 5478.13 251.58 o
6132 4 6 -7 -1 1.81 9.78 53.27 <
6132 3 4 -1 7 1.81 9.78 53.27 <
6133 4 7 -7 -1 475.52 671.89 160.91 o
6133 3 5 -1 7 475.52 671.89 160.91 o
6134 4 8 -7 -1 1212.78 1013.44 207.69 o
6134 3 6 -1 7 1212.78 1013.44 207.69 o
6135 4 9 -7 -1 787.73 783.91 198.97 o
6135 3 7 -1 7 787.73 783.91 198.97 o
6136 4 10 -7 -1 797.52 618.65 257.68 <
6136 3 8 -1 7 797.52 618.65 257.68 <
6137 3 -11 2 7 637.16 175.14 279.57 <
6138 3 -10 2 7 576.40 672.26 377.46 <
6139 3 -9 2 7 539.32 716.86 155.56 o
6140 3 -8 2 7 815.45 927.22 138.21 o
6141 3 -7 2 7 1592.14 1739.17 159.10 o
6142 3 -6 2 7 2381.66 2598.75 184.46 o
6143 3 -5 2 7 2855.30 2911.46 170.49 o
6144 3 -4 2 7 2329.97 2463.05 169.30 o
6145 3 -3 2 7 1378.72 1469.79 100.31 o
6146 3 -2 2 7 1138.89 1185.77 93.73 o
6147 3 -1 2 7 1276.89 1314.74 95.93 o
6148 3 0 2 7 1818.92 1908.62 110.22 o
6149 3 1 2 7 2681.79 2715.58 146.43 o
6150 3 2 2 7 2570.53 2510.62 122.31 o
6151 3 3 2 7 1788.99 1978.69 127.55 o
6152 3 4 2 7 1049.14 1176.90 108.87 o
6153 3 5 2 7 577.32 555.91 100.09 o
6154 3 6 2 7 513.90 556.92 107.69 o
6155 3 7 2 7 576.28 614.59 119.65 o
6156 3 8 2 7 610.39 712.48 169.69 o
6157 4 -8 -7 3 974.23 1085.15 312.06 o
6157 3 -9 3 7 974.23 1085.15 312.06 o
6158 4 -7 -7 3 3024.82 2937.39 343.78 o
6158 3 -8 3 7 3024.82 2937.39 343.78 o
6159 4 -6 -7 3 946.54 1079.75 155.49 o
6159 3 -7 3 7 946.54 1079.75 155.49 o
6160 4 -5 -7 3 1102.53 958.05 109.83 o
6160 3 -6 3 7 1102.53 958.05 109.83 o
6161 4 -4 -7 3 4564.69 4159.21 210.14 o
6161 3 -5 3 7 4564.69 4159.21 210.14 o
6162 4 -3 -7 3 3656.68 3642.36 252.55 o
6162 3 -4 3 7 3656.68 3642.36 252.55 o
6163 4 -2 -7 3 658.34 787.25 113.08 o
6163 3 -3 3 7 658.34 787.25 113.08 o
6164 4 -1 -7 3 2100.32 1980.20 138.18 o
6164 3 -2 3 7 2100.32 1980.20 138.18 o
6165 4 0 -7 3 794.30 772.07 83.73 o
6165 3 -1 3 7 794.30 772.07 83.73 o
6166 4 1 -7 3 1121.58 1091.89 100.05 o
6166 3 0 3 7 1121.58 1091.89 100.05 o
6167 4 2 -7 3 9252.13 9211.53 334.86 o
6167 3 1 3 7 9252.13 9211.53 334.86 o
6168 4 3 -7 3 1322.41 1274.61 127.24 o
6168 3 2 3 7 1322.41 1274.61 127.24 o
6169 4 4 -7 3 302.65 326.15 73.93 o
6169 3 3 3 7 302.65 326.15 73.93 o
6170 4 5 -7 3 4843.96 4603.34 346.15 o
6170 3 4 3 7 4843.96 4603.34 346.15 o
6171 4 6 -7 3 612.37 626.25 141.34 o
6171 3 5 3 7 612.37 626.25 141.34 o
6172 4 7 -7 3 171.74 45.66 66.31 <
6172 3 6 3 7 171.74 45.66 66.31 <
6173 4 8 -7 3 636.21 843.68 217.44 o
6173 3 7 3 7 636.21 843.68 217.44 o
6174 4 9 -7 3 725.36 412.06 202.23 <
6174 3 8 3 7 725.36 412.06 202.23 <
6175 3 -11 4 7 0.02 177.19 120.67 <
6176 3 -10 4 7 0.38 -9.78 105.45 <
6177 3 -9 4 7 5.60 -120.67 116.32 <
6178 3 -8 4 7 0.22 -26.09 70.66 <
6179 3 -7 4 7 4.18 26.09 54.35 <
6180 3 -6 4 7 1.28 -32.61 51.09 <
6181 3 -5 4 7 2.44 33.70 39.13 <
6182 3 -4 4 7 1.30 56.53 40.22 <
6183 3 -3 4 7 1.93 70.66 29.35 <
6184 3 -2 4 7 0.14 43.48 29.35 <
6185 3 -1 4 7 1.59 15.22 29.35 <
6186 3 0 4 7 0.37 -25.00 33.70 <
6187 3 1 4 7 6.36 7.61 32.61 <
6188 3 2 4 7 0.94 51.09 42.40 <
6189 3 3 4 7 0.87 50.01 52.18 <
6190 3 4 4 7 1.87 -25.00 44.57 <
6191 3 5 4 7 2.28 -36.96 52.18 <
6192 3 6 4 7 0.01 -32.61 51.09 <
6193 3 7 4 7 0.14 -13.04 54.35 <
6194 3 -10 6 7 98.29 125.03 93.50 <
6195 3 -9 6 7 128.74 189.18 100.03 <
6196 3 -8 6 7 259.94 344.71 113.09 o
6197 3 -7 6 7 460.01 572.15 117.48 o
6198 3 -6 6 7 1028.44 1010.29 149.15 o
6199 3 -5 6 7 969.75 1240.02 158.95 o
6200 3 -4 6 7 685.85 711.74 106.65 o
6201 3 -3 6 7 503.61 613.64 93.57 o
6202 3 -2 6 7 122.95 164.18 42.40 o
6203 3 -1 6 7 224.49 207.71 64.16 o
6204 3 0 6 7 723.47 723.78 92.51 o
6205 3 1 6 7 794.10 813.07 100.14 o
6206 3 2 6 7 938.47 1038.51 129.54 o
6207 3 3 6 7 675.08 669.17 104.46 o
6208 3 4 6 7 259.39 324.05 88.08 o
6209 3 5 6 7 164.22 113.08 69.59 <
6210 3 6 6 7 89.08 57.62 72.84 <
6211 3 7 6 7 141.83 257.67 115.25 <
6212 4 -11 -7 7 46.17 -25.00 139.15 <
6212 3 -11 7 7 46.17 -25.00 139.15 <
6213 4 -10 -7 7 1336.87 1224.38 293.59 o
6213 3 -10 7 7 1336.87 1224.38 293.59 o
6214 4 -9 -7 7 75.57 60.88 116.32 <
6214 3 -9 7 7 75.57 60.88 116.32 <
6215 4 -8 -7 7 12.04 1.09 75.01 <
6215 3 -8 7 7 12.04 1.09 75.01 <
6216 4 -7 -7 7 886.71 895.95 177.23 o
6216 3 -7 7 7 886.71 895.95 177.23 o
6217 4 -6 -7 7 2429.92 2375.69 349.17 o
6217 3 -6 7 7 2429.92 2375.69 349.17 o
6218 4 -5 -7 7 391.95 519.68 126.11 o
6218 3 -5 7 7 391.95 519.68 126.11 o
6219 4 -4 -7 7 308.08 288.10 97.85 <
6219 3 -4 7 7 308.08 288.10 97.85 <
6220 4 -3 -7 7 1353.85 1489.91 206.63 o
6220 3 -3 7 7 1353.85 1489.91 206.63 o
6221 4 -2 -7 7 12.35 7.61 32.61 <
6221 3 -2 7 7 12.35 7.61 32.61 <
6222 4 -1 -7 7 859.41 1053.66 139.18 o
6222 3 -1 7 7 859.41 1053.66 139.18 o
6223 4 0 -7 7 1756.05 1940.37 174.02 o
6223 3 0 7 7 1756.05 1940.37 174.02 o
6224 4 1 -7 7 22.83 84.79 67.40 <
6224 3 1 7 7 22.83 84.79 67.40 <
6225 4 2 -7 7 2851.53 2703.47 264.36 o
6225 3 2 7 7 2851.53 2703.47 264.36 o
6226 4 3 -7 7 2853.39 2963.34 287.20 o
6226 3 3 7 7 2853.39 2963.34 287.20 o
6227 4 4 -7 7 168.64 280.48 114.15 <
6227 3 4 7 7 168.64 280.48 114.15 <
6228 4 5 -7 7 401.53 458.79 142.42 o
6228 3 5 7 7 401.53 458.79 142.42 o
6229 4 6 -7 7 534.56 727.34 191.35 o
6229 3 6 7 7 534.56 727.34 191.35 o
6230 3 -10 8 7 0.02 -39.13 153.28 <
6231 3 -9 8 7 26.90 60.88 97.84 <
6232 3 -8 8 7 3.03 -123.93 114.14 <
6233 3 -7 8 7 1.85 73.92 94.58 <
6234 3 -6 8 7 72.98 64.14 70.67 <
6235 3 -5 8 7 14.99 -81.53 106.54 <
6236 3 -4 8 7 8.51 201.11 119.58 <
6237 3 -3 8 7 25.36 21.74 67.40 <
6238 3 -2 8 7 1.42 36.96 58.70 <
6239 3 -1 8 7 26.42 30.44 51.09 <
6240 3 0 8 7 18.16 1.09 45.66 <
6241 3 1 8 7 6.57 128.28 58.70 <
6242 3 2 8 7 70.12 58.71 60.88 <
6243 3 3 8 7 12.58 -47.83 68.49 <
6244 3 4 8 7 0.78 30.44 84.79 <
6245 3 5 8 7 22.66 107.62 86.97 <
6246 3 6 8 7 3.47 148.93 68.49 <
6247 3 -8 10 7 5.67 96.75 98.92 <
6248 3 -7 10 7 41.95 175.03 132.63 <
6249 3 -6 10 7 44.55 -28.27 81.53 <
6250 3 -5 10 7 126.41 132.64 82.63 <
6251 3 -4 10 7 44.07 195.68 125.02 <
6252 3 -3 10 7 38.98 117.41 82.62 <
6253 3 -2 10 7 2.76 50.01 72.83 <
6254 3 -1 10 7 5.15 13.05 52.18 <
6255 3 0 10 7 5.85 134.80 75.01 <
6256 3 1 10 7 106.55 181.57 91.33 <
6257 3 2 10 7 80.00 52.18 66.32 <
6258 3 3 10 7 16.99 -90.23 92.40 <
6259 3 4 10 7 2.53 133.71 73.92 <
6260 3 5 10 7 27.21 83.71 63.05 <
6261 3 6 10 7 3.32 -29.35 247.85 <
6262 4 -8 -7 11 2.50 56.53 132.62 <
6262 3 -7 11 7 2.50 56.53 132.62 <
6263 4 -7 -7 11 116.54 275.04 198.94 <
6263 3 -6 11 7 116.54 275.04 198.94 <
6264 4 -6 -7 11 308.03 113.06 109.80 <
6264 3 -5 11 7 308.03 113.06 109.80 <
6265 4 -5 -7 11 146.68 305.48 143.50 <
6265 3 -4 11 7 146.68 305.48 143.50 <
6266 4 -4 -7 11 258.01 85.88 142.41 <
6266 3 -3 11 7 258.01 85.88 142.41 <
6267 4 -3 -7 11 116.77 141.32 114.15 <
6267 3 -2 11 7 116.77 141.32 114.15 <
6268 4 -2 -7 11 78.87 75.01 68.49 <
6268 3 -1 11 7 78.87 75.01 68.49 <
6269 4 -1 -7 11 74.57 -35.87 93.49 <
6269 3 0 11 7 74.57 -35.87 93.49 <
6270 4 0 -7 11 1736.88 2177.17 341.47 o
6270 3 1 11 7 1736.88 2177.17 341.47 o
6271 4 1 -7 11 71.25 325.04 159.80 <
6271 3 2 11 7 71.25 325.04 159.80 <
6272 4 2 -7 11 176.46 302.22 138.06 <
6272 3 3 11 7 176.46 302.22 138.06 <
6273 4 3 -7 11 955.32 1107.94 233.77 o
6273 3 4 11 7 955.32 1107.94 233.77 o
6274 4 4 -7 11 52.33 211.98 244.59 <
6274 3 5 11 7 52.33 211.98 244.59 <
6275 3 -7 12 7 138.35 -60.88 204.40 <
6276 3 -6 12 7 29.24 46.75 91.32 <
6277 3 -5 12 7 130.17 60.88 109.81 <
6278 3 -4 12 7 113.82 251.15 130.46 <
6279 3 -3 12 7 35.86 196.77 121.76 <
6280 3 -2 12 7 99.34 14.13 81.54 <
6281 3 -1 12 7 40.46 98.93 85.88 <
6282 3 0 12 7 91.41 246.79 116.33 <
6283 3 1 12 7 175.59 251.16 108.73 <
6284 3 2 12 7 34.18 111.97 120.67 <
6285 3 3 12 7 90.14 168.51 102.19 <
6286 3 4 12 7 102.51 77.19 203.30 <
6287 3 -5 14 7 17.48 222.85 203.29 <
6288 3 -4 14 7 58.26 96.76 155.46 <
6289 3 -3 14 7 29.09 265.25 272.86 <
6290 4 -2 -9 -11 10.32 -34.79 142.41 <
6290 3 -7 -11 9 10.32 -34.79 142.41 <
6291 4 -1 -9 -11 37.17 13.05 101.10 <
6291 3 -6 -11 9 37.17 13.05 101.10 <
6292 4 0 -9 -11 839.07 1459.11 295.73 o
6292 3 -5 -11 9 839.07 1459.11 295.73 o
6293 4 1 -9 -11 17.21 45.66 132.62 <
6293 3 -4 -11 9 17.21 45.66 132.62 <
6294 4 2 -9 -11 16.71 30.44 85.88 <
6294 3 -3 -11 9 16.71 30.44 85.88 <
6295 4 3 -9 -11 2.54 -54.35 94.58 <
6295 3 -2 -11 9 2.54 -54.35 94.58 <
6296 4 4 -9 -11 1.22 19.57 101.10 <
6296 3 -1 -11 9 1.22 19.57 101.10 <
6297 4 5 -9 -11 202.23 385.93 343.53 <
6297 3 0 -11 9 202.23 385.93 343.53 <
6298 4 6 -9 -11 385.40 398.99 245.70 <
6298 3 1 -11 9 385.40 398.99 245.70 <
6299 4 7 -9 -11 37.07 426.14 235.90 <
6299 3 2 -11 9 37.07 426.14 235.90 <
6300 4 -5 -9 -7 12.58 -172.85 168.50 <
6300 3 -9 -7 9 12.58 -172.85 168.50 <
6301 4 -4 -9 -7 86.65 96.75 53.27 <
6301 3 -8 -7 9 86.65 96.75 53.27 <
6302 4 -3 -9 -7 1286.41 1011.27 356.67 <
6302 3 -7 -7 9 1286.41 1011.27 356.67 <
6303 4 -2 -9 -7 1020.91 1317.87 265.31 o
6303 3 -6 -7 9 1020.91 1317.87 265.31 o
6304 4 -1 -9 -7 28.48 120.67 111.97 <
6304 3 -5 -7 9 28.48 120.67 111.97 <
6305 4 0 -9 -7 179.00 301.13 128.28 <
6305 3 -4 -7 9 179.00 301.13 128.28 <
6306 4 1 -9 -7 39.18 133.71 103.27 <
6306 3 -3 -7 9 39.18 133.71 103.27 <
6307 4 2 -9 -7 16.00 158.71 118.49 <
6307 3 -2 -7 9 16.00 158.71 118.49 <
6308 4 3 -9 -7 75.18 68.49 118.49 <
6308 3 -1 -7 9 75.18 68.49 118.49 <
6309 4 4 -9 -7 168.31 107.62 100.01 <
6309 3 0 -7 9 168.31 107.62 100.01 <
6310 4 5 -9 -7 324.97 474.00 129.37 o
6310 3 1 -7 9 324.97 474.00 129.37 o
6311 4 6 -9 -7 753.53 680.63 169.62 o
6311 3 2 -7 9 753.53 680.63 169.62 o
6312 4 7 -9 -7 974.02 1397.21 283.79 o
6312 3 3 -7 9 974.02 1397.21 283.79 o
6313 4 8 -9 -7 262.16 333.75 133.72 <
6313 3 4 -7 9 262.16 333.75 133.72 <
6314 4 9 -9 -7 71.70 8.70 161.98 <
6314 3 5 -7 9 71.70 8.70 161.98 <
6315 4 -8 -9 -3 120.46 -227.21 343.52 <
6315 3 -11 -3 9 120.46 -227.21 343.52 <
6316 4 -7 -9 -3 601.94 642.55 273.98 <
6316 3 -10 -3 9 601.94 642.55 273.98 <
6317 4 -6 -9 -3 4.94 -142.41 176.11 <
6317 3 -9 -3 9 4.94 -142.41 176.11 <
6318 4 -5 -9 -3 192.89 78.27 89.14 <
6318 3 -8 -3 9 192.89 78.27 89.14 <
6319 4 -4 -9 -3 142.63 207.64 117.41 <
6319 3 -7 -3 9 142.63 207.64 117.41 <
6320 4 -3 -9 -3 88.41 119.58 82.62 <
6320 3 -6 -3 9 88.41 119.58 82.62 <
6321 4 -2 -9 -3 625.04 696.94 157.65 o
6321 3 -5 -3 9 625.04 696.94 157.65 o
6322 4 -1 -9 -3 1.47 57.62 69.57 <
6322 3 -4 -3 9 1.47 57.62 69.57 <
6323 4 0 -9 -3 261.34 333.76 95.67 o
6323 3 -3 -3 9 261.34 333.76 95.67 o
6324 4 1 -9 -3 561.92 667.59 166.35 o
6324 3 -2 -3 9 561.92 667.59 166.35 o
6325 4 2 -9 -3 16.07 78.27 111.97 <
6325 3 -1 -3 9 16.07 78.27 111.97 <
6326 4 3 -9 -3 141.91 116.32 55.44 <
6326 3 0 -3 9 141.91 116.32 55.44 <
6327 4 4 -9 -3 448.76 429.45 106.55 o
6327 3 1 -3 9 448.76 429.45 106.55 o
6328 4 5 -9 -3 119.29 131.54 97.84 <
6328 3 2 -3 9 119.29 131.54 97.84 <
6329 4 6 -9 -3 344.93 302.23 117.41 <
6329 3 3 -3 9 344.93 302.23 117.41 <
6330 4 7 -9 -3 469.02 517.51 107.63 o
6330 3 4 -3 9 469.02 517.51 107.63 o
6331 4 8 -9 -3 60.36 -48.92 101.10 <
6331 3 5 -3 9 60.36 -48.92 101.10 <
6332 4 9 -9 -3 2210.57 2311.11 338.24 o
6332 3 6 -3 9 2210.57 2311.11 338.24 o
6333 4 10 -9 -3 407.93 508.79 181.56 <
6333 3 7 -3 9 407.93 508.79 181.56 <
6334 4 -7 -9 1 2656.17 2753.13 377.45 o
6334 3 -9 1 9 2656.17 2753.13 377.45 o
6335 4 -6 -9 1 2044.06 1759.81 300.19 o
6335 3 -8 1 9 2044.06 1759.81 300.19 o
6336 4 -5 -9 1 2.04 71.75 91.31 <
6336 3 -7 1 9 2.04 71.75 91.31 <
6337 4 -4 -9 1 179.83 125.02 56.53 <
6337 3 -6 1 9 179.83 125.02 56.53 <
6338 4 -3 -9 1 957.66 985.19 133.75 o
6338 3 -5 1 9 957.66 985.19 133.75 o
6339 4 -2 -9 1 1605.14 1452.02 178.38 o
6339 3 -4 1 9 1605.14 1452.02 178.38 o
6340 4 -1 -9 1 2477.84 2318.57 220.87 o
6340 3 -3 1 9 2477.84 2318.57 220.87 o
6341 4 0 -9 1 1650.54 1515.16 170.77 o
6341 3 -2 1 9 1650.54 1515.16 170.77 o
6342 4 1 -9 1 2332.67 2123.61 156.66 o
6342 3 -1 1 9 2332.67 2123.61 156.66 o
6343 4 2 -9 1 779.98 577.38 143.53 o
6343 3 0 1 9 779.98 577.38 143.53 o
6344 4 3 -9 1 327.04 331.59 76.10 o
6344 3 1 1 9 327.04 331.59 76.10 o
6345 4 4 -9 1 247.91 209.82 59.79 o
6345 3 2 1 9 247.91 209.82 59.79 o
6346 4 5 -9 1 18.70 95.66 55.44 <
6346 3 3 1 9 18.70 95.66 55.44 <
6347 4 6 -9 1 3430.11 3361.79 389.49 o
6347 3 4 1 9 3430.11 3361.79 389.49 o
6348 4 7 -9 1 2452.94 2534.27 350.23 o
6348 3 5 1 9 2452.94 2534.27 350.23 o
6349 4 8 -9 1 477.16 567.52 197.87 <
6349 3 6 1 9 477.16 567.52 197.87 <
6350 3 -11 2 9 46.04 288.09 283.74 <
6351 3 -10 2 9 93.96 235.92 118.50 <
6352 3 -9 2 9 112.14 -31.53 100.02 <
6353 3 -8 2 9 52.96 95.67 76.10 <
6354 3 -7 2 9 16.22 -29.35 34.79 <
6355 3 -6 2 9 1.53 -25.00 35.87 <
6356 3 -5 2 9 9.19 82.62 52.18 <
6357 3 -4 2 9 119.86 196.80 63.06 o
6358 3 -3 2 9 233.40 279.49 63.08 o
6359 3 -2 2 9 254.52 169.66 48.94 o
6360 3 -1 2 9 177.82 107.65 40.23 <
6361 3 0 2 9 28.28 34.79 32.61 <
6362 3 1 2 9 1.15 91.31 36.96 <
6363 3 2 2 9 6.12 15.22 39.14 <
6364 3 3 2 9 36.60 11.96 48.92 <
6365 3 4 2 9 117.05 119.60 58.71 <
6366 3 5 2 9 128.38 91.33 56.54 <
6367 3 6 2 9 68.58 -26.09 67.40 <
6368 3 7 2 9 27.00 -16.31 54.36 <
6369 3 -10 4 9 83.07 92.41 135.90 <
6370 3 -9 4 9 136.13 142.43 100.03 <
6371 3 -8 4 9 84.32 185.91 75.02 <
6372 3 -7 4 9 111.20 75.02 63.06 <
6373 3 -6 4 9 162.20 148.96 60.89 <
6374 3 -5 4 9 96.42 96.76 50.01 <
6375 3 -4 4 9 155.36 231.60 64.15 o
6376 3 -3 4 9 193.39 196.82 58.72 o
6377 3 -2 4 9 158.95 168.54 42.41 o
6378 3 -1 4 9 206.48 210.96 54.37 o
6379 3 0 4 9 118.30 229.41 53.28 o
6380 3 1 4 9 98.47 102.20 35.88 <
6381 3 2 4 9 145.57 230.51 58.71 o
6382 3 3 4 9 69.93 90.24 61.97 <
6383 3 4 4 9 78.65 60.88 71.75 <
6384 3 5 4 9 113.55 158.73 76.10 <
6385 3 6 4 9 56.86 48.92 38.05 <
6386 3 7 4 9 48.01 -43.49 136.98 <
6387 4 -9 -9 5 5061.26 4540.11 844.47 o
6387 3 -10 5 9 5061.26 4540.11 844.47 o
6388 4 -8 -9 5 2032.74 2393.74 616.65 o
6388 3 -9 5 9 2032.74 2393.74 616.65 o
6389 4 -7 -9 5 2162.35 2092.61 345.87 o
6389 3 -8 5 9 2162.35 2092.61 345.87 o
6390 4 -6 -9 5 4173.22 4229.89 459.23 o
6390 3 -7 5 9 4173.22 4229.89 459.23 o
6391 4 -5 -9 5 1842.65 1992.50 222.96 o
6391 3 -6 5 9 1842.65 1992.50 222.96 o
6392 4 -4 -9 5 2287.39 2274.55 233.87 o
6392 3 -5 5 9 2287.39 2274.55 233.87 o
6393 4 -3 -9 5 3717.22 3721.85 239.42 o
6393 3 -4 5 9 3717.22 3721.85 239.42 o
6394 4 -2 -9 5 6414.19 6556.65 318.03 o
6394 3 -3 5 9 6414.19 6556.65 318.03 o
6395 4 -1 -9 5 9476.81 9592.32 388.10 o
6395 3 -2 5 9 9476.81 9592.32 388.10 o
6396 4 0 -9 5 3775.52 4015.79 225.28 o
6396 3 -1 5 9 3775.52 4015.79 225.28 o
6397 4 1 -9 5 2969.97 2934.31 194.75 o
6397 3 0 5 9 2969.97 2934.31 194.75 o
6398 4 2 -9 5 1849.82 1872.87 180.54 o
6398 3 1 5 9 1849.82 1872.87 180.54 o
6399 4 3 -9 5 1594.58 1457.26 202.28 o
6399 3 2 5 9 1594.58 1457.26 202.28 o
6400 4 4 -9 5 6148.66 5888.64 416.96 o
6400 3 3 5 9 6148.66 5888.64 416.96 o
6401 4 5 -9 5 927.07 872.01 167.44 o
6401 3 4 5 9 927.07 872.01 167.44 o
6402 4 6 -9 5 1381.29 1273.32 267.50 o
6402 3 5 5 9 1381.29 1273.32 267.50 o
6403 3 -9 6 9 96.75 194.61 101.11 <
6404 3 -8 6 9 86.96 -13.05 100.02 <
6405 3 -7 6 9 12.56 41.31 93.49 <
6406 3 -6 6 9 13.23 34.79 55.44 <
6407 3 -5 6 9 53.03 7.61 48.92 <
6408 3 -4 6 9 56.85 131.55 66.32 <
6409 3 -3 6 9 265.76 289.27 75.04 o
6410 3 -2 6 9 345.96 396.98 72.87 o
6411 3 -1 6 9 101.62 160.91 54.36 <
6412 3 0 6 9 61.98 78.28 59.79 <
6413 3 1 6 9 18.14 128.28 59.79 <
6414 3 2 6 9 9.31 94.58 56.53 <
6415 3 3 6 9 74.76 36.96 59.79 <
6416 3 4 6 9 103.57 148.95 82.63 <
6417 3 5 6 9 140.42 64.15 86.98 <
6418 3 6 6 9 114.97 33.70 106.55 <
6419 3 -10 8 9 167.67 -414.25 376.19 <
6420 3 -9 8 9 119.47 260.93 191.35 <
6421 3 -8 8 9 269.28 154.41 89.17 <
6422 3 -7 8 9 196.84 319.67 119.61 <
6423 3 -6 8 9 107.54 259.84 90.24 <
6424 3 -5 8 9 284.84 513.28 140.28 o
6425 3 -4 8 9 228.77 434.96 132.66 o
6426 3 -3 8 9 244.69 340.36 108.74 o
6427 3 -2 8 9 362.71 364.34 106.58 o
6428 3 -1 8 9 203.19 152.23 66.33 <
6429 3 0 8 9 274.80 383.87 105.48 o
6430 3 1 8 9 213.49 225.08 65.24 o
6431 3 2 8 9 75.86 144.59 66.32 <
6432 3 3 8 9 213.76 368.61 119.61 o
6433 3 4 8 9 186.42 333.80 106.56 o
6434 3 5 8 9 89.13 132.63 76.10 <
6435 4 -9 -9 9 5656.66 4434.82 844.52 o
6435 3 -9 9 9 5656.66 4434.82 844.52 o
6436 4 -8 -9 9 3676.76 3192.98 473.24 o
6436 3 -8 9 9 3676.76 3192.98 473.24 o
6437 4 -7 -9 9 1366.04 1488.64 312.08 o
6437 3 -7 9 9 1366.04 1488.64 312.08 o
6438 4 -6 -9 9 2632.36 2778.01 412.24 o
6438 3 -6 9 9 2632.36 2778.01 412.24 o
6439 4 -5 -9 9 2868.88 3393.90 606.98 o
6439 3 -5 9 9 2868.88 3393.90 606.98 o
6440 4 -4 -9 9 5661.75 5589.53 735.84 o
6440 3 -4 9 9 5661.75 5589.53 735.84 o
6441 4 -3 -9 9 6347.28 6770.71 820.89 o
6441 3 -3 9 9 6347.28 6770.71 820.89 o
6442 4 -2 -9 9 4251.05 4471.31 433.09 o
6442 3 -2 9 9 4251.05 4471.31 433.09 o
6443 4 -1 -9 9 7029.08 7460.99 587.99 o
6443 3 -1 9 9 7029.08 7460.99 587.99 o
6444 4 0 -9 9 3412.67 3856.72 422.12 o
6444 3 0 9 9 3412.67 3856.72 422.12 o
6445 4 1 -9 9 2534.06 2569.13 365.46 o
6445 3 1 9 9 2534.06 2569.13 365.46 o
6446 4 2 -9 9 3204.59 3107.94 322.00 o
6446 3 2 9 9 3204.59 3107.94 322.00 o
6447 4 3 -9 9 869.63 771.96 191.36 o
6447 3 3 9 9 869.63 771.96 191.36 o
6448 4 4 -9 9 6641.79 6693.40 669.45 o
6448 3 4 9 9 6641.79 6693.40 669.45 o
6449 4 5 -9 9 5644.43 3416.11 775.94 o
6449 3 5 9 9 5644.43 3416.11 775.94 o
6450 3 -8 10 9 36.24 435.93 290.26 <
6451 3 -7 10 9 47.33 -102.19 92.41 <
6452 3 -6 10 9 10.77 25.00 89.14 <
6453 3 -5 10 9 7.63 120.67 88.05 <
6454 3 -4 10 9 183.70 265.30 123.95 <
6455 3 -3 10 9 141.82 -19.57 115.25 <
6456 3 -2 10 9 119.92 152.21 86.98 <
6457 3 -1 10 9 223.08 237.04 85.90 <
6458 3 0 10 9 35.51 -44.57 47.83 <
6459 3 1 10 9 11.36 151.10 114.14 <
6460 3 2 10 9 39.76 54.36 128.28 <
6461 3 3 10 9 37.81 -21.74 65.23 <
6462 3 4 10 9 135.48 203.31 154.39 <
6463 3 -6 12 9 155.38 302.26 192.44 <
6464 3 -5 12 9 31.19 72.84 75.01 <
6465 3 -4 12 9 114.01 110.89 86.98 <
6466 3 -3 12 9 170.06 341.40 114.16 <
6467 3 -2 12 9 100.90 217.44 116.33 <
6468 3 -1 12 9 208.36 389.26 171.80 <
6469 3 1 12 9 45.61 258.74 201.12 <
6470 4 -3 -11 -9 7.61 381.56 268.51 <
6470 3 -8 -9 11 7.61 381.56 268.51 <
6471 4 -2 -11 -9 54.70 -158.71 207.63 <
6471 3 -7 -9 11 54.70 -158.71 207.63 <
6472 4 -1 -11 -9 371.85 282.66 156.55 <
6472 3 -6 -9 11 371.85 282.66 156.55 <
6473 4 0 -11 -9 194.45 157.63 109.80 <
6473 3 -5 -9 11 194.45 157.63 109.80 <
6474 4 1 -11 -9 2.94 -117.40 106.53 <
6474 3 -4 -9 11 2.94 -117.40 106.53 <
6475 4 2 -11 -9 0.62 205.46 106.53 <
6475 3 -3 -9 11 0.62 205.46 106.53 <
6476 4 3 -11 -9 23.34 0.00 59.79 <
6476 3 -2 -9 11 23.34 0.00 59.79 <
6477 4 4 -11 -9 9.53 31.53 82.62 <
6477 3 -1 -9 11 9.53 31.53 82.62 <
6478 4 5 -11 -9 894.84 907.88 275.08 o
6478 3 0 -9 11 894.84 907.88 275.08 o
6479 4 6 -11 -9 33.75 55.44 246.77 <
6479 3 1 -9 11 33.75 55.44 246.77 <
6480 4 7 -11 -9 34.07 259.81 167.41 <
6480 3 2 -9 11 34.07 259.81 167.41 <
6481 4 -6 -11 -5 13.48 -271.77 265.25 <
6481 3 -10 -5 11 13.48 -271.77 265.25 <
6482 4 -5 -11 -5 32.04 -22.83 144.58 <
6482 3 -9 -5 11 32.04 -22.83 144.58 <
6483 4 -4 -11 -5 918.53 1315.62 270.74 o
6483 3 -8 -5 11 918.53 1315.62 270.74 o
6484 4 -3 -11 -5 1355.24 1161.35 230.53 o
6484 3 -7 -5 11 1355.24 1161.35 230.53 o
6485 4 -2 -11 -5 443.74 643.62 172.86 o
6485 3 -6 -5 11 443.74 643.62 172.86 o
6486 4 -1 -11 -5 316.41 292.45 123.94 <
6486 3 -5 -5 11 316.41 292.45 123.94 <
6487 4 0 -11 -5 499.55 534.91 140.25 o
6487 3 -4 -5 11 499.55 534.91 140.25 o
6488 4 1 -11 -5 43.88 47.83 44.57 <
6488 3 -3 -5 11 43.88 47.83 44.57 <
6489 4 2 -11 -5 388.38 329.42 145.68 <
6489 3 -2 -5 11 388.38 329.42 145.68 <
6490 4 3 -11 -5 761.13 791.54 240.29 o
6490 3 -1 -5 11 761.13 791.54 240.29 o
6491 4 4 -11 -5 5.59 278.29 163.06 <
6491 3 0 -5 11 5.59 278.29 163.06 <
6492 4 5 -11 -5 1597.94 1203.82 280.57 o
6492 3 1 -5 11 1597.94 1203.82 280.57 o
6493 4 6 -11 -5 1875.81 1630.22 317.56 o
6493 3 2 -5 11 1875.81 1630.22 317.56 o
6494 4 7 -11 -5 77.92 84.79 145.67 <
6494 3 3 -5 11 77.92 84.79 145.67 <
6495 4 -7 -11 -1 391.74 527.27 227.22 <
6495 3 -10 -1 11 391.74 527.27 227.22 <
6496 4 -6 -11 -1 1458.16 1548.47 331.66 o
6496 3 -9 -1 11 1458.16 1548.47 331.66 o
6497 4 -5 -11 -1 326.60 359.85 144.59 <
6497 3 -8 -1 11 326.60 359.85 144.59 <
6498 4 -4 -11 -1 363.64 418.56 176.12 <
6498 3 -7 -1 11 363.64 418.56 176.12 <
6499 4 -3 -11 -1 1996.47 1838.07 315.41 o
6499 3 -6 -1 11 1996.47 1838.07 315.41 o
6500 4 -2 -11 -1 1486.61 1344.14 202.27 o
6500 3 -5 -1 11 1486.61 1344.14 202.27 o
6501 4 -1 -11 -1 159.15 189.16 78.27 <
6501 3 -4 -1 11 159.15 189.16 78.27 <
6502 4 0 -11 -1 813.65 682.84 195.72 o
6502 3 -3 -1 11 813.65 682.84 195.72 o
6503 4 1 -11 -1 194.99 198.95 94.58 <
6503 3 -2 -1 11 194.99 198.95 94.58 <
6504 4 2 -11 -1 318.17 404.42 159.81 <
6504 3 -1 -1 11 318.17 404.42 159.81 <
6505 4 3 -11 -1 4534.30 4068.33 438.61 o
6505 3 0 -1 11 4534.30 4068.33 438.61 o
6506 4 4 -11 -1 422.09 505.54 161.99 o
6506 3 1 -1 11 422.09 505.54 161.99 o
6507 4 5 -11 -1 49.76 -30.44 71.75 <
6507 3 2 -1 11 49.76 -30.44 71.75 <
6508 4 6 -11 -1 2538.62 2795.37 367.64 o
6508 3 3 -1 11 2538.62 2795.37 367.64 o
6509 4 7 -11 -1 200.81 -4.35 110.89 <
6509 3 4 -1 11 200.81 -4.35 110.89 <
6510 4 8 -11 -1 36.25 190.24 146.76 <
6510 3 5 -1 11 36.25 190.24 146.76 <
6511 3 -11 2 11 303.51 -16.31 293.60 <
6512 3 -10 2 11 332.94 94.61 75.03 <
6513 3 -9 2 11 527.00 531.89 139.23 o
6514 3 -8 2 11 901.17 1009.87 157.79 o
6515 3 -7 2 11 1449.84 1343.84 168.80 o
6516 3 -6 2 11 1541.81 1575.04 194.97 o
6517 3 -5 2 11 1241.70 1243.51 164.42 o
6518 3 -4 2 11 890.12 826.11 119.72 o
6519 3 -3 2 11 587.58 629.93 115.32 o
6520 3 -2 2 11 728.48 708.41 121.88 o
6521 3 -1 2 11 1208.82 1236.96 179.66 o
6522 3 0 2 11 1510.55 1785.26 189.53 o
6523 3 1 2 11 1566.65 1689.38 188.43 o
6524 3 2 2 11 1183.51 1223.60 170.91 o
6525 3 3 2 11 695.53 833.36 150.13 o
6526 3 4 2 11 465.99 499.22 123.99 o
6527 3 5 2 11 376.73 239.25 175.09 <
6528 4 -8 -11 3 38.17 170.67 194.59 <
6528 3 -10 3 11 38.17 170.67 194.59 <
6529 4 -7 -11 3 25.42 -10.87 117.40 <
6529 3 -9 3 11 25.42 -10.87 117.40 <
6530 4 -6 -11 3 598.61 531.65 131.55 o
6530 3 -8 3 11 598.61 531.65 131.55 o
6531 4 -5 -11 3 1725.85 1651.92 239.25 o
6531 3 -7 3 11 1725.85 1651.92 239.25 o
6532 4 -4 -11 3 230.54 326.14 84.80 o
6532 3 -6 3 11 230.54 326.14 84.80 o
6533 4 -3 -11 3 180.18 225.03 93.49 <
6533 3 -5 3 11 180.18 225.03 93.49 <
6534 4 -2 -11 3 936.48 853.56 157.66 o
6534 3 -4 3 11 936.48 853.56 157.66 o
6535 4 -1 -11 3 3.84 92.40 79.36 <
6535 3 -3 3 11 3.84 92.40 79.36 <
6536 4 0 -11 3 582.35 544.71 108.72 o
6536 3 -2 3 11 582.35 544.71 108.72 o
6537 4 1 -11 3 1286.40 1270.14 181.60 o
6537 3 -1 3 11 1286.40 1270.14 181.60 o
6538 4 2 -11 3 64.89 89.14 81.53 <
6538 3 0 3 11 64.89 89.14 81.53 <
6539 4 3 -11 3 2053.84 2070.79 180.54 o
6539 3 1 3 11 2053.84 2070.79 180.54 o
6540 4 4 -11 3 2171.05 2212.23 314.32 o
6540 3 2 3 11 2171.05 2212.23 314.32 o
6541 4 5 -11 3 206.64 64.14 85.88 <
6541 3 3 3 11 206.64 64.14 85.88 <
6542 4 6 -11 3 283.98 181.55 108.71 <
6542 3 4 3 11 283.98 181.55 108.71 <
6543 3 -10 4 11 1.54 90.23 153.28 <
6544 3 -9 4 11 9.11 -5.44 63.05 <
6545 3 -8 4 11 11.65 34.79 71.75 <
6546 3 -7 4 11 0.22 95.66 78.27 <
6547 3 -6 4 11 6.54 41.31 48.92 <
6548 3 -5 4 11 9.01 123.93 64.14 <
6549 3 -4 4 11 5.15 31.53 42.40 <
6550 3 -3 4 11 14.52 82.62 52.18 <
6551 3 -2 4 11 3.91 -41.31 38.05 <
6552 3 -1 4 11 5.54 -33.70 53.27 <
6553 3 0 4 11 7.78 139.15 69.57 <
6554 3 1 4 11 0.00 52.18 40.22 <
6555 3 2 4 11 3.69 48.92 72.83 <
6556 3 3 4 11 7.43 170.67 88.05 <
6557 3 4 4 11 0.75 120.67 98.92 <
6558 3 5 4 11 3.34 263.07 233.72 <
6559 3 -9 6 11 140.38 133.73 121.77 <
6560 3 -8 6 11 414.24 406.75 120.72 o
6561 3 -7 6 11 546.88 427.48 129.44 o
6562 3 -6 6 11 731.20 835.59 139.26 o
6563 3 -5 6 11 527.58 571.08 120.74 o
6564 3 -4 6 11 174.88 277.26 80.46 o
6565 3 -3 6 11 214.29 405.59 79.38 o
6566 3 -2 6 11 235.69 364.28 86.99 o
6567 3 -1 6 11 319.01 247.95 77.21 o
6568 3 0 6 11 730.22 732.24 120.77 o
6569 3 1 6 11 686.51 734.35 137.08 o
6570 3 2 6 11 453.06 358.92 96.80 o
6571 3 3 6 11 272.37 315.34 142.45 <
6572 3 4 6 11 105.40 92.41 139.16 <
6573 4 -7 -11 7 0.75 121.75 175.02 <
6573 3 -8 7 11 0.75 121.75 175.02 <
6574 4 -6 -11 7 146.64 104.36 101.10 <
6574 3 -7 7 11 146.64 104.36 101.10 <
6575 4 -5 -11 7 265.89 314.18 130.46 <
6575 3 -6 7 11 265.89 314.18 130.46 <
6576 4 -4 -11 7 114.90 95.66 71.75 <
6576 3 -5 7 11 114.90 95.66 71.75 <
6577 4 -3 -11 7 317.93 302.23 138.07 <
6577 3 -4 7 11 317.93 302.23 138.07 <
6578 4 -2 -11 7 110.88 17.39 83.71 <
6578 3 -3 7 11 110.88 17.39 83.71 <
6579 4 -1 -11 7 97.49 73.92 86.97 <
6579 3 -2 7 11 97.49 73.92 86.97 <
6580 4 0 -11 7 115.37 108.71 120.67 <
6580 3 -1 7 11 115.37 108.71 120.67 <
6581 4 1 -11 7 1767.96 1664.97 276.23 o
6581 3 0 7 11 1767.96 1664.97 276.23 o
6582 4 2 -11 7 83.43 71.75 54.35 <
6582 3 1 7 11 83.43 71.75 54.35 <
6583 4 3 -11 7 233.21 413.11 135.89 o
6583 3 2 7 11 233.21 413.11 135.89 o
6584 4 4 -11 7 967.10 941.59 192.45 o
6584 3 3 7 11 967.10 941.59 192.45 o
6585 4 5 -11 7 59.50 -114.14 180.46 <
6585 3 4 7 11 59.50 -114.14 180.46 <
6586 3 -8 8 11 2.96 -59.79 147.84 <
6587 3 -7 8 11 6.00 117.40 101.10 <
6588 3 -6 8 11 1.21 100.01 76.10 <
6589 3 -5 8 11 0.25 -2.17 66.31 <
6590 3 -4 8 11 5.00 -3.26 84.79 <
6591 3 -3 8 11 0.01 -11.96 82.62 <
6592 3 -2 8 11 4.54 -98.92 67.40 <
6593 3 -1 8 11 0.14 -76.10 96.75 <
6594 3 0 8 11 7.72 -38.05 64.14 <
6595 3 1 8 11 2.29 -53.27 96.75 <
6596 3 2 8 11 1.44 -92.40 106.53 <
6597 3 3 8 11 3.20 -205.46 110.88 <
6598 3 4 8 11 3.38 105.45 165.24 <
6599 3 -7 10 11 140.10 76.11 120.68 <
6600 3 -6 10 11 79.69 279.40 145.68 <
6601 3 -5 10 11 29.96 267.43 146.76 <
6602 3 -4 10 11 31.17 78.27 123.93 <
6603 3 -3 10 11 16.22 -77.18 97.84 <
6604 3 -2 10 11 0.54 -45.66 125.01 <
6605 3 -1 10 11 73.14 -84.80 106.54 <
6606 3 0 10 11 51.76 95.67 98.93 <
6607 3 1 10 11 105.63 231.57 217.44 <
6608 4 -4 -11 11 8.62 94.58 157.63 <
6608 3 -4 11 11 8.62 94.58 157.63 <
6609 4 -3 -11 11 1094.14 1014.47 412.09 <
6609 3 -3 11 11 1094.14 1014.47 412.09 <
6610 4 -2 -11 11 93.49 -193.50 166.33 <
6610 3 -2 11 11 93.49 -193.50 166.33 <
6611 4 0 -11 11 1668.40 1711.62 444.76 o
6611 3 0 11 11 1668.40 1711.62 444.76 o
6612 3 -2 12 11 38.05 -30.44 131.54 <
6613 4 -2 -13 -7 170.45 293.52 150.02 <
6613 3 -7 -7 13 170.45 293.52 150.02 <
6614 4 -1 -13 -7 542.97 611.01 176.13 o
6614 3 -6 -7 13 542.97 611.01 176.13 o
6615 4 0 -13 -7 70.41 22.83 118.49 <
6615 3 -5 -7 13 70.41 22.83 118.49 <
6616 4 1 -13 -7 4.79 -231.55 232.63 <
6616 3 -4 -7 13 4.79 -231.55 232.63 <
6617 4 3 -13 -7 38.08 136.97 190.24 <
6617 3 -2 -7 13 38.08 136.97 190.24 <
6618 4 4 -13 -7 199.84 322.88 200.03 <
6618 3 -1 -7 13 199.84 322.88 200.03 <
6619 4 5 -13 -7 386.14 867.56 291.36 <
6619 3 0 -7 13 386.14 867.56 291.36 <
6620 4 6 -13 -7 175.91 408.76 236.99 <
6620 3 1 -7 13 175.91 408.76 236.99 <
6621 4 -5 -13 -3 40.79 -44.57 147.84 <
6621 3 -9 -3 13 40.79 -44.57 147.84 <
6622 4 -4 -13 -3 679.80 632.77 214.18 <
6622 3 -8 -3 13 679.80 632.77 214.18 <
6623 4 -3 -13 -3 356.88 184.82 173.95 <
6623 3 -7 -3 13 356.88 184.82 173.95 <
6624 4 -2 -13 -3 64.32 158.72 159.80 <
6624 3 -6 -3 13 64.32 158.72 159.80 <
6625 4 -1 -13 -3 5.58 77.18 102.18 <
6625 3 -5 -3 13 5.58 77.18 102.18 <
6626 4 0 -13 -3 8.84 22.83 127.19 <
6626 3 -4 -3 13 8.84 22.83 127.19 <
6627 4 1 -13 -3 16.43 319.60 166.32 <
6627 3 -3 -3 13 16.43 319.60 166.32 <
6628 4 2 -13 -3 13.17 107.62 133.71 <
6628 3 -2 -3 13 13.17 107.62 133.71 <
6629 4 3 -13 -3 97.05 107.62 111.97 <
6629 3 -1 -3 13 97.05 107.62 111.97 <
6630 4 4 -13 -3 213.49 186.99 153.29 <
6630 3 0 -3 13 213.49 186.99 153.29 <
6631 4 5 -13 -3 202.37 100.02 58.70 <
6631 3 1 -3 13 202.37 100.02 58.70 <
6632 4 6 -13 -3 834.11 613.22 178.31 o
6632 3 2 -3 13 834.11 613.22 178.31 o
6633 4 7 -13 -3 382.53 323.97 193.51 <
6633 3 3 -3 13 382.53 323.97 193.51 <
6634 4 -6 -13 1 38.03 2.17 102.19 <
6634 3 -9 1 13 38.03 2.17 102.19 <
6635 4 -5 -13 1 327.77 235.91 92.41 <
6635 3 -8 1 13 327.77 235.91 92.41 <
6636 4 -4 -13 1 0.79 22.83 55.44 <
6636 3 -7 1 13 0.79 22.83 55.44 <
6637 4 -3 -13 1 5.09 -22.83 95.66 <
6637 3 -6 1 13 5.09 -22.83 95.66 <
6638 4 -2 -13 1 97.77 143.50 111.97 <
6638 3 -5 1 13 97.77 143.50 111.97 <
6639 4 -1 -13 1 555.87 571.87 180.48 o
6639 3 -4 1 13 555.87 571.87 180.48 o
6640 4 0 -13 1 1416.26 1220.10 269.68 o
6640 3 -3 1 13 1416.26 1220.10 269.68 o
6641 4 1 -13 1 89.68 144.58 96.75 <
6641 3 -2 1 13 89.68 144.58 96.75 <
6642 4 2 -13 1 38.31 131.54 85.88 <
6642 3 -1 1 13 38.31 131.54 85.88 <
6643 4 3 -13 1 5.21 225.02 93.49 <
6643 3 0 1 13 5.21 225.02 93.49 <
6644 4 4 -13 1 14.72 197.85 102.18 <
6644 3 1 1 13 14.72 197.85 102.18 <
6645 4 5 -13 1 1001.69 943.78 219.63 o
6645 3 2 1 13 1001.69 943.78 219.63 o
6646 3 -10 2 13 11.61 283.73 294.60 <
6647 3 -9 2 13 3.53 136.97 96.75 <
6648 3 -8 2 13 2.20 1.09 85.88 <
6649 3 -7 2 13 4.97 -85.88 70.66 <
6650 3 -6 2 13 0.15 5.44 59.79 <
6651 3 -5 2 13 3.41 203.28 95.66 <
6652 3 -4 2 13 37.88 42.40 64.14 <
6653 3 -3 2 13 50.23 169.59 86.97 <
6654 3 -2 2 13 11.11 48.92 94.58 <
6655 3 -1 2 13 0.18 95.66 56.53 <
6656 3 0 2 13 3.53 -4.35 50.01 <
6657 3 1 2 13 2.52 46.74 72.83 <
6658 3 2 2 13 3.24 -98.92 55.44 <
6659 3 3 2 13 17.01 -7.61 111.97 <
6660 3 -9 4 13 90.42 84.80 85.89 <
6661 3 -8 4 13 72.68 98.93 69.58 <
6662 3 -7 4 13 49.94 50.01 65.23 <
6663 3 -6 4 13 99.98 115.24 81.54 <
6664 3 -5 4 13 86.59 172.86 82.63 <
6665 3 -4 4 13 93.60 -45.66 50.01 <
6666 3 -3 4 13 123.57 135.90 79.37 <
6667 3 -2 4 13 80.66 114.15 70.67 <
6668 3 -1 4 13 99.72 143.51 78.28 <
6669 3 0 4 13 82.22 169.60 76.10 <
6670 3 1 4 13 41.09 84.80 104.36 <
6671 3 2 4 13 78.66 -5.44 69.58 <
6672 3 3 4 13 70.82 147.85 156.55 <
6673 4 -6 -13 5 176.71 432.67 257.65 <
6673 3 -8 5 13 176.71 432.67 257.65 <
6674 4 -5 -13 5 651.96 627.33 150.04 o
6674 3 -7 5 13 651.96 627.33 150.04 o
6675 4 -4 -13 5 641.84 599.06 146.78 o
6675 3 -6 5 13 641.84 599.06 146.78 o
6676 4 -3 -13 5 1964.17 1576.94 236.00 o
6676 3 -5 5 13 1964.17 1576.94 236.00 o
6677 4 -2 -13 5 2326.96 1956.68 265.39 o
6677 3 -4 5 13 2326.96 1956.68 265.39 o
6678 4 -1 -13 5 1152.94 3092.43 338.17 o
6678 3 -3 5 13 1152.94 3092.43 338.17 o
6679 4 0 -13 5 2637.30 2378.80 288.24 o
6679 3 -2 5 13 2637.30 2378.80 288.24 o
6680 4 1 -13 5 823.05 732.82 163.09 o
6680 3 -1 5 13 823.05 732.82 163.09 o
6681 4 2 -13 5 499.47 393.56 122.85 o
6681 3 0 5 13 499.47 393.56 122.85 o
6682 4 3 -13 5 871.00 806.75 292.48 <
6682 3 1 5 13 871.00 806.75 292.48 <
6683 4 4 -13 5 21.53 193.50 134.80 <
6683 3 2 5 13 21.53 193.50 134.80 <
6684 3 -8 6 13 0.09 -73.92 67.40 <
6685 3 -7 6 13 8.49 47.83 98.92 <
6686 3 -6 6 13 7.68 119.58 95.66 <
6687 3 -5 6 13 15.84 97.84 68.49 <
6688 3 -4 6 13 16.12 9.78 80.44 <
6689 3 -3 6 13 13.57 29.35 66.31 <
6690 3 -2 6 13 23.60 72.84 58.70 <
6691 3 -1 6 13 0.73 -52.18 53.27 <
6692 3 0 6 13 7.53 -53.27 55.44 <
6693 3 1 6 13 0.85 -30.44 105.45 <
6694 3 2 6 13 0.09 -64.14 154.37 <
6695 3 -7 8 13 172.12 520.80 266.38 <
6696 3 -6 8 13 81.29 100.02 205.47 <
6697 3 -5 8 13 156.14 64.15 121.77 <
6698 3 -4 8 13 197.02 449.05 195.71 <
6699 3 -3 8 13 151.18 143.52 82.63 <
6700 3 -2 8 13 224.60 -9.79 94.60 <
6701 3 -1 8 13 113.60 118.50 115.24 <
6702 3 0 8 13 93.79 160.90 107.63 <
6703 4 -5 -13 9 1568.78 785.12 384.95 <
6703 3 -6 9 13 1568.78 785.12 384.95 <
6704 4 -4 -13 9 1349.73 1471.22 467.57 o
6704 3 -5 9 13 1349.73 1471.22 467.57 o
6705 4 -3 -13 9 2605.85 1956.67 501.40 o
6705 3 -4 9 13 2605.85 1956.67 501.40 o
6706 4 -2 -13 9 4675.77 4443.80 796.49 o
6706 3 -3 9 13 4675.77 4443.80 796.49 o
6707 4 -2 -15 -1 30.39 -27.18 95.66 <
6707 3 -6 -1 15 30.39 -27.18 95.66 <
6708 4 -1 -15 -1 325.57 158.72 150.03 <
6708 3 -5 -1 15 325.57 158.72 150.03 <
6709 4 0 -15 -1 24.88 -130.45 134.80 <
6709 3 -4 -1 15 24.88 -130.45 134.80 <
6710 4 1 -15 -1 181.07 517.47 208.73 <
6710 3 -3 -1 15 181.07 517.47 208.73 <
6711 4 2 -15 -1 481.92 389.21 157.64 <
6711 3 -2 -1 15 481.92 389.21 157.64 <
6712 4 3 -15 -1 140.62 102.19 138.06 <
6712 3 -1 -1 15 140.62 102.19 138.06 <
6713 4 4 -15 -1 838.34 490.35 245.72 <
6713 3 0 -1 15 838.34 490.35 245.72 <
6714 3 -8 2 15 334.57 337.11 290.35 <
6715 3 -7 2 15 391.39 362.14 283.84 <
6716 3 -6 2 15 273.06 353.40 258.80 <
6717 3 -5 2 15 117.43 176.13 119.59 <
6718 3 -4 2 15 93.37 -29.35 39.14 <
6719 3 -3 2 15 125.05 46.75 88.06 <
6720 3 -2 2 15 229.42 253.35 113.08 <
6721 3 -1 2 15 416.39 457.86 163.13 <
6722 3 0 2 15 427.35 639.48 363.24 <
6723 4 -5 -15 3 78.41 -14.13 146.76 <
6723 3 -8 3 15 78.41 -14.13 146.76 <
6724 4 -4 -15 3 222.24 -83.71 118.50 <
6724 3 -7 3 15 222.24 -83.71 118.50 <
6725 4 -3 -15 3 102.75 93.49 240.25 <
6725 3 -6 3 15 102.75 93.49 240.25 <
6726 4 -2 -15 3 185.27 195.68 107.62 <
6726 3 -5 3 15 185.27 195.68 107.62 <
6727 4 -1 -15 3 122.68 65.23 69.57 <
6727 3 -4 3 15 122.68 65.23 69.57 <
6728 4 0 -15 3 46.23 -42.40 61.96 <
6728 3 -3 3 15 46.23 -42.40 61.96 <
6729 4 1 -15 3 75.76 31.53 122.84 <
6729 3 -2 3 15 75.76 31.53 122.84 <
6730 4 2 -15 3 1358.76 1300.51 422.99 o
6730 3 -1 3 15 1358.76 1300.51 422.99 o
6731 3 -7 4 15 27.49 -73.92 183.72 <
6732 3 -6 4 15 31.94 27.18 108.71 <
6733 3 -5 4 15 44.71 58.70 150.02 <
6734 3 -4 4 15 34.07 240.25 175.02 <
6735 3 -3 4 15 45.04 128.28 141.33 <
6736 3 -2 4 15 30.41 -83.71 78.27 <
6737 3 -1 4 15 19.71 389.18 189.15 <
6738 3 -6 6 15 77.24 -105.46 158.73 <
6739 3 -5 6 15 50.58 388.11 229.38 <
6740 3 -3 6 15 14.80 188.07 163.06 <
6741 3 -2 6 15 112.27 -108.72 191.35 <
