#------------------------------------------------------------------------------
#$Date: 2017-01-09 05:13:44 +0200 (Mon, 09 Jan 2017) $
#$Revision: 190099 $
#$URL: file:///home/coder/svn-repositories/cod/cif/7/04/10/7041004.cif $
#------------------------------------------------------------------------------
#
# This file is available in the Crystallography Open Database (COD),
# http://www.crystallography.net/
#
# All data on this site have been placed in the public domain by the
# contributors.
#
data_7041004
loop_
_publ_author_name
'Ponou, Sim\'eon'
'Lidin, Sven'
_publ_section_title
;
 Exo-bonded six-membered heterocycle in the crystal structures of
 RE7Co2Ge4 (RE = La-Nd).
;
_journal_issue                   46
_journal_name_full
'Dalton transactions (Cambridge, England : 2003)'
_journal_page_first              18522
_journal_page_last               18531
_journal_paper_doi               10.1039/c6dt03302d
_journal_volume                  45
_journal_year                    2016
_chemical_formula_sum            'Co2 Ge4 Pr7'
_chemical_formula_weight         1394.6
_chemical_name_systematic        ' ?'
_space_group_IT_number           14
_symmetry_cell_setting           monoclinic
_symmetry_Int_Tables_number      14
_symmetry_space_group_name_Hall  '-P 2ybc'
_symmetry_space_group_name_H-M   'P 1 21/c 1'
_audit_update_record
;
2016-10-20 deposited with the CCDC.
2016-10-24 downloaded from the CCDC.
;
_cell_angle_alpha                90
_cell_angle_beta                 109.505(4)
_cell_angle_gamma                90
_cell_formula_units_Z            4
_cell_length_a                   9.2373(4)
_cell_length_b                   12.2352(6)
_cell_length_c                   12.2392(6)
_cell_measurement_reflns_used    3894
_cell_measurement_temperature    293
_cell_measurement_theta_max      28.99
_cell_measurement_theta_min      2.41
_cell_volume                     1303.89(11)
_computing_cell_refinement
;
CrysAlisPro, Agilent Technologies,
Version 1.171.35.19 (release 27-10-2011 CrysAlis171 .NET)
(compiled Oct 27 2011,15:02:11)
;
_computing_data_collection
;
CrysAlisPro, Agilent Technologies,
Version 1.171.35.19 (release 27-10-2011 CrysAlis171 .NET)
(compiled Oct 27 2011,15:02:11)
;
_computing_data_reduction
;
CrysAlisPro, Agilent Technologies,
Version 1.171.35.19 (release 27-10-2011 CrysAlis171 .NET)
(compiled Oct 27 2011,15:02:11)
;
_diffrn_ambient_temperature      293
_diffrn_detector_area_resol_mean 16.1829
_diffrn_measured_fraction_theta_full 0.98
_diffrn_measured_fraction_theta_max 0.91
_diffrn_measurement_device       'four-circle diffractometer'
_diffrn_measurement_device_type  'Xcalibur, Sapphire3'
_diffrn_measurement_method       '\w scans'
_diffrn_radiation_monochromator  graphite
_diffrn_radiation_probe          x-ray
_diffrn_radiation_source         'Enhance (Mo) X-ray Source'
_diffrn_radiation_type           'Mo K\a'
_diffrn_radiation_wavelength     0.7107
_diffrn_reflns_av_R_equivalents  0.0501
_diffrn_reflns_av_sigmaI/netI    0.0419
_diffrn_reflns_limit_h_max       12
_diffrn_reflns_limit_h_min       -12
_diffrn_reflns_limit_k_max       16
_diffrn_reflns_limit_k_min       -16
_diffrn_reflns_limit_l_max       15
_diffrn_reflns_limit_l_min       -15
_diffrn_reflns_number            15137
_diffrn_reflns_theta_full        27.93
_diffrn_reflns_theta_max         29.05
_diffrn_reflns_theta_min         2.43
_exptl_absorpt_coefficient_mu    37.07
_exptl_absorpt_correction_T_max  1
_exptl_absorpt_correction_T_min  0.473
_exptl_absorpt_correction_type   multi-scan
_exptl_absorpt_process_details
;
CrysAlisPro, Agilent Technologies,
Version 1.171.35.19 (release 27-10-2011 CrysAlis171 .NET)
(compiled Oct 27 2011,15:02:11)
Empirical absorption correction using spherical harmonics,
 implemented in SCALE3 ABSPACK scaling algorithm.
;
_exptl_crystal_density_diffrn    7.1041
_exptl_crystal_F_000             2380
_refine_diff_density_max         1.85
_refine_diff_density_min         -1.66
_refine_ls_extinction_coef       244(12)
_refine_ls_extinction_method
'B-C type 1 Gaussian isotropic (Becker & Coppens, 1974)'
_refine_ls_goodness_of_fit_gt    1.48
_refine_ls_goodness_of_fit_ref   1.37
_refine_ls_number_constraints    0
_refine_ls_number_parameters     120
_refine_ls_number_reflns         3188
_refine_ls_number_restraints     0
_refine_ls_R_factor_all          0.0506
_refine_ls_R_factor_gt           0.0307
_refine_ls_shift/su_max          0.0486
_refine_ls_shift/su_mean         0.0084
_refine_ls_structure_factor_coef Fsqd
_refine_ls_weighting_details     w=1/(\s^2^(I)+0.0004I^2^)
_refine_ls_weighting_scheme      sigma
_refine_ls_wR_factor_gt          0.0839
_refine_ls_wR_factor_ref         0.0924
_reflns_number_gt                2283
_reflns_number_total             3188
_reflns_threshold_expression     I>3\s(I)
_cod_data_source_file            c6dt03302d1.cif
_cod_data_source_block           I
_cod_depositor_comments
;
The following automatic conversions were performed:

'_diffrn_radiation_probe' value 'X-ray' changed to 'x-ray' according
to
/usr/data/users/saulius/crontab/automatic-downloads/rss-feeds/RSC/lib/dictionaries/cif_core.dic
dictionary named 'cif_core.dic' version 2.4.2 from 2011-04-26.

Automatic conversion script
Id: cif_fix_values 4268 2015-11-12 08:31:59Z antanas 

 Adding full bibliography for 7041002--7041005.cif.
;
_cod_original_sg_symbol_Hall     '-P 2ycb'
_cod_database_code               7041004
loop_
_space_group_symop_id
_space_group_symop_operation_xyz
1 x,y,z
2 -x,y+1/2,-z+1/2
3 -x,-y,-z
4 x,-y+1/2,z+1/2
loop_
_atom_site_label
_atom_site_type_symbol
_atom_site_fract_x
_atom_site_fract_y
_atom_site_fract_z
_atom_site_adp_type
_atom_site_U_iso_or_equiv
_atom_site_site_symmetry_multiplicity
_atom_site_occupancy
_atom_site_calc_flag
Pr1 Pr 0.00214(9) 0.61890(6) 0.34144(6) Uani 0.0102(2) 4 1 d
Pr2 Pr 0.00213(9) 0.39885(6) 0.10105(6) Uani 0.0088(2) 4 1 d
Pr3 Pr 0.00023(9) 0.34028(6) 0.38051(6) Uani 0.0104(2) 4 1 d
Pr4 Pr 0.64485(8) 0.49790(7) 0.16284(6) Uani 0.0082(2) 4 1 d
Pr5 Pr 0.36195(9) 0.24672(6) 0.09173(6) Uani 0.0088(3) 4 1 d
Pr6 Pr 0.63737(9) 0.25194(6) 0.41116(6) Uani 0.0089(3) 4 1 d
Pr7 Pr 0.36739(8) 0.49843(7) 0.34545(7) Uani 0.0093(2) 4 1 d
Ge1 Ge 0.25103(15) -0.00013(12) 0.06261(12) Uani 0.0093(4) 4 1 d
Ge2 Ge 0.29821(15) 0.50068(12) 0.07541(12) Uani 0.0092(4) 4 1 d
Ge3 Ge 0.72337(18) 0.25033(11) 0.17950(13) Uani 0.0096(5) 4 1 d
Ge4 Ge 0.27465(18) 0.25223(11) 0.31589(13) Uani 0.0095(5) 4 1 d
Co1 Co 0.1366(2) 0.62021(15) 0.15668(16) Uani 0.0129(6) 4 1 d
Co2 Co 0.1348(2) 0.12231(16) 0.41313(16) Uani 0.0131(6) 4 1 d
loop_
_atom_site_aniso_label
_atom_site_aniso_type_symbol
_atom_site_aniso_U_11
_atom_site_aniso_U_22
_atom_site_aniso_U_33
_atom_site_aniso_U_12
_atom_site_aniso_U_13
_atom_site_aniso_U_23
Pr1 Pr 0.0091(4) 0.0116(4) 0.0102(4) -0.0001(3) 0.0035(3) 0.0004(3)
Pr2 Pr 0.0084(3) 0.0095(4) 0.0089(4) -0.0001(3) 0.0033(3) 0.0002(3)
Pr3 Pr 0.0091(3) 0.0112(4) 0.0110(4) 0.0001(3) 0.0036(3) -0.0001(3)
Pr4 Pr 0.0070(3) 0.0091(4) 0.0085(4) 0.0002(3) 0.0025(3) 0.0005(3)
Pr5 Pr 0.0076(4) 0.0102(4) 0.0086(4) -0.0004(3) 0.0026(3) 0.0003(3)
Pr6 Pr 0.0080(4) 0.0097(4) 0.0087(4) -0.0006(3) 0.0025(3) 0.0001(3)
Pr7 Pr 0.0087(3) 0.0102(4) 0.0091(4) -0.0001(3) 0.0030(3) 0.0005(3)
Ge1 Ge 0.0098(7) 0.0098(7) 0.0082(7) -0.0002(6) 0.0030(5) 0.0001(5)
Ge2 Ge 0.0073(6) 0.0104(7) 0.0099(7) 0.0004(6) 0.0032(5) -0.0005(5)
Ge3 Ge 0.0091(8) 0.0107(8) 0.0084(7) 0.0016(5) 0.0022(6) 0.0003(5)
Ge4 Ge 0.0097(8) 0.0103(8) 0.0094(7) -0.0013(5) 0.0044(6) -0.0005(5)
Co1 Co 0.0145(10) 0.0127(10) 0.0122(9) -0.0009(8) 0.0054(8) -0.0026(8)
Co2 Co 0.0154(10) 0.0131(10) 0.0112(9) 0.0008(8) 0.0050(8) 0.0026(8)
loop_
_atom_type_symbol
_atom_type_scat_dispersion_real
_atom_type_scat_dispersion_imag
_atom_type_scat_source
Co 0.3494 0.9721 'International Tables Vol C tables 4.2.6.8 and 6.1.1.1'
Ge 0.1547 1.8001 'International Tables Vol C tables 4.2.6.8 and 6.1.1.1'
Pr -0.2180 2.8214 'International Tables Vol C tables 4.2.6.8 and 6.1.1.1'
loop_
_geom_bond_atom_site_label_1
_geom_bond_atom_site_label_2
_geom_bond_site_symmetry_2
_geom_bond_distance
Pr1 Pr2 2_555 3.4997(11)
Pr1 Pr3 . 3.4433(11)
Pr1 Pr3 3_566 3.4468(12)
Pr1 Pr4 1_455 3.6118(10)
Pr1 Pr7 . 3.6671(12)
Pr1 Ge3 2_655 3.0845(18)
Pr1 Ge4 2_555 3.1014(15)
Pr1 Co1 . 2.921(2)
Pr1 Co2 2_555 2.9458(19)
Pr2 Pr2 3_565 3.4902(11)
Pr2 Pr3 . 3.5004(12)
Pr2 Pr4 1_455 3.8209(12)
Pr2 Ge2 . 3.1151(18)
Pr2 Ge2 3_565 3.1419(14)
Pr2 Co1 . 2.963(2)
Pr2 Co1 3_565 2.9913(19)
Pr2 Co2 2_555 2.993(2)
Pr2 Co2 4_554 2.957(2)
Pr3 Pr5 4_555 3.6349(10)
Pr3 Pr6 1_455 3.6583(12)
Pr3 Ge3 1_455 3.0988(15)
Pr3 Ge4 . 3.0904(19)
Pr3 Co1 2_545 2.945(2)
Pr3 Co2 . 2.913(2)
Pr4 Ge1 2_655 3.1715(17)
Pr4 Ge2 . 3.0185(15)
Pr4 Ge2 3_665 3.1312(19)
Pr4 Ge3 . 3.1055(16)
Pr4 Ge4 2_655 3.1898(16)
Pr4 Co2 2_655 2.931(2)
Pr5 Ge1 . 3.1709(17)
Pr5 Ge2 . 3.1565(17)
Pr5 Ge3 . 3.1475(17)
Pr5 Ge4 . 3.108(2)
Pr5 Co2 4_554 2.9472(18)
Pr6 Ge1 2_655 3.1854(17)
Pr6 Ge2 2_645 3.1252(17)
Pr6 Ge3 . 3.190(2)
Pr6 Ge3 4_555 3.1106(17)
Pr6 Ge4 . 3.1587(17)
Pr6 Co1 2_645 2.967(2)
Pr7 Pr7 3_666 3.7585(11)
Pr7 Ge1 4_555 3.1824(19)
Pr7 Ge2 . 3.1499(17)
Pr7 Ge3 2_655 3.1818(16)
Pr7 Ge4 . 3.1196(16)
Pr7 Co1 . 2.9688(18)
Ge2 Co1 . 2.520(3)
Ge2 Co2 4_554 2.547(2)
Ge3 Co1 2_645 2.549(2)
Ge4 Co2 . 2.576(3)
Co1 Co2 2_555 2.363(3)
loop_
_twin_individual_id
_twin_individual_mass_fraction_refined
_twin_individual_twin_matrix_11
_twin_individual_twin_matrix_12
_twin_individual_twin_matrix_13
_twin_individual_twin_matrix_21
_twin_individual_twin_matrix_22
_twin_individual_twin_matrix_23
_twin_individual_twin_matrix_31
_twin_individual_twin_matrix_32
_twin_individual_twin_matrix_33
1 0.928(4) 1 0 0 0 1 0 0 0 1
2 0.072(4) -1 0 0 0 -1 0 -0.5 0 1
loop_
_twin_refln_datum_id
_twin_refln_individual_id
_twin_refln_index_h
_twin_refln_index_k
_twin_refln_index_l
_twin_refln_f_squared_calc
_twin_refln_f_squared_meas
_twin_refln_f_squared_sigma
_twin_refln_include_status
1 2 -2 0 0 1385. 1584. 170. o
1 1 2 0 0 1385. 1584. 170. o
2 2 -3 0 0 1642440. 1672360. 18162. o
2 1 3 0 0 1642440. 1672360. 18162. o
3 2 -4 0 0 43. 2216. 260. o
3 1 4 0 0 43. 2216. 260. o
4 2 -5 0 0 185355. 181906. 2915. o
4 1 5 0 0 185355. 181906. 2915. o
5 2 -6 0 0 358372. 338219. 4806. o
5 1 6 0 0 358372. 338219. 4806. o
6 2 -7 0 0 26919. 26823. 1620. o
6 1 7 0 0 26919. 26823. 1620. o
7 2 -8 0 0 676241. 657259. 12167. o
7 1 8 0 0 676241. 657259. 12167. o
8 2 -9 0 0 31389. 31413. 1718. o
8 1 9 0 0 31389. 31413. 1718. o
9 2 -10 0 0 707. 1094. 405. <
9 1 10 0 0 707. 1094. 405. <
10 2 -11 0 0 348744. 344610. 10887. o
10 1 11 0 0 348744. 344610. 10887. o
11 2 -1 -1 0 0. 130. 36. o
11 1 1 1 0 0. 130. 36. o
12 2 -2 -1 0 25. 352. 69. o
12 1 2 1 0 25. 352. 69. o
13 2 -3 -1 0 2. 201. 95. <
13 1 3 1 0 2. 201. 95. <
14 2 -4 -1 0 0. 161. 117. <
14 1 4 1 0 0. 161. 117. <
15 2 -5 -1 0 13. 120. 120. <
15 1 5 1 0 13. 120. 120. <
16 2 -6 -1 0 2. 261. 130. <
16 1 6 1 0 2. 261. 130. <
17 2 -7 -1 0 22. 273. 199. <
17 1 7 1 0 22. 273. 199. <
18 2 -8 -1 0 49. 547. 223. <
18 1 8 1 0 49. 547. 223. <
19 2 -9 -1 0 38. 43. 199. <
19 1 9 1 0 38. 43. 199. <
20 2 -10 -1 0 14. 157. 209. <
20 1 10 1 0 14. 157. 209. <
21 2 -11 -1 0 43. 169. 378. <
21 1 11 1 0 43. 169. 378. <
22 2 0 -2 0 1. 839. 88. o
22 1 0 2 0 1. 839. 88. o
23 2 -1 -2 0 0. 2397. 120. o
23 1 1 2 0 0. 2397. 120. o
24 2 -2 -2 0 70. 843. 84. o
24 1 2 2 0 70. 843. 84. o
25 2 -3 -2 0 687. 872. 119. o
25 1 3 2 0 687. 872. 119. o
26 2 -4 -2 0 983. 978. 158. o
26 1 4 2 0 983. 978. 158. o
27 2 -5 -2 0 130. 211. 137. <
27 1 5 2 0 130. 211. 137. <
28 2 -6 -2 0 944. 1097. 187. o
28 1 6 2 0 944. 1097. 187. o
29 2 -7 -2 0 2977. 3061. 331. o
29 1 7 2 0 2977. 3061. 331. o
30 2 -8 -2 0 1508. 1676. 300. o
30 1 8 2 0 1508. 1676. 300. o
31 2 -9 -2 0 7541. 7402. 709. o
31 1 9 2 0 7541. 7402. 709. o
32 2 -10 -2 0 34. -40. 307. <
32 1 10 2 0 34. -40. 307. <
33 2 -11 -2 0 10945. 10134. 1180. o
33 1 11 2 0 10945. 10134. 1180. o
34 2 -1 -3 0 36. 225. 69. o
34 1 1 3 0 36. 225. 69. o
35 2 -2 -3 0 3. 91. 102. <
35 1 2 3 0 3. 91. 102. <
36 2 -3 -3 0 47. 340. 128. <
36 1 3 3 0 47. 340. 128. <
37 2 -4 -3 0 6. 24. 93. <
37 1 4 3 0 6. 24. 93. <
38 2 -5 -3 0 24. 49. 166. <
38 1 5 3 0 24. 49. 166. <
39 2 -6 -3 0 1. -11. 170. <
39 1 6 3 0 1. -11. 170. <
40 2 -7 -3 0 2. 30. 186. <
40 1 7 3 0 2. 30. 186. <
41 2 -8 -3 0 41. -13. 226. <
41 1 8 3 0 41. -13. 226. <
42 2 -9 -3 0 44. 200. 279. <
42 1 9 3 0 44. 200. 279. <
43 2 -10 -3 0 1. 126. 315. <
43 1 10 3 0 1. 126. 315. <
44 2 -11 -3 0 262. 142. 383. <
44 1 11 3 0 262. 142. 383. <
45 2 0 -4 0 302949. 307958. 3421. o
45 1 0 4 0 302949. 307958. 3421. o
46 2 -1 -4 0 1318050. 1313420. 10674. o
46 1 1 4 0 1318050. 1313420. 10674. o
47 2 -2 -4 0 852732. 839709. 8254. o
47 1 2 4 0 852732. 839709. 8254. o
48 2 -3 -4 0 209691. 207567. 2348. o
48 1 3 4 0 209691. 207567. 2348. o
49 2 -4 -4 0 366115. 356020. 3677. o
49 1 4 4 0 366115. 356020. 3677. o
50 2 -5 -4 0 84449. 82512. 1448. o
50 1 5 4 0 84449. 82512. 1448. o
51 2 -6 -4 0 60866. 59855. 1737. o
51 1 6 4 0 60866. 59855. 1737. o
52 2 -7 -4 0 457519. 450688. 6424. o
52 1 7 4 0 457519. 450688. 6424. o
53 2 -8 -4 0 2534. 2839. 615. o
53 1 8 4 0 2534. 2839. 615. o
54 2 -9 -4 0 149516. 158408. 4681. o
54 1 9 4 0 149516. 158408. 4681. o
55 2 -10 -4 0 186759. 188659. 5418. o
55 1 10 4 0 186759. 188659. 5418. o
56 2 -11 -4 0 54374. 51560. 5251. o
56 1 11 4 0 54374. 51560. 5251. o
57 2 -1 -5 0 52. 291. 87. o
57 1 1 5 0 52. 291. 87. o
58 2 -2 -5 0 27. 27. 101. <
58 1 2 5 0 27. 27. 101. <
59 2 -3 -5 0 3. 1. 183. <
59 1 3 5 0 3. 1. 183. <
60 2 -4 -5 0 12. 18. 152. <
60 1 4 5 0 12. 18. 152. <
61 2 -5 -5 0 125. 344. 165. <
61 1 5 5 0 125. 344. 165. <
62 2 -6 -5 0 87. 229. 261. <
62 1 6 5 0 87. 229. 261. <
63 2 -7 -5 0 1. -129. 365. <
63 1 7 5 0 1. -129. 365. <
64 2 -8 -5 0 10. 27. 364. <
64 1 8 5 0 10. 27. 364. <
65 2 -9 -5 0 66. -107. 407. <
65 1 9 5 0 66. -107. 407. <
66 2 -10 -5 0 17. -128. 451. <
66 1 10 5 0 17. -128. 451. <
67 2 0 -6 0 756. 1224. 175. o
67 1 0 6 0 756. 1224. 175. o
68 2 -1 -6 0 391. 605. 141. o
68 1 1 6 0 391. 605. 141. o
69 2 -2 -6 0 14. 36. 122. <
69 1 2 6 0 14. 36. 122. <
70 2 -3 -6 0 0. 4. 149. <
70 1 3 6 0 0. 4. 149. <
71 2 -4 -6 0 28. 405. 233. <
71 1 4 6 0 28. 405. 233. <
72 2 -5 -6 0 332. 505. 303. <
72 1 5 6 0 332. 505. 303. <
73 2 -6 -6 0 364. 358. 342. <
73 1 6 6 0 364. 358. 342. <
74 2 -7 -6 0 4016. 3973. 563. o
74 1 7 6 0 4016. 3973. 563. o
75 2 -8 -6 0 2059. 2518. 535. o
75 1 8 6 0 2059. 2518. 535. o
76 2 -9 -6 0 5560. 6581. 957. o
76 1 9 6 0 5560. 6581. 957. o
77 2 -10 -6 0 0. -800. 416. <
77 1 10 6 0 0. -800. 416. <
78 2 -1 -7 0 5. 137. 130. <
78 1 1 7 0 5. 137. 130. <
79 2 -2 -7 0 21. -18. 113. <
79 1 2 7 0 21. -18. 113. <
80 2 -3 -7 0 30. 35. 151. <
80 1 3 7 0 30. 35. 151. <
81 2 -4 -7 0 82. 419. 216. <
81 1 4 7 0 82. 419. 216. <
82 2 -5 -7 0 8. 332. 333. <
82 1 5 7 0 8. 332. 333. <
83 2 -6 -7 0 1. -328. 302. <
83 1 6 7 0 1. -328. 302. <
84 2 -7 -7 0 6. 397. 319. <
84 1 7 7 0 6. 397. 319. <
85 2 -8 -7 0 148. 205. 310. <
85 1 8 7 0 148. 205. 310. <
86 2 -9 -7 0 16. 7. 443. <
86 1 9 7 0 16. 7. 443. <
87 2 0 -8 0 1394100. 1300910. 14634. o
87 1 0 8 0 1394100. 1300910. 14634. o
88 2 -1 -8 0 31392. 31345. 881. o
88 1 1 8 0 31392. 31345. 881. o
89 2 -2 -8 0 53207. 53646. 1149. o
89 1 2 8 0 53207. 53646. 1149. o
90 2 -3 -8 0 420207. 407064. 5015. o
90 1 3 8 0 420207. 407064. 5015. o
91 2 -4 -8 0 52845. 51966. 1505. o
91 1 4 8 0 52845. 51966. 1505. o
92 2 -5 -8 0 12117. 13796. 897. o
92 1 5 8 0 12117. 13796. 897. o
93 2 -6 -8 0 67087. 66722. 2117. o
93 1 6 8 0 67087. 66722. 2117. o
94 2 -7 -8 0 5176. 4560. 595. o
94 1 7 8 0 5176. 4560. 595. o
95 2 -8 -8 0 234893. 236843. 4862. o
95 1 8 8 0 234893. 236843. 4862. o
96 2 -9 -8 0 68. 415. 375. <
96 1 9 8 0 68. 415. 375. <
97 2 -1 -9 0 36. 195. 139. <
97 1 1 9 0 36. 195. 139. <
98 2 -2 -9 0 132. 270. 173. <
98 1 2 9 0 132. 270. 173. <
99 2 -3 -9 0 5. 193. 190. <
99 1 3 9 0 5. 193. 190. <
100 2 -4 -9 0 229. 340. 237. <
100 1 4 9 0 229. 340. 237. <
101 2 -5 -9 0 5. 564. 347. <
101 1 5 9 0 5. 564. 347. <
102 2 -6 -9 0 79. -84. 390. <
102 1 6 9 0 79. -84. 390. <
103 2 -7 -9 0 227. -419. 403. <
103 1 7 9 0 227. -419. 403. <
104 2 -8 -9 0 28. -183. 376. <
104 1 8 9 0 28. -183. 376. <
105 2 0 -10 0 9548. 9380. 725. o
105 1 0 10 0 9548. 9380. 725. o
106 2 -1 -10 0 7259. 7327. 531. o
106 1 1 10 0 7259. 7327. 531. o
107 2 -2 -10 0 4259. 4656. 519. o
107 1 2 10 0 4259. 4656. 519. o
108 2 -3 -10 0 1983. 1654. 326. o
108 1 3 10 0 1983. 1654. 326. o
109 2 -4 -10 0 1065. 1259. 312. o
109 1 4 10 0 1065. 1259. 312. o
110 2 -5 -10 0 4359. 5737. 733. o
110 1 5 10 0 4359. 5737. 733. o
111 2 -6 -10 0 7400. 8179. 926. o
111 1 6 10 0 7400. 8179. 926. o
112 2 -7 -10 0 796. 1166. 428. <
112 1 7 10 0 796. 1166. 428. <
113 2 -8 -10 0 1192. 1784. 533. o
113 1 8 10 0 1192. 1784. 533. o
114 2 -1 -11 0 80. 242. 186. <
114 1 1 11 0 80. 242. 186. <
115 2 -2 -11 0 8. -129. 197. <
115 1 2 11 0 8. -129. 197. <
116 2 -3 -11 0 13. 181. 210. <
116 1 3 11 0 13. 181. 210. <
117 2 -4 -11 0 33. 191. 247. <
117 1 4 11 0 33. 191. 247. <
118 2 -5 -11 0 12. 493. 395. <
118 1 5 11 0 12. 493. 395. <
119 2 -6 -11 0 1. 104. 348. <
119 1 6 11 0 1. 104. 348. <
120 2 -7 -11 0 114. 1534. 497. o
120 1 7 11 0 114. 1534. 497. o
121 2 -8 -11 0 4. 1114. 952. <
121 1 8 11 0 4. 1114. 952. <
122 2 0 -12 0 341603. 329044. 9111. o
122 1 0 12 0 341603. 329044. 9111. o
123 2 -1 -12 0 110284. 113801. 2900. o
123 1 1 12 0 110284. 113801. 2900. o
124 2 -2 -12 0 55116. 57837. 2006. o
124 1 2 12 0 55116. 57837. 2006. o
125 2 -3 -12 0 260106. 262781. 5067. o
125 1 3 12 0 260106. 262781. 5067. o
126 2 -4 -12 0 17613. 15534. 1277. o
126 1 4 12 0 17613. 15534. 1277. o
127 2 -5 -12 0 3911. 4149. 729. o
127 1 5 12 0 3911. 4149. 729. o
128 2 -6 -12 0 6387. 6440. 893. o
128 1 6 12 0 6387. 6440. 893. o
129 2 -7 -12 0 55705. 52290. 3192. o
129 1 7 12 0 55705. 52290. 3192. o
130 2 -8 -12 0 54332. 49709. 5337. o
130 1 8 12 0 54332. 49709. 5337. o
131 2 -1 -13 0 151. 378. 290. <
131 1 1 13 0 151. 378. 290. <
132 2 -2 -13 0 70. 138. 262. <
132 1 2 13 0 70. 138. 262. <
133 2 -3 -13 0 2. -283. 256. <
133 1 3 13 0 2. -283. 256. <
134 2 -4 -13 0 5. 255. 381. <
134 1 4 13 0 5. 255. 381. <
135 2 -5 -13 0 375. 29. 359. <
135 1 5 13 0 375. 29. 359. <
136 2 -6 -13 0 123. 399. 556. <
136 1 6 13 0 123. 399. 556. <
137 2 0 -14 0 16984. 15516. 1770. o
137 1 0 14 0 16984. 15516. 1770. o
138 2 -1 -14 0 16760. 17653. 1367. o
138 1 1 14 0 16760. 17653. 1367. o
139 2 -2 -14 0 12408. 14550. 1440. o
139 1 2 14 0 12408. 14550. 1440. o
140 2 -3 -14 0 8912. 11171. 1106. o
140 1 3 14 0 8912. 11171. 1106. o
141 2 -4 -14 0 9456. 9201. 1246. o
141 1 4 14 0 9456. 9201. 1246. o
142 2 -5 -14 0 6967. 5982. 1323. o
142 1 5 14 0 6967. 5982. 1323. o
143 2 -6 -14 0 7075. 10846. 2755. o
143 1 6 14 0 7075. 10846. 2755. o
144 2 -1 -15 0 1. -152. 337. <
144 1 1 15 0 1. -152. 337. <
145 2 -2 -15 0 32. 248. 362. <
145 1 2 15 0 32. 248. 362. <
146 2 -3 -15 0 73. -807. 556. <
146 1 3 15 0 73. -807. 556. <
147 2 -5 -15 0 13. -1303. 974. <
147 1 5 15 0 13. -1303. 974. <
148 2 -2 -16 0 63052. 61050. 5469. o
148 1 2 16 0 63052. 61050. 5469. o
149 1 -11 1 1 2330. 2177. 489. o
150 1 -10 1 1 68. 481. 305. <
151 1 -9 1 1 155. 400. 225. <
152 1 -8 1 1 237. 547. 249. <
153 1 -7 1 1 6234. 6225. 444. o
154 1 -6 1 1 10509. 10122. 481. o
155 1 -5 1 1 27351. 27532. 683. o
156 1 -4 1 1 18113. 18959. 471. o
157 1 -3 1 1 710. 2739. 166. o
158 1 -2 1 1 924. 1803. 120. o
159 1 -1 1 1 1193. 1707. 95. o
160 1 0 1 1 2683. 1393. 85. o
161 1 1 1 1 97. 2115. 105. o
162 1 2 1 1 1332. 2354. 159. o
163 1 3 1 1 5955. 6455. 316. o
164 1 4 1 1 15822. 16392. 563. o
165 1 5 1 1 20476. 20318. 686. o
166 1 6 1 1 14633. 14476. 780. o
167 1 7 1 1 5651. 5956. 508. o
168 1 8 1 1 32912. 31129. 1370. o
169 1 9 1 1 1663. 1768. 358. o
170 1 10 1 1 2569. 2076. 517. o
171 1 11 1 1 22410. 21741. 2445. o
172 1 -11 2 1 2387. 1759. 502. o
173 1 -10 2 1 857. 709. 345. <
174 1 -9 2 1 35. 225. 200. <
175 1 -8 2 1 619. 607. 228. <
176 1 -7 2 1 861. 882. 212. o
177 1 -6 2 1 573. 955. 225. o
178 1 -5 2 1 8160. 8473. 406. o
179 1 -4 2 1 21907. 21925. 563. o
180 1 -3 2 1 19439. 20411. 437. o
181 1 -2 2 1 1567. 1683. 113. o
182 1 -1 2 1 1108. 1459. 108. o
183 1 0 2 1 2391. 2906. 101. o
184 1 1 2 1 1. 209. 65. o
185 1 2 2 1 14060. 14873. 322. o
186 1 3 2 1 30668. 29840. 620. o
187 1 4 2 1 21802. 21339. 743. o
188 1 5 2 1 7677. 6911. 465. o
189 1 6 2 1 144. 248. 236. <
190 1 7 2 1 99. 453. 271. <
191 1 8 2 1 300. 299. 233. <
192 1 9 2 1 1992. 2612. 479. o
193 1 10 2 1 5663. 5864. 865. o
194 1 11 2 1 6213. 6976. 1355. o
195 1 -11 3 1 24775. 26921. 2220. o
196 1 -10 3 1 6939. 6608. 739. o
197 1 -9 3 1 1085. 961. 316. o
198 1 -8 3 1 111. 239. 186. <
199 1 -7 3 1 4882. 4997. 418. o
200 1 -6 3 1 39650. 39962. 1102. o
201 1 -5 3 1 1189. 1199. 152. o
202 1 -4 3 1 18563. 19056. 478. o
203 1 -3 3 1 99788. 110316. 1479. o
204 1 -2 3 1 11895. 12653. 479. o
205 1 -1 3 1 3201. 3749. 167. o
206 1 0 3 1 6218. 6951. 194. o
207 1 1 3 1 8159. 9296. 246. o
208 1 2 3 1 43411. 45736. 729. o
209 1 3 3 1 58779. 59928. 867. o
210 1 4 3 1 19700. 19533. 809. o
211 1 5 3 1 3113. 3090. 314. o
212 1 6 3 1 37062. 36982. 1202. o
213 1 7 3 1 11444. 11394. 708. o
214 1 8 3 1 8769. 10210. 801. o
215 1 9 3 1 19922. 19824. 1534. o
216 1 10 3 1 33933. 33932. 2148. o
217 1 -11 4 1 488. 310. 507. <
218 1 -10 4 1 1326. 1653. 559. <
219 1 -9 4 1 1178. 1302. 440. <
220 1 -8 4 1 1630. 1379. 411. o
221 1 -7 4 1 3765. 3921. 413. o
222 1 -6 4 1 1427. 1326. 197. o
223 1 -5 4 1 2067. 2060. 209. o
224 1 -4 4 1 3989. 3932. 277. o
225 1 -3 4 1 1054. 1130. 150. o
226 1 -2 4 1 3352. 3155. 265. o
227 1 -1 4 1 5713. 5692. 226. o
228 1 0 4 1 3479. 3995. 183. o
229 1 1 4 1 5785. 6011. 242. o
230 1 2 4 1 1896. 2336. 164. o
231 1 3 4 1 929. 989. 130. o
232 1 4 4 1 2722. 2831. 255. o
233 1 5 4 1 467. 501. 190. <
234 1 6 4 1 817. 830. 252. o
235 1 7 4 1 2481. 2474. 418. o
236 1 8 4 1 523. 765. 377. <
237 1 9 4 1 395. 729. 395. <
238 1 10 4 1 450. 881. 491. <
239 1 -10 5 1 574. 1095. 485. <
240 1 -9 5 1 13198. 13544. 1300. o
241 1 -8 5 1 29818. 30241. 1565. o
242 1 -7 5 1 6129. 5758. 647. o
243 1 -6 5 1 497. 321. 199. <
244 1 -5 5 1 19814. 18724. 706. o
245 1 -4 5 1 1994. 2021. 315. o
246 1 -3 5 1 360. 667. 215. o
247 1 -2 5 1 12224. 12669. 564. o
248 1 -1 5 1 34654. 34425. 710. o
249 1 0 5 1 49856. 50971. 772. o
250 1 1 5 1 14392. 15359. 404. o
251 1 2 5 1 1677. 1949. 169. o
252 1 3 5 1 121. 440. 94. o
253 1 4 5 1 717. 801. 160. o
254 1 5 5 1 24321. 23704. 1031. o
255 1 6 5 1 637. 909. 271. o
256 1 7 5 1 912. 1369. 352. o
257 1 8 5 1 63065. 64437. 2824. o
258 1 9 5 1 1321. 1072. 481. <
259 1 10 5 1 6404. 7069. 1028. o
260 1 -10 6 1 3. 492. 421. <
261 1 -9 6 1 3188. 3691. 723. o
262 1 -8 6 1 7371. 7444. 818. o
263 1 -7 6 1 5899. 5594. 682. o
264 1 -6 6 1 3760. 3322. 520. o
265 1 -5 6 1 127. 138. 247. <
266 1 -4 6 1 947. 1055. 304. o
267 1 -3 6 1 12. 145. 192. <
268 1 -2 6 1 636. 816. 165. o
269 1 -1 6 1 17673. 17232. 484. o
270 1 0 6 1 25611. 24740. 589. o
271 1 1 6 1 3301. 3419. 224. o
272 1 2 6 1 212. 347. 115. o
273 1 3 6 1 1609. 1430. 182. o
274 1 4 6 1 2875. 3292. 350. o
275 1 5 6 1 484. 888. 273. o
276 1 6 6 1 2269. 1686. 375. o
277 1 7 6 1 4633. 4340. 634. o
278 1 8 6 1 4159. 5254. 849. o
279 1 9 6 1 10. -143. 327. <
280 1 -10 7 1 7815. 5677. 1375. o
281 1 -9 7 1 8430. 8454. 1066. o
282 1 -8 7 1 11117. 10963. 1033. o
283 1 -7 7 1 4679. 4638. 644. o
284 1 -6 7 1 17. 32. 362. <
285 1 -5 7 1 59153. 55278. 2081. o
286 1 -4 7 1 54962. 53559. 1947. o
287 1 -3 7 1 2861. 3152. 304. o
288 1 -2 7 1 32995. 32901. 825. o
289 1 -1 7 1 19253. 18155. 534. o
290 1 0 7 1 5679. 5336. 306. o
291 1 1 7 1 24120. 24348. 664. o
292 1 2 7 1 16685. 16655. 535. o
293 1 3 7 1 21556. 21621. 802. o
294 1 4 7 1 48609. 50334. 1421. o
295 1 5 7 1 33758. 33710. 1369. o
296 1 6 7 1 54. 587. 305. <
297 1 7 7 1 1869. 1596. 357. o
298 1 8 7 1 39637. 38058. 1960. o
299 1 9 7 1 1864. 2230. 541. o
300 1 10 7 1 271. 507. 687. <
301 1 -9 8 1 2018. 2000. 542. o
302 1 -8 8 1 2974. 3150. 630. o
303 1 -7 8 1 1078. 1938. 501. o
304 1 -6 8 1 5324. 5265. 663. o
305 1 -5 8 1 2433. 2352. 373. o
306 1 -4 8 1 131. 59. 212. <
307 1 -3 8 1 4149. 3985. 372. o
308 1 -2 8 1 2255. 2251. 287. o
309 1 -1 8 1 2336. 2609. 240. o
310 1 0 8 1 7003. 6675. 369. o
311 1 1 8 1 1651. 1757. 200. o
312 1 2 8 1 2918. 2710. 228. o
313 1 3 8 1 1674. 1529. 245. o
314 1 4 8 1 67. 378. 286. <
315 1 5 8 1 2101. 2324. 435. o
316 1 6 8 1 1980. 1835. 423. o
317 1 7 8 1 97. 141. 298. <
318 1 8 8 1 1757. 1948. 456. o
319 1 9 8 1 598. 1294. 460. <
320 1 -9 9 1 4684. 4277. 859. o
321 1 -8 9 1 5830. 6880. 852. o
322 1 -7 9 1 30232. 30504. 1744. o
323 1 -6 9 1 22743. 22842. 1431. o
324 1 -5 9 1 17. -140. 350. <
325 1 -4 9 1 2045. 2152. 368. o
326 1 -3 9 1 10373. 10257. 691. o
327 1 -2 9 1 18048. 17494. 933. o
328 1 -1 9 1 26842. 26734. 975. o
329 1 0 9 1 17279. 16446. 677. o
330 1 1 9 1 25985. 25806. 848. o
331 1 2 9 1 7936. 8765. 563. o
332 1 3 9 1 3304. 3381. 365. o
333 1 4 9 1 2606. 2239. 338. o
334 1 5 9 1 397. 112. 221. <
335 1 6 9 1 38287. 35060. 1902. o
336 1 7 9 1 27024. 28846. 1718. o
337 1 8 9 1 6289. 6263. 840. o
338 1 -8 10 1 15049. 15607. 1373. o
339 1 -7 10 1 22303. 24118. 1589. o
340 1 -6 10 1 11233. 13285. 1129. o
341 1 -5 10 1 9941. 10323. 1007. o
342 1 -4 10 1 4228. 3466. 492. o
343 1 -3 10 1 4296. 4424. 529. o
344 1 -2 10 1 29789. 29918. 1295. o
345 1 -1 10 1 29834. 28562. 1052. o
346 1 0 10 1 28392. 27505. 884. o
347 1 1 10 1 37782. 36101. 1207. o
348 1 2 10 1 8217. 7904. 661. o
349 1 3 10 1 3075. 2788. 408. o
350 1 4 10 1 6827. 7522. 712. o
351 1 5 10 1 5876. 7003. 840. o
352 1 6 10 1 18558. 20842. 1456. o
353 1 7 10 1 18094. 18703. 1444. o
354 1 8 10 1 7364. 8059. 979. o
355 1 -8 11 1 389. 1175. 590. <
356 1 -7 11 1 1559. 2302. 586. o
357 1 -6 11 1 25101. 29733. 1755. o
358 1 -5 11 1 198. 1017. 399. <
359 1 -4 11 1 2820. 2839. 465. o
360 1 -3 11 1 44759. 43831. 1721. o
361 1 -2 11 1 2500. 2305. 404. o
362 1 -1 11 1 1233. 1168. 277. o
363 1 0 11 1 7037. 6910. 551. o
364 1 1 11 1 993. 1131. 292. o
365 1 2 11 1 13355. 13566. 911. o
366 1 3 11 1 18216. 18138. 1097. o
367 1 4 11 1 2872. 3640. 490. o
368 1 5 11 1 2704. 2645. 553. o
369 1 6 11 1 14167. 13411. 1250. o
370 1 7 11 1 3548. 3278. 705. o
371 1 8 11 1 1906. 2516. 1167. <
372 1 -8 12 1 246. 562. 756. <
373 1 -7 12 1 2558. 2434. 610. o
374 1 -6 12 1 3. 265. 401. <
375 1 -5 12 1 72. 187. 245. <
376 1 -4 12 1 1207. 1132. 403. <
377 1 -3 12 1 598. 177. 246. <
378 1 -2 12 1 200. -91. 222. <
379 1 -1 12 1 1359. 1510. 360. o
380 1 0 12 1 67. 364. 329. <
381 1 1 12 1 1725. 1960. 403. o
382 1 2 12 1 27. -156. 197. <
383 1 3 12 1 407. 405. 239. <
384 1 4 12 1 669. 375. 332. <
385 1 5 12 1 611. 978. 436. <
386 1 6 12 1 44. 388. 342. <
387 1 7 12 1 1612. 1501. 806. <
388 1 -7 13 1 701. 808. 1087. <
389 1 -6 13 1 525. 1281. 495. <
390 1 -5 13 1 3781. 4549. 906. o
391 1 -4 13 1 3. -168. 394. <
392 1 -3 13 1 98. 611. 362. <
393 1 -2 13 1 972. 1138. 388. <
394 1 -1 13 1 6262. 7051. 845. o
395 1 0 13 1 15987. 17267. 1282. o
396 1 1 13 1 913. 1093. 370. <
397 1 2 13 1 489. 487. 309. <
398 1 3 13 1 27. 663. 282. <
399 1 4 13 1 143. 461. 306. <
400 1 5 13 1 11200. 12677. 1407. o
401 1 6 13 1 649. 304. 468. <
402 1 -6 14 1 19338. 20319. 2451. o
403 1 -5 14 1 8501. 8209. 2020. o
404 1 -4 14 1 10188. 11610. 1358. o
405 1 -3 14 1 18451. 19879. 2159. o
406 1 -2 14 1 12103. 12446. 1166. o
407 1 -1 14 1 34839. 34818. 1943. o
408 1 0 14 1 43326. 40651. 2079. o
409 1 1 14 1 15545. 15325. 1273. o
410 1 2 14 1 19026. 19074. 1655. o
411 1 3 14 1 11967. 12736. 1177. o
412 1 4 14 1 6383. 7986. 1179. o
413 1 5 14 1 18186. 15561. 2042. o
414 1 6 14 1 14662. 15741. 3249. o
415 1 -5 15 1 7850. 7178. 1953. o
416 1 -3 15 1 1974. 1350. 1169. <
417 1 -2 15 1 3842. 4429. 737. o
418 1 -1 15 1 1650. 1786. 455. o
419 1 0 15 1 375. 1151. 452. <
420 1 1 15 1 2435. 2568. 548. o
421 1 2 15 1 87. 654. 360. <
422 1 1 16 1 584. 323. 567. <
423 1 2 16 1 18. -882. 683. <
424 2 10 0 2 2764. 2831. 686. o
424 1 -11 0 2 2764. 2831. 686. o
425 2 9 0 2 1493. 1422. 428. o
425 1 -10 0 2 1493. 1422. 428. o
426 2 8 0 2 1844. 2459. 514. o
426 1 -9 0 2 1844. 2459. 514. o
427 2 7 0 2 2238. 2741. 561. o
427 1 -8 0 2 2238. 2741. 561. o
428 2 6 0 2 1248. 1190. 280. o
428 1 -7 0 2 1248. 1190. 280. o
429 2 5 0 2 2148. 2769. 401. o
429 1 -6 0 2 2148. 2769. 401. o
430 2 4 0 2 20. 302. 145. <
430 1 -5 0 2 20. 302. 145. <
431 2 3 0 2 3156. 3579. 315. o
431 1 -4 0 2 3156. 3579. 315. o
432 2 2 0 2 42. 345. 148. <
432 1 -3 0 2 42. 345. 148. <
433 2 1 0 2 14. 1009. 165. o
433 1 -2 0 2 14. 1009. 165. o
434 2 0 0 2 34. 4672. 238. o
434 1 -1 0 2 34. 4672. 238. o
435 2 -1 0 2 4. 3880. 159. o
435 1 0 0 2 4. 3880. 159. o
436 2 -2 0 2 24. 599. 129. o
436 1 1 0 2 24. 599. 129. o
437 2 -3 0 2 11. 49. 216. <
437 1 2 0 2 11. 49. 216. <
438 2 -4 0 2 1658. 2556. 307. o
438 1 3 0 2 1658. 2556. 307. o
439 2 -5 0 2 109. 452. 237. <
439 1 4 0 2 109. 452. 237. <
440 2 -6 0 2 2819. 2965. 457. o
440 1 5 0 2 2819. 2965. 457. o
441 2 -7 0 2 1097. 619. 407. <
441 1 6 0 2 1097. 619. 407. <
442 2 -8 0 2 3763. 3766. 871. o
442 1 7 0 2 3763. 3766. 871. o
443 2 -9 0 2 2062. 2390. 712. o
443 1 8 0 2 2062. 2390. 712. o
444 2 -10 0 2 1520. 38. 461. <
444 1 9 0 2 1520. 38. 461. <
445 2 -11 0 2 2522. 2639. 892. <
445 1 10 0 2 2522. 2639. 892. <
446 2 11 -1 2 2758. 2872. 735. o
446 1 -12 1 2 2758. 2872. 735. o
447 2 10 -1 2 3555. 2844. 480. o
447 1 -11 1 2 3555. 2844. 480. o
448 2 9 -1 2 1042. 1050. 267. o
448 1 -10 1 2 1042. 1050. 267. o
449 2 8 -1 2 91. -62. 231. <
449 1 -9 1 2 91. -62. 231. <
450 2 7 -1 2 774. 1073. 257. o
450 1 -8 1 2 774. 1073. 257. o
451 2 6 -1 2 384. 387. 179. <
451 1 -7 1 2 384. 387. 179. <
452 2 5 -1 2 3392. 4081. 313. o
452 1 -6 1 2 3392. 4081. 313. o
453 2 4 -1 2 14605. 14727. 495. o
453 1 -5 1 2 14605. 14727. 495. o
454 2 3 -1 2 26970. 26993. 628. o
454 1 -4 1 2 26970. 26993. 628. o
455 2 2 -1 2 17817. 17978. 396. o
455 1 -3 1 2 17817. 17978. 396. o
456 2 1 -1 2 341. 519. 86. o
456 1 -2 1 2 341. 519. 86. o
457 2 0 -1 2 2089. 2706. 129. o
457 1 -1 1 2 2089. 2706. 129. o
458 2 -1 -1 2 1809. 2125. 87. o
458 1 0 1 2 1809. 2125. 87. o
459 2 -2 -1 2 546. 582. 90. o
459 1 1 1 2 546. 582. 90. o
460 2 -3 -1 2 18238. 18566. 536. o
460 1 2 1 2 18238. 18566. 536. o
461 2 -4 -1 2 32257. 32639. 729. o
461 1 3 1 2 32257. 32639. 729. o
462 2 -5 -1 2 17115. 16122. 700. o
462 1 4 1 2 17115. 16122. 700. o
463 2 -6 -1 2 2401. 2832. 326. o
463 1 5 1 2 2401. 2832. 326. o
464 2 -7 -1 2 33. 310. 201. <
464 1 6 1 2 33. 310. 201. <
465 2 -8 -1 2 108. 131. 275. <
465 1 7 1 2 108. 131. 275. <
466 2 -9 -1 2 87. -62. 244. <
466 1 8 1 2 87. -62. 244. <
467 2 -10 -1 2 1885. 1947. 543. o
467 1 9 1 2 1885. 1947. 543. o
468 2 -11 -1 2 5069. 4488. 918. o
468 1 10 1 2 5069. 4488. 918. o
469 2 -12 -1 2 4194. 2600. 1186. <
469 1 11 1 2 4194. 2600. 1186. <
470 2 11 -2 2 17752. 15698. 1653. o
470 1 -12 2 2 17752. 15698. 1653. o
471 2 10 -2 2 677. 1077. 410. <
471 1 -11 2 2 677. 1077. 410. <
472 2 9 -2 2 75788. 83825. 2784. o
472 1 -10 2 2 75788. 83825. 2784. o
473 2 8 -2 2 204759. 209434. 3675. o
473 1 -9 2 2 204759. 209434. 3675. o
474 2 7 -2 2 78720. 81456. 1821. o
474 1 -8 2 2 78720. 81456. 1821. o
475 2 6 -2 2 137556. 135816. 2332. o
475 1 -7 2 2 137556. 135816. 2332. o
476 2 5 -2 2 695956. 675242. 6515. o
476 1 -6 2 2 695956. 675242. 6515. o
477 2 4 -2 2 220787. 215570. 2615. o
477 1 -5 2 2 220787. 215570. 2615. o
478 2 3 -2 2 177004. 174554. 2122. o
478 1 -4 2 2 177004. 174554. 2122. o
479 2 2 -2 2 588814. 598751. 4806. o
479 1 -3 2 2 588814. 598751. 4806. o
480 2 1 -2 2 172452. 180146. 1759. o
480 1 -2 2 2 172452. 180146. 1759. o
481 2 0 -2 2 2635. 3820. 168. o
481 1 -1 2 2 2635. 3820. 168. o
482 2 -1 -2 2 2190. 2780. 124. o
482 1 0 2 2 2190. 2780. 124. o
483 2 -2 -2 2 167144. 174700. 1555. o
483 1 1 2 2 167144. 174700. 1555. o
484 2 -3 -2 2 597395. 624357. 5498. o
484 1 2 2 2 597395. 624357. 5498. o
485 2 -4 -2 2 176703. 176253. 2394. o
485 1 3 2 2 176703. 176253. 2394. o
486 2 -5 -2 2 216044. 213396. 3271. o
486 1 4 2 2 216044. 213396. 3271. o
487 2 -6 -2 2 690831. 677504. 8206. o
487 1 5 2 2 690831. 677504. 8206. o
488 2 -7 -2 2 133521. 134403. 2774. o
488 1 6 2 2 133521. 134403. 2774. o
489 2 -8 -2 2 72500. 70796. 2037. o
489 1 7 2 2 72500. 70796. 2037. o
490 2 -9 -2 2 204283. 200894. 4438. o
490 1 8 2 2 204283. 200894. 4438. o
491 2 -10 -2 2 70903. 72863. 2980. o
491 1 9 2 2 70903. 72863. 2980. o
492 2 -11 -2 2 1160. 976. 467. <
492 1 10 2 2 1160. 976. 467. <
493 2 10 -3 2 23869. 22145. 1511. o
493 1 -11 3 2 23869. 22145. 1511. o
494 2 9 -3 2 21513. 22894. 1318. o
494 1 -10 3 2 21513. 22894. 1318. o
495 2 8 -3 2 12218. 12598. 1010. o
495 1 -9 3 2 12218. 12598. 1010. o
496 2 7 -3 2 11004. 10865. 643. o
496 1 -8 3 2 11004. 10865. 643. o
497 2 6 -3 2 17494. 17465. 751. o
497 1 -7 3 2 17494. 17465. 751. o
498 2 5 -3 2 39569. 38146. 898. o
498 1 -6 3 2 39569. 38146. 898. o
499 2 4 -3 2 94683. 93107. 1442. o
499 1 -5 3 2 94683. 93107. 1442. o
500 2 3 -3 2 126159. 123578. 1742. o
500 1 -4 3 2 126159. 123578. 1742. o
501 2 2 -3 2 106623. 106680. 1357. o
501 1 -3 3 2 106623. 106680. 1357. o
502 2 1 -3 2 66201. 67004. 965. o
502 1 -2 3 2 66201. 67004. 965. o
503 2 0 -3 2 26442. 26974. 546. o
503 1 -1 3 2 26442. 26974. 546. o
504 2 -1 -3 2 27417. 27866. 432. o
504 1 0 3 2 27417. 27866. 432. o
505 2 -2 -3 2 69368. 71112. 920. o
505 1 1 3 2 69368. 71112. 920. o
506 2 -3 -3 2 113973. 114444. 1317. o
506 1 2 3 2 113973. 114444. 1317. o
507 2 -4 -3 2 128663. 130428. 1696. o
507 1 3 3 2 128663. 130428. 1696. o
508 2 -5 -3 2 95770. 96191. 1810. o
508 1 4 3 2 95770. 96191. 1810. o
509 2 -6 -3 2 48094. 47239. 1627. o
509 1 5 3 2 48094. 47239. 1627. o
510 2 -7 -3 2 19910. 20512. 997. o
510 1 6 3 2 19910. 20512. 997. o
511 2 -8 -3 2 10832. 11126. 786. o
511 1 7 3 2 10832. 11126. 786. o
512 2 -9 -3 2 16958. 15485. 1106. o
512 1 8 3 2 16958. 15485. 1106. o
513 2 -10 -3 2 27386. 28006. 2235. o
513 1 9 3 2 27386. 28006. 2235. o
514 2 -11 -3 2 25559. 25253. 2236. o
514 1 10 3 2 25559. 25253. 2236. o
515 2 10 -4 2 779. 65. 405. <
515 1 -11 4 2 779. 65. 405. <
516 2 9 -4 2 2852. 2338. 533. o
516 1 -10 4 2 2852. 2338. 533. o
517 2 8 -4 2 2460. 2414. 554. o
517 1 -9 4 2 2460. 2414. 554. o
518 2 7 -4 2 1407. 1219. 340. o
518 1 -8 4 2 1407. 1219. 340. o
519 2 6 -4 2 457. 344. 225. <
519 1 -7 4 2 457. 344. 225. <
520 2 5 -4 2 4440. 4536. 368. o
520 1 -6 4 2 4440. 4536. 368. o
521 2 4 -4 2 1263. 1493. 212. o
521 1 -5 4 2 1263. 1493. 212. o
522 2 3 -4 2 43. 314. 145. <
522 1 -4 4 2 43. 314. 145. <
523 2 2 -4 2 974. 1108. 179. o
523 1 -3 4 2 974. 1108. 179. o
524 2 1 -4 2 786. 1004. 156. o
524 1 -2 4 2 786. 1004. 156. o
525 2 0 -4 2 124. 866. 146. o
525 1 -1 4 2 124. 866. 146. o
526 2 -1 -4 2 290. 921. 120. o
526 1 0 4 2 290. 921. 120. o
527 2 -2 -4 2 452. 1075. 127. o
527 1 1 4 2 452. 1075. 127. o
528 2 -3 -4 2 768. 718. 132. o
528 1 2 4 2 768. 718. 132. o
529 2 -4 -4 2 25. 322. 116. <
529 1 3 4 2 25. 322. 116. <
530 2 -5 -4 2 314. 292. 165. <
530 1 4 4 2 314. 292. 165. <
531 2 -6 -4 2 4533. 4241. 442. o
531 1 5 4 2 4533. 4241. 442. o
532 2 -7 -4 2 255. 338. 252. <
532 1 6 4 2 255. 338. 252. <
533 2 -8 -4 2 1879. 2563. 471. o
533 1 7 4 2 1879. 2563. 471. o
534 2 -9 -4 2 3081. 3222. 640. o
534 1 8 4 2 3081. 3222. 640. o
535 2 -10 -4 2 2359. 3016. 665. o
535 1 9 4 2 2359. 3016. 665. o
536 2 -11 -4 2 1452. 1108. 586. <
536 1 10 4 2 1452. 1108. 586. <
537 2 10 -5 2 141. 594. 506. <
537 1 -11 5 2 141. 594. 506. <
538 2 9 -5 2 477. -387. 409. <
538 1 -10 5 2 477. -387. 409. <
539 2 8 -5 2 5893. 6055. 855. o
539 1 -9 5 2 5893. 6055. 855. o
540 2 7 -5 2 9088. 9295. 865. o
540 1 -8 5 2 9088. 9295. 865. o
541 2 6 -5 2 7044. 7158. 726. o
541 1 -7 5 2 7044. 7158. 726. o
542 2 5 -5 2 4015. 4182. 372. o
542 1 -6 5 2 4015. 4182. 372. o
543 2 4 -5 2 2. 96. 107. <
543 1 -5 5 2 2. 96. 107. <
544 2 3 -5 2 300. 479. 219. <
544 1 -4 5 2 300. 479. 219. <
545 2 2 -5 2 774. 835. 200. o
545 1 -3 5 2 774. 835. 200. o
546 2 1 -5 2 7976. 7797. 369. o
546 1 -2 5 2 7976. 7797. 369. o
547 2 0 -5 2 28045. 27826. 718. o
547 1 -1 5 2 28045. 27826. 718. o
548 2 -1 -5 2 27626. 27784. 635. o
548 1 0 5 2 27626. 27784. 635. o
549 2 -2 -5 2 7151. 7442. 312. o
549 1 1 5 2 7151. 7442. 312. o
550 2 -3 -5 2 335. 606. 147. o
550 1 2 5 2 335. 606. 147. o
551 2 -4 -5 2 132. 4204. 383. o
551 1 3 5 2 132. 4204. 383. o
552 2 -5 -5 2 2. 243. 133. <
552 1 4 5 2 2. 243. 133. <
553 2 -6 -5 2 1903. 1786. 273. o
553 1 5 5 2 1903. 1786. 273. o
554 2 -7 -5 2 8509. 8173. 657. o
554 1 6 5 2 8509. 8173. 657. o
555 2 -8 -5 2 9207. 10380. 1084. o
555 1 7 5 2 9207. 10380. 1084. o
556 2 -9 -5 2 3336. 4003. 709. o
556 1 8 5 2 3336. 4003. 709. o
557 2 -10 -5 2 531. 1003. 496. <
557 1 9 5 2 531. 1003. 496. <
558 2 9 -6 2 53521. 55541. 2795. o
558 1 -10 6 2 53521. 55541. 2795. o
559 2 8 -6 2 182961. 187238. 5231. o
559 1 -9 6 2 182961. 187238. 5231. o
560 2 7 -6 2 51451. 54210. 2172. o
560 1 -8 6 2 51451. 54210. 2172. o
561 2 6 -6 2 95073. 90425. 2742. o
561 1 -7 6 2 95073. 90425. 2742. o
562 2 5 -6 2 544510. 519716. 7055. o
562 1 -6 6 2 544510. 519716. 7055. o
563 2 4 -6 2 148149. 143544. 3491. o
563 1 -5 6 2 148149. 143544. 3491. o
564 2 3 -6 2 109372. 108655. 2808. o
564 1 -4 6 2 109372. 108655. 2808. o
565 2 2 -6 2 421265. 406148. 5816. o
565 1 -3 6 2 421265. 406148. 5816. o
566 2 1 -6 2 94855. 93807. 1303. o
566 1 -2 6 2 94855. 93807. 1303. o
567 2 0 -6 2 3959. 5269. 299. o
567 1 -1 6 2 3959. 5269. 299. o
568 2 -1 -6 2 2694. 3975. 367. o
568 1 0 6 2 2694. 3975. 367. o
569 2 -2 -6 2 101929. 101851. 1368. o
569 1 1 6 2 101929. 101851. 1368. o
570 2 -3 -6 2 409570. 404762. 3999. o
570 1 2 6 2 409570. 404762. 3999. o
571 2 -4 -6 2 115228. 113488. 1724. o
571 1 3 6 2 115228. 113488. 1724. o
572 2 -5 -6 2 147183. 148242. 2156. o
572 1 4 6 2 147183. 148242. 2156. o
573 2 -6 -6 2 534385. 523223. 7188. o
573 1 5 6 2 534385. 523223. 7188. o
574 2 -7 -6 2 99531. 97988. 2568. o
574 1 6 6 2 99531. 97988. 2568. o
575 2 -8 -6 2 55994. 57087. 2037. o
575 1 7 6 2 55994. 57087. 2037. o
576 2 -9 -6 2 163759. 164869. 4341. o
576 1 8 6 2 163759. 164869. 4341. o
577 2 -10 -6 2 59433. 60121. 2638. o
577 1 9 6 2 59433. 60121. 2638. o
578 2 -11 -6 2 1068. 987. 1214. <
578 1 10 6 2 1068. 987. 1214. <
579 2 9 -7 2 41360. 41360. 2477. o
579 1 -10 7 2 41360. 41360. 2477. o
580 2 8 -7 2 35532. 35675. 2207. o
580 1 -9 7 2 35532. 35675. 2207. o
581 2 7 -7 2 29562. 28124. 1597. o
581 1 -8 7 2 29562. 28124. 1597. o
582 2 6 -7 2 43600. 41880. 1869. o
582 1 -7 7 2 43600. 41880. 1869. o
583 2 5 -7 2 82355. 78504. 2492. o
583 1 -6 7 2 82355. 78504. 2492. o
584 2 4 -7 2 129684. 127959. 3371. o
584 1 -5 7 2 129684. 127959. 3371. o
585 2 3 -7 2 174322. 169925. 3848. o
585 1 -4 7 2 174322. 169925. 3848. o
586 2 2 -7 2 157878. 149745. 2990. o
586 1 -3 7 2 157878. 149745. 2990. o
587 2 1 -7 2 99540. 97454. 1541. o
587 1 -2 7 2 99540. 97454. 1541. o
588 2 0 -7 2 74317. 71042. 1544. o
588 1 -1 7 2 74317. 71042. 1544. o
589 2 -1 -7 2 73624. 70317. 1385. o
589 1 0 7 2 73624. 70317. 1385. o
590 2 -2 -7 2 103206. 99844. 1579. o
590 1 1 7 2 103206. 99844. 1579. o
591 2 -3 -7 2 161973. 160921. 1946. o
591 1 2 7 2 161973. 160921. 1946. o
592 2 -4 -7 2 178281. 177224. 2260. o
592 1 3 7 2 178281. 177224. 2260. o
593 2 -5 -7 2 140250. 140617. 2334. o
593 1 4 7 2 140250. 140617. 2334. o
594 2 -6 -7 2 82401. 82828. 2271. o
594 1 5 7 2 82401. 82828. 2271. o
595 2 -7 -7 2 44690. 45641. 1735. o
595 1 6 7 2 44690. 45641. 1735. o
596 2 -8 -7 2 38704. 39646. 1725. o
596 1 7 7 2 38704. 39646. 1725. o
597 2 -9 -7 2 38261. 41606. 2097. o
597 1 8 7 2 38261. 41606. 2097. o
598 2 -10 -7 2 41012. 41249. 2223. o
598 1 9 7 2 41012. 41249. 2223. o
599 2 -11 -7 2 50281. 46608. 5211. o
599 1 10 7 2 50281. 46608. 5211. o
600 2 8 -8 2 50. -31. 415. <
600 1 -9 8 2 50. -31. 415. <
601 2 7 -8 2 3995. 4231. 692. o
601 1 -8 8 2 3995. 4231. 692. o
602 2 6 -8 2 3164. 2743. 506. o
602 1 -7 8 2 3164. 2743. 506. o
603 2 5 -8 2 12. 147. 370. <
603 1 -6 8 2 12. 147. 370. <
604 2 4 -8 2 1107. 1572. 388. o
604 1 -5 8 2 1107. 1572. 388. o
605 2 3 -8 2 5317. 4354. 452. o
605 1 -4 8 2 5317. 4354. 452. o
606 2 2 -8 2 1791. 1872. 286. o
606 1 -3 8 2 1791. 1872. 286. o
607 2 1 -8 2 1108. 1304. 197. o
607 1 -2 8 2 1108. 1304. 197. o
608 2 0 -8 2 1621. 1591. 240. o
608 1 -1 8 2 1621. 1591. 240. o
609 2 -1 -8 2 1220. 1417. 227. o
609 1 0 8 2 1220. 1417. 227. o
610 2 -2 -8 2 1179. 1344. 185. o
610 1 1 8 2 1179. 1344. 185. o
611 2 -3 -8 2 1268. 1188. 188. o
611 1 2 8 2 1268. 1188. 188. o
612 2 -4 -8 2 3341. 3054. 292. o
612 1 3 8 2 3341. 3054. 292. o
613 2 -5 -8 2 1136. 1284. 301. o
613 1 4 8 2 1136. 1284. 301. o
614 2 -6 -8 2 148. 238. 265. <
614 1 5 8 2 148. 238. 265. <
615 2 -7 -8 2 2280. 2605. 445. o
615 1 6 8 2 2280. 2605. 445. o
616 2 -8 -8 2 4360. 4294. 582. o
616 1 7 8 2 4360. 4294. 582. o
617 2 -9 -8 2 304. 558. 289. <
617 1 8 8 2 304. 558. 289. <
618 2 -10 -8 2 240. -1305. 893. <
618 1 9 8 2 240. -1305. 893. <
619 2 8 -9 2 2651. 2078. 536. o
619 1 -9 9 2 2651. 2078. 536. o
620 2 7 -9 2 6471. 7273. 912. o
620 1 -8 9 2 6471. 7273. 912. o
621 2 6 -9 2 7602. 9048. 967. o
621 1 -7 9 2 7602. 9048. 967. o
622 2 5 -9 2 1953. 1165. 358. o
622 1 -6 9 2 1953. 1165. 358. o
623 2 4 -9 2 617. 797. 326. <
623 1 -5 9 2 617. 797. 326. <
624 2 3 -9 2 146. 30. 250. <
624 1 -4 9 2 146. 30. 250. <
625 2 2 -9 2 981. 1114. 295. o
625 1 -3 9 2 981. 1114. 295. o
626 2 1 -9 2 8274. 8584. 565. o
626 1 -2 9 2 8274. 8584. 565. o
627 2 0 -9 2 13385. 13035. 687. o
627 1 -1 9 2 13385. 13035. 687. o
628 2 -1 -9 2 13493. 12445. 664. o
628 1 0 9 2 13493. 12445. 664. o
629 2 -2 -9 2 8054. 8185. 502. o
629 1 1 9 2 8054. 8185. 502. o
630 2 -3 -9 2 1146. 986. 221. o
630 1 2 9 2 1146. 986. 221. o
631 2 -4 -9 2 21. 135. 181. <
631 1 3 9 2 21. 135. 181. <
632 2 -5 -9 2 534. 708. 266. <
632 1 4 9 2 534. 708. 266. <
633 2 -6 -9 2 3681. 4493. 545. o
633 1 5 9 2 3681. 4493. 545. o
634 2 -7 -9 2 5509. 5739. 658. o
634 1 6 9 2 5509. 5739. 658. o
635 2 -8 -9 2 5828. 6115. 823. o
635 1 7 9 2 5828. 6115. 823. o
636 2 -9 -9 2 4166. 4710. 885. o
636 1 8 9 2 4166. 4710. 885. o
637 2 8 -10 2 103441. 88318. 6675. o
637 1 -9 10 2 103441. 88318. 6675. o
638 2 7 -10 2 43632. 44782. 2251. o
638 1 -8 10 2 43632. 44782. 2251. o
639 2 6 -10 2 72707. 75870. 2852. o
639 1 -7 10 2 72707. 75870. 2852. o
640 2 5 -10 2 314182. 318526. 6798. o
640 1 -6 10 2 314182. 318526. 6798. o
641 2 4 -10 2 102547. 101161. 3284. o
641 1 -5 10 2 102547. 101161. 3284. o
642 2 3 -10 2 73927. 72516. 2296. o
642 1 -4 10 2 73927. 72516. 2296. o
643 2 2 -10 2 208529. 199661. 4505. o
643 1 -3 10 2 208529. 199661. 4505. o
644 2 1 -10 2 70166. 67886. 2025. o
644 1 -2 10 2 70166. 67886. 2025. o
645 2 0 -10 2 574. 832. 243. o
645 1 -1 10 2 574. 832. 243. o
646 2 -1 -10 2 660. 955. 250. o
646 1 0 10 2 660. 955. 250. o
647 2 -2 -10 2 62919. 61856. 1479. o
647 1 1 10 2 62919. 61856. 1479. o
648 2 -3 -10 2 220895. 219193. 4144. o
648 1 2 10 2 220895. 219193. 4144. o
649 2 -4 -10 2 71924. 74350. 2043. o
649 1 3 10 2 71924. 74350. 2043. o
650 2 -5 -10 2 100771. 101765. 3237. o
650 1 4 10 2 100771. 101765. 3237. o
651 2 -6 -10 2 311329. 333301. 6459. o
651 1 5 10 2 311329. 333301. 6459. o
652 2 -7 -10 2 68272. 74358. 2829. o
652 1 6 10 2 68272. 74358. 2829. o
653 2 -8 -10 2 36323. 41155. 2192. o
653 1 7 10 2 36323. 41155. 2192. o
654 2 8 -11 2 23065. 19756. 3234. o
654 1 -9 11 2 23065. 19756. 3234. o
655 2 7 -11 2 23974. 24526. 1736. o
655 1 -8 11 2 23974. 24526. 1736. o
656 2 6 -11 2 28537. 29279. 1799. o
656 1 -7 11 2 28537. 29279. 1799. o
657 2 5 -11 2 50285. 52403. 2475. o
657 1 -6 11 2 50285. 52403. 2475. o
658 2 4 -11 2 86811. 89478. 3179. o
658 1 -5 11 2 86811. 89478. 3179. o
659 2 3 -11 2 98328. 99830. 3217. o
659 1 -4 11 2 98328. 99830. 3217. o
660 2 2 -11 2 89446. 89999. 2894. o
660 1 -3 11 2 89446. 89999. 2894. o
661 2 1 -11 2 65841. 63190. 2025. o
661 1 -2 11 2 65841. 63190. 2025. o
662 2 0 -11 2 39795. 39154. 1390. o
662 1 -1 11 2 39795. 39154. 1390. o
663 2 -1 -11 2 42528. 41985. 1430. o
663 1 0 11 2 42528. 41985. 1430. o
664 2 -2 -11 2 66230. 65220. 2039. o
664 1 1 11 2 66230. 65220. 2039. o
665 2 -3 -11 2 90726. 90969. 2532. o
665 1 2 11 2 90726. 90969. 2532. o
666 2 -4 -11 2 105339. 103182. 2819. o
666 1 3 11 2 105339. 103182. 2819. o
667 2 -5 -11 2 83921. 87696. 3101. o
667 1 4 11 2 83921. 87696. 3101. o
668 2 -6 -11 2 53880. 58463. 2470. o
668 1 5 11 2 53880. 58463. 2470. o
669 2 -7 -11 2 34707. 35858. 2015. o
669 1 6 11 2 34707. 35858. 2015. o
670 2 -8 -11 2 21330. 21863. 1637. o
670 1 7 11 2 21330. 21863. 1637. o
671 2 7 -12 2 204. -213. 475. <
671 1 -8 12 2 204. -213. 475. <
672 2 6 -12 2 551. -267. 309. <
672 1 -7 12 2 551. -267. 309. <
673 2 5 -12 2 5291. 5164. 838. o
673 1 -6 12 2 5291. 5164. 838. o
674 2 4 -12 2 3747. 4189. 716. o
674 1 -5 12 2 3747. 4189. 716. o
675 2 3 -12 2 1346. 1459. 436. o
675 1 -4 12 2 1346. 1459. 436. o
676 2 2 -12 2 3002. 2316. 451. o
676 1 -3 12 2 3002. 2316. 451. o
677 2 1 -12 2 3448. 3389. 477. o
677 1 -2 12 2 3448. 3389. 477. o
678 2 0 -12 2 2109. 1819. 395. o
678 1 -1 12 2 2109. 1819. 395. o
679 2 -1 -12 2 2237. 2628. 502. o
679 1 0 12 2 2237. 2628. 502. o
680 2 -2 -12 2 2531. 4134. 706. o
680 1 1 12 2 2531. 4134. 706. o
681 2 -3 -12 2 2226. 2445. 421. o
681 1 2 12 2 2226. 2445. 421. o
682 2 -4 -12 2 1044. 306. 276. <
682 1 3 12 2 1044. 306. 276. <
683 2 -5 -12 2 2037. 1598. 465. o
683 1 4 12 2 2037. 1598. 465. o
684 2 -6 -12 2 4446. 5075. 752. o
684 1 5 12 2 4446. 5075. 752. o
685 2 -7 -12 2 318. -92. 353. <
685 1 6 12 2 318. -92. 353. <
686 2 -8 -12 2 24. -261. 831. <
686 1 7 12 2 24. -261. 831. <
687 2 6 -13 2 530. 3472. 1403. <
687 1 -7 13 2 530. 3472. 1403. <
688 2 5 -13 2 451. 479. 319. <
688 1 -6 13 2 451. 479. 319. <
689 2 4 -13 2 82. 1532. 587. <
689 1 -5 13 2 82. 1532. 587. <
690 2 3 -13 2 167. 518. 331. <
690 1 -4 13 2 167. 518. 331. <
691 2 2 -13 2 19. 690. 397. <
691 1 -3 13 2 19. 690. 397. <
692 2 1 -13 2 457. 395. 279. <
692 1 -2 13 2 457. 395. 279. <
693 2 0 -13 2 2697. 3537. 626. o
693 1 -1 13 2 2697. 3537. 626. o
694 2 -1 -13 2 2444. 2274. 450. o
694 1 0 13 2 2444. 2274. 450. o
695 2 -2 -13 2 461. 829. 390. <
695 1 1 13 2 461. 829. 390. <
696 2 -3 -13 2 4. 343. 379. <
696 1 2 13 2 4. 343. 379. <
697 2 -4 -13 2 50. 525. 322. <
697 1 3 13 2 50. 525. 322. <
698 2 -5 -13 2 20. 157. 455. <
698 1 4 13 2 20. 157. 455. <
699 2 -6 -13 2 110. 181. 388. <
699 1 5 13 2 110. 181. 388. <
700 2 -7 -13 2 1393. 2704. 1425. <
700 1 6 13 2 1393. 2704. 1425. <
701 2 5 -14 2 178149. 179188. 7723. o
701 1 -6 14 2 178149. 179188. 7723. o
702 2 4 -14 2 51368. 44221. 4863. o
702 1 -5 14 2 51368. 44221. 4863. o
703 2 3 -14 2 30149. 30464. 2216. o
703 1 -4 14 2 30149. 30464. 2216. o
704 2 2 -14 2 122638. 131889. 5787. o
704 1 -3 14 2 122638. 131889. 5787. o
705 2 1 -14 2 31777. 33645. 2243. o
705 1 -2 14 2 31777. 33645. 2243. o
706 2 0 -14 2 1755. 1723. 461. o
706 1 -1 14 2 1755. 1723. 461. o
707 2 -1 -14 2 1180. 969. 438. <
707 1 0 14 2 1180. 969. 438. <
708 2 -2 -14 2 35398. 34672. 1948. o
708 1 1 14 2 35398. 34672. 1948. o
709 2 -3 -14 2 117209. 121722. 4520. o
709 1 2 14 2 117209. 121722. 4520. o
710 2 -4 -14 2 31421. 34278. 2960. o
710 1 3 14 2 31421. 34278. 2960. o
711 2 -5 -14 2 48796. 61529. 4643. o
711 1 4 14 2 48796. 61529. 4643. o
712 2 -6 -14 2 179013. 183934. 7685. o
712 1 5 14 2 179013. 183934. 7685. o
713 2 4 -15 2 19366. 17124. 3167. o
713 1 -5 15 2 19366. 17124. 3167. o
714 2 3 -15 2 28576. 31640. 3833. o
714 1 -4 15 2 28576. 31640. 3833. o
715 2 2 -15 2 21419. 23349. 3190. o
715 1 -3 15 2 21419. 23349. 3190. o
716 2 1 -15 2 10648. 11305. 1353. o
716 1 -2 15 2 10648. 11305. 1353. o
717 2 0 -15 2 7331. 7547. 1103. o
717 1 -1 15 2 7331. 7547. 1103. o
718 2 -1 -15 2 6168. 6158. 849. o
718 1 0 15 2 6168. 6158. 849. o
719 2 -2 -15 2 11629. 11338. 1171. o
719 1 1 15 2 11629. 11338. 1171. o
720 2 -3 -15 2 23350. 25096. 2385. o
720 1 2 15 2 23350. 25096. 2385. o
721 2 -3 -16 2 1889. 2597. 1134. <
721 1 2 16 2 1889. 2597. 1134. <
722 1 -12 1 3 16. -415. 421. <
723 1 -11 1 3 35925. 37241. 1861. o
724 1 -10 1 3 21237. 19626. 1042. o
725 1 -9 1 3 8679. 9521. 693. o
726 1 -8 1 3 12583. 12777. 675. o
727 1 -7 1 3 39507. 39415. 1048. o
728 1 -6 1 3 3180. 3755. 304. o
729 1 -5 1 3 20346. 20098. 639. o
730 1 -4 1 3 62222. 60549. 1034. o
731 1 -3 1 3 45573. 46901. 959. o
732 1 -2 1 3 8399. 10041. 361. o
733 1 -1 1 3 6462. 7059. 208. o
734 1 0 1 3 3634. 3723. 139. o
735 1 1 1 3 12541. 12949. 413. o
736 1 2 1 3 99566. 99836. 1757. o
737 1 3 1 3 18962. 19088. 817. o
738 1 4 1 3 1457. 2251. 246. o
739 1 5 1 3 39421. 36823. 1332. o
740 1 6 1 3 4454. 4293. 524. o
741 1 7 1 3 136. 127. 393. <
742 1 8 1 3 1138. 1151. 388. <
743 1 9 1 3 6743. 6919. 943. o
744 1 10 1 3 23939. 26433. 2325. o
745 1 -12 2 3 24228. 24031. 1976. o
746 1 -11 2 3 28704. 27598. 1819. o
747 1 -10 2 3 24576. 25172. 1314. o
748 1 -9 2 3 13806. 13698. 830. o
749 1 -8 2 3 13761. 13816. 710. o
750 1 -7 2 3 25390. 26547. 855. o
751 1 -6 2 3 54987. 54570. 1179. o
752 1 -5 2 3 109319. 107845. 1663. o
753 1 -4 2 3 125063. 123007. 1662. o
754 1 -3 2 3 92724. 93270. 1214. o
755 1 -2 2 3 51821. 53704. 825. o
756 1 -1 2 3 21131. 21528. 455. o
757 1 0 2 3 29312. 29824. 451. o
758 1 1 2 3 71931. 71982. 1115. o
759 1 2 2 3 101747. 100658. 1593. o
760 1 3 2 3 105155. 97547. 1885. o
761 1 4 2 3 67401. 65542. 1521. o
762 1 5 2 3 26162. 24484. 1119. o
763 1 6 2 3 11500. 10804. 804. o
764 1 7 2 3 7931. 7166. 829. o
765 1 8 2 3 11858. 10334. 1055. o
766 1 9 2 3 19365. 19969. 1881. o
767 1 10 2 3 17414. 17935. 2229. o
768 1 -12 3 3 35488. 33175. 4478. o
769 1 -11 3 3 726. 249. 288. <
770 1 -10 3 3 3725. 4531. 661. o
771 1 -9 3 3 57639. 57330. 1796. o
772 1 -8 3 3 3658. 4481. 412. o
773 1 -7 3 3 412. 687. 185. o
774 1 -6 3 3 53715. 53166. 1125. o
775 1 -5 3 3 78420. 78936. 1417. o
776 1 -4 3 3 38376. 37735. 879. o
777 1 -3 3 3 31837. 32148. 782. o
778 1 -2 3 3 45829. 46903. 851. o
779 1 -1 3 3 12550. 12790. 396. o
780 1 0 3 3 34345. 35275. 585. o
781 1 1 3 3 58080. 57371. 1012. o
782 1 2 3 3 7671. 8513. 374. o
783 1 3 3 3 87092. 86911. 1573. o
784 1 4 3 3 88346. 87094. 1877. o
785 1 5 3 3 54. -112. 287. <
786 1 6 3 3 7266. 8322. 968. o
787 1 7 3 3 15964. 15710. 1229. o
788 1 8 3 3 11687. 12844. 1207. o
789 1 9 3 3 10885. 11287. 1445. o
790 1 10 3 3 269. -403. 682. <
791 1 -11 4 3 40. -120. 509. <
792 1 -10 4 3 38. 157. 438. <
793 1 -9 4 3 213. 402. 311. <
794 1 -8 4 3 22. 261. 200. <
795 1 -7 4 3 205. 241. 179. <
796 1 -6 4 3 186. 52. 177. <
797 1 -5 4 3 354. 510. 156. o
798 1 -4 4 3 75. 177. 189. <
799 1 -3 4 3 257. 305. 139. <
800 1 -2 4 3 82. 288. 134. <
801 1 -1 4 3 1165. 1438. 166. o
802 1 0 4 3 132. 296. 111. <
803 1 1 4 3 141. 300. 134. <
804 1 2 4 3 440. 568. 165. o
805 1 3 4 3 99. 196. 192. <
806 1 4 4 3 187. 234. 147. <
807 1 5 4 3 760. 829. 272. o
808 1 6 4 3 36. 713. 315. <
809 1 7 4 3 342. 109. 297. <
810 1 8 4 3 186. -371. 387. <
811 1 9 4 3 12. 599. 498. <
812 1 -11 5 3 1180. 1961. 593. o
813 1 -10 5 3 559. 964. 452. <
814 1 -9 5 3 32940. 31625. 1941. o
815 1 -8 5 3 2295. 2313. 458. o
816 1 -7 5 3 7717. 8424. 786. o
817 1 -6 5 3 21198. 22638. 758. o
818 1 -5 5 3 16357. 16340. 665. o
819 1 -4 5 3 6809. 7210. 405. o
820 1 -3 5 3 2930. 2809. 247. o
821 1 -2 5 3 503. 865. 177. o
822 1 -1 5 3 47. 355. 167. <
823 1 0 5 3 17. 36. 117. <
824 1 1 5 3 2426. 3120. 285. o
825 1 2 5 3 27. 675. 200. o
826 1 3 5 3 18535. 18739. 731. o
827 1 4 5 3 25215. 24338. 899. o
828 1 5 5 3 4522. 4437. 495. o
829 1 6 5 3 2076. 2378. 476. o
830 1 7 5 3 940. 1070. 369. <
831 1 8 5 3 644. 886. 411. <
832 1 9 5 3 91. 420. 484. <
833 1 -11 6 3 7956. 9794. 2632. o
834 1 -10 6 3 2939. 2578. 628. o
835 1 -9 6 3 2716. 2346. 507. o
836 1 -8 6 3 338. 443. 295. <
837 1 -7 6 3 1494. 1769. 416. o
838 1 -6 6 3 14712. 13782. 859. o
839 1 -5 6 3 23408. 22657. 905. o
840 1 -4 6 3 35453. 35317. 1081. o
841 1 -3 6 3 20304. 21011. 642. o
842 1 -2 6 3 626. 944. 147. o
843 1 -1 6 3 576. 594. 206. <
844 1 0 6 3 837. 745. 187. o
845 1 1 6 3 3586. 3713. 270. o
846 1 2 6 3 28298. 28171. 742. o
847 1 3 6 3 27101. 26460. 873. o
848 1 4 6 3 11660. 11808. 600. o
849 1 5 6 3 3801. 3572. 504. o
850 1 6 6 3 0. 336. 303. <
851 1 7 6 3 134. 418. 369. <
852 1 8 6 3 1426. 1238. 541. <
853 1 9 6 3 1762. 2319. 632. o
854 1 -10 7 3 13448. 14218. 1441. o
855 1 -9 7 3 1229. 1687. 461. o
856 1 -8 7 3 9812. 10364. 945. o
857 1 -7 7 3 31117. 30898. 1594. o
858 1 -6 7 3 8429. 7540. 825. o
859 1 -5 7 3 9919. 9818. 857. o
860 1 -4 7 3 45291. 43931. 1712. o
861 1 -3 7 3 35634. 35501. 985. o
862 1 -2 7 3 5166. 5062. 446. o
863 1 -1 7 3 20014. 19139. 839. o
864 1 0 7 3 6512. 6904. 544. o
865 1 1 7 3 9511. 9386. 456. o
866 1 2 7 3 95629. 93994. 1517. o
867 1 3 7 3 10913. 10788. 581. o
868 1 4 7 3 2127. 1748. 272. o
869 1 5 7 3 50021. 49761. 1769. o
870 1 6 7 3 5222. 5961. 725. o
871 1 7 7 3 1654. 2068. 476. o
872 1 8 7 3 5131. 5928. 946. o
873 1 9 7 3 6059. 3101. 1356. <
874 1 -10 8 3 319. 47. 400. <
875 1 -9 8 3 369. 710. 383. <
876 1 -8 8 3 338. 877. 467. <
877 1 -7 8 3 509. 301. 319. <
878 1 -6 8 3 1552. 1296. 395. o
879 1 -5 8 3 1. -31. 287. <
880 1 -4 8 3 1462. 1119. 295. o
881 1 -3 8 3 660. 1170. 251. o
882 1 -2 8 3 167. 353. 197. <
883 1 -1 8 3 176. 159. 212. <
884 1 0 8 3 120. 62. 202. <
885 1 1 8 3 147. 116. 145. <
886 1 2 8 3 1854. 2099. 233. o
887 1 3 8 3 65. 259. 194. <
888 1 4 8 3 176. 177. 220. <
889 1 5 8 3 361. 661. 274. <
890 1 6 8 3 587. 884. 364. <
891 1 7 8 3 7. 202. 368. <
892 1 8 8 3 31. 215. 462. <
893 1 9 8 3 12. -223. 860. <
894 1 -9 9 3 24900. 26363. 1736. o
895 1 -8 9 3 846. 586. 371. <
896 1 -7 9 3 6132. 6829. 814. o
897 1 -6 9 3 4060. 5468. 739. o
898 1 -5 9 3 1601. 2338. 477. o
899 1 -4 9 3 5451. 5091. 559. o
900 1 -3 9 3 1593. 1505. 388. o
901 1 -2 9 3 80. -37. 205. <
902 1 -1 9 3 6033. 5897. 486. o
903 1 0 9 3 2691. 2907. 394. o
904 1 1 9 3 0. 84. 190. <
905 1 2 9 3 6895. 7431. 494. o
906 1 3 9 3 940. 866. 229. o
907 1 4 9 3 1496. 1076. 329. o
908 1 5 9 3 2098. 2609. 469. o
909 1 6 9 3 27. 361. 383. <
910 1 7 9 3 6340. 7284. 1040. o
911 1 8 9 3 1583. 3491. 1384. <
912 1 -9 10 3 6524. 4881. 1528. o
913 1 -8 10 3 5038. 5098. 795. o
914 1 -7 10 3 2831. 3757. 647. o
915 1 -6 10 3 2256. 1698. 500. o
916 1 -5 10 3 539. 343. 380. <
917 1 -4 10 3 8. -268. 276. <
918 1 -3 10 3 1964. 2258. 461. o
919 1 -2 10 3 2793. 3529. 501. o
920 1 -1 10 3 22408. 21494. 954. o
921 1 0 10 3 15205. 14445. 881. o
922 1 1 10 3 851. 1311. 286. o
923 1 2 10 3 1412. 1941. 421. o
924 1 3 10 3 9. 143. 229. <
925 1 4 10 3 120. -40. 275. <
926 1 5 10 3 5629. 4857. 709. o
927 1 6 10 3 5492. 5214. 791. o
928 1 7 10 3 8160. 7305. 1421. o
929 1 -9 11 3 9560. 10573. 2380. o
930 1 -8 11 3 125. 461. 432. <
931 1 -7 11 3 573. 539. 387. <
932 1 -6 11 3 5226. 4957. 3124. <
933 1 -5 11 3 16171. 15500. 1291. o
934 1 -4 11 3 1551. 1289. 370. o
935 1 -3 11 3 986. 633. 311. <
936 1 -2 11 3 8010. 7619. 754. o
937 1 -1 11 3 70. -47. 222. <
938 1 0 11 3 5119. 4904. 453. o
939 1 1 11 3 11452. 11107. 959. o
940 1 2 11 3 1517. 1696. 411. o
941 1 3 11 3 19784. 21303. 1345. o
942 1 4 11 3 20142. 22790. 1477. o
943 1 5 11 3 3029. 1557. 456. o
944 1 6 11 3 2760. 2827. 870. o
945 1 -8 12 3 3781. 3277. 1325. <
946 1 -7 12 3 820. 1486. 534. <
947 1 -6 12 3 1062. 1146. 485. <
948 1 -5 12 3 9016. 9550. 1223. o
949 1 -4 12 3 2318. 2064. 472. o
950 1 -3 12 3 1695. 1365. 375. o
951 1 -2 12 3 3399. 3506. 581. o
952 1 -1 12 3 288. 138. 290. <
953 1 0 12 3 2941. 3825. 580. o
954 1 1 12 3 2622. 2765. 589. o
955 1 2 12 3 902. 1270. 455. <
956 1 3 12 3 6856. 7699. 872. o
957 1 4 12 3 1484. 2522. 684. o
958 1 5 12 3 76. -1294. 513. <
959 1 6 12 3 2198. 4668. 1419. o
960 1 -7 13 3 4414. 4052. 1618. <
961 1 -6 13 3 9554. 8153. 1242. o
962 1 -5 13 3 2151. 1175. 531. <
963 1 -4 13 3 2183. 1859. 466. o
964 1 -3 13 3 1095. 1903. 492. o
965 1 -2 13 3 164. 366. 430. <
966 1 -1 13 3 225. 208. 336. <
967 1 0 13 3 52. 605. 432. <
968 1 1 13 3 22. 581. 365. <
969 1 2 13 3 702. 547. 363. <
970 1 3 13 3 3860. 5444. 890. o
971 1 4 13 3 6806. 7160. 1396. o
972 1 5 13 3 444. 261. 632. <
973 1 -6 14 3 4558. 2366. 880. <
974 1 -5 14 3 7601. 5673. 1703. o
975 1 -4 14 3 3412. 3449. 785. o
976 1 -3 14 3 6685. 6869. 1047. o
977 1 -2 14 3 28379. 30256. 2129. o
978 1 -1 14 3 16740. 16928. 1561. o
979 1 0 14 3 19016. 18592. 1608. o
980 1 1 14 3 23122. 23861. 1824. o
981 1 2 14 3 3712. 2948. 795. o
982 1 3 14 3 4794. 4719. 1299. o
983 1 4 14 3 9132. 16254. 3718. o
984 1 5 14 3 8342. 7257. 2118. o
985 1 -5 15 3 1259. 1106. 898. <
986 1 -4 15 3 1448. 2671. 1271. <
987 1 -3 15 3 614. 797. 567. <
988 1 -2 15 3 2447. 1705. 657. <
989 1 -1 15 3 797. 1465. 593. <
990 1 0 15 3 843. 596. 328. <
991 1 1 15 3 946. 651. 587. <
992 1 2 15 3 12558. 12902. 2276. o
993 1 -1 16 3 4218. 4337. 1389. o
994 2 10 0 4 62316. 54798. 5380. o
994 1 -12 0 4 62316. 54798. 5380. o
995 2 9 0 4 181368. 181608. 5510. o
995 1 -11 0 4 181368. 181608. 5510. o
996 2 8 0 4 142400. 146638. 4074. o
996 1 -10 0 4 142400. 146638. 4074. o
997 2 7 0 4 3718. 4522. 633. o
997 1 -9 0 4 3718. 4522. 633. o
998 2 6 0 4 448917. 457148. 6861. o
998 1 -8 0 4 448917. 457148. 6861. o
999 2 5 0 4 53201. 57712. 1923. o
999 1 -7 0 4 53201. 57712. 1923. o
1000 2 4 0 4 81544. 79641. 2196. o
1000 1 -6 0 4 81544. 79641. 2196. o
1001 2 3 0 4 359612. 359715. 5757. o
1001 1 -5 0 4 359612. 359715. 5757. o
1002 2 2 0 4 220566. 212682. 4182. o
1002 1 -4 0 4 220566. 212682. 4182. o
1003 2 1 0 4 864645. 853904. 12989. o
1003 1 -3 0 4 864645. 853904. 12989. o
1004 2 0 0 4 1325450. 1360240. 19596. o
1004 1 -2 0 4 1325450. 1360240. 19596. o
1005 2 -1 0 4 303142. 323517. 4575. o
1005 1 -1 0 4 303142. 323517. 4575. o
1006 2 -2 0 4 1328290. 1467750. 13615. o
1006 1 0 0 4 1328290. 1467750. 13615. o
1007 2 -3 0 4 852457. 875687. 11487. o
1007 1 1 0 4 852457. 875687. 11487. o
1008 2 -4 0 4 200110. 201291. 3624. o
1008 1 2 0 4 200110. 201291. 3624. o
1009 2 -5 0 4 376939. 372379. 5952. o
1009 1 3 0 4 376939. 372379. 5952. o
1010 2 -6 0 4 89060. 89482. 2765. o
1010 1 4 0 4 89060. 89482. 2765. o
1011 2 -7 0 4 70927. 71005. 2500. o
1011 1 5 0 4 70927. 71005. 2500. o
1012 2 -8 0 4 472750. 459942. 11697. o
1012 1 6 0 4 472750. 459942. 11697. o
1013 2 -9 0 4 1570. 3756. 866. o
1013 1 7 0 4 1570. 3756. 866. o
1014 2 -10 0 4 159287. 166244. 6715. o
1014 1 8 0 4 159287. 166244. 6715. o
1015 2 -11 0 4 194908. 203951. 7936. o
1015 1 9 0 4 194908. 203951. 7936. o
1016 2 -12 0 4 47327. 46046. 4628. o
1016 1 10 0 4 47327. 46046. 4628. o
1017 2 10 -1 4 77. -270. 337. <
1017 1 -12 1 4 77. -270. 337. <
1018 2 9 -1 4 648. 186. 314. <
1018 1 -11 1 4 648. 186. 314. <
1019 2 8 -1 4 836. 759. 225. o
1019 1 -10 1 4 836. 759. 225. o
1020 2 7 -1 4 729. 515. 202. <
1020 1 -9 1 4 729. 515. 202. <
1021 2 6 -1 4 2708. 2956. 317. o
1021 1 -8 1 4 2708. 2956. 317. o
1022 2 5 -1 4 1001. 988. 201. o
1022 1 -7 1 4 1001. 988. 201. o
1023 2 4 -1 4 807. 589. 158. o
1023 1 -6 1 4 807. 589. 158. o
1024 2 3 -1 4 2719. 2500. 243. o
1024 1 -5 1 4 2719. 2500. 243. o
1025 2 2 -1 4 848. 1023. 215. o
1025 1 -4 1 4 848. 1023. 215. o
1026 2 1 -1 4 1996. 1966. 208. o
1026 1 -3 1 4 1996. 1966. 208. o
1027 2 0 -1 4 4766. 4930. 299. o
1027 1 -2 1 4 4766. 4930. 299. o
1028 2 -1 -1 4 3839. 4334. 227. o
1028 1 -1 1 4 3839. 4334. 227. o
1029 2 -2 -1 4 4937. 5103. 232. o
1029 1 0 1 4 4937. 5103. 232. o
1030 2 -3 -1 4 1705. 1867. 212. o
1030 1 1 1 4 1705. 1867. 212. o
1031 2 -4 -1 4 1435. 1477. 211. o
1031 1 2 1 4 1435. 1477. 211. o
1032 2 -5 -1 4 3640. 3140. 301. o
1032 1 3 1 4 3640. 3140. 301. o
1033 2 -6 -1 4 764. 856. 204. o
1033 1 4 1 4 764. 856. 204. o
1034 2 -7 -1 4 767. 929. 247. o
1034 1 5 1 4 767. 929. 247. o
1035 2 -8 -1 4 2939. 3055. 507. o
1035 1 6 1 4 2939. 3055. 507. o
1036 2 -9 -1 4 1171. 1334. 465. <
1036 1 7 1 4 1171. 1334. 465. <
1037 2 -10 -1 4 390. 942. 382. <
1037 1 8 1 4 390. 942. 382. <
1038 2 -11 -1 4 673. 938. 472. <
1038 1 9 1 4 673. 938. 472. <
1039 2 -12 -1 4 730. -32. 508. <
1039 1 10 1 4 730. -32. 508. <
1040 2 10 -2 4 5703. 4024. 838. o
1040 1 -12 2 4 5703. 4024. 838. o
1041 2 9 -2 4 77. 235. 399. <
1041 1 -11 2 4 77. 235. 399. <
1042 2 8 -2 4 10984. 10632. 930. o
1042 1 -10 2 4 10984. 10632. 930. o
1043 2 7 -2 4 423. 298. 260. <
1043 1 -9 2 4 423. 298. 260. <
1044 2 6 -2 4 1672. 1411. 262. o
1044 1 -8 2 4 1672. 1411. 262. o
1045 2 5 -2 4 3015. 3031. 293. o
1045 1 -7 2 4 3015. 3031. 293. o
1046 2 4 -2 4 1414. 1543. 214. o
1046 1 -6 2 4 1414. 1543. 214. o
1047 2 3 -2 4 271. 345. 131. <
1047 1 -5 2 4 271. 345. 131. <
1048 2 2 -2 4 508. 572. 129. o
1048 1 -4 2 4 508. 572. 129. o
1049 2 1 -2 4 279. 593. 138. o
1049 1 -3 2 4 279. 593. 138. o
1050 2 0 -2 4 1254. 1491. 154. o
1050 1 -2 2 4 1254. 1491. 154. o
1051 2 -1 -2 4 242. 1011. 133. o
1051 1 -1 2 4 242. 1011. 133. o
1052 2 -2 -2 4 157. 443. 97. o
1052 1 0 2 4 157. 443. 97. o
1053 2 -3 -2 4 1405. 1438. 189. o
1053 1 1 2 4 1405. 1438. 189. o
1054 2 -4 -2 4 158. 231. 136. <
1054 1 2 2 4 158. 231. 136. <
1055 2 -5 -2 4 62. 120. 182. <
1055 1 3 2 4 62. 120. 182. <
1056 2 -6 -2 4 1825. 2033. 286. o
1056 1 4 2 4 1825. 2033. 286. o
1057 2 -7 -2 4 1567. 3732. 446. o
1057 1 5 2 4 1567. 3732. 446. o
1058 2 -8 -2 4 1235. 1531. 405. o
1058 1 6 2 4 1235. 1531. 405. o
1059 2 -9 -2 4 792. 1197. 461. <
1059 1 7 2 4 792. 1197. 461. <
1060 2 -10 -2 4 8294. 7221. 934. o
1060 1 8 2 4 8294. 7221. 934. o
1061 2 -11 -2 4 303. 764. 441. <
1061 1 9 2 4 303. 764. 441. <
1062 2 10 -3 4 62. -108. 381. <
1062 1 -12 3 4 62. -108. 381. <
1063 2 9 -3 4 71. 115. 434. <
1063 1 -11 3 4 71. 115. 434. <
1064 2 8 -3 4 28. 216. 287. <
1064 1 -10 3 4 28. 216. 287. <
1065 2 7 -3 4 419. 330. 252. <
1065 1 -9 3 4 419. 330. 252. <
1066 2 6 -3 4 16. 78. 178. <
1066 1 -8 3 4 16. 78. 178. <
1067 2 5 -3 4 231. 308. 154. <
1067 1 -7 3 4 231. 308. 154. <
1068 2 4 -3 4 101. 141. 150. <
1068 1 -6 3 4 101. 141. 150. <
1069 2 3 -3 4 559. 595. 205. <
1069 1 -5 3 4 559. 595. 205. <
1070 2 2 -3 4 134. 264. 146. <
1070 1 -4 3 4 134. 264. 146. <
1071 2 1 -3 4 315. 360. 112. o
1071 1 -3 3 4 315. 360. 112. o
1072 2 0 -3 4 71. 389. 103. o
1072 1 -2 3 4 71. 389. 103. o
1073 2 -1 -3 4 606. 552. 114. o
1073 1 -1 3 4 606. 552. 114. o
1074 2 -2 -3 4 140. 222. 111. <
1074 1 0 3 4 140. 222. 111. <
1075 2 -3 -3 4 286. 645. 149. o
1075 1 1 3 4 286. 645. 149. o
1076 2 -4 -3 4 73. 170. 144. <
1076 1 2 3 4 73. 170. 144. <
1077 2 -5 -3 4 127. 296. 153. <
1077 1 3 3 4 127. 296. 153. <
1078 2 -6 -3 4 361. 125. 192. <
1078 1 4 3 4 361. 125. 192. <
1079 2 -7 -3 4 535. 647. 282. <
1079 1 5 3 4 535. 647. 282. <
1080 2 -8 -3 4 2. 42. 344. <
1080 1 6 3 4 2. 42. 344. <
1081 2 -9 -3 4 70. 164. 269. <
1081 1 7 3 4 70. 164. 269. <
1082 2 -10 -3 4 309. 81. 414. <
1082 1 8 3 4 309. 81. 414. <
1083 2 -11 -3 4 50. -134. 352. <
1083 1 9 3 4 50. -134. 352. <
1084 2 9 -4 4 15267. 15484. 1430. o
1084 1 -11 4 4 15267. 15484. 1430. o
1085 2 8 -4 4 3273. 4329. 714. o
1085 1 -10 4 4 3273. 4329. 714. o
1086 2 7 -4 4 381529. 401686. 6928. o
1086 1 -9 4 4 381529. 401686. 6928. o
1087 2 6 -4 4 117. 692. 271. <
1087 1 -8 4 4 117. 692. 271. <
1088 2 5 -4 4 150284. 148070. 2482. o
1088 1 -7 4 4 150284. 148070. 2482. o
1089 2 4 -4 4 46626. 47747. 1228. o
1089 1 -6 4 4 46626. 47747. 1228. o
1090 2 3 -4 4 25292. 24804. 847. o
1090 1 -5 4 4 25292. 24804. 847. o
1091 2 2 -4 4 782795. 746079. 8400. o
1091 1 -4 4 4 782795. 746079. 8400. o
1092 2 1 -4 4 21592. 21580. 877. o
1092 1 -3 4 4 21592. 21580. 877. o
1093 2 0 -4 4 4177. 5024. 361. o
1093 1 -2 4 4 4177. 5024. 361. o
1094 2 -1 -4 4 2462180. 2570370. 26970. o
1094 1 -1 4 4 2462180. 2570370. 26970. o
1095 2 -2 -4 4 4750. 5139. 324. o
1095 1 0 4 4 4750. 5139. 324. o
1096 2 -3 -4 4 17871. 16785. 572. o
1096 1 1 4 4 17871. 16785. 572. o
1097 2 -4 -4 4 776964. 765548. 7390. o
1097 1 2 4 4 776964. 765548. 7390. o
1098 2 -5 -4 4 19951. 19612. 829. o
1098 1 3 4 4 19951. 19612. 829. o
1099 2 -6 -4 4 60679. 60128. 1612. o
1099 1 4 4 4 60679. 60128. 1612. o
1100 2 -7 -4 4 159226. 161130. 3124. o
1100 1 5 4 4 159226. 161130. 3124. o
1101 2 -8 -4 4 1101. 2060. 448. o
1101 1 6 4 4 1101. 2060. 448. o
1102 2 -9 -4 4 403723. 414216. 8329. o
1102 1 7 4 4 403723. 414216. 8329. o
1103 2 -10 -4 4 5520. 7617. 978. o
1103 1 8 4 4 5520. 7617. 978. o
1104 2 -11 -4 4 9750. 8622. 1124. o
1104 1 9 4 4 9750. 8622. 1124. o
1105 2 9 -5 4 1432. 1402. 553. <
1105 1 -11 5 4 1432. 1402. 553. <
1106 2 8 -5 4 2473. 3175. 665. o
1106 1 -10 5 4 2473. 3175. 665. o
1107 2 7 -5 4 4122. 4041. 592. o
1107 1 -9 5 4 4122. 4041. 592. o
1108 2 6 -5 4 3290. 3159. 520. o
1108 1 -8 5 4 3290. 3159. 520. o
1109 2 5 -5 4 5754. 5836. 509. o
1109 1 -7 5 4 5754. 5836. 509. o
1110 2 4 -5 4 5285. 5336. 420. o
1110 1 -6 5 4 5285. 5336. 420. o
1111 2 3 -5 4 3127. 3321. 319. o
1111 1 -5 5 4 3127. 3321. 319. o
1112 2 2 -5 4 6312. 6424. 457. o
1112 1 -4 5 4 6312. 6424. 457. o
1113 2 1 -5 4 6576. 6301. 385. o
1113 1 -3 5 4 6576. 6301. 385. o
1114 2 0 -5 4 7605. 7551. 443. o
1114 1 -2 5 4 7605. 7551. 443. o
1115 2 -1 -5 4 10005. 9916. 512. o
1115 1 -1 5 4 10005. 9916. 512. o
1116 2 -2 -5 4 6752. 6701. 428. o
1116 1 0 5 4 6752. 6701. 428. o
1117 2 -3 -5 4 9211. 9495. 447. o
1117 1 1 5 4 9211. 9495. 447. o
1118 2 -4 -5 4 6173. 6184. 425. o
1118 1 2 5 4 6173. 6184. 425. o
1119 2 -5 -5 4 1857. 1782. 247. o
1119 1 3 5 4 1857. 1782. 247. o
1120 2 -6 -5 4 5597. 4980. 485. o
1120 1 4 5 4 5597. 4980. 485. o
1121 2 -7 -5 4 5214. 5595. 568. o
1121 1 5 5 4 5214. 5595. 568. o
1122 2 -8 -5 4 1780. 2013. 502. o
1122 1 6 5 4 1780. 2013. 502. o
1123 2 -9 -5 4 3178. 2701. 568. o
1123 1 7 5 4 3178. 2701. 568. o
1124 2 -10 -5 4 2925. 3051. 658. o
1124 1 8 5 4 2925. 3051. 658. o
1125 2 -11 -5 4 1399. 426. 474. <
1125 1 9 5 4 1399. 426. 474. <
1126 2 9 -6 4 934. 859. 764. <
1126 1 -11 6 4 934. 859. 764. <
1127 2 8 -6 4 3856. 4001. 730. o
1127 1 -10 6 4 3856. 4001. 730. o
1128 2 7 -6 4 1766. 1510. 378. o
1128 1 -9 6 4 1766. 1510. 378. o
1129 2 6 -6 4 3646. 3368. 547. o
1129 1 -8 6 4 3646. 3368. 547. o
1130 2 5 -6 4 216. 385. 263. <
1130 1 -7 6 4 216. 385. 263. <
1131 2 4 -6 4 329. 547. 292. <
1131 1 -6 6 4 329. 547. 292. <
1132 2 3 -6 4 2537. 2590. 331. o
1132 1 -5 6 4 2537. 2590. 331. o
1133 2 2 -6 4 1958. 1982. 284. o
1133 1 -4 6 4 1958. 1982. 284. o
1134 2 1 -6 4 1416. 1456. 232. o
1134 1 -3 6 4 1416. 1456. 232. o
1135 2 0 -6 4 28. -15. 141. <
1135 1 -2 6 4 28. -15. 141. <
1136 2 -1 -6 4 20. 802. 215. o
1136 1 -1 6 4 20. 802. 215. o
1137 2 -2 -6 4 357. 426. 150. <
1137 1 0 6 4 357. 426. 150. <
1138 2 -3 -6 4 220. 210. 143. <
1138 1 1 6 4 220. 210. 143. <
1139 2 -4 -6 4 1925. 2254. 269. o
1139 1 2 6 4 1925. 2254. 269. o
1140 2 -5 -6 4 2182. 2716. 367. o
1140 1 3 6 4 2182. 2716. 367. o
1141 2 -6 -6 4 28. 428. 216. <
1141 1 4 6 4 28. 428. 216. <
1142 2 -7 -6 4 241. 510. 317. <
1142 1 5 6 4 241. 510. 317. <
1143 2 -8 -6 4 1590. 1382. 458. o
1143 1 6 6 4 1590. 1382. 458. o
1144 2 -9 -6 4 1066. 1364. 496. <
1144 1 7 6 4 1066. 1364. 496. <
1145 2 -10 -6 4 4393. 4743. 832. o
1145 1 8 6 4 4393. 4743. 832. o
1146 2 -11 -6 4 81. 1978. 1445. <
1146 1 9 6 4 81. 1978. 1445. <
1147 2 8 -7 4 15. -175. 370. <
1147 1 -10 7 4 15. -175. 370. <
1148 2 7 -7 4 54. 154. 367. <
1148 1 -9 7 4 54. 154. 367. <
1149 2 6 -7 4 367. 602. 409. <
1149 1 -8 7 4 367. 602. 409. <
1150 2 5 -7 4 99. 165. 330. <
1150 1 -7 7 4 99. 165. 330. <
1151 2 4 -7 4 291. 123. 342. <
1151 1 -6 7 4 291. 123. 342. <
1152 2 3 -7 4 97. -58. 262. <
1152 1 -5 7 4 97. -58. 262. <
1153 2 2 -7 4 269. 247. 188. <
1153 1 -4 7 4 269. 247. 188. <
1154 2 1 -7 4 41. 246. 162. <
1154 1 -3 7 4 41. 246. 162. <
1155 2 0 -7 4 315. 552. 221. <
1155 1 -2 7 4 315. 552. 221. <
1156 2 -1 -7 4 22. 341. 213. <
1156 1 -1 7 4 22. 341. 213. <
1157 2 -2 -7 4 30. 406. 212. <
1157 1 0 7 4 30. 406. 212. <
1158 2 -3 -7 4 71. 293. 194. <
1158 1 1 7 4 71. 293. 194. <
1159 2 -4 -7 4 47. 247. 180. <
1159 1 2 7 4 47. 247. 180. <
1160 2 -5 -7 4 73. 124. 244. <
1160 1 3 7 4 73. 124. 244. <
1161 2 -6 -7 4 37. -112. 283. <
1161 1 4 7 4 37. -112. 283. <
1162 2 -7 -7 4 20. 237. 385. <
1162 1 5 7 4 20. 237. 385. <
1163 2 -8 -7 4 139. 821. 396. <
1163 1 6 7 4 139. 821. 396. <
1164 2 -9 -7 4 35. -136. 371. <
1164 1 7 7 4 35. -136. 371. <
1165 2 -10 -7 4 91. -37. 375. <
1165 1 8 7 4 91. -37. 375. <
1166 2 -11 -7 4 5. 306. 697. <
1166 1 9 7 4 5. 306. 697. <
1167 2 8 -8 4 28700. 29589. 2988. o
1167 1 -10 8 4 28700. 29589. 2988. o
1168 2 7 -8 4 40602. 40654. 2072. o
1168 1 -9 8 4 40602. 40654. 2072. o
1169 2 6 -8 4 139209. 144494. 3935. o
1169 1 -8 8 4 139209. 144494. 3935. o
1170 2 5 -8 4 67. 767. 385. <
1170 1 -7 8 4 67. 767. 385. <
1171 2 4 -8 4 865. 1522. 391. o
1171 1 -6 8 4 865. 1522. 391. o
1172 2 3 -8 4 67180. 68648. 2487. o
1172 1 -5 8 4 67180. 68648. 2487. o
1173 2 2 -8 4 296286. 288659. 4986. o
1173 1 -4 8 4 296286. 288659. 4986. o
1174 2 1 -8 4 189604. 185002. 4069. o
1174 1 -3 8 4 189604. 185002. 4069. o
1175 2 0 -8 4 314431. 305106. 5510. o
1175 1 -2 8 4 314431. 305106. 5510. o
1176 2 -1 -8 4 384334. 369013. 5007. o
1176 1 -1 8 4 384334. 369013. 5007. o
1177 2 -2 -8 4 316785. 301405. 4740. o
1177 1 0 8 4 316785. 301405. 4740. o
1178 2 -3 -8 4 183174. 180168. 3126. o
1178 1 1 8 4 183174. 180168. 3126. o
1179 2 -4 -8 4 280794. 288229. 3687. o
1179 1 2 8 4 280794. 288229. 3687. o
1180 2 -5 -8 4 71969. 71672. 1716. o
1180 1 3 8 4 71969. 71672. 1716. o
1181 2 -6 -8 4 1280. 1346. 495. <
1181 1 4 8 4 1280. 1346. 495. <
1182 2 -7 -8 4 500. 851. 400. <
1182 1 5 8 4 500. 851. 400. <
1183 2 -8 -8 4 147416. 139687. 5611. o
1183 1 6 8 4 147416. 139687. 5611. o
1184 2 -9 -8 4 35435. 40748. 2376. o
1184 1 7 8 4 35435. 40748. 2376. o
1185 2 -10 -8 4 33653. 30740. 2793. o
1185 1 8 8 4 33653. 30740. 2793. o
1186 2 7 -9 4 3950. 4455. 732. o
1186 1 -9 9 4 3950. 4455. 732. o
1187 2 6 -9 4 6032. 7439. 925. o
1187 1 -8 9 4 6032. 7439. 925. o
1188 2 5 -9 4 4934. 4711. 728. o
1188 1 -7 9 4 4934. 4711. 728. o
1189 2 4 -9 4 5744. 5607. 770. o
1189 1 -6 9 4 5744. 5607. 770. o
1190 2 3 -9 4 6579. 5543. 715. o
1190 1 -5 9 4 6579. 5543. 715. o
1191 2 2 -9 4 4728. 4331. 539. o
1191 1 -4 9 4 4728. 4331. 539. o
1192 2 1 -9 4 6803. 5854. 662. o
1192 1 -3 9 4 6803. 5854. 662. o
1193 2 0 -9 4 7386. 7565. 596. o
1193 1 -2 9 4 7386. 7565. 596. o
1194 2 -1 -9 4 7823. 7789. 564. o
1194 1 -1 9 4 7823. 7789. 564. o
1195 2 -2 -9 4 10700. 10978. 717. o
1195 1 0 9 4 10700. 10978. 717. o
1196 2 -3 -9 4 5132. 5274. 509. o
1196 1 1 9 4 5132. 5274. 509. o
1197 2 -4 -9 4 4720. 5808. 503. o
1197 1 2 9 4 4720. 5808. 503. o
1198 2 -5 -9 4 7512. 7809. 737. o
1198 1 3 9 4 7512. 7809. 737. o
1199 2 -6 -9 4 2532. 2251. 531. o
1199 1 4 9 4 2532. 2251. 531. o
1200 2 -7 -9 4 2831. 4551. 755. o
1200 1 5 9 4 2831. 4551. 755. o
1201 2 -8 -9 4 5725. 5482. 877. o
1201 1 6 9 4 5725. 5482. 877. o
1202 2 -9 -9 4 2637. 3472. 750. o
1202 1 7 9 4 2637. 3472. 750. o
1203 2 7 -10 4 2198. 2411. 812. <
1203 1 -9 10 4 2198. 2411. 812. <
1204 2 6 -10 4 4673. 4378. 710. o
1204 1 -8 10 4 4673. 4378. 710. o
1205 2 5 -10 4 36. 105. 418. <
1205 1 -7 10 4 36. 105. 418. <
1206 2 4 -10 4 17. 1066. 508. <
1206 1 -6 10 4 17. 1066. 508. <
1207 2 3 -10 4 213. 195. 378. <
1207 1 -5 10 4 213. 195. 378. <
1208 2 2 -10 4 121. 353. 314. <
1208 1 -4 10 4 121. 353. 314. <
1209 2 1 -10 4 1031. 1231. 361. o
1209 1 -3 10 4 1031. 1231. 361. o
1210 2 0 -10 4 1283. 1343. 344. o
1210 1 -2 10 4 1283. 1343. 344. o
1211 2 -1 -10 4 2360. 2094. 329. o
1211 1 -1 10 4 2360. 2094. 329. o
1212 2 -2 -10 4 2736. 2979. 404. o
1212 1 0 10 4 2736. 2979. 404. o
1213 2 -3 -10 4 492. 585. 228. <
1213 1 1 10 4 492. 585. 228. <
1214 2 -4 -10 4 493. 915. 356. <
1214 1 2 10 4 493. 915. 356. <
1215 2 -5 -10 4 684. 773. 263. <
1215 1 3 10 4 684. 773. 263. <
1216 2 -6 -10 4 59. 101. 423. <
1216 1 4 10 4 59. 101. 423. <
1217 2 -7 -10 4 355. 242. 592. <
1217 1 5 10 4 355. 242. 592. <
1218 2 -8 -10 4 5346. 6163. 1152. o
1218 1 6 10 4 5346. 6163. 1152. o
1219 2 -9 -10 4 3836. 3039. 1056. <
1219 1 7 10 4 3836. 3039. 1056. <
1220 2 7 -11 4 911. -160. 694. <
1220 1 -9 11 4 911. -160. 694. <
1221 2 6 -11 4 27. 589. 440. <
1221 1 -8 11 4 27. 589. 440. <
1222 2 5 -11 4 574. 188. 433. <
1222 1 -7 11 4 574. 188. 433. <
1223 2 4 -11 4 403. 573. 401. <
1223 1 -6 11 4 403. 573. 401. <
1224 2 3 -11 4 46. -487. 448. <
1224 1 -5 11 4 46. -487. 448. <
1225 2 2 -11 4 582. 471. 337. <
1225 1 -4 11 4 582. 471. 337. <
1226 2 1 -11 4 742. 503. 291. <
1226 1 -3 11 4 742. 503. 291. <
1227 2 0 -11 4 265. 456. 287. <
1227 1 -2 11 4 265. 456. 287. <
1228 2 -1 -11 4 667. 325. 234. <
1228 1 -1 11 4 667. 325. 234. <
1229 2 -2 -11 4 386. 121. 266. <
1229 1 0 11 4 386. 121. 266. <
1230 2 -3 -11 4 344. 965. 435. <
1230 1 1 11 4 344. 965. 435. <
1231 2 -4 -11 4 180. 91. 333. <
1231 1 2 11 4 180. 91. 333. <
1232 2 -5 -11 4 84. -842. 490. <
1232 1 3 11 4 84. -842. 490. <
1233 2 -6 -11 4 420. 638. 610. <
1233 1 4 11 4 420. 638. 610. <
1234 2 -7 -11 4 445. 743. 537. <
1234 1 5 11 4 445. 743. 537. <
1235 2 -8 -11 4 104. 232. 473. <
1235 1 6 11 4 104. 232. 473. <
1236 2 6 -12 4 36908. 35798. 4414. o
1236 1 -8 12 4 36908. 35798. 4414. o
1237 2 5 -12 4 3987. 5241. 971. o
1237 1 -7 12 4 3987. 5241. 971. o
1238 2 4 -12 4 2998. 2853. 583. o
1238 1 -6 12 4 2998. 2853. 583. o
1239 2 3 -12 4 97431. 104298. 4247. o
1239 1 -5 12 4 97431. 104298. 4247. o
1240 2 2 -12 4 98087. 96230. 3265. o
1240 1 -4 12 4 98087. 96230. 3265. o
1241 2 1 -12 4 94712. 98572. 3166. o
1241 1 -3 12 4 94712. 98572. 3166. o
1242 2 0 -12 4 81446. 83039. 2868. o
1242 1 -2 12 4 81446. 83039. 2868. o
1243 2 -1 -12 4 397927. 393875. 8499. o
1243 1 -1 12 4 397927. 393875. 8499. o
1244 2 -2 -12 4 83258. 84456. 3247. o
1244 1 0 12 4 83258. 84456. 3247. o
1245 2 -3 -12 4 90915. 94542. 4302. o
1245 1 1 12 4 90915. 94542. 4302. o
1246 2 -4 -12 4 95010. 101889. 3467. o
1246 1 2 12 4 95010. 101889. 3467. o
1247 2 -5 -12 4 93398. 94574. 4807. o
1247 1 3 12 4 93398. 94574. 4807. o
1248 2 -6 -12 4 1680. 1143. 768. <
1248 1 4 12 4 1680. 1143. 768. <
1249 2 -7 -12 4 4199. 6346. 1204. o
1249 1 5 12 4 4199. 6346. 1204. o
1250 2 5 -13 4 4403. 5237. 1753. <
1250 1 -7 13 4 4403. 5237. 1753. <
1251 2 4 -13 4 3431. 3276. 771. o
1251 1 -6 13 4 3431. 3276. 771. o
1252 2 3 -13 4 3202. 3044. 744. o
1252 1 -5 13 4 3202. 3044. 744. o
1253 2 2 -13 4 3873. 3705. 654. o
1253 1 -4 13 4 3873. 3705. 654. o
1254 2 1 -13 4 2936. 3466. 649. o
1254 1 -3 13 4 2936. 3466. 649. o
1255 2 0 -13 4 4555. 3814. 755. o
1255 1 -2 13 4 4555. 3814. 755. o
1256 2 -1 -13 4 5033. 3876. 717. o
1256 1 -1 13 4 5033. 3876. 717. o
1257 2 -2 -13 4 3109. 3097. 642. o
1257 1 0 13 4 3109. 3097. 642. o
1258 2 -3 -13 4 5569. 5167. 996. o
1258 1 1 13 4 5569. 5167. 996. o
1259 2 -4 -13 4 3516. 3018. 787. o
1259 1 2 13 4 3516. 3018. 787. o
1260 2 -5 -13 4 1021. 1561. 597. <
1260 1 3 13 4 1021. 1561. 597. <
1261 2 -6 -13 4 3302. 3712. 1281. <
1261 1 4 13 4 3302. 3712. 1281. <
1262 2 -7 -13 4 2615. 3427. 1298. <
1262 1 5 13 4 2615. 3427. 1298. <
1263 2 4 -14 4 4656. 4024. 1086. o
1263 1 -6 14 4 4656. 4024. 1086. o
1264 2 3 -14 4 2335. 1403. 803. <
1264 1 -5 14 4 2335. 1403. 803. <
1265 2 2 -14 4 3733. 4581. 867. o
1265 1 -4 14 4 3733. 4581. 867. o
1266 2 1 -14 4 4793. 4207. 825. o
1266 1 -3 14 4 4793. 4207. 825. o
1267 2 0 -14 4 9445. 9675. 1188. o
1267 1 -2 14 4 9445. 9675. 1188. o
1268 2 -1 -14 4 11346. 11157. 1231. o
1268 1 -1 14 4 11346. 11157. 1231. o
1269 2 -2 -14 4 7921. 7140. 994. o
1269 1 0 14 4 7921. 7140. 994. o
1270 2 -3 -14 4 6901. 6071. 937. o
1270 1 1 14 4 6901. 6071. 937. o
1271 2 -4 -14 4 3880. 4188. 899. o
1271 1 2 14 4 3880. 4188. 899. o
1272 2 -5 -14 4 2732. 3535. 1904. <
1272 1 3 14 4 2732. 3535. 1904. <
1273 2 2 -15 4 1210. 807. 666. <
1273 1 -4 15 4 1210. 807. 666. <
1274 2 1 -15 4 1786. -263. 455. <
1274 1 -3 15 4 1786. -263. 455. <
1275 2 0 -15 4 3091. 1330. 673. <
1275 1 -2 15 4 3091. 1330. 673. <
1276 2 -1 -15 4 2152. 2085. 680. o
1276 1 -1 15 4 2152. 2085. 680. o
1277 2 -2 -15 4 1911. 2958. 837. o
1277 1 0 15 4 1911. 2958. 837. o
1278 2 -3 -15 4 1429. 1727. 658. <
1278 1 1 15 4 1429. 1727. 658. <
1279 2 -4 -15 4 1521. 2538. 1828. <
1279 1 2 15 4 1521. 2538. 1828. <
1280 2 0 -16 4 26051. 23336. 3171. o
1280 1 -2 16 4 26051. 23336. 3171. o
1281 2 -1 -16 4 202835. 198515. 10145. o
1281 1 -1 16 4 202835. 198515. 10145. o
1282 2 -2 -16 4 26328. 29970. 3611. o
1282 1 0 16 4 26328. 29970. 3611. o
1283 1 -12 1 5 1201. 830. 502. <
1284 1 -11 1 5 292. 365. 307. <
1285 1 -10 1 5 12364. 12404. 831. o
1286 1 -9 1 5 27762. 27860. 1166. o
1287 1 -8 1 5 4899. 4605. 389. o
1288 1 -7 1 5 260. 586. 171. o
1289 1 -6 1 5 19010. 19387. 701. o
1290 1 -5 1 5 1679. 1888. 247. o
1291 1 -4 1 5 602. 1084. 178. o
1292 1 -3 1 5 11747. 12024. 491. o
1293 1 -2 1 5 35203. 35303. 794. o
1294 1 -1 1 5 49374. 49341. 980. o
1295 1 0 1 5 13999. 15406. 473. o
1296 1 1 1 5 1896. 2233. 254. o
1297 1 2 1 5 48. 1035. 340. o
1298 1 3 1 5 845. 1805. 317. o
1299 1 4 1 5 24833. 24556. 795. o
1300 1 5 1 5 371. 375. 190. <
1301 1 6 1 5 1364. 1110. 299. o
1302 1 7 1 5 64299. 64411. 2183. o
1303 1 8 1 5 970. 990. 330. <
1304 1 9 1 5 5398. 4406. 651. o
1305 1 -12 2 5 201. -1152. 604. <
1306 1 -11 2 5 511. 274. 344. <
1307 1 -10 2 5 3891. 4783. 636. o
1308 1 -9 2 5 8613. 8793. 653. o
1309 1 -8 2 5 8969. 9071. 533. o
1310 1 -7 2 5 4963. 4741. 363. o
1311 1 -6 2 5 221. 335. 175. <
1312 1 -5 2 5 80. 12. 130. <
1313 1 -4 2 5 334. 422. 151. <
1314 1 -3 2 5 5078. 5094. 338. o
1315 1 -2 2 5 23562. 23187. 703. o
1316 1 -1 2 5 29483. 28834. 616. o
1317 1 0 2 5 10350. 9924. 363. o
1318 1 1 2 5 1184. 1182. 174. o
1319 1 2 2 5 293. 354. 165. <
1320 1 3 2 5 269. 230. 177. <
1321 1 4 2 5 1528. 1475. 251. o
1322 1 5 2 5 5764. 5673. 560. o
1323 1 6 2 5 7965. 6389. 692. o
1324 1 7 2 5 5028. 6218. 763. o
1325 1 8 2 5 511. 398. 306. <
1326 1 9 2 5 1. 889. 478. <
1327 1 -12 3 5 863. 1776. 1059. <
1328 1 -11 3 5 144. -436. 376. <
1329 1 -10 3 5 1174. 1064. 346. o
1330 1 -9 3 5 1351. 1376. 304. o
1331 1 -8 3 5 1907. 2259. 297. o
1332 1 -7 3 5 4041. 3758. 345. o
1333 1 -6 3 5 27449. 27143. 866. o
1334 1 -5 3 5 18796. 17907. 796. o
1335 1 -4 3 5 3. 586. 228. <
1336 1 -3 3 5 2586. 2834. 272. o
1337 1 -2 3 5 77. 223. 94. <
1338 1 -1 3 5 80. 225. 109. <
1339 1 0 3 5 265. 762. 129. o
1340 1 1 3 5 2745. 3081. 279. o
1341 1 2 3 5 6853. 6258. 411. o
1342 1 3 3 5 14935. 15203. 689. o
1343 1 4 3 5 18817. 17561. 736. o
1344 1 5 3 5 7807. 8418. 745. o
1345 1 6 3 5 2528. 2015. 440. o
1346 1 7 3 5 28857. 30357. 1608. o
1347 1 8 3 5 786. 244. 361. <
1348 1 9 3 5 1236. 345. 420. <
1349 1 -11 4 5 2071. 2419. 559. o
1350 1 -10 4 5 3702. 2928. 610. o
1351 1 -9 4 5 4885. 4605. 580. o
1352 1 -8 4 5 3762. 3593. 449. o
1353 1 -7 4 5 7736. 7787. 486. o
1354 1 -6 4 5 6092. 5480. 421. o
1355 1 -5 4 5 3618. 3433. 335. o
1356 1 -4 4 5 8850. 8350. 488. o
1357 1 -3 4 5 7527. 7497. 458. o
1358 1 -2 4 5 8124. 8500. 482. o
1359 1 -1 4 5 12303. 12285. 622. o
1360 1 0 4 5 6924. 6846. 362. o
1361 1 1 4 5 7914. 7676. 408. o
1362 1 2 4 5 6028. 6296. 425. o
1363 1 3 4 5 2051. 2234. 287. o
1364 1 4 4 5 5259. 5707. 456. o
1365 1 5 4 5 4626. 4206. 561. o
1366 1 6 4 5 2030. 1840. 354. o
1367 1 7 4 5 3444. 3145. 626. o
1368 1 8 4 5 2037. 1485. 610. <
1369 1 9 4 5 912. 475. 634. <
1370 1 -11 5 5 21865. 24400. 1819. o
1371 1 -10 5 5 15133. 14333. 1342. o
1372 1 -9 5 5 19437. 19275. 1282. o
1373 1 -8 5 5 67351. 68604. 2364. o
1374 1 -7 5 5 55989. 54604. 1791. o
1375 1 -6 5 5 5054. 4948. 417. o
1376 1 -5 5 5 16287. 15085. 682. o
1377 1 -4 5 5 40626. 39305. 1174. o
1378 1 -3 5 5 59492. 56451. 1408. o
1379 1 -2 5 5 81025. 79814. 1964. o
1380 1 -1 5 5 62588. 61546. 1575. o
1381 1 0 5 5 79398. 78742. 1656. o
1382 1 1 5 5 35985. 36743. 954. o
1383 1 2 5 5 21200. 21572. 724. o
1384 1 3 5 5 18229. 17397. 772. o
1385 1 4 5 5 2836. 3250. 432. o
1386 1 5 5 5 83661. 86883. 2574. o
1387 1 6 5 5 61332. 65346. 2749. o
1388 1 7 5 5 718. 272. 320. <
1389 1 8 5 5 34487. 37094. 2315. o
1390 1 -11 6 5 4023. 4849. 1230. o
1391 1 -10 6 5 5661. 5997. 897. o
1392 1 -9 6 5 11404. 9822. 941. o
1393 1 -8 6 5 15659. 17975. 1236. o
1394 1 -7 6 5 7670. 7886. 693. o
1395 1 -6 6 5 4662. 5339. 596. o
1396 1 -5 6 5 1137. 1330. 306. o
1397 1 -4 6 5 1893. 1554. 273. o
1398 1 -3 6 5 20011. 19652. 829. o
1399 1 -2 6 5 26389. 26436. 921. o
1400 1 -1 6 5 27021. 27359. 1061. o
1401 1 0 6 5 27194. 27785. 958. o
1402 1 1 6 5 4539. 4733. 358. o
1403 1 2 6 5 772. 536. 203. <
1404 1 3 6 5 2343. 2319. 311. o
1405 1 4 6 5 3789. 3665. 448. o
1406 1 5 6 5 13595. 13474. 989. o
1407 1 6 6 5 13806. 13413. 1264. o
1408 1 7 6 5 5985. 5660. 892. o
1409 1 8 6 5 4562. 5095. 885. o
1410 1 -11 7 5 4370. 6302. 1979. o
1411 1 -10 7 5 656. 969. 463. <
1412 1 -9 7 5 26. -307. 322. <
1413 1 -8 7 5 2910. 3352. 595. o
1414 1 -7 7 5 22852. 23697. 1301. o
1415 1 -6 7 5 396. 171. 267. <
1416 1 -5 7 5 7519. 7154. 751. o
1417 1 -4 7 5 46588. 46818. 1588. o
1418 1 -3 7 5 4979. 4526. 461. o
1419 1 -2 7 5 934. 1209. 302. o
1420 1 -1 7 5 2499. 2167. 363. o
1421 1 0 7 5 3314. 3406. 388. o
1422 1 1 7 5 17595. 18285. 758. o
1423 1 2 7 5 25567. 25248. 889. o
1424 1 3 7 5 8531. 8610. 571. o
1425 1 4 7 5 1247. 1198. 300. o
1426 1 5 7 5 20169. 19249. 1223. o
1427 1 6 7 5 5890. 7982. 1012. o
1428 1 7 7 5 6143. 6149. 930. o
1429 1 8 7 5 11845. 10596. 1691. o
1430 1 -10 8 5 4746. 4075. 1083. o
1431 1 -9 8 5 6229. 6647. 820. o
1432 1 -8 8 5 12833. 13708. 1157. o
1433 1 -7 8 5 5650. 6462. 848. o
1434 1 -6 8 5 7777. 7066. 821. o
1435 1 -5 8 5 12971. 13288. 1070. o
1436 1 -4 8 5 4640. 3952. 468. o
1437 1 -3 8 5 10934. 11406. 758. o
1438 1 -2 8 5 15689. 16035. 1032. o
1439 1 -1 8 5 10396. 11805. 776. o
1440 1 0 8 5 16642. 16923. 938. o
1441 1 1 8 5 7075. 7524. 563. o
1442 1 2 8 5 4537. 4458. 408. o
1443 1 3 8 5 10383. 11136. 671. o
1444 1 4 8 5 3027. 2805. 458. o
1445 1 5 8 5 4239. 4325. 610. o
1446 1 6 8 5 9495. 10074. 1003. o
1447 1 7 8 5 2926. 2631. 581. o
1448 1 8 8 5 2492. 1825. 705. <
1449 1 -10 9 5 36283. 35017. 4004. o
1450 1 -9 9 5 57622. 63270. 2693. o
1451 1 -8 9 5 23055. 21737. 1494. o
1452 1 -7 9 5 25110. 24909. 1648. o
1453 1 -6 9 5 47391. 43950. 2149. o
1454 1 -5 9 5 20826. 22288. 1446. o
1455 1 -4 9 5 26115. 26486. 1492. o
1456 1 -3 9 5 40775. 39569. 1742. o
1457 1 -2 9 5 71239. 71009. 2091. o
1458 1 -1 9 5 106833. 104543. 2291. o
1459 1 0 9 5 40670. 38192. 1443. o
1460 1 1 9 5 32958. 33791. 1314. o
1461 1 2 9 5 19887. 20594. 943. o
1462 1 3 9 5 16273. 17166. 1113. o
1463 1 4 9 5 69801. 69160. 2955. o
1464 1 5 9 5 9573. 9930. 1113. o
1465 1 6 9 5 14656. 15014. 1448. o
1466 1 7 9 5 100766. 95836. 5037. o
1467 1 -10 10 5 10590. 9576. 2271. o
1468 1 -9 10 5 15442. 14748. 1711. o
1469 1 -8 10 5 13591. 14842. 1287. o
1470 1 -7 10 5 15090. 14718. 1328. o
1471 1 -6 10 5 5401. 4775. 739. o
1472 1 -5 10 5 6378. 6701. 840. o
1473 1 -4 10 5 12819. 11913. 1032. o
1474 1 -3 10 5 10364. 9560. 875. o
1475 1 -2 10 5 33580. 31952. 1402. o
1476 1 -1 10 5 41496. 40849. 1404. o
1477 1 0 10 5 14688. 13665. 879. o
1478 1 1 10 5 14201. 15094. 1163. o
1479 1 2 10 5 7361. 8343. 910. o
1480 1 3 10 5 4074. 4576. 720. o
1481 1 4 10 5 14054. 15880. 1368. o
1482 1 5 10 5 13084. 14205. 1640. o
1483 1 6 10 5 15636. 21095. 2108. o
1484 1 -9 11 5 2761. 1551. 1257. <
1485 1 -8 11 5 813. 1763. 594. <
1486 1 -7 11 5 937. 702. 389. <
1487 1 -6 11 5 18359. 18430. 1473. o
1488 1 -5 11 5 16500. 15398. 1527. o
1489 1 -4 11 5 3. 20. 323. <
1490 1 -3 11 5 7205. 6970. 785. o
1491 1 -2 11 5 4105. 3567. 505. o
1492 1 -1 11 5 345. 186. 238. <
1493 1 0 11 5 4557. 4487. 709. o
1494 1 1 11 5 2816. 3541. 665. o
1495 1 2 11 5 4228. 5695. 809. o
1496 1 3 11 5 13876. 15034. 2106. o
1497 1 4 11 5 9714. 11559. 1468. o
1498 1 5 11 5 389. 249. 568. <
1499 1 6 11 5 94. 232. 588. <
1500 1 -7 12 5 7533. 7178. 1005. o
1501 1 -6 12 5 3704. 2903. 747. o
1502 1 -5 12 5 511. -73. 348. <
1503 1 -4 12 5 6334. 6396. 813. o
1504 1 -3 12 5 3405. 3724. 538. o
1505 1 -2 12 5 3697. 4116. 652. o
1506 1 -1 12 5 9471. 8631. 1003. o
1507 1 0 12 5 2607. 1733. 456. o
1508 1 1 12 5 4856. 5066. 815. o
1509 1 2 12 5 3482. 3250. 615. o
1510 1 3 12 5 35. 121. 637. <
1511 1 4 12 5 4115. 4812. 995. o
1512 1 5 12 5 3817. 3684. 852. o
1513 1 -7 13 5 14792. 12902. 2671. o
1514 1 -6 13 5 2289. 3426. 853. o
1515 1 -5 13 5 7463. 7944. 1167. o
1516 1 -4 13 5 7225. 8678. 1142. o
1517 1 -3 13 5 22405. 23701. 1599. o
1518 1 -2 13 5 25516. 26996. 1894. o
1519 1 -1 13 5 12357. 13282. 1317. o
1520 1 0 13 5 29719. 30421. 1980. o
1521 1 1 13 5 8849. 8501. 1205. o
1522 1 2 13 5 5310. 4998. 1068. o
1523 1 3 13 5 9534. 13032. 2151. o
1524 1 4 13 5 87. -154. 751. <
1525 1 -6 14 5 8360. 8350. 2389. o
1526 1 -5 14 5 4541. 6982. 1941. o
1527 1 -4 14 5 3941. 4339. 781. o
1528 1 -3 14 5 20809. 22979. 1862. o
1529 1 -2 14 5 15796. 15636. 1495. o
1530 1 -1 14 5 13888. 14095. 1409. o
1531 1 0 14 5 24101. 24888. 1879. o
1532 1 1 14 5 6957. 7286. 997. o
1533 1 2 14 5 4632. 3165. 1749. <
1534 1 3 14 5 8671. 14633. 3571. o
1535 1 -2 15 5 69. 48. 388. <
1536 1 -1 15 5 744. 598. 577. <
1537 1 0 15 5 37. 883. 596. <
1538 1 1 15 5 1942. 1877. 651. <
1539 1 2 15 5 3442. 8831. 2771. o
1540 2 9 0 6 1379. 1873. 985. <
1540 1 -12 0 6 1379. 1873. 985. <
1541 2 8 0 6 1028. 1776. 546. o
1541 1 -11 0 6 1028. 1776. 546. o
1542 2 7 0 6 406. 724. 352. <
1542 1 -10 0 6 406. 724. 352. <
1543 2 6 0 6 3095. 3433. 714. o
1543 1 -9 0 6 3095. 3433. 714. o
1544 2 5 0 6 2969. 2899. 421. o
1544 1 -8 0 6 2969. 2899. 421. o
1545 2 4 0 6 1328. 1670. 330. o
1545 1 -7 0 6 1328. 1670. 330. o
1546 2 3 0 6 715. 845. 271. o
1546 1 -6 0 6 715. 845. 271. o
1547 2 2 0 6 969. 1273. 363. o
1547 1 -5 0 6 969. 1273. 363. o
1548 2 1 0 6 54. -39. 177. <
1548 1 -4 0 6 54. -39. 177. <
1549 2 0 0 6 28. 322. 226. <
1549 1 -3 0 6 28. 322. 226. <
1550 2 -1 0 6 1195. 1556. 246. o
1550 1 -2 0 6 1195. 1556. 246. o
1551 2 -2 0 6 316. 432. 214. <
1551 1 -1 0 6 316. 432. 214. <
1552 2 -3 0 6 299. 509. 159. o
1552 1 0 0 6 299. 509. 159. o
1553 2 -4 0 6 95. 172. 155. <
1553 1 1 0 6 95. 172. 155. <
1554 2 -5 0 6 112. 125. 220. <
1554 1 2 0 6 112. 125. 220. <
1555 2 -6 0 6 156. 102. 230. <
1555 1 3 0 6 156. 102. 230. <
1556 2 -7 0 6 2609. 1751. 382. o
1556 1 4 0 6 2609. 1751. 382. o
1557 2 -8 0 6 1125. 1067. 457. <
1557 1 5 0 6 1125. 1067. 457. <
1558 2 -9 0 6 4741. 4666. 835. o
1558 1 6 0 6 4741. 4666. 835. o
1559 2 -10 0 6 1927. 2029. 545. o
1559 1 7 0 6 1927. 2029. 545. o
1560 2 -11 0 6 1151. 477. 479. <
1560 1 8 0 6 1151. 477. 479. <
1561 2 -12 0 6 1973. 2595. 1139. <
1561 1 9 0 6 1973. 2595. 1139. <
1562 2 9 -1 6 134. -1140. 574. <
1562 1 -12 1 6 134. -1140. 574. <
1563 2 8 -1 6 149. 1079. 340. o
1563 1 -11 1 6 149. 1079. 340. o
1564 2 7 -1 6 5901. 5988. 637. o
1564 1 -10 1 6 5901. 5988. 637. o
1565 2 6 -1 6 9021. 9343. 642. o
1565 1 -9 1 6 9021. 9343. 642. o
1566 2 5 -1 6 5417. 5360. 446. o
1566 1 -8 1 6 5417. 5360. 446. o
1567 2 4 -1 6 2666. 2423. 282. o
1567 1 -7 1 6 2666. 2423. 282. o
1568 2 3 -1 6 670. 961. 215. o
1568 1 -6 1 6 670. 961. 215. o
1569 2 2 -1 6 1021. 1309. 197. o
1569 1 -5 1 6 1021. 1309. 197. o
1570 2 1 -1 6 194. 341. 133. <
1570 1 -4 1 6 194. 341. 133. <
1571 2 0 -1 6 2496. 2316. 211. o
1571 1 -3 1 6 2496. 2316. 211. o
1572 2 -1 -1 6 24872. 23955. 701. o
1572 1 -2 1 6 24872. 23955. 701. o
1573 2 -2 -1 6 23743. 23314. 888. o
1573 1 -1 1 6 23743. 23314. 888. o
1574 2 -3 -1 6 1322. 1310. 179. o
1574 1 0 1 6 1322. 1310. 179. o
1575 2 -4 -1 6 115. 230. 135. <
1575 1 1 1 6 115. 230. 135. <
1576 2 -5 -1 6 1530. 1809. 253. o
1576 1 2 1 6 1530. 1809. 253. o
1577 2 -6 -1 6 1314. 1260. 228. o
1577 1 3 1 6 1314. 1260. 228. o
1578 2 -7 -1 6 585. 592. 214. <
1578 1 4 1 6 585. 592. 214. <
1579 2 -8 -1 6 3933. 3785. 428. o
1579 1 5 1 6 3933. 3785. 428. o
1580 2 -9 -1 6 6458. 6351. 670. o
1580 1 6 1 6 6458. 6351. 670. o
1581 2 -10 -1 6 1890. 1957. 437. o
1581 1 7 1 6 1890. 1957. 437. o
1582 2 -11 -1 6 251. 239. 238. <
1582 1 8 1 6 251. 239. 238. <
1583 2 -12 -1 6 210. 134. 680. <
1583 1 9 1 6 210. 134. 680. <
1584 2 9 -2 6 1191. 1377. 634. <
1584 1 -12 2 6 1191. 1377. 634. <
1585 2 8 -2 6 57532. 55955. 2354. o
1585 1 -11 2 6 57532. 55955. 2354. o
1586 2 7 -2 6 185553. 186679. 4801. o
1586 1 -10 2 6 185553. 186679. 4801. o
1587 2 6 -2 6 56437. 59105. 1746. o
1587 1 -9 2 6 56437. 59105. 1746. o
1588 2 5 -2 6 98598. 100959. 2080. o
1588 1 -8 2 6 98598. 100959. 2080. o
1589 2 4 -2 6 554584. 548528. 5768. o
1589 1 -7 2 6 554584. 548528. 5768. o
1590 2 3 -2 6 152792. 149379. 2016. o
1590 1 -6 2 6 152792. 149379. 2016. o
1591 2 2 -2 6 110498. 109980. 2057. o
1591 1 -5 2 6 110498. 109980. 2057. o
1592 2 1 -2 6 418536. 400470. 4600. o
1592 1 -4 2 6 418536. 400470. 4600. o
1593 2 0 -2 6 98808. 96254. 1712. o
1593 1 -3 2 6 98808. 96254. 1712. o
1594 2 -1 -2 6 4466. 5350. 280. o
1594 1 -2 2 6 4466. 5350. 280. o
1595 2 -2 -2 6 2346. 2713. 230. o
1595 1 -1 2 6 2346. 2713. 230. o
1596 2 -3 -2 6 99351. 98275. 1609. o
1596 1 0 2 6 99351. 98275. 1609. o
1597 2 -4 -2 6 420609. 409641. 4522. o
1597 1 1 2 6 420609. 409641. 4522. o
1598 2 -5 -2 6 116516. 115858. 2071. o
1598 1 2 2 6 116516. 115858. 2071. o
1599 2 -6 -2 6 145569. 143832. 2508. o
1599 1 3 2 6 145569. 143832. 2508. o
1600 2 -7 -2 6 535169. 520517. 6337. o
1600 1 4 2 6 535169. 520517. 6337. o
1601 2 -8 -2 6 97654. 96747. 2414. o
1601 1 5 2 6 97654. 96747. 2414. o
1602 2 -9 -2 6 52184. 50381. 2015. o
1602 1 6 2 6 52184. 50381. 2015. o
1603 2 -10 -2 6 164398. 170205. 4220. o
1603 1 7 2 6 164398. 170205. 4220. o
1604 2 -11 -2 6 56253. 61072. 2333. o
1604 1 8 2 6 56253. 61072. 2333. o
1605 2 -12 -2 6 1563. 4834. 1678. <
1605 1 9 2 6 1563. 4834. 1678. <
1606 2 9 -3 6 5429. 4255. 1509. <
1606 1 -12 3 6 5429. 4255. 1509. <
1607 2 8 -3 6 1585. 2084. 526. o
1607 1 -11 3 6 1585. 2084. 526. o
1608 2 7 -3 6 1025. 1166. 387. o
1608 1 -10 3 6 1025. 1166. 387. o
1609 2 6 -3 6 128. 109. 252. <
1609 1 -9 3 6 128. 109. 252. <
1610 2 5 -3 6 123. 200. 187. <
1610 1 -8 3 6 123. 200. 187. <
1611 2 4 -3 6 7075. 7324. 461. o
1611 1 -7 3 6 7075. 7324. 461. o
1612 2 3 -3 6 17514. 16996. 792. o
1612 1 -6 3 6 17514. 16996. 792. o
1613 2 2 -3 6 33205. 32613. 1142. o
1613 1 -5 3 6 33205. 32613. 1142. o
1614 2 1 -3 6 23884. 23955. 830. o
1614 1 -4 3 6 23884. 23955. 830. o
1615 2 0 -3 6 1607. 1529. 236. o
1615 1 -3 3 6 1607. 1529. 236. o
1616 2 -1 -3 6 610. 726. 146. o
1616 1 -2 3 6 610. 726. 146. o
1617 2 -2 -3 6 911. 843. 143. o
1617 1 -1 3 6 911. 843. 143. o
1618 2 -3 -3 6 2880. 2855. 226. o
1618 1 0 3 6 2880. 2855. 226. o
1619 2 -4 -3 6 28267. 26803. 860. o
1619 1 1 3 6 28267. 26803. 860. o
1620 2 -5 -3 6 41331. 38926. 1112. o
1620 1 2 3 6 41331. 38926. 1112. o
1621 2 -6 -3 6 23752. 22914. 889. o
1621 1 3 3 6 23752. 22914. 889. o
1622 2 -7 -3 6 8463. 8524. 659. o
1622 1 4 3 6 8463. 8524. 659. o
1623 2 -8 -3 6 1055. 1026. 276. o
1623 1 5 3 6 1055. 1026. 276. o
1624 2 -9 -3 6 1604. 1426. 311. o
1624 1 6 3 6 1604. 1426. 311. o
1625 2 -10 -3 6 2984. 3677. 1923. <
1625 1 7 3 6 2984. 3677. 1923. <
1626 2 -11 -3 6 4021. 4631. 770. o
1626 1 8 3 6 4021. 4631. 770. o
1627 2 8 -4 6 624. 1360. 472. <
1627 1 -11 4 6 624. 1360. 472. <
1628 2 7 -4 6 738. 202. 351. <
1628 1 -10 4 6 738. 202. 351. <
1629 2 6 -4 6 1186. 1208. 384. o
1629 1 -9 4 6 1186. 1208. 384. o
1630 2 5 -4 6 1554. 1195. 290. o
1630 1 -8 4 6 1554. 1195. 290. o
1631 2 4 -4 6 484. 868. 254. o
1631 1 -7 4 6 484. 868. 254. o
1632 2 3 -4 6 220. 46. 227. <
1632 1 -6 4 6 220. 46. 227. <
1633 2 2 -4 6 5388. 6027. 514. o
1633 1 -5 4 6 5388. 6027. 514. o
1634 2 1 -4 6 633. 547. 197. <
1634 1 -4 4 6 633. 547. 197. <
1635 2 0 -4 6 63. 612. 239. <
1635 1 -3 4 6 63. 612. 239. <
1636 2 -1 -4 6 214. 563. 164. o
1636 1 -2 4 6 214. 563. 164. o
1637 2 -2 -4 6 17. 470. 189. <
1637 1 -1 4 6 17. 470. 189. <
1638 2 -3 -4 6 526. 948. 187. o
1638 1 0 4 6 526. 948. 187. o
1639 2 -4 -4 6 569. 438. 160. <
1639 1 1 4 6 569. 438. 160. <
1640 2 -5 -4 6 2483. 2010. 270. o
1640 1 2 4 6 2483. 2010. 270. o
1641 2 -6 -4 6 1643. 1466. 252. o
1641 1 3 4 6 1643. 1466. 252. o
1642 2 -7 -4 6 1022. 959. 261. o
1642 1 4 4 6 1022. 959. 261. o
1643 2 -8 -4 6 1034. 1421. 357. o
1643 1 5 4 6 1034. 1421. 357. o
1644 2 -9 -4 6 4047. 4356. 498. o
1644 1 6 4 6 4047. 4356. 498. o
1645 2 -10 -4 6 1287. 1400. 395. o
1645 1 7 4 6 1287. 1400. 395. o
1646 2 -11 -4 6 388. 369. 414. <
1646 1 8 4 6 388. 369. 414. <
1647 2 8 -5 6 6146. 6047. 1066. o
1647 1 -11 5 6 6146. 6047. 1066. o
1648 2 7 -5 6 6814. 6926. 916. o
1648 1 -10 5 6 6814. 6926. 916. o
1649 2 6 -5 6 13885. 14742. 1138. o
1649 1 -9 5 6 13885. 14742. 1138. o
1650 2 5 -5 6 17588. 18828. 1227. o
1650 1 -8 5 6 17588. 18828. 1227. o
1651 2 4 -5 6 5990. 5371. 605. o
1651 1 -7 5 6 5990. 5371. 605. o
1652 2 3 -5 6 3339. 3595. 406. o
1652 1 -6 5 6 3339. 3595. 406. o
1653 2 2 -5 6 1069. 1182. 272. o
1653 1 -5 5 6 1069. 1182. 272. o
1654 2 1 -5 6 3653. 4412. 509. o
1654 1 -4 5 6 3653. 4412. 509. o
1655 2 0 -5 6 25565. 26768. 1104. o
1655 1 -3 5 6 25565. 26768. 1104. o
1656 2 -1 -5 6 27954. 28445. 905. o
1656 1 -2 5 6 27954. 28445. 905. o
1657 2 -2 -5 6 26532. 26752. 1034. o
1657 1 -1 5 6 26532. 26752. 1034. o
1658 2 -3 -5 6 23165. 23413. 880. o
1658 1 0 5 6 23165. 23413. 880. o
1659 2 -4 -5 6 3118. 2872. 281. o
1659 1 1 5 6 3118. 2872. 281. o
1660 2 -5 -5 6 284. 337. 192. <
1660 1 2 5 6 284. 337. 192. <
1661 2 -6 -5 6 2510. 2322. 316. o
1661 1 3 5 6 2510. 2322. 316. o
1662 2 -7 -5 6 7479. 6549. 578. o
1662 1 4 5 6 7479. 6549. 578. o
1663 2 -8 -5 6 12842. 12516. 878. o
1663 1 5 5 6 12842. 12516. 878. o
1664 2 -9 -5 6 10325. 10749. 956. o
1664 1 6 5 6 10325. 10749. 956. o
1665 2 -10 -5 6 6473. 6797. 838. o
1665 1 7 5 6 6473. 6797. 838. o
1666 2 -11 -5 6 3351. 2501. 738. o
1666 1 8 5 6 3351. 2501. 738. o
1667 2 8 -6 6 63488. 62388. 4170. o
1667 1 -11 6 6 63488. 62388. 4170. o
1668 2 7 -6 6 125494. 131298. 3788. o
1668 1 -10 6 6 125494. 131298. 3788. o
1669 2 6 -6 6 61089. 60972. 2391. o
1669 1 -9 6 6 61089. 60972. 2391. o
1670 2 5 -6 6 98685. 97177. 2964. o
1670 1 -8 6 6 98685. 97177. 2964. o
1671 2 4 -6 6 387365. 377311. 6328. o
1671 1 -7 6 6 387365. 377311. 6328. o
1672 2 3 -6 6 143899. 142317. 3296. o
1672 1 -6 6 6 143899. 142317. 3296. o
1673 2 2 -6 6 106537. 102895. 2319. o
1673 1 -5 6 6 106537. 102895. 2319. o
1674 2 1 -6 6 258230. 246120. 4322. o
1674 1 -4 6 6 258230. 246120. 4322. o
1675 2 0 -6 6 98970. 99127. 2057. o
1675 1 -3 6 6 98970. 99127. 2057. o
1676 2 -1 -6 6 208. 874. 228. o
1676 1 -2 6 6 208. 874. 228. o
1677 2 -2 -6 6 33. 483. 207. <
1677 1 -1 6 6 33. 483. 207. <
1678 2 -3 -6 6 91250. 91478. 1953. o
1678 1 0 6 6 91250. 91478. 1953. o
1679 2 -4 -6 6 272373. 269661. 3467. o
1679 1 1 6 6 272373. 269661. 3467. o
1680 2 -5 -6 6 107456. 106314. 2117. o
1680 1 2 6 6 107456. 106314. 2117. o
1681 2 -6 -6 6 136503. 133665. 2513. o
1681 1 3 6 6 136503. 133665. 2513. o
1682 2 -7 -6 6 375564. 370820. 5624. o
1682 1 4 6 6 375564. 370820. 5624. o
1683 2 -8 -6 6 92497. 91041. 2822. o
1683 1 5 6 6 92497. 91041. 2822. o
1684 2 -9 -6 6 49910. 56897. 2331. o
1684 1 6 6 6 49910. 56897. 2331. o
1685 2 -10 -6 6 122097. 127854. 3836. o
1685 1 7 6 6 122097. 127854. 3836. o
1686 2 -11 -6 6 54386. 52234. 3039. o
1686 1 8 6 6 54386. 52234. 3039. o
1687 2 8 -7 6 14024. 10705. 2583. o
1687 1 -11 7 6 14024. 10705. 2583. o
1688 2 7 -7 6 6073. 5935. 797. o
1688 1 -10 7 6 6073. 5935. 797. o
1689 2 6 -7 6 5587. 5218. 738. o
1689 1 -9 7 6 5587. 5218. 738. o
1690 2 5 -7 6 9963. 10172. 972. o
1690 1 -8 7 6 9963. 10172. 972. o
1691 2 4 -7 6 20777. 21303. 1254. o
1691 1 -7 7 6 20777. 21303. 1254. o
1692 2 3 -7 6 51310. 49929. 1888. o
1692 1 -6 7 6 51310. 49929. 1888. o
1693 2 2 -7 6 57571. 53648. 2168. o
1693 1 -5 7 6 57571. 53648. 2168. o
1694 2 1 -7 6 46320. 45042. 1616. o
1694 1 -4 7 6 46320. 45042. 1616. o
1695 2 0 -7 6 34712. 33370. 1311. o
1695 1 -3 7 6 34712. 33370. 1311. o
1696 2 -1 -7 6 9742. 10813. 626. o
1696 1 -2 7 6 9742. 10813. 626. o
1697 2 -2 -7 6 11020. 11174. 752. o
1697 1 -1 7 6 11020. 11174. 752. o
1698 2 -3 -7 6 38446. 40617. 1278. o
1698 1 0 7 6 38446. 40617. 1278. o
1699 2 -4 -7 6 53102. 53041. 1316. o
1699 1 1 7 6 53102. 53041. 1316. o
1700 2 -5 -7 6 65403. 63897. 1605. o
1700 1 2 7 6 65403. 63897. 1605. o
1701 2 -6 -7 6 54813. 54898. 1540. o
1701 1 3 7 6 54813. 54898. 1540. o
1702 2 -7 -7 6 27770. 28022. 1457. o
1702 1 4 7 6 27770. 28022. 1457. o
1703 2 -8 -7 6 15570. 15034. 1110. o
1703 1 5 7 6 15570. 15034. 1110. o
1704 2 -9 -7 6 7244. 9227. 955. o
1704 1 6 7 6 7244. 9227. 955. o
1705 2 -10 -7 6 11396. 12868. 1211. o
1705 1 7 7 6 11396. 12868. 1211. o
1706 2 -11 -7 6 24155. 23502. 3278. o
1706 1 8 7 6 24155. 23502. 3278. o
1707 2 7 -8 6 5237. 4000. 810. o
1707 1 -10 8 6 5237. 4000. 810. o
1708 2 6 -8 6 474. 624. 501. <
1708 1 -9 8 6 474. 624. 501. <
1709 2 5 -8 6 687. 532. 395. <
1709 1 -8 8 6 687. 532. 395. <
1710 2 4 -8 6 9456. 8657. 812. o
1710 1 -7 8 6 9456. 8657. 812. o
1711 2 3 -8 6 9329. 9428. 959. o
1711 1 -6 8 6 9329. 9428. 959. o
1712 2 2 -8 6 3341. 3604. 589. o
1712 1 -5 8 6 3341. 3604. 589. o
1713 2 1 -8 6 7559. 6990. 946. o
1713 1 -4 8 6 7559. 6990. 946. o
1714 2 0 -8 6 7225. 7572. 650. o
1714 1 -3 8 6 7225. 7572. 650. o
1715 2 -1 -8 6 3859. 4566. 481. o
1715 1 -2 8 6 3859. 4566. 481. o
1716 2 -2 -8 6 5387. 6221. 535. o
1716 1 -1 8 6 5387. 6221. 535. o
1717 2 -3 -8 6 5256. 5974. 657. o
1717 1 0 8 6 5256. 5974. 657. o
1718 2 -4 -8 6 7317. 7209. 577. o
1718 1 1 8 6 7317. 7209. 577. o
1719 2 -5 -8 6 5154. 5298. 431. o
1719 1 2 8 6 5154. 5298. 431. o
1720 2 -6 -8 6 4808. 5053. 575. o
1720 1 3 8 6 4808. 5053. 575. o
1721 2 -7 -8 6 11174. 12031. 971. o
1721 1 4 8 6 11174. 12031. 971. o
1722 2 -8 -8 6 1454. 1980. 498. o
1722 1 5 8 6 1454. 1980. 498. o
1723 2 -9 -8 6 48. 39. 380. <
1723 1 6 8 6 48. 39. 380. <
1724 2 -10 -8 6 7464. 5854. 910. o
1724 1 7 8 6 7464. 5854. 910. o
1725 2 -11 -8 6 5650. 4448. 1449. o
1725 1 8 8 6 5650. 4448. 1449. o
1726 2 7 -9 6 5215. 4837. 970. o
1726 1 -10 9 6 5215. 4837. 970. o
1727 2 6 -9 6 6566. 7464. 916. o
1727 1 -9 9 6 6566. 7464. 916. o
1728 2 5 -9 6 4048. 5239. 817. o
1728 1 -8 9 6 4048. 5239. 817. o
1729 2 4 -9 6 3991. 3889. 593. o
1729 1 -7 9 6 3991. 3889. 593. o
1730 2 3 -9 6 390. 671. 349. <
1730 1 -6 9 6 390. 671. 349. <
1731 2 2 -9 6 534. 354. 352. <
1731 1 -5 9 6 534. 354. 352. <
1732 2 1 -9 6 2472. 1899. 389. o
1732 1 -4 9 6 2472. 1899. 389. o
1733 2 0 -9 6 3745. 2967. 485. o
1733 1 -3 9 6 3745. 2967. 485. o
1734 2 -1 -9 6 15565. 15612. 981. o
1734 1 -2 9 6 15565. 15612. 981. o
1735 2 -2 -9 6 15037. 16555. 912. o
1735 1 -1 9 6 15037. 16555. 912. o
1736 2 -3 -9 6 3257. 3041. 466. o
1736 1 0 9 6 3257. 3041. 466. o
1737 2 -4 -9 6 1795. 1678. 377. o
1737 1 1 9 6 1795. 1678. 377. o
1738 2 -5 -9 6 852. 793. 278. <
1738 1 2 9 6 852. 793. 278. <
1739 2 -6 -9 6 548. 879. 342. <
1739 1 3 9 6 548. 879. 342. <
1740 2 -7 -9 6 2652. 2647. 538. o
1740 1 4 9 6 2652. 2647. 538. o
1741 2 -8 -9 6 5929. 6522. 947. o
1741 1 5 9 6 5929. 6522. 947. o
1742 2 -9 -9 6 6906. 7382. 1059. o
1742 1 6 9 6 6906. 7382. 1059. o
1743 2 -10 -9 6 3295. 2495. 1241. <
1743 1 7 9 6 3295. 2495. 1241. <
1744 2 6 -10 6 22433. 24230. 2140. o
1744 1 -9 10 6 22433. 24230. 2140. o
1745 2 5 -10 6 42802. 44467. 2415. o
1745 1 -8 10 6 42802. 44467. 2415. o
1746 2 4 -10 6 296262. 302845. 6930. o
1746 1 -7 10 6 296262. 302845. 6930. o
1747 2 3 -10 6 64521. 67173. 2781. o
1747 1 -6 10 6 64521. 67173. 2781. o
1748 2 2 -10 6 37697. 36006. 2312. o
1748 1 -5 10 6 37697. 36006. 2312. o
1749 2 1 -10 6 209620. 212039. 4968. o
1749 1 -4 10 6 209620. 212039. 4968. o
1750 2 0 -10 6 35592. 35254. 1732. o
1750 1 -3 10 6 35592. 35254. 1732. o
1751 2 -1 -10 6 5437. 4768. 561. o
1751 1 -2 10 6 5437. 4768. 561. o
1752 2 -2 -10 6 3380. 3720. 433. o
1752 1 -1 10 6 3380. 3720. 433. o
1753 2 -3 -10 6 39002. 38257. 1550. o
1753 1 0 10 6 39002. 38257. 1550. o
1754 2 -4 -10 6 204059. 201146. 5331. o
1754 1 1 10 6 204059. 201146. 5331. o
1755 2 -5 -10 6 41518. 45717. 2174. o
1755 1 2 10 6 41518. 45717. 2174. o
1756 2 -6 -10 6 60675. 62402. 2831. o
1756 1 3 10 6 60675. 62402. 2831. o
1757 2 -7 -10 6 286107. 285217. 7270. o
1757 1 4 10 6 286107. 285217. 7270. o
1758 2 -8 -10 6 44081. 42723. 3257. o
1758 1 5 10 6 44081. 42723. 3257. o
1759 2 -9 -10 6 23040. 24100. 2877. o
1759 1 6 10 6 23040. 24100. 2877. o
1760 2 5 -11 6 7582. 7113. 996. o
1760 1 -8 11 6 7582. 7113. 996. o
1761 2 4 -11 6 19045. 18066. 1546. o
1761 1 -7 11 6 19045. 18066. 1546. o
1762 2 3 -11 6 29618. 31601. 2338. o
1762 1 -6 11 6 29618. 31601. 2338. o
1763 2 2 -11 6 45224. 45027. 2681. o
1763 1 -5 11 6 45224. 45027. 2681. o
1764 2 1 -11 6 36590. 38898. 1961. o
1764 1 -4 11 6 36590. 38898. 1961. o
1765 2 0 -11 6 14558. 13638. 1000. o
1765 1 -3 11 6 14558. 13638. 1000. o
1766 2 -1 -11 6 13183. 12566. 943. o
1766 1 -2 11 6 13183. 12566. 943. o
1767 2 -2 -11 6 12724. 13369. 931. o
1767 1 -1 11 6 12724. 13369. 931. o
1768 2 -3 -11 6 16887. 18651. 1353. o
1768 1 0 11 6 16887. 18651. 1353. o
1769 2 -4 -11 6 40921. 45103. 2174. o
1769 1 1 11 6 40921. 45103. 2174. o
1770 2 -5 -11 6 46893. 47268. 2454. o
1770 1 2 11 6 46893. 47268. 2454. o
1771 2 -6 -11 6 36331. 42391. 3539. o
1771 1 3 11 6 36331. 42391. 3539. o
1772 2 -7 -11 6 21520. 23332. 2088. o
1772 1 4 11 6 21520. 23332. 2088. o
1773 2 -8 -11 6 8114. 10008. 1477. o
1773 1 5 11 6 8114. 10008. 1477. o
1774 2 4 -12 6 5803. 5262. 1027. o
1774 1 -7 12 6 5803. 5262. 1027. o
1775 2 3 -12 6 8976. 7667. 1192. o
1775 1 -6 12 6 8976. 7667. 1192. o
1776 2 2 -12 6 18674. 19639. 1809. o
1776 1 -5 12 6 18674. 19639. 1809. o
1777 2 1 -12 6 13203. 12896. 1141. o
1777 1 -4 12 6 13203. 12896. 1141. o
1778 2 0 -12 6 10268. 9731. 878. o
1778 1 -3 12 6 10268. 9731. 878. o
1779 2 -1 -12 6 11874. 12409. 977. o
1779 1 -2 12 6 11874. 12409. 977. o
1780 2 -2 -12 6 9872. 11170. 1146. o
1780 1 -1 12 6 9872. 11170. 1146. o
1781 2 -3 -12 6 11502. 14407. 1232. o
1781 1 0 12 6 11502. 14407. 1232. o
1782 2 -4 -12 6 12149. 13720. 1254. o
1782 1 1 12 6 12149. 13720. 1254. o
1783 2 -5 -12 6 14079. 17014. 1720. o
1783 1 2 12 6 14079. 17014. 1720. o
1784 2 -6 -12 6 11820. 14297. 2107. o
1784 1 3 12 6 11820. 14297. 2107. o
1785 2 -7 -12 6 4285. 5796. 1351. o
1785 1 4 12 6 4285. 5796. 1351. o
1786 2 4 -13 6 125. -615. 730. <
1786 1 -7 13 6 125. -615. 730. <
1787 2 3 -13 6 143. 317. 522. <
1787 1 -6 13 6 143. 317. 522. <
1788 2 2 -13 6 686. 544. 398. <
1788 1 -5 13 6 686. 544. 398. <
1789 2 1 -13 6 289. 713. 546. <
1789 1 -4 13 6 289. 713. 546. <
1790 2 0 -13 6 754. 958. 475. <
1790 1 -3 13 6 754. 958. 475. <
1791 2 -1 -13 6 392. 913. 591. <
1791 1 -2 13 6 392. 913. 591. <
1792 2 -2 -13 6 434. 809. 346. <
1792 1 -1 13 6 434. 809. 346. <
1793 2 -3 -13 6 679. 932. 374. <
1793 1 0 13 6 679. 932. 374. <
1794 2 -4 -13 6 190. 468. 503. <
1794 1 1 13 6 190. 468. 503. <
1795 2 -5 -13 6 771. 1255. 772. <
1795 1 2 13 6 771. 1255. 772. <
1796 2 -6 -13 6 78. -108. 804. <
1796 1 3 13 6 78. -108. 804. <
1797 2 -7 -13 6 129. -1526. 956. <
1797 1 4 13 6 129. -1526. 956. <
1798 2 2 -14 6 32028. 24122. 3877. o
1798 1 -5 14 6 32028. 24122. 3877. o
1799 2 0 -14 6 38769. 40431. 3282. o
1799 1 -3 14 6 38769. 40431. 3282. o
1800 2 -1 -14 6 314. 285. 481. <
1800 1 -2 14 6 314. 285. 481. <
1801 2 -2 -14 6 200. 697. 489. <
1801 1 -1 14 6 200. 697. 489. <
1802 2 -3 -14 6 34458. 32357. 2760. o
1802 1 0 14 6 34458. 32357. 2760. o
1803 2 -4 -14 6 89656. 82078. 6010. o
1803 1 1 14 6 89656. 82078. 6010. o
1804 2 -6 -14 6 50368. 69731. 7520. o
1804 1 3 14 6 50368. 69731. 7520. o
1805 2 -3 -15 6 4448. 4645. 1365. o
1805 1 0 15 6 4448. 4645. 1365. o
1806 1 -12 1 7 354. 1149. 609. <
1807 1 -11 1 7 2347. 2843. 530. o
1808 1 -10 1 7 45329. 46186. 1822. o
1809 1 -9 1 7 2331. 2442. 349. o
1810 1 -8 1 7 64. 11. 194. <
1811 1 -7 1 7 38094. 36855. 1117. o
1812 1 -6 1 7 53647. 55183. 1267. o
1813 1 -5 1 7 22886. 22815. 717. o
1814 1 -4 1 7 19030. 18384. 579. o
1815 1 -3 1 7 27950. 27956. 821. o
1816 1 -2 1 7 6911. 7406. 419. o
1817 1 -1 1 7 20302. 20305. 865. o
1818 1 0 1 7 34490. 33975. 839. o
1819 1 1 1 7 4197. 4541. 357. o
1820 1 2 1 7 59780. 58152. 1489. o
1821 1 3 1 7 60285. 59749. 1573. o
1822 1 4 1 7 1. 81. 200. <
1823 1 5 1 7 5439. 5594. 607. o
1824 1 6 1 7 11309. 11924. 854. o
1825 1 7 1 7 8344. 7491. 795. o
1826 1 8 1 7 8502. 9379. 1232. o
1827 1 -12 2 7 43981. 44414. 2764. o
1828 1 -11 2 7 37764. 36598. 1904. o
1829 1 -10 2 7 34268. 34328. 1575. o
1830 1 -9 2 7 32215. 32500. 1298. o
1831 1 -8 2 7 48922. 49585. 1349. o
1832 1 -7 2 7 94396. 94236. 1841. o
1833 1 -6 2 7 139148. 137351. 2513. o
1834 1 -5 2 7 165116. 163561. 2837. o
1835 1 -4 2 7 134877. 129521. 2219. o
1836 1 -3 2 7 79250. 75546. 2168. o
1837 1 -2 2 7 63706. 63986. 1198. o
1838 1 -1 2 7 71766. 68992. 1257. o
1839 1 0 2 7 103888. 99924. 1721. o
1840 1 1 2 7 154640. 149741. 2310. o
1841 1 2 2 7 149533. 145177. 2362. o
1842 1 3 2 7 103958. 100688. 1979. o
1843 1 4 2 7 60817. 58541. 1674. o
1844 1 5 2 7 32859. 31545. 1299. o
1845 1 6 2 7 28849. 28904. 1299. o
1846 1 7 2 7 33449. 33786. 1653. o
1847 1 8 2 7 35977. 33158. 2467. o
1848 1 -12 3 7 28114. 27922. 3741. o
1849 1 -11 3 7 15199. 14640. 1340. o
1850 1 -10 3 7 1010. 1711. 482. o
1851 1 -9 3 7 11249. 11494. 782. o
1852 1 -8 3 7 34504. 34941. 1123. o
1853 1 -7 3 7 9170. 9211. 550. o
1854 1 -6 3 7 10984. 10746. 695. o
1855 1 -5 3 7 49981. 50774. 1547. o
1856 1 -4 3 7 38958. 40338. 1081. o
1857 1 -3 3 7 6036. 6512. 604. o
1858 1 -2 3 7 21694. 21212. 713. o
1859 1 -1 3 7 7509. 7480. 365. o
1860 1 0 3 7 10938. 10791. 487. o
1861 1 1 3 7 98611. 95312. 1852. o
1862 1 2 3 7 11947. 11350. 619. o
1863 1 3 3 7 2875. 2625. 341. o
1864 1 4 3 7 51670. 49044. 1665. o
1865 1 5 3 7 5330. 5556. 589. o
1866 1 6 3 7 1825. 1932. 362. o
1867 1 7 3 7 5551. 6522. 851. o
1868 1 8 3 7 6381. 4668. 1149. o
1869 1 -11 4 7 5. 255. 360. <
1870 1 -10 4 7 5. -133. 351. <
1871 1 -9 4 7 305. 839. 375. <
1872 1 -8 4 7 13. -110. 277. <
1873 1 -7 4 7 144. 90. 219. <
1874 1 -6 4 7 63. 193. 218. <
1875 1 -5 4 7 135. 254. 243. <
1876 1 -4 4 7 25. 116. 180. <
1877 1 -3 4 7 177. 42. 245. <
1878 1 -2 4 7 0. 96. 146. <
1879 1 -1 4 7 151. 227. 184. <
1880 1 0 4 7 2. 118. 147. <
1881 1 1 4 7 304. 432. 189. <
1882 1 2 4 7 61. 37. 177. <
1883 1 3 4 7 17. 49. 232. <
1884 1 4 4 7 51. -83. 218. <
1885 1 5 4 7 188. 272. 222. <
1886 1 6 4 7 0. 50. 293. <
1887 1 7 4 7 4. 418. 371. <
1888 1 8 4 7 3. 207. 489. <
1889 1 -11 5 7 13137. 13111. 1856. o
1890 1 -10 5 7 6799. 6788. 881. o
1891 1 -9 5 7 6990. 7060. 792. o
1892 1 -8 5 7 22936. 22132. 1182. o
1893 1 -7 5 7 1025. 1384. 322. o
1894 1 -6 5 7 8615. 7512. 608. o
1895 1 -5 5 7 29178. 27474. 1139. o
1896 1 -4 5 7 19541. 19547. 946. o
1897 1 -3 5 7 3313. 3192. 401. o
1898 1 -2 5 7 2661. 2654. 290. o
1899 1 -1 5 7 1393. 1447. 271. o
1900 1 0 5 7 5873. 6423. 486. o
1901 1 1 5 7 46712. 46194. 1278. o
1902 1 2 5 7 8346. 8161. 551. o
1903 1 3 5 7 915. 596. 213. <
1904 1 4 5 7 23380. 22552. 1125. o
1905 1 5 5 7 2516. 2498. 431. o
1906 1 6 5 7 17. -159. 283. <
1907 1 7 5 7 988. 1419. 501. <
1908 1 8 5 7 4533. 5563. 1847. o
1909 1 -11 6 7 16182. 14647. 2645. o
1910 1 -10 6 7 5801. 5905. 786. o
1911 1 -9 6 7 7985. 7162. 906. o
1912 1 -8 6 7 15237. 15627. 1027. o
1913 1 -7 6 7 26344. 24772. 1337. o
1914 1 -6 6 7 59128. 56154. 1997. o
1915 1 -5 6 7 56336. 54237. 1678. o
1916 1 -4 6 7 38408. 37548. 1689. o
1917 1 -3 6 7 27406. 28078. 1058. o
1918 1 -2 6 7 7072. 6923. 487. o
1919 1 -1 6 7 12202. 12433. 762. o
1920 1 0 6 7 39470. 39501. 1267. o
1921 1 1 6 7 45076. 45721. 1305. o
1922 1 2 6 7 53960. 54468. 1502. o
1923 1 3 6 7 39307. 38910. 1398. o
1924 1 4 6 7 14425. 13979. 907. o
1925 1 5 6 7 8928. 11596. 1013. o
1926 1 6 6 7 5132. 5506. 750. o
1927 1 7 6 7 7676. 7715. 911. o
1928 1 -11 7 7 414. -80. 438. <
1929 1 -10 7 7 14842. 14061. 1201. o
1930 1 -9 7 7 495. 552. 289. <
1931 1 -8 7 7 334. 740. 405. <
1932 1 -7 7 7 9067. 9198. 855. o
1933 1 -6 7 7 25120. 24759. 1326. o
1934 1 -5 7 7 3257. 3531. 584. o
1935 1 -4 7 7 2453. 3144. 583. o
1936 1 -3 7 7 13603. 13610. 754. o
1937 1 -2 7 7 7. 333. 188. <
1938 1 -1 7 7 8344. 8149. 650. o
1939 1 0 7 7 17665. 19113. 893. o
1940 1 1 7 7 907. 1321. 256. o
1941 1 2 7 7 29268. 30583. 1132. o
1942 1 3 7 7 28836. 30894. 1313. o
1943 1 4 7 7 2754. 2733. 476. o
1944 1 5 7 7 4189. 3326. 576. o
1945 1 6 7 7 4442. 5836. 767. o
1946 1 7 7 7 2897. 1648. 688. <
1947 1 -10 8 7 20. -451. 512. <
1948 1 -9 8 7 1385. 910. 423. <
1949 1 -8 8 7 149. 1295. 498. <
1950 1 -7 8 7 263. 59. 283. <
1951 1 -6 8 7 3990. 4014. 561. o
1952 1 -5 8 7 852. 247. 316. <
1953 1 -4 8 7 591. 649. 480. <
1954 1 -3 8 7 1253. 1129. 308. o
1955 1 -2 8 7 41. 246. 189. <
1956 1 -1 8 7 1308. 1194. 253. o
1957 1 0 8 7 1096. 1402. 327. o
1958 1 1 8 7 399. 629. 279. <
1959 1 2 8 7 3638. 3840. 430. o
1960 1 3 8 7 705. 876. 350. <
1961 1 4 8 7 32. 316. 328. <
1962 1 5 8 7 1123. 1365. 441. o
1963 1 6 8 7 141. 340. 347. <
1964 1 7 8 7 268. 1527. 490. o
1965 1 -10 9 7 19893. 18803. 1875. o
1966 1 -9 9 7 689. 927. 417. <
1967 1 -8 9 7 3126. 4386. 778. o
1968 1 -7 9 7 12230. 11777. 1009. o
1969 1 -6 9 7 8601. 8392. 931. o
1970 1 -5 9 7 3554. 2788. 683. o
1971 1 -4 9 7 2233. 1898. 611. o
1972 1 -3 9 7 911. 913. 291. o
1973 1 -2 9 7 291. 946. 293. o
1974 1 -1 9 7 654. 896. 261. o
1975 1 0 9 7 2122. 2680. 475. o
1976 1 1 9 7 386. 542. 241. <
1977 1 2 9 7 11941. 12742. 1088. o
1978 1 3 9 7 14448. 17676. 1385. o
1979 1 4 9 7 771. 1107. 488. <
1980 1 5 9 7 55. 79. 401. <
1981 1 6 9 7 1526. 1699. 721. <
1982 1 -9 10 7 730. 1082. 591. <
1983 1 -8 10 7 243. 143. 358. <
1984 1 -7 10 7 2473. 2224. 515. o
1985 1 -6 10 7 2413. 2694. 810. o
1986 1 -5 10 7 6406. 6751. 1026. o
1987 1 -4 10 7 2488. 1961. 560. o
1988 1 -3 10 7 1872. 2169. 481. o
1989 1 -2 10 7 309. 620. 263. <
1990 1 -1 10 7 394. 155. 189. <
1991 1 0 10 7 294. 808. 290. <
1992 1 1 10 7 5594. 5902. 763. o
1993 1 2 10 7 4407. 5315. 915. o
1994 1 3 10 7 905. 1793. 517. o
1995 1 4 10 7 172. 110. 332. <
1996 1 5 10 7 1515. 521. 398. <
1997 1 6 10 7 348. 2681. 1205. <
1998 1 -8 11 7 1659. 1208. 617. <
1999 1 -7 11 7 12. 366. 423. <
2000 1 -6 11 7 1986. 1937. 659. <
2001 1 -5 11 7 2372. 2410. 639. o
2002 1 -4 11 7 994. 1033. 524. <
2003 1 -3 11 7 4002. 4099. 673. o
2004 1 -2 11 7 1047. 1045. 395. <
2005 1 -1 11 7 1343. 738. 353. <
2006 1 0 11 7 1561. 2529. 582. o
2007 1 1 11 7 18620. 17921. 1510. o
2008 1 2 11 7 1503. 2035. 632. o
2009 1 3 11 7 2913. 2438. 908. <
2010 1 4 11 7 10276. 8614. 1476. o
2011 1 5 11 7 960. 1167. 748. <
2012 1 -7 12 7 7430. 8971. 1718. o
2013 1 -6 12 7 2444. 2640. 762. o
2014 1 -5 12 7 8141. 9334. 1320. o
2015 1 -4 12 7 6414. 5207. 789. o
2016 1 -3 12 7 2340. 2020. 522. o
2017 1 -2 12 7 5669. 6216. 825. o
2018 1 -1 12 7 2584. 2126. 658. o
2019 1 0 12 7 5230. 4654. 1036. o
2020 1 1 12 7 10148. 10832. 1201. o
2021 1 2 12 7 2500. 3022. 683. o
2022 1 3 12 7 4966. 6395. 1469. o
2023 1 4 12 7 5517. 6639. 1554. o
2024 1 -6 13 7 1980. 497. 366. <
2025 1 -5 13 7 4472. 6022. 1298. o
2026 1 -4 13 7 2090. 1087. 535. <
2027 1 -3 13 7 576. 1162. 445. <
2028 1 -2 13 7 310. 1111. 541. <
2029 1 -1 13 7 6. -37. 366. <
2030 1 0 13 7 1115. 1613. 622. <
2031 1 1 13 7 6130. 8298. 1396. o
2032 1 3 13 7 54. -31. 680. <
2033 1 -5 14 7 819. 1657. 1192. <
2034 1 -2 14 7 14930. 19080. 3129. o
2035 1 -1 14 7 10058. 10088. 2186. o
2036 1 0 14 7 915. 1100. 740. <
2037 2 8 0 8 33606. 34700. 3994. o
2037 1 -12 0 8 33606. 34700. 3994. o
2038 2 7 0 8 424. 16. 422. <
2038 1 -11 0 8 424. 16. 422. <
2039 2 6 0 8 228371. 233899. 6526. o
2039 1 -10 0 8 228371. 233899. 6526. o
2040 2 5 0 8 8159. 8098. 865. o
2040 1 -9 0 8 8159. 8098. 865. o
2041 2 4 0 8 65155. 63970. 2441. o
2041 1 -8 0 8 65155. 63970. 2441. o
2042 2 3 0 8 7911. 8544. 748. o
2042 1 -7 0 8 7911. 8544. 748. o
2043 2 2 0 8 59680. 59527. 1962. o
2043 1 -6 0 8 59680. 59527. 1962. o
2044 2 1 0 8 434476. 419827. 8096. o
2044 1 -5 0 8 434476. 419827. 8096. o
2045 2 0 0 8 58830. 59399. 1773. o
2045 1 -4 0 8 58830. 59399. 1773. o
2046 2 -1 0 8 29932. 29775. 1500. o
2046 1 -3 0 8 29932. 29775. 1500. o
2047 2 -2 0 8 1426650. 1398160. 26460. o
2047 1 -2 0 8 1426650. 1398160. 26460. o
2048 2 -3 0 8 32822. 34480. 2117. o
2048 1 -1 0 8 32822. 34480. 2117. o
2049 2 -4 0 8 49604. 50092. 1654. o
2049 1 0 0 8 49604. 50092. 1654. o
2050 2 -5 0 8 422148. 414820. 8098. o
2050 1 1 0 8 422148. 414820. 8098. o
2051 2 -6 0 8 47698. 45411. 1832. o
2051 1 2 0 8 47698. 45411. 1832. o
2052 2 -7 0 8 18691. 17803. 1175. o
2052 1 3 0 8 18691. 17803. 1175. o
2053 2 -8 0 8 72679. 69960. 2993. o
2053 1 4 0 8 72679. 69960. 2993. o
2054 2 -9 0 8 2835. 3713. 835. o
2054 1 5 0 8 2835. 3713. 835. o
2055 2 -10 0 8 254119. 256430. 6078. o
2055 1 6 0 8 254119. 256430. 6078. o
2056 2 -11 0 8 85. -406. 442. <
2056 1 7 0 8 85. -406. 442. <
2057 2 -12 0 8 21110. 22886. 3318. o
2057 1 8 0 8 21110. 22886. 3318. o
2058 2 8 -1 8 105. -462. 385. <
2058 1 -12 1 8 105. -462. 385. <
2059 2 7 -1 8 833. 1596. 445. o
2059 1 -11 1 8 833. 1596. 445. o
2060 2 6 -1 8 2174. 2869. 492. o
2060 1 -10 1 8 2174. 2869. 492. o
2061 2 5 -1 8 306. 275. 203. <
2061 1 -9 1 8 306. 275. 203. <
2062 2 4 -1 8 2686. 2855. 352. o
2062 1 -8 1 8 2686. 2855. 352. o
2063 2 3 -1 8 2032. 1755. 309. o
2063 1 -7 1 8 2032. 1755. 309. o
2064 2 2 -1 8 14. 77. 177. <
2064 1 -6 1 8 14. 77. 177. <
2065 2 1 -1 8 1955. 1771. 255. o
2065 1 -5 1 8 1955. 1771. 255. o
2066 2 0 -1 8 2884. 3019. 285. o
2066 1 -4 1 8 2884. 3019. 285. o
2067 2 -1 -1 8 2036. 1890. 240. o
2067 1 -3 1 8 2036. 1890. 240. o
2068 2 -2 -1 8 4868. 4587. 473. o
2068 1 -2 1 8 4868. 4587. 473. o
2069 2 -3 -1 8 2074. 2104. 401. o
2069 1 -1 1 8 2074. 2104. 401. o
2070 2 -4 -1 8 3577. 3431. 322. o
2070 1 0 1 8 3577. 3431. 322. o
2071 2 -5 -1 8 2139. 2056. 257. o
2071 1 1 1 8 2139. 2056. 257. o
2072 2 -6 -1 8 2. 310. 163. <
2072 1 2 1 8 2. 310. 163. <
2073 2 -7 -1 8 2854. 3107. 382. o
2073 1 3 1 8 2854. 3107. 382. o
2074 2 -8 -1 8 3629. 4361. 520. o
2074 1 4 1 8 3629. 4361. 520. o
2075 2 -9 -1 8 304. 288. 292. <
2075 1 5 1 8 304. 288. 292. <
2076 2 -10 -1 8 1765. 1838. 377. o
2076 1 6 1 8 1765. 1838. 377. o
2077 2 -11 -1 8 1852. 1503. 433. o
2077 1 7 1 8 1852. 1503. 433. o
2078 2 -12 -1 8 428. 508. 629. <
2078 1 8 1 8 428. 508. 629. <
2079 2 8 -2 8 1768. 973. 566. <
2079 1 -12 2 8 1768. 973. 566. <
2080 2 7 -2 8 2669. 2217. 527. o
2080 1 -11 2 8 2669. 2217. 527. o
2081 2 6 -2 8 3288. 2673. 469. o
2081 1 -10 2 8 3288. 2673. 469. o
2082 2 5 -2 8 6437. 6647. 497. o
2082 1 -9 2 8 6437. 6647. 497. o
2083 2 4 -2 8 15. 246. 192. <
2083 1 -8 2 8 15. 246. 192. <
2084 2 3 -2 8 1195. 1132. 247. o
2084 1 -7 2 8 1195. 1132. 247. o
2085 2 2 -2 8 2634. 2090. 322. o
2085 1 -6 2 8 2634. 2090. 322. o
2086 2 1 -2 8 2652. 2685. 357. o
2086 1 -5 2 8 2652. 2685. 357. o
2087 2 0 -2 8 4012. 3848. 389. o
2087 1 -4 2 8 4012. 3848. 389. o
2088 2 -1 -2 8 489. 776. 168. o
2088 1 -3 2 8 489. 776. 168. o
2089 2 -2 -2 8 1648. 1864. 265. o
2089 1 -2 2 8 1648. 1864. 265. o
2090 2 -3 -2 8 2997. 3029. 388. o
2090 1 -1 2 8 2997. 3029. 388. o
2091 2 -4 -2 8 683. 890. 214. o
2091 1 0 2 8 683. 890. 214. o
2092 2 -5 -2 8 3500. 3375. 332. o
2092 1 1 2 8 3500. 3375. 332. o
2093 2 -6 -2 8 3017. 3266. 351. o
2093 1 2 2 8 3017. 3266. 351. o
2094 2 -7 -2 8 217. 378. 181. <
2094 1 3 2 8 217. 378. 181. <
2095 2 -8 -2 8 189. 74. 222. <
2095 1 4 2 8 189. 74. 222. <
2096 2 -9 -2 8 3117. 2795. 469. o
2096 1 5 2 8 3117. 2795. 469. o
2097 2 -10 -2 8 3016. 2778. 472. o
2097 1 6 2 8 3016. 2778. 472. o
2098 2 -11 -2 8 1902. 2124. 457. o
2098 1 7 2 8 1902. 2124. 457. o
2099 2 8 -3 8 50. -2978. 1204. <
2099 1 -12 3 8 50. -2978. 1204. <
2100 2 7 -3 8 131. -456. 315. <
2100 1 -11 3 8 131. -456. 315. <
2101 2 6 -3 8 303. 951. 372. <
2101 1 -10 3 8 303. 951. 372. <
2102 2 5 -3 8 408. 433. 298. <
2102 1 -9 3 8 408. 433. 298. <
2103 2 4 -3 8 665. 790. 260. o
2103 1 -8 3 8 665. 790. 260. o
2104 2 3 -3 8 1391. 1703. 312. o
2104 1 -7 3 8 1391. 1703. 312. o
2105 2 2 -3 8 20. 288. 251. <
2105 1 -6 3 8 20. 288. 251. <
2106 2 1 -3 8 1506. 1621. 320. o
2106 1 -5 3 8 1506. 1621. 320. o
2107 2 0 -3 8 693. 752. 222. o
2107 1 -4 3 8 693. 752. 222. o
2108 2 -1 -3 8 134. 326. 182. <
2108 1 -3 3 8 134. 326. 182. <
2109 2 -2 -3 8 17. 86. 149. <
2109 1 -2 3 8 17. 86. 149. <
2110 2 -3 -3 8 28. 315. 147. <
2110 1 -1 3 8 28. 315. 147. <
2111 2 -4 -3 8 670. 968. 199. o
2111 1 0 3 8 670. 968. 199. o
2112 2 -5 -3 8 848. 937. 225. o
2112 1 1 3 8 848. 937. 225. o
2113 2 -6 -3 8 106. 168. 207. <
2113 1 2 3 8 106. 168. 207. <
2114 2 -7 -3 8 655. 395. 192. <
2114 1 3 3 8 655. 395. 192. <
2115 2 -8 -3 8 413. 563. 219. <
2115 1 4 3 8 413. 563. 219. <
2116 2 -9 -3 8 515. 360. 241. <
2116 1 5 3 8 515. 360. 241. <
2117 2 -10 -3 8 25. 357. 286. <
2117 1 6 3 8 25. 357. 286. <
2118 2 -11 -3 8 260. 113. 414. <
2118 1 7 3 8 260. 113. 414. <
2119 2 8 -4 8 54031. 51932. 5077. o
2119 1 -12 4 8 54031. 51932. 5077. o
2120 2 7 -4 8 27328. 29163. 2232. o
2120 1 -11 4 8 27328. 29163. 2232. o
2121 2 6 -4 8 43347. 44470. 2243. o
2121 1 -10 4 8 43347. 44470. 2243. o
2122 2 5 -4 8 138307. 141607. 4069. o
2122 1 -9 4 8 138307. 141607. 4069. o
2123 2 4 -4 8 390. 822. 246. o
2123 1 -8 4 8 390. 822. 246. o
2124 2 3 -4 8 758. 1910. 356. o
2124 1 -7 4 8 758. 1910. 356. o
2125 2 2 -4 8 65767. 66808. 1888. o
2125 1 -6 4 8 65767. 66808. 1888. o
2126 2 1 -4 8 308187. 300036. 4905. o
2126 1 -5 4 8 308187. 300036. 4905. o
2127 2 0 -4 8 196348. 189340. 4118. o
2127 1 -4 4 8 196348. 189340. 4118. o
2128 2 -1 -4 8 318823. 315436. 5052. o
2128 1 -3 4 8 318823. 315436. 5052. o
2129 2 -2 -4 8 388986. 379178. 5095. o
2129 1 -2 4 8 388986. 379178. 5095. o
2130 2 -3 -4 8 322717. 317278. 4553. o
2130 1 -1 4 8 322717. 317278. 4553. o
2131 2 -4 -4 8 182593. 177297. 2921. o
2131 1 0 4 8 182593. 177297. 2921. o
2132 2 -5 -4 8 278075. 273784. 3871. o
2132 1 1 4 8 278075. 273784. 3871. o
2133 2 -6 -4 8 74716. 72216. 1754. o
2133 1 2 4 8 74716. 72216. 1754. o
2134 2 -7 -4 8 1508. 1590. 255. o
2134 1 3 4 8 1508. 1590. 255. o
2135 2 -8 -4 8 1326. 1831. 325. o
2135 1 4 4 8 1326. 1831. 325. o
2136 2 -9 -4 8 153557. 154783. 3490. o
2136 1 5 4 8 153557. 154783. 3490. o
2137 2 -10 -4 8 33780. 32589. 1596. o
2137 1 6 4 8 33780. 32589. 1596. o
2138 2 -11 -4 8 36558. 35055. 2280. o
2138 1 7 4 8 36558. 35055. 2280. o
2139 2 7 -5 8 3389. 2011. 1046. <
2139 1 -11 5 8 3389. 2011. 1046. <
2140 2 6 -5 8 4170. 4540. 807. o
2140 1 -10 5 8 4170. 4540. 807. o
2141 2 5 -5 8 9942. 10282. 1065. o
2141 1 -9 5 8 9942. 10282. 1065. o
2142 2 4 -5 8 4866. 4672. 560. o
2142 1 -8 5 8 4866. 4672. 560. o
2143 2 3 -5 8 4724. 4799. 591. o
2143 1 -7 5 8 4724. 4799. 591. o
2144 2 2 -5 8 10327. 10089. 727. o
2144 1 -6 5 8 10327. 10089. 727. o
2145 2 1 -5 8 4865. 4606. 523. o
2145 1 -5 5 8 4865. 4606. 523. o
2146 2 0 -5 8 7664. 7744. 753. o
2146 1 -4 5 8 7664. 7744. 753. o
2147 2 -1 -5 8 13385. 13089. 829. o
2147 1 -3 5 8 13385. 13089. 829. o
2148 2 -2 -5 8 11646. 11746. 617. o
2148 1 -2 5 8 11646. 11746. 617. o
2149 2 -3 -5 8 15608. 16440. 873. o
2149 1 -1 5 8 15608. 16440. 873. o
2150 2 -4 -5 8 6970. 6495. 513. o
2150 1 0 5 8 6970. 6495. 513. o
2151 2 -5 -5 8 5551. 6099. 484. o
2151 1 1 5 8 5551. 6099. 484. o
2152 2 -6 -5 8 12374. 12181. 708. o
2152 1 2 5 8 12374. 12181. 708. o
2153 2 -7 -5 8 3820. 3699. 467. o
2153 1 3 5 8 3820. 3699. 467. o
2154 2 -8 -5 8 4103. 3762. 454. o
2154 1 4 5 8 4103. 3762. 454. o
2155 2 -9 -5 8 11086. 11462. 902. o
2155 1 5 5 8 11086. 11462. 902. o
2156 2 -10 -5 8 4616. 4232. 675. o
2156 1 6 5 8 4616. 4232. 675. o
2157 2 -11 -5 8 2935. 2418. 1252. <
2157 1 7 5 8 2935. 2418. 1252. <
2158 2 7 -6 8 17870. 14330. 2546. o
2158 1 -11 6 8 17870. 14330. 2546. o
2159 2 6 -6 8 1312. 1165. 496. <
2159 1 -10 6 8 1312. 1165. 496. <
2160 2 5 -6 8 362. 1155. 470. <
2160 1 -9 6 8 362. 1155. 470. <
2161 2 4 -6 8 10534. 10585. 910. o
2161 1 -8 6 8 10534. 10585. 910. o
2162 2 3 -6 8 8186. 6713. 703. o
2162 1 -7 6 8 8186. 6713. 703. o
2163 2 2 -6 8 8074. 7732. 757. o
2163 1 -6 6 8 8074. 7732. 757. o
2164 2 1 -6 8 8874. 8063. 661. o
2164 1 -5 6 8 8874. 8063. 661. o
2165 2 0 -6 8 5445. 5860. 671. o
2165 1 -4 6 8 5445. 5860. 671. o
2166 2 -1 -6 8 9265. 9510. 797. o
2166 1 -3 6 8 9265. 9510. 797. o
2167 2 -2 -6 8 5103. 4806. 414. o
2167 1 -2 6 8 5103. 4806. 414. o
2168 2 -3 -6 8 3936. 4083. 461. o
2168 1 -1 6 8 3936. 4083. 461. o
2169 2 -4 -6 8 9805. 9036. 619. o
2169 1 0 6 8 9805. 9036. 619. o
2170 2 -5 -6 8 5658. 6688. 515. o
2170 1 1 6 8 5658. 6688. 515. o
2171 2 -6 -6 8 5109. 5211. 485. o
2171 1 2 6 8 5109. 5211. 485. o
2172 2 -7 -6 8 8214. 7814. 663. o
2172 1 3 6 8 8214. 7814. 663. o
2173 2 -8 -6 8 5072. 4319. 518. o
2173 1 4 6 8 5072. 4319. 518. o
2174 2 -9 -6 8 356. -692. 349. <
2174 1 5 6 8 356. -692. 349. <
2175 2 -10 -6 8 247. 32. 367. <
2175 1 6 6 8 247. 32. 367. <
2176 2 -11 -6 8 10493. 8032. 1881. o
2176 1 7 6 8 10493. 8032. 1881. o
2177 2 7 -7 8 348. 661. 669. <
2177 1 -11 7 8 348. 661. 669. <
2178 2 6 -7 8 27. -1145. 540. <
2178 1 -10 7 8 27. -1145. 540. <
2179 2 5 -7 8 1761. 641. 365. <
2179 1 -9 7 8 1761. 641. 365. <
2180 2 4 -7 8 153. 370. 276. <
2180 1 -8 7 8 153. 370. 276. <
2181 2 3 -7 8 435. 398. 328. <
2181 1 -7 7 8 435. 398. 328. <
2182 2 2 -7 8 4990. 4877. 648. o
2182 1 -6 7 8 4990. 4877. 648. o
2183 2 1 -7 8 665. 465. 306. <
2183 1 -5 7 8 665. 465. 306. <
2184 2 0 -7 8 331. 608. 371. <
2184 1 -4 7 8 331. 608. 371. <
2185 2 -1 -7 8 1193. 1178. 318. o
2185 1 -3 7 8 1193. 1178. 318. o
2186 2 -2 -7 8 220. 390. 412. <
2186 1 -2 7 8 220. 390. 412. <
2187 2 -3 -7 8 914. 1007. 258. o
2187 1 -1 7 8 914. 1007. 258. o
2188 2 -4 -7 8 521. 570. 251. <
2188 1 0 7 8 521. 570. 251. <
2189 2 -5 -7 8 855. 946. 310. o
2189 1 1 7 8 855. 946. 310. o
2190 2 -6 -7 8 2976. 2879. 373. o
2190 1 2 7 8 2976. 2879. 373. o
2191 2 -7 -7 8 190. 263. 219. <
2191 1 3 7 8 190. 263. 219. <
2192 2 -8 -7 8 25. 149. 246. <
2192 1 4 7 8 25. 149. 246. <
2193 2 -9 -7 8 1044. 1100. 350. o
2193 1 5 7 8 1044. 1100. 350. o
2194 2 -10 -7 8 254. 252. 336. <
2194 1 6 7 8 254. 252. 336. <
2195 2 -11 -7 8 54. 1008. 798. <
2195 1 7 7 8 54. 1008. 798. <
2196 2 6 -8 8 84953. 75708. 4271. o
2196 1 -10 8 8 84953. 75708. 4271. o
2197 2 5 -8 8 36402. 38701. 2038. o
2197 1 -9 8 8 36402. 38701. 2038. o
2198 2 4 -8 8 8572. 7374. 937. o
2198 1 -8 8 8 8572. 7374. 937. o
2199 2 3 -8 8 2200. 2412. 463. o
2199 1 -7 8 8 2200. 2412. 463. o
2200 2 2 -8 8 104835. 98282. 2935. o
2200 1 -6 8 8 104835. 98282. 2935. o
2201 2 1 -8 8 145496. 143994. 4862. o
2201 1 -5 8 8 145496. 143994. 4862. o
2202 2 0 -8 8 104509. 100222. 3887. o
2202 1 -4 8 8 104509. 100222. 3887. o
2203 2 -1 -8 8 81431. 81646. 2451. o
2203 1 -3 8 8 81431. 81646. 2451. o
2204 2 -2 -8 8 563741. 571408. 9196. o
2204 1 -2 8 8 563741. 571408. 9196. o
2205 2 -3 -8 8 85381. 89670. 2431. o
2205 1 -1 8 8 85381. 89670. 2431. o
2206 2 -4 -8 8 95652. 100512. 2659. o
2206 1 0 8 8 95652. 100512. 2659. o
2207 2 -5 -8 8 137762. 138507. 3601. o
2207 1 1 8 8 137762. 138507. 3601. o
2208 2 -6 -8 8 94656. 98040. 2493. o
2208 1 2 8 8 94656. 98040. 2493. o
2209 2 -7 -8 8 269. 1215. 392. o
2209 1 3 8 8 269. 1215. 392. o
2210 2 -8 -8 8 9697. 8886. 1032. o
2210 1 4 8 8 9697. 8886. 1032. o
2211 2 -9 -8 8 27472. 28612. 1966. o
2211 1 5 8 8 27472. 28612. 1966. o
2212 2 -10 -8 8 94607. 94383. 5716. o
2212 1 6 8 8 94607. 94383. 5716. o
2213 2 6 -9 8 7617. 6398. 1430. o
2213 1 -10 9 8 7617. 6398. 1430. o
2214 2 5 -9 8 5874. 6711. 1108. o
2214 1 -9 9 8 5874. 6711. 1108. o
2215 2 4 -9 8 11020. 11681. 1215. o
2215 1 -8 9 8 11020. 11681. 1215. o
2216 2 3 -9 8 9817. 9689. 937. o
2216 1 -7 9 8 9817. 9689. 937. o
2217 2 2 -9 8 5449. 5951. 861. o
2217 1 -6 9 8 5449. 5951. 861. o
2218 2 1 -9 8 10778. 11081. 1297. o
2218 1 -5 9 8 10778. 11081. 1297. o
2219 2 0 -9 8 10859. 11352. 1304. o
2219 1 -4 9 8 10859. 11352. 1304. o
2220 2 -1 -9 8 11944. 11585. 1104. o
2220 1 -3 9 8 11944. 11585. 1104. o
2221 2 -2 -9 8 15861. 17395. 1108. o
2221 1 -2 9 8 15861. 17395. 1108. o
2222 2 -3 -9 8 10416. 10230. 894. o
2222 1 -1 9 8 10416. 10230. 894. o
2223 2 -4 -9 8 14640. 16325. 1052. o
2223 1 0 9 8 14640. 16325. 1052. o
2224 2 -5 -9 8 11072. 10668. 1043. o
2224 1 1 9 8 11072. 10668. 1043. o
2225 2 -6 -9 8 3521. 3493. 994. o
2225 1 2 9 8 3521. 3493. 994. o
2226 2 -7 -9 8 10573. 10801. 1105. o
2226 1 3 9 8 10573. 10801. 1105. o
2227 2 -8 -9 8 10284. 11641. 1222. o
2227 1 4 9 8 10284. 11641. 1222. o
2228 2 -9 -9 8 4134. 4374. 803. o
2228 1 5 9 8 4134. 4374. 803. o
2229 2 5 -10 8 5055. 5845. 1452. o
2229 1 -9 10 8 5055. 5845. 1452. o
2230 2 4 -10 8 308. 576. 440. <
2230 1 -8 10 8 308. 576. 440. <
2231 2 3 -10 8 2609. 2131. 473. o
2231 1 -7 10 8 2609. 2131. 473. o
2232 2 2 -10 8 4843. 4664. 822. o
2232 1 -6 10 8 4843. 4664. 822. o
2233 2 1 -10 8 4190. 3854. 826. o
2233 1 -5 10 8 4190. 3854. 826. o
2234 2 0 -10 8 4479. 4498. 754. o
2234 1 -4 10 8 4479. 4498. 754. o
2235 2 -1 -10 8 695. 307. 352. <
2235 1 -3 10 8 695. 307. 352. <
2236 2 -2 -10 8 849. 1030. 381. <
2236 1 -2 10 8 849. 1030. 381. <
2237 2 -3 -10 8 2168. 1944. 435. o
2237 1 -1 10 8 2168. 1944. 435. o
2238 2 -4 -10 8 1313. 1422. 353. o
2238 1 0 10 8 1313. 1422. 353. o
2239 2 -5 -10 8 4072. 4721. 702. o
2239 1 1 10 8 4072. 4721. 702. o
2240 2 -6 -10 8 3991. 3963. 1059. o
2240 1 2 10 8 3991. 3963. 1059. o
2241 2 -7 -10 8 705. -493. 442. <
2241 1 3 10 8 705. -493. 442. <
2242 2 -8 -10 8 233. 917. 459. <
2242 1 4 10 8 233. 917. 459. <
2243 2 -9 -10 8 1647. 1887. 832. <
2243 1 5 10 8 1647. 1887. 832. <
2244 2 4 -11 8 147. -98. 561. <
2244 1 -8 11 8 147. -98. 561. <
2245 2 3 -11 8 354. 480. 362. <
2245 1 -7 11 8 354. 480. 362. <
2246 2 2 -11 8 252. -686. 472. <
2246 1 -6 11 8 252. -686. 472. <
2247 2 1 -11 8 276. 172. 575. <
2247 1 -5 11 8 276. 172. 575. <
2248 2 0 -11 8 52. 424. 392. <
2248 1 -4 11 8 52. 424. 392. <
2249 2 -1 -11 8 392. 59. 373. <
2249 1 -3 11 8 392. 59. 373. <
2250 2 -2 -11 8 35. 402. 335. <
2250 1 -2 11 8 35. 402. 335. <
2251 2 -3 -11 8 83. 527. 366. <
2251 1 -1 11 8 83. 527. 366. <
2252 2 -4 -11 8 61. 2. 277. <
2252 1 0 11 8 61. 2. 277. <
2253 2 -5 -11 8 76. 71. 337. <
2253 1 1 11 8 76. 71. 337. <
2254 2 -6 -11 8 152. 2067. 863. <
2254 1 2 11 8 152. 2067. 863. <
2255 2 -7 -11 8 60. -213. 561. <
2255 1 3 11 8 60. -213. 561. <
2256 2 -8 -11 8 24. 1353. 705. <
2256 1 4 11 8 24. 1353. 705. <
2257 2 3 -12 8 13314. 11845. 2593. o
2257 1 -7 12 8 13314. 11845. 2593. o
2258 2 2 -12 8 2654. 3366. 1010. o
2258 1 -6 12 8 2654. 3366. 1010. o
2259 2 1 -12 8 239613. 234251. 6143. o
2259 1 -5 12 8 239613. 234251. 6143. o
2260 2 0 -12 8 15833. 14792. 1378. o
2260 1 -4 12 8 15833. 14792. 1378. o
2261 2 -1 -12 8 39270. 38522. 2150. o
2261 1 -3 12 8 39270. 38522. 2150. o
2262 2 -2 -12 8 300300. 284062. 6437. o
2262 1 -2 12 8 300300. 284062. 6437. o
2263 2 -3 -12 8 40094. 35786. 2798. o
2263 1 -1 12 8 40094. 35786. 2798. o
2264 2 -4 -12 8 12826. 12887. 1657. o
2264 1 0 12 8 12826. 12887. 1657. o
2265 2 -5 -12 8 225902. 224883. 7686. o
2265 1 1 12 8 225902. 224883. 7686. o
2266 2 -6 -12 8 3187. 3226. 1323. <
2266 1 2 12 8 3187. 3226. 1323. <
2267 2 -7 -12 8 13265. 10981. 2469. o
2267 1 3 12 8 13265. 10981. 2469. o
2268 2 2 -13 8 6997. 4495. 1567. <
2268 1 -6 13 8 6997. 4495. 1567. <
2269 2 1 -13 8 4231. 5482. 1343. o
2269 1 -5 13 8 4231. 5482. 1343. o
2270 2 0 -13 8 6508. 5924. 1064. o
2270 1 -4 13 8 6508. 5924. 1064. o
2271 2 -1 -13 8 7624. 8078. 1439. o
2271 1 -3 13 8 7624. 8078. 1439. o
2272 2 -2 -13 8 7409. 8075. 1411. o
2272 1 -2 13 8 7409. 8075. 1411. o
2273 2 -3 -13 8 11069. 10158. 1553. o
2273 1 -1 13 8 11069. 10158. 1553. o
2274 2 -4 -13 8 5061. 4998. 1027. o
2274 1 0 13 8 5061. 4998. 1027. o
2275 2 1 -14 8 103. -883. 641. <
2275 1 -5 14 8 103. -883. 641. <
2276 2 -4 -14 8 20. -574. 569. <
2276 1 0 14 8 20. -574. 569. <
2277 1 -12 1 9 6851. 7791. 2130. o
2278 1 -11 1 9 2695. 3641. 624. o
2279 1 -10 1 9 4100. 5091. 525. o
2280 1 -9 1 9 27396. 26410. 1073. o
2281 1 -8 1 9 19619. 20413. 854. o
2282 1 -7 1 9 75. 251. 161. <
2283 1 -6 1 9 1325. 1746. 289. o
2284 1 -5 1 9 10034. 9420. 580. o
2285 1 -4 1 9 17482. 16414. 810. o
2286 1 -3 1 9 24997. 24821. 982. o
2287 1 -2 1 9 17726. 19239. 1167. o
2288 1 -1 1 9 27990. 28319. 1442. o
2289 1 0 1 9 8235. 8770. 658. o
2290 1 1 1 9 3622. 4294. 479. o
2291 1 2 1 9 3437. 3639. 427. o
2292 1 3 1 9 71. 55. 201. <
2293 1 4 1 9 41838. 39259. 1772. o
2294 1 5 1 9 29788. 28820. 1597. o
2295 1 6 1 9 4117. 4504. 624. o
2296 1 7 1 9 17430. 21075. 2240. o
2297 1 -11 2 9 2646. 2492. 625. o
2298 1 -10 2 9 5629. 6093. 750. o
2299 1 -9 2 9 6752. 7260. 560. o
2300 1 -8 2 9 3360. 3838. 410. o
2301 1 -7 2 9 1074. 1332. 261. o
2302 1 -6 2 9 135. 173. 222. <
2303 1 -5 2 9 668. 745. 225. o
2304 1 -4 2 9 6970. 7224. 548. o
2305 1 -3 2 9 13487. 12814. 712. o
2306 1 -2 2 9 14904. 14064. 853. o
2307 1 -1 2 9 10326. 11605. 929. o
2308 1 0 2 9 1792. 2100. 329. o
2309 1 1 2 9 149. 461. 236. <
2310 1 2 2 9 505. 731. 254. <
2311 1 3 2 9 2224. 2158. 350. o
2312 1 4 2 9 6925. 6707. 746. o
2313 1 5 2 9 7721. 8010. 2259. o
2314 1 6 2 9 4156. 3515. 592. o
2315 1 7 2 9 1878. 1413. 896. <
2316 1 -11 3 9 1459. 1491. 753. <
2317 1 -10 3 9 5214. 4765. 771. o
2318 1 -9 3 9 60. 228. 220. <
2319 1 -8 3 9 2854. 3299. 429. o
2320 1 -7 3 9 1439. 1406. 301. o
2321 1 -6 3 9 1124. 1126. 286. o
2322 1 -5 3 9 8205. 8393. 681. o
2323 1 -4 3 9 1. 0. 184. <
2324 1 -3 3 9 3311. 3111. 368. o
2325 1 -2 3 9 5916. 6939. 537. o
2326 1 -1 3 9 32. 118. 205. <
2327 1 0 3 9 1226. 1315. 274. o
2328 1 1 3 9 4416. 4827. 465. o
2329 1 2 3 9 1401. 1731. 311. o
2330 1 3 3 9 4138. 3843. 505. o
2331 1 4 3 9 4659. 5017. 647. o
2332 1 5 3 9 309. -72. 234. <
2333 1 6 3 9 25300. 24801. 1602. o
2334 1 -11 4 9 3325. 4539. 1660. <
2335 1 -10 4 9 4192. 2143. 811. <
2336 1 -9 4 9 7131. 7423. 886. o
2337 1 -8 4 9 4471. 5621. 694. o
2338 1 -7 4 9 5677. 6119. 624. o
2339 1 -6 4 9 8075. 7885. 612. o
2340 1 -5 4 9 4678. 4688. 503. o
2341 1 -4 4 9 7823. 7905. 657. o
2342 1 -3 4 9 9765. 9941. 742. o
2343 1 -2 4 9 7613. 7933. 585. o
2344 1 -1 4 9 10228. 9751. 630. o
2345 1 0 4 9 5931. 6133. 554. o
2346 1 1 4 9 4521. 4041. 431. o
2347 1 2 4 9 6994. 7530. 596. o
2348 1 3 4 9 3395. 3303. 490. o
2349 1 4 4 9 3772. 4386. 568. o
2350 1 5 4 9 5692. 5712. 739. o
2351 1 6 4 9 2671. 3338. 677. o
2352 1 -10 5 9 54059. 56129. 3131. o
2353 1 -9 5 9 20354. 21853. 1865. o
2354 1 -8 5 9 22905. 23397. 1365. o
2355 1 -7 5 9 45187. 43671. 1830. o
2356 1 -6 5 9 19601. 19762. 1047. o
2357 1 -5 5 9 24568. 24690. 1414. o
2358 1 -4 5 9 39895. 39268. 1549. o
2359 1 -3 5 9 72722. 74829. 2170. o
2360 1 -2 5 9 107614. 108448. 2679. o
2361 1 -1 5 9 40794. 41574. 1407. o
2362 1 0 5 9 34480. 32496. 1346. o
2363 1 1 5 9 21353. 20515. 1012. o
2364 1 2 5 9 17686. 17073. 968. o
2365 1 3 5 9 73036. 69584. 2358. o
2366 1 4 5 9 11272. 10462. 875. o
2367 1 5 5 9 17209. 17482. 1288. o
2368 1 6 5 9 105398. 96612. 4348. o
2369 1 -10 6 9 5887. 5703. 1015. o
2370 1 -9 6 9 5312. 5536. 966. o
2371 1 -8 6 9 4633. 4513. 601. o
2372 1 -7 6 9 705. 952. 332. <
2373 1 -6 6 9 695. 577. 265. <
2374 1 -5 6 9 2568. 2716. 492. o
2375 1 -4 6 9 3197. 2530. 395. o
2376 1 -3 6 9 14304. 14450. 942. o
2377 1 -2 6 9 17878. 17833. 1131. o
2378 1 -1 6 9 5504. 5554. 550. o
2379 1 0 6 9 3447. 2832. 471. o
2380 1 1 6 9 909. 1049. 301. o
2381 1 2 6 9 469. 484. 267. <
2382 1 3 6 9 4338. 4362. 611. o
2383 1 4 6 9 5488. 5283. 704. o
2384 1 5 6 9 7209. 6165. 888. o
2385 1 6 6 9 6705. 6527. 1455. o
2386 1 -10 7 9 1503. 1579. 951. <
2387 1 -9 7 9 171. 1239. 527. <
2388 1 -8 7 9 923. 684. 408. <
2389 1 -7 7 9 14931. 14356. 1095. o
2390 1 -6 7 9 10927. 11250. 953. o
2391 1 -5 7 9 95. 481. 400. <
2392 1 -4 7 9 1939. 2063. 376. o
2393 1 -3 7 9 833. 1071. 357. <
2394 1 -2 7 9 180. 35. 277. <
2395 1 -1 7 9 506. 545. 307. <
2396 1 0 7 9 2183. 2956. 447. o
2397 1 1 7 9 3952. 4400. 544. o
2398 1 2 7 9 7899. 8911. 718. o
2399 1 3 7 9 10795. 10559. 1000. o
2400 1 4 7 9 2633. 2685. 606. o
2401 1 5 7 9 566. 559. 471. <
2402 1 6 7 9 17142. 16817. 2639. o
2403 1 -10 8 9 9217. 9557. 2204. o
2404 1 -9 8 9 6403. 5022. 985. o
2405 1 -8 8 9 13826. 14744. 1352. o
2406 1 -7 8 9 10218. 10274. 1134. o
2407 1 -6 8 9 5660. 5661. 806. o
2408 1 -5 8 9 14451. 14467. 1276. o
2409 1 -4 8 9 11220. 9562. 986. o
2410 1 -3 8 9 12115. 12788. 1014. o
2411 1 -2 8 9 18883. 20403. 1275. o
2412 1 -1 8 9 10137. 11080. 945. o
2413 1 0 8 9 12922. 12933. 1020. o
2414 1 1 8 9 10670. 12209. 1057. o
2415 1 2 8 9 3660. 3198. 798. o
2416 1 3 8 9 10273. 11892. 1365. o
2417 1 4 8 9 9336. 10112. 1329. o
2418 1 5 8 9 4283. 2765. 991. <
2419 1 -9 9 9 65972. 70267. 4586. o
2420 1 -8 9 9 41815. 40683. 2783. o
2421 1 -7 9 9 15690. 15517. 1388. o
2422 1 -6 9 9 30488. 28773. 1897. o
2423 1 -5 9 9 32294. 35790. 2061. o
2424 1 -4 9 9 64981. 65056. 2713. o
2425 1 -3 9 9 72308. 70050. 2747. o
2426 1 -2 9 9 47374. 48667. 2082. o
2427 1 -1 9 9 81042. 79039. 3142. o
2428 1 0 9 9 37647. 39608. 1877. o
2429 1 1 9 9 28013. 28656. 2157. o
2430 1 2 9 9 36947. 43286. 3241. o
2431 1 3 9 9 8768. 9348. 1299. o
2432 1 4 9 9 76390. 84956. 4088. o
2433 1 5 9 9 65524. 64067. 4563. o
2434 1 -8 10 9 1736. 622. 506. <
2435 1 -7 10 9 2010. 1165. 410. <
2436 1 -6 10 9 388. 537. 365. <
2437 1 -5 10 9 385. 369. 351. <
2438 1 -4 10 9 8429. 8493. 998. o
2439 1 -3 10 9 6718. 7223. 901. o
2440 1 -2 10 9 6048. 5898. 811. o
2441 1 -1 10 9 10390. 11322. 1164. o
2442 1 0 10 9 1448. 1349. 438. o
2443 1 1 10 9 532. 110. 519. <
2444 1 2 10 9 1951. 2043. 1049. <
2445 1 3 10 9 1489. 2461. 928. <
2446 1 4 10 9 6557. 9274. 1682. o
2447 1 -7 11 9 281. 361. 557. <
2448 1 -6 11 9 240. -91. 337. <
2449 1 -5 11 9 9907. 9862. 1165. o
2450 1 -4 11 9 178. 310. 453. <
2451 1 -3 11 9 250. 398. 392. <
2452 1 -2 11 9 1. -316. 426. <
2453 1 -1 11 9 47. 279. 355. <
2454 1 0 11 9 2070. 2758. 627. o
2455 1 1 11 9 4196. 5527. 1081. o
2456 1 2 11 9 755. -531. 604. <
2457 1 3 11 9 33. 683. 775. <
2458 1 -6 12 9 7854. 6619. 1407. o
2459 1 -5 12 9 1751. 852. 509. <
2460 1 -4 12 9 6209. 4783. 748. o
2461 1 -3 12 9 9015. 8219. 1030. o
2462 1 -2 12 9 5083. 5703. 1203. o
2463 1 -1 12 9 10576. 9606. 1476. o
2464 1 0 12 9 3710. 3392. 890. o
2465 1 1 12 9 2213. 2411. 1206. <
2466 1 2 12 9 7370. 7717. 1963. o
2467 1 -5 13 9 17802. 14791. 2141. o
2468 1 -4 13 9 14658. 12684. 1519. o
2469 1 -3 13 9 28859. 28892. 3813. o
2470 1 -2 13 9 52543. 49755. 3589. o
2471 1 -1 13 9 13408. 12044. 1719. o
2472 1 0 13 9 17612. 15752. 2675. o
2473 2 6 0 10 6333. 4487. 1513. <
2473 1 -11 0 10 6333. 4487. 1513. <
2474 2 5 0 10 2220. 1973. 493. o
2474 1 -10 0 10 2220. 1973. 493. o
2475 2 4 0 10 913. 1118. 415. <
2475 1 -9 0 10 913. 1118. 415. <
2476 2 3 0 10 7305. 8121. 917. o
2476 1 -8 0 10 7305. 8121. 917. o
2477 2 2 0 10 4516. 4603. 742. o
2477 1 -7 0 10 4516. 4603. 742. o
2478 2 1 0 10 88. 187. 301. <
2478 1 -6 0 10 88. 187. 301. <
2479 2 0 0 10 3321. 3885. 639. o
2479 1 -5 0 10 3321. 3885. 639. o
2480 2 -1 0 10 6646. 6426. 1025. o
2480 1 -4 0 10 6646. 6426. 1025. o
2481 2 -2 0 10 5803. 6005. 1023. o
2481 1 -3 0 10 5803. 6005. 1023. o
2482 2 -3 0 10 8755. 8014. 1156. o
2482 1 -2 0 10 8755. 8014. 1156. o
2483 2 -4 0 10 3332. 2055. 697. <
2483 1 -1 0 10 3332. 2055. 697. <
2484 2 -5 0 10 3049. 3700. 662. o
2484 1 0 0 10 3049. 3700. 662. o
2485 2 -6 0 10 1083. 1074. 365. <
2485 1 1 0 10 1083. 1074. 365. <
2486 2 -7 0 10 680. 756. 369. <
2486 1 2 0 10 680. 756. 369. <
2487 2 -8 0 10 9163. 9656. 1113. o
2487 1 3 0 10 9163. 9656. 1113. o
2488 2 -9 0 10 1454. 1306. 547. <
2488 1 4 0 10 1454. 1306. 547. <
2489 2 -10 0 10 185. 7. 505. <
2489 1 5 0 10 185. 7. 505. <
2490 2 -11 0 10 7902. 7485. 1352. o
2490 1 6 0 10 7902. 7485. 1352. o
2491 2 6 -1 10 11975. 13730. 1512. o
2491 1 -11 1 10 11975. 13730. 1512. o
2492 2 5 -1 10 20611. 21716. 1111. o
2492 1 -10 1 10 20611. 21716. 1111. o
2493 2 4 -1 10 26436. 25886. 1166. o
2493 1 -9 1 10 26436. 25886. 1166. o
2494 2 3 -1 10 11789. 12782. 804. o
2494 1 -8 1 10 11789. 12782. 804. o
2495 2 2 -1 10 9570. 9533. 748. o
2495 1 -7 1 10 9570. 9533. 748. o
2496 2 1 -1 10 4591. 4228. 488. o
2496 1 -6 1 10 4591. 4228. 488. o
2497 2 0 -1 10 8801. 8998. 753. o
2497 1 -5 1 10 8801. 8998. 753. o
2498 2 -1 -1 10 40307. 39931. 1571. o
2498 1 -4 1 10 40307. 39931. 1571. o
2499 2 -2 -1 10 34088. 33090. 1645. o
2499 1 -3 1 10 34088. 33090. 1645. o
2500 2 -3 -1 10 31456. 31497. 1610. o
2500 1 -2 1 10 31456. 31497. 1610. o
2501 2 -4 -1 10 35499. 36433. 1763. o
2501 1 -1 1 10 35499. 36433. 1763. o
2502 2 -5 -1 10 6921. 7218. 631. o
2502 1 0 1 10 6921. 7218. 631. o
2503 2 -6 -1 10 2283. 2453. 379. o
2503 1 1 1 10 2283. 2453. 379. o
2504 2 -7 -1 10 7058. 6745. 630. o
2504 1 2 1 10 7058. 6745. 630. o
2505 2 -8 -1 10 11424. 10518. 834. o
2505 1 3 1 10 11424. 10518. 834. o
2506 2 -9 -1 10 19702. 19140. 1294. o
2506 1 4 1 10 19702. 19140. 1294. o
2507 2 -10 -1 10 13705. 12696. 1121. o
2507 1 5 1 10 13705. 12696. 1121. o
2508 2 -11 -1 10 8393. 7699. 1036. o
2508 1 6 1 10 8393. 7699. 1036. o
2509 2 6 -2 10 118631. 127606. 6111. o
2509 1 -11 2 10 118631. 127606. 6111. o
2510 2 5 -2 10 45619. 45434. 2124. o
2510 1 -10 2 10 45619. 45434. 2124. o
2511 2 4 -2 10 74126. 76461. 1957. o
2511 1 -9 2 10 74126. 76461. 1957. o
2512 2 3 -2 10 331903. 329671. 5131. o
2512 1 -8 2 10 331903. 329671. 5131. o
2513 2 2 -2 10 109006. 106483. 2884. o
2513 1 -7 2 10 109006. 106483. 2884. o
2514 2 1 -2 10 73075. 75911. 2336. o
2514 1 -6 2 10 73075. 75911. 2336. o
2515 2 0 -2 10 216581. 216023. 4272. o
2515 1 -5 2 10 216581. 216023. 4272. o
2516 2 -1 -2 10 69765. 69266. 2132. o
2516 1 -4 2 10 69765. 69266. 2132. o
2517 2 -2 -2 10 1201. 1095. 300. o
2517 1 -3 2 10 1201. 1095. 300. o
2518 2 -3 -2 10 256. 278. 281. <
2518 1 -2 2 10 256. 278. 281. <
2519 2 -4 -2 10 66402. 67188. 2464. o
2519 1 -1 2 10 66402. 67188. 2464. o
2520 2 -5 -2 10 225511. 221448. 4402. o
2520 1 0 2 10 225511. 221448. 4402. o
2521 2 -6 -2 10 77654. 76904. 1990. o
2521 1 1 2 10 77654. 76904. 1990. o
2522 2 -7 -2 10 100694. 100263. 2377. o
2522 1 2 2 10 100694. 100263. 2377. o
2523 2 -8 -2 10 312514. 307105. 5287. o
2523 1 3 2 10 312514. 307105. 5287. o
2524 2 -9 -2 10 70590. 68020. 2499. o
2524 1 4 2 10 70590. 68020. 2499. o
2525 2 -10 -2 10 37052. 37238. 1933. o
2525 1 5 2 10 37052. 37238. 1933. o
2526 2 -11 -2 10 102345. 95646. 5405. o
2526 1 6 2 10 102345. 95646. 5405. o
2527 2 6 -3 10 8010. 6167. 2068. <
2527 1 -11 3 10 8010. 6167. 2068. <
2528 2 5 -3 10 10744. 10579. 1160. o
2528 1 -10 3 10 10744. 10579. 1160. o
2529 2 4 -3 10 6670. 6784. 716. o
2529 1 -9 3 10 6670. 6784. 716. o
2530 2 3 -3 10 4715. 5055. 578. o
2530 1 -8 3 10 4715. 5055. 578. o
2531 2 2 -3 10 26. 585. 308. <
2531 1 -7 3 10 26. 585. 308. <
2532 2 1 -3 10 155. 500. 272. <
2532 1 -6 3 10 155. 500. 272. <
2533 2 0 -3 10 2110. 2603. 422. o
2533 1 -5 3 10 2110. 2603. 422. o
2534 2 -1 -3 10 2747. 2683. 421. o
2534 1 -4 3 10 2747. 2683. 421. o
2535 2 -2 -3 10 22536. 22458. 1178. o
2535 1 -3 3 10 22536. 22458. 1178. o
2536 2 -3 -3 10 21328. 20346. 1109. o
2536 1 -2 3 10 21328. 20346. 1109. o
2537 2 -4 -3 10 1507. 1823. 422. o
2537 1 -1 3 10 1507. 1823. 422. o
2538 2 -5 -3 10 661. 956. 269. o
2538 1 0 3 10 661. 956. 269. o
2539 2 -6 -3 10 17. 315. 230. <
2539 1 1 3 10 17. 315. 230. <
2540 2 -7 -3 10 64. -10. 184. <
2540 1 2 3 10 64. -10. 184. <
2541 2 -8 -3 10 1999. 2308. 444. o
2541 1 3 3 10 1999. 2308. 444. o
2542 2 -9 -3 10 3878. 3550. 595. o
2542 1 4 3 10 3878. 3550. 595. o
2543 2 -10 -3 10 7362. 7361. 886. o
2543 1 5 3 10 7362. 7361. 886. o
2544 2 -11 -3 10 3166. 2367. 874. <
2544 1 6 3 10 3166. 2367. 874. <
2545 2 5 -4 10 3159. 2843. 599. o
2545 1 -10 4 10 3159. 2843. 599. o
2546 2 4 -4 10 4587. 3101. 771. o
2546 1 -9 4 10 4587. 3101. 771. o
2547 2 3 -4 10 64. 789. 369. <
2547 1 -8 4 10 64. 789. 369. <
2548 2 2 -4 10 229. 128. 316. <
2548 1 -7 4 10 229. 128. 316. <
2549 2 1 -4 10 1839. 1971. 438. o
2549 1 -6 4 10 1839. 1971. 438. o
2550 2 0 -4 10 158. 335. 294. <
2550 1 -5 4 10 158. 335. 294. <
2551 2 -1 -4 10 592. 909. 250. o
2551 1 -4 4 10 592. 909. 250. o
2552 2 -2 -4 10 2910. 2942. 401. o
2552 1 -3 4 10 2910. 2942. 401. o
2553 2 -3 -4 10 1186. 1242. 271. o
2553 1 -2 4 10 1186. 1242. 271. o
2554 2 -4 -4 10 1537. 1650. 356. o
2554 1 -1 4 10 1537. 1650. 356. o
2555 2 -5 -4 10 65. 279. 212. <
2555 1 0 4 10 65. 279. 212. <
2556 2 -6 -4 10 218. 867. 273. o
2556 1 1 4 10 218. 867. 273. o
2557 2 -7 -4 10 759. 672. 231. <
2557 1 2 4 10 759. 672. 231. <
2558 2 -8 -4 10 689. 538. 286. <
2558 1 3 4 10 689. 538. 286. <
2559 2 -9 -4 10 1734. 1249. 362. o
2559 1 4 4 10 1734. 1249. 362. o
2560 2 -10 -4 10 5543. 6734. 833. o
2560 1 5 4 10 5543. 6734. 833. o
2561 2 5 -5 10 19734. 20266. 1904. o
2561 1 -10 5 10 19734. 20266. 1904. o
2562 2 4 -5 10 14318. 14516. 1336. o
2562 1 -9 5 10 14318. 14516. 1336. o
2563 2 3 -5 10 15266. 14442. 1288. o
2563 1 -8 5 10 15266. 14442. 1288. o
2564 2 2 -5 10 5657. 6525. 851. o
2564 1 -7 5 10 5657. 6525. 851. o
2565 2 1 -5 10 7800. 7578. 801. o
2565 1 -6 5 10 7800. 7578. 801. o
2566 2 0 -5 10 14408. 13405. 1085. o
2566 1 -5 5 10 14408. 13405. 1085. o
2567 2 -1 -5 10 14032. 14440. 969. o
2567 1 -4 5 10 14032. 14440. 969. o
2568 2 -2 -5 10 41481. 41470. 1647. o
2568 1 -3 5 10 41481. 41470. 1647. o
2569 2 -3 -5 10 40716. 41246. 1636. o
2569 1 -2 5 10 40716. 41246. 1636. o
2570 2 -4 -5 10 11872. 12175. 1040. o
2570 1 -1 5 10 11872. 12175. 1040. o
2571 2 -5 -5 10 11120. 11996. 914. o
2571 1 0 5 10 11120. 11996. 914. o
2572 2 -6 -5 10 7810. 8178. 646. o
2572 1 1 5 10 7810. 8178. 646. o
2573 2 -7 -5 10 5261. 5778. 562. o
2573 1 2 5 10 5261. 5778. 562. o
2574 2 -8 -5 10 11616. 12888. 953. o
2574 1 3 5 10 11616. 12888. 953. o
2575 2 -9 -5 10 14908. 14668. 1069. o
2575 1 4 5 10 14908. 14668. 1069. o
2576 2 -10 -5 10 17608. 18606. 1562. o
2576 1 5 5 10 17608. 18606. 1562. o
2577 2 5 -6 10 24908. 20613. 3103. o
2577 1 -10 6 10 24908. 20613. 3103. o
2578 2 4 -6 10 44653. 44526. 2824. o
2578 1 -9 6 10 44653. 44526. 2824. o
2579 2 3 -6 10 305041. 309909. 7032. o
2579 1 -8 6 10 305041. 309909. 7032. o
2580 2 2 -6 10 67141. 70711. 2627. o
2580 1 -7 6 10 67141. 70711. 2627. o
2581 2 1 -6 10 38331. 39354. 2129. o
2581 1 -6 6 10 38331. 39354. 2129. o
2582 2 0 -6 10 210572. 210232. 4970. o
2582 1 -5 6 10 210572. 210232. 4970. o
2583 2 -1 -6 10 37242. 36745. 1599. o
2583 1 -4 6 10 37242. 36745. 1599. o
2584 2 -2 -6 10 5916. 6180. 649. o
2584 1 -3 6 10 5916. 6180. 649. o
2585 2 -3 -6 10 3150. 3527. 507. o
2585 1 -2 6 10 3150. 3527. 507. o
2586 2 -4 -6 10 38273. 39417. 1660. o
2586 1 -1 6 10 38273. 39417. 1660. o
2587 2 -5 -6 10 211575. 209462. 4974. o
2587 1 0 6 10 211575. 209462. 4974. o
2588 2 -6 -6 10 42525. 43637. 1737. o
2588 1 1 6 10 42525. 43637. 1737. o
2589 2 -7 -6 10 60552. 61342. 2073. o
2589 1 2 6 10 60552. 61342. 2073. o
2590 2 -8 -6 10 289165. 298734. 5383. o
2590 1 3 6 10 289165. 298734. 5383. o
2591 2 -9 -6 10 43686. 46100. 2157. o
2591 1 4 6 10 43686. 46100. 2157. o
2592 2 -10 -6 10 21640. 21743. 2478. o
2592 1 5 6 10 21640. 21743. 2478. o
2593 2 5 -7 10 1304. 847. 748. <
2593 1 -10 7 10 1304. 847. 748. <
2594 2 4 -7 10 1213. 1282. 559. <
2594 1 -9 7 10 1213. 1282. 559. <
2595 2 3 -7 10 375. -58. 383. <
2595 1 -8 7 10 375. -58. 383. <
2596 2 2 -7 10 1570. 1209. 402. o
2596 1 -7 7 10 1570. 1209. 402. o
2597 2 1 -7 10 5964. 5692. 868. o
2597 1 -6 7 10 5964. 5692. 868. o
2598 2 0 -7 10 3088. 2499. 513. o
2598 1 -5 7 10 3088. 2499. 513. o
2599 2 -1 -7 10 1281. 1427. 333. o
2599 1 -4 7 10 1281. 1427. 333. o
2600 2 -2 -7 10 532. 691. 323. <
2600 1 -3 7 10 532. 691. 323. <
2601 2 -3 -7 10 383. 586. 336. <
2601 1 -2 7 10 383. 586. 336. <
2602 2 -4 -7 10 559. 756. 308. <
2602 1 -1 7 10 559. 756. 308. <
2603 2 -5 -7 10 4667. 6121. 867. o
2603 1 0 7 10 4667. 6121. 867. o
2604 2 -6 -7 10 8138. 8227. 841. o
2604 1 1 7 10 8138. 8227. 841. o
2605 2 -7 -7 10 3350. 3721. 555. o
2605 1 2 7 10 3350. 3721. 555. o
2606 2 -8 -7 10 815. 904. 356. <
2606 1 3 7 10 815. 904. 356. <
2607 2 -9 -7 10 474. 258. 370. <
2607 1 4 7 10 474. 258. 370. <
2608 2 -10 -7 10 102. 1590. 1124. <
2608 1 5 7 10 102. 1590. 1124. <
2609 2 4 -8 10 2781. 1709. 1008. <
2609 1 -9 8 10 2781. 1709. 1008. <
2610 2 3 -8 10 261. 403. 386. <
2610 1 -8 8 10 261. 403. 386. <
2611 2 2 -8 10 1179. 1264. 458. <
2611 1 -7 8 10 1179. 1264. 458. <
2612 2 1 -8 10 7521. 7714. 1021. o
2612 1 -6 8 10 7521. 7714. 1021. o
2613 2 0 -8 10 2543. 3321. 581. o
2613 1 -5 8 10 2543. 3321. 581. o
2614 2 -1 -8 10 1088. 1580. 416. o
2614 1 -4 8 10 1088. 1580. 416. o
2615 2 -2 -8 10 1566. 1419. 363. o
2615 1 -3 8 10 1566. 1419. 363. o
2616 2 -3 -8 10 628. 938. 355. <
2616 1 -2 8 10 628. 938. 355. <
2617 2 -4 -8 10 2510. 2515. 478. o
2617 1 -1 8 10 2510. 2515. 478. o
2618 2 -5 -8 10 2618. 2069. 545. o
2618 1 0 8 10 2618. 2069. 545. o
2619 2 -6 -8 10 4134. 4209. 731. o
2619 1 1 8 10 4134. 4209. 731. o
2620 2 -7 -8 10 4618. 4441. 936. o
2620 1 2 8 10 4618. 4441. 936. o
2621 2 -8 -8 10 56. 731. 460. <
2621 1 3 8 10 56. 731. 460. <
2622 2 -9 -8 10 2052. 1514. 698. <
2622 1 4 8 10 2052. 1514. 698. <
2623 2 3 -9 10 1177. 811. 432. <
2623 1 -8 9 10 1177. 811. 432. <
2624 2 2 -9 10 1170. 1242. 458. <
2624 1 -7 9 10 1170. 1242. 458. <
2625 2 1 -9 10 192. 261. 344. <
2625 1 -6 9 10 192. 261. 344. <
2626 2 0 -9 10 718. 729. 402. <
2626 1 -5 9 10 718. 729. 402. <
2627 2 -1 -9 10 9103. 9108. 958. o
2627 1 -4 9 10 9103. 9108. 958. o
2628 2 -2 -9 10 5477. 5096. 814. o
2628 1 -3 9 10 5477. 5096. 814. o
2629 2 -3 -9 10 5100. 4918. 691. o
2629 1 -2 9 10 5100. 4918. 691. o
2630 2 -4 -9 10 8290. 8796. 908. o
2630 1 -1 9 10 8290. 8796. 908. o
2631 2 -5 -9 10 742. 929. 360. <
2631 1 0 9 10 742. 929. 360. <
2632 2 -6 -9 10 60. -182. 342. <
2632 1 1 9 10 60. -182. 342. <
2633 2 -7 -9 10 1299. 529. 503. <
2633 1 2 9 10 1299. 529. 503. <
2634 2 -8 -9 10 2551. 2885. 1217. <
2634 1 3 9 10 2551. 2885. 1217. <
2635 2 2 -10 10 74542. 74879. 3319. o
2635 1 -7 10 10 74542. 74879. 3319. o
2636 2 1 -10 10 48219. 49399. 2634. o
2636 1 -6 10 10 48219. 49399. 2634. o
2637 2 0 -10 10 90414. 91822. 3156. o
2637 1 -5 10 10 90414. 91822. 3156. o
2638 2 -1 -10 10 55349. 53764. 2575. o
2638 1 -4 10 10 55349. 53764. 2575. o
2639 2 -2 -10 10 21. 539. 456. <
2639 1 -3 10 10 21. 539. 456. <
2640 2 -3 -10 10 157. 1086. 428. <
2640 1 -2 10 10 157. 1086. 428. <
2641 2 -4 -10 10 50316. 47828. 2212. o
2641 1 -1 10 10 50316. 47828. 2212. o
2642 2 -5 -10 10 97873. 98309. 4662. o
2642 1 0 10 10 97873. 98309. 4662. o
2643 2 -6 -10 10 50370. 52233. 4927. o
2643 1 1 10 10 50370. 52233. 4927. o
2644 2 -7 -10 10 69927. 69813. 5961. o
2644 1 2 10 10 69927. 69813. 5961. o
2645 2 2 -11 10 5370. 4781. 1569. o
2645 1 -7 11 10 5370. 4781. 1569. o
2646 2 1 -11 10 4372. 3890. 746. o
2646 1 -6 11 10 4372. 3890. 746. o
2647 2 0 -11 10 2234. 2129. 532. o
2647 1 -5 11 10 2234. 2129. 532. o
2648 2 -1 -11 10 1818. 1742. 554. o
2648 1 -4 11 10 1818. 1742. 554. o
2649 2 -2 -11 10 708. 921. 378. <
2649 1 -3 11 10 708. 921. 378. <
2650 2 -3 -11 10 411. 1184. 417. <
2650 1 -2 11 10 411. 1184. 417. <
2651 2 -4 -11 10 2354. 1953. 713. <
2651 1 -1 11 10 2354. 1953. 713. <
2652 2 -5 -11 10 3115. 3445. 753. o
2652 1 0 11 10 3115. 3445. 753. o
2653 2 -6 -11 10 6408. 4870. 1448. o
2653 1 1 11 10 6408. 4870. 1448. o
2654 2 -7 -11 10 5563. 7460. 1996. o
2654 1 2 11 10 5563. 7460. 1996. o
2655 2 1 -12 10 6768. 4631. 1757. <
2655 1 -6 12 10 6768. 4631. 1757. <
2656 2 0 -12 10 10386. 8290. 1268. o
2656 1 -5 12 10 10386. 8290. 1268. o
2657 2 -1 -12 10 10234. 7229. 1193. o
2657 1 -4 12 10 10234. 7229. 1193. o
2658 2 -2 -12 10 6550. 6032. 889. o
2658 1 -3 12 10 6550. 6032. 889. o
2659 2 -3 -12 10 8686. 9128. 1454. o
2659 1 -2 12 10 8686. 9128. 1454. o
2660 2 -4 -12 10 8017. 7983. 1377. o
2660 1 -1 12 10 8017. 7983. 1377. o
2661 2 -5 -12 10 10543. 10236. 1530. o
2661 1 0 12 10 10543. 10236. 1530. o
2662 2 -1 -13 10 1051. -456. 700. <
2662 1 -4 13 10 1051. -456. 700. <
2663 1 -11 1 11 1836. 1080. 620. <
2664 1 -10 1 11 4740. 4609. 548. o
2665 1 -9 1 11 17912. 18368. 1021. o
2666 1 -8 1 11 2899. 3252. 456. o
2667 1 -7 1 11 3367. 3522. 502. o
2668 1 -6 1 11 23113. 24074. 1309. o
2669 1 -5 1 11 16278. 15027. 1023. o
2670 1 -4 1 11 1418. 1838. 378. o
2671 1 -3 1 11 8243. 7677. 844. o
2672 1 -2 1 11 1829. 2104. 547. o
2673 1 -1 1 11 3706. 3981. 638. o
2674 1 0 1 11 47579. 45688. 2126. o
2675 1 1 1 11 3629. 3961. 515. o
2676 1 2 1 11 799. 630. 277. <
2677 1 3 1 11 27132. 27614. 1707. o
2678 1 4 1 11 1565. 1646. 513. o
2679 1 5 1 11 550. 968. 488. <
2680 1 -11 2 11 18633. 16177. 2130. o
2681 1 -10 2 11 20749. 21815. 1654. o
2682 1 -9 2 11 32368. 31150. 1425. o
2683 1 -8 2 11 54534. 55101. 2007. o
2684 1 -7 2 11 87361. 91889. 2758. o
2685 1 -6 2 11 92706. 94454. 2752. o
2686 1 -5 2 11 73713. 70912. 2297. o
2687 1 -4 2 11 52297. 52121. 1911. o
2688 1 -3 2 11 34406. 33953. 1772. o
2689 1 -2 2 11 42244. 42988. 2017. o
2690 1 -1 2 11 70610. 70215. 2654. o
2691 1 0 2 11 89401. 90217. 3088. o
2692 1 1 2 11 93833. 93736. 2558. o
2693 1 2 2 11 71154. 74699. 2297. o
2694 1 3 2 11 40896. 39514. 1706. o
2695 1 4 2 11 27028. 24099. 1548. o
2696 1 5 2 11 21898. 18905. 1868. o
2697 1 -10 3 11 461. 763. 417. <
2698 1 -9 3 11 381. 1089. 349. o
2699 1 -8 3 11 7443. 7206. 734. o
2700 1 -7 3 11 20238. 21583. 1292. o
2701 1 -6 3 11 2249. 2033. 415. o
2702 1 -5 3 11 1908. 2083. 418. o
2703 1 -4 3 11 10642. 11970. 907. o
2704 1 -3 3 11 1. 155. 228. <
2705 1 -2 3 11 6317. 6340. 764. o
2706 1 -1 3 11 12678. 13150. 1138. o
2707 1 0 3 11 815. 565. 305. <
2708 1 1 3 11 23354. 24241. 1153. o
2709 1 2 3 11 21445. 21484. 1109. o
2710 1 3 3 11 2474. 2428. 454. o
2711 1 4 3 11 3397. 3243. 569. o
2712 1 5 3 11 3125. 2163. 717. o
2713 1 -10 4 11 122. -789. 365. <
2714 1 -9 4 11 601. 1029. 408. <
2715 1 -8 4 11 567. 995. 390. <
2716 1 -7 4 11 15. 409. 306. <
2717 1 -6 4 11 402. 416. 242. <
2718 1 -5 4 11 498. 493. 276. <
2719 1 -4 4 11 334. 348. 303. <
2720 1 -3 4 11 938. 997. 346. <
2721 1 -2 4 11 253. 416. 277. <
2722 1 -1 4 11 288. 678. 368. <
2723 1 0 4 11 435. 410. 302. <
2724 1 1 4 11 0. 69. 253. <
2725 1 2 4 11 204. 252. 257. <
2726 1 3 4 11 453. 399. 267. <
2727 1 4 4 11 46. 7. 302. <
2728 1 5 4 11 214. -291. 427. <
2729 1 -11 5 11 17558. 13646. 2561. o
2730 1 -10 5 11 65. 925. 746. <
2731 1 -9 5 11 780. 578. 375. <
2732 1 -8 5 11 11107. 10763. 1176. o
2733 1 -7 5 11 15447. 15676. 1403. o
2734 1 -6 5 11 3886. 4508. 710. o
2735 1 -5 5 11 3216. 3247. 565. o
2736 1 -4 5 11 5769. 6375. 698. o
2737 1 -3 5 11 504. 381. 321. <
2738 1 -2 5 11 4116. 3836. 606. o
2739 1 -1 5 11 7435. 6418. 791. o
2740 1 0 5 11 108. 106. 252. <
2741 1 1 5 11 19524. 21158. 1296. o
2742 1 2 5 11 18886. 21010. 1223. o
2743 1 3 5 11 610. 351. 287. <
2744 1 4 5 11 1334. 259. 387. <
2745 1 5 5 11 3036. 2389. 947. <
2746 1 -10 6 11 4677. 3032. 1152. <
2747 1 -9 6 11 8486. 8787. 986. o
2748 1 -8 6 11 24721. 27660. 1901. o
2749 1 -7 6 11 31695. 31649. 2038. o
2750 1 -6 6 11 41684. 40454. 2233. o
2751 1 -5 6 11 30808. 30544. 1764. o
2752 1 -4 6 11 10135. 10679. 1036. o
2753 1 -3 6 11 11463. 10695. 1048. o
2754 1 -2 6 11 12827. 12369. 1097. o
2755 1 -1 6 11 18013. 19534. 1416. o
2756 1 0 6 11 42151. 41414. 2092. o
2757 1 1 6 11 39720. 41045. 1828. o
2758 1 2 6 11 25919. 27120. 1535. o
2759 1 3 6 11 16028. 17259. 1162. o
2760 1 4 6 11 5787. 5537. 1221. o
2761 1 5 6 11 6892. 6008. 1639. o
2762 1 -9 7 11 2496. 2086. 1216. <
2763 1 -8 7 11 2. -79. 442. <
2764 1 -7 7 11 1570. 2170. 626. o
2765 1 -6 7 11 3394. 3896. 803. o
2766 1 -5 7 11 1510. 1200. 482. <
2767 1 -4 7 11 3363. 3560. 624. o
2768 1 -3 7 11 1425. 1842. 476. o
2769 1 -2 7 11 1064. 1079. 414. <
2770 1 -1 7 11 1162. 859. 325. <
2771 1 0 7 11 19776. 20546. 1471. o
2772 1 1 7 11 1293. 2188. 547. o
2773 1 2 7 11 2369. 2570. 719. o
2774 1 3 7 11 10843. 11591. 1440. o
2775 1 4 7 11 952. 1299. 1158. <
2776 1 -8 8 11 144. -1283. 649. <
2777 1 -7 8 11 186. 327. 399. <
2778 1 -6 8 11 159. 674. 423. <
2779 1 -5 8 11 19. 418. 405. <
2780 1 -4 8 11 247. 1066. 461. <
2781 1 -3 8 11 4. -403. 302. <
2782 1 -2 8 11 197. -116. 350. <
2783 1 -1 8 11 17. 305. 338. <
2784 1 0 8 11 602. 1130. 443. <
2785 1 1 8 11 53. -130. 348. <
2786 1 2 8 11 98. -11. 527. <
2787 1 3 8 11 202. -248. 618. <
2788 1 -8 9 11 244. 65. 651. <
2789 1 -7 9 11 475. 888. 458. <
2790 1 -6 9 11 4989. 6164. 954. o
2791 1 -5 9 11 2319. 2213. 594. o
2792 1 -4 9 11 12. 757. 487. <
2793 1 -3 9 11 1. 1024. 678. <
2794 1 -2 9 11 100. -539. 406. <
2795 1 -1 9 11 378. 822. 314. <
2796 1 0 9 11 10275. 11005. 1249. o
2797 1 1 9 11 497. 2005. 1112. <
2798 1 2 9 11 11. -952. 791. <
2799 1 -8 10 11 724. -121. 483. <
2800 1 -7 10 11 7504. 6124. 1811. o
2801 1 -6 10 11 4423. 4445. 1115. o
2802 1 -5 10 11 1375. 2180. 587. o
2803 1 -4 10 11 1316. 1510. 570. <
2804 1 -3 10 11 1005. 877. 554. <
2805 1 -2 10 11 91. 533. 400. <
2806 1 -1 10 11 3364. 3849. 672. o
2807 1 0 10 11 2493. 3372. 1258. <
2808 1 1 10 11 5703. 6774. 1877. o
2809 1 -5 11 11 5335. 3575. 1178. o
2810 1 -4 11 11 20. -534. 529. <
2811 1 -3 11 11 11440. 12503. 1555. o
2812 1 -2 11 11 712. 841. 473. <
2813 1 -1 11 11 4. 339. 465. <
2814 1 0 11 11 18801. 18316. 2046. o
2815 1 1 11 11 673. 1120. 697. <
2816 1 -4 12 11 2180. 530. 561. <
2817 1 -3 12 11 433. 1055. 618. <
2818 1 -2 12 11 2450. 4586. 1420. o
2819 1 -1 12 11 2085. -1168. 848. <
2820 2 5 0 12 61156. 65375. 6291. o
2820 1 -11 0 12 61156. 65375. 6291. o
2821 2 4 0 12 55274. 55966. 2704. o
2821 1 -10 0 12 55274. 55966. 2704. o
2822 2 3 0 12 10935. 11375. 1178. o
2822 1 -9 0 12 10935. 11375. 1178. o
2823 2 2 0 12 4443. 6016. 978. o
2823 1 -8 0 12 4443. 6016. 978. o
2824 2 1 0 12 16026. 14318. 1402. o
2824 1 -7 0 12 16026. 14318. 1402. o
2825 2 0 0 12 288098. 288081. 8880. o
2825 1 -6 0 12 288098. 288081. 8880. o
2826 2 -1 0 12 62916. 63355. 3653. o
2826 1 -5 0 12 62916. 63355. 3653. o
2827 2 -2 0 12 114008. 115086. 5104. o
2827 1 -4 0 12 114008. 115086. 5104. o
2828 2 -3 0 12 356472. 353096. 10130. o
2828 1 -3 0 12 356472. 353096. 10130. o
2829 2 -4 0 12 115776. 115242. 5135. o
2829 1 -2 0 12 115776. 115242. 5135. o
2830 2 -5 0 12 51960. 51331. 3358. o
2830 1 -1 0 12 51960. 51331. 3358. o
2831 2 -6 0 12 259269. 249632. 8301. o
2831 1 0 0 12 259269. 249632. 8301. o
2832 2 -7 0 12 19187. 20314. 1741. o
2832 1 1 0 12 19187. 20314. 1741. o
2833 2 -8 0 12 3936. 3455. 775. o
2833 1 2 0 12 3936. 3455. 775. o
2834 2 -9 0 12 3503. 3891. 1007. o
2834 1 3 0 12 3503. 3891. 1007. o
2835 2 -10 0 12 61373. 57912. 3932. o
2835 1 4 0 12 61373. 57912. 3932. o
2836 2 4 -1 12 1893. 1136. 323. o
2836 1 -10 1 12 1893. 1136. 323. o
2837 2 3 -1 12 36. 740. 291. <
2837 1 -9 1 12 36. 740. 291. <
2838 2 2 -1 12 258. 305. 331. <
2838 1 -8 1 12 258. 305. 331. <
2839 2 1 -1 12 876. 1759. 432. o
2839 1 -7 1 12 876. 1759. 432. o
2840 2 0 -1 12 283. 475. 285. <
2840 1 -6 1 12 283. 475. 285. <
2841 2 -1 -1 12 8. 262. 306. <
2841 1 -5 1 12 8. 262. 306. <
2842 2 -2 -1 12 1271. 1980. 484. o
2842 1 -4 1 12 1271. 1980. 484. o
2843 2 -3 -1 12 378. 689. 389. <
2843 1 -3 1 12 378. 689. 389. <
2844 2 -4 -1 12 1298. 1521. 458. o
2844 1 -2 1 12 1298. 1521. 458. o
2845 2 -5 -1 12 8. 582. 375. <
2845 1 -1 1 12 8. 582. 375. <
2846 2 -6 -1 12 134. 471. 405. <
2846 1 0 1 12 134. 471. 405. <
2847 2 -7 -1 12 1385. 1993. 427. o
2847 1 1 1 12 1385. 1993. 427. o
2848 2 -8 -1 12 103. 101. 280. <
2848 1 2 1 12 103. 101. 280. <
2849 2 -9 -1 12 22. 675. 437. <
2849 1 3 1 12 22. 675. 437. <
2850 2 -10 -1 12 2417. 2533. 710. o
2850 1 4 1 12 2417. 2533. 710. o
2851 2 4 -2 12 36. -116. 310. <
2851 1 -10 2 12 36. -116. 310. <
2852 2 3 -2 12 5760. 6307. 681. o
2852 1 -9 2 12 5760. 6307. 681. o
2853 2 2 -2 12 2807. 3111. 531. o
2853 1 -8 2 12 2807. 3111. 531. o
2854 2 1 -2 12 3203. 3183. 521. o
2854 1 -7 2 12 3203. 3183. 521. o
2855 2 0 -2 12 3089. 3278. 535. o
2855 1 -6 2 12 3089. 3278. 535. o
2856 2 -1 -2 12 1437. 1515. 400. o
2856 1 -5 2 12 1437. 1515. 400. o
2857 2 -2 -2 12 6049. 6024. 798. o
2857 1 -4 2 12 6049. 6024. 798. o
2858 2 -3 -2 12 2390. 2320. 528. o
2858 1 -3 2 12 2390. 2320. 528. o
2859 2 -4 -2 12 1524. 1750. 485. o
2859 1 -2 2 12 1524. 1750. 485. o
2860 2 -5 -2 12 5609. 6101. 789. o
2860 1 -1 2 12 5609. 6101. 789. o
2861 2 -6 -2 12 1543. 1571. 457. o
2861 1 0 2 12 1543. 1571. 457. o
2862 2 -7 -2 12 1910. 1724. 360. o
2862 1 1 2 12 1910. 1724. 360. o
2863 2 -8 -2 12 4326. 3867. 611. o
2863 1 2 2 12 4326. 3867. 611. o
2864 2 -9 -2 12 2384. 1527. 515. <
2864 1 3 2 12 2384. 1527. 515. <
2865 2 -10 -2 12 383. 547. 709. <
2865 1 4 2 12 383. 547. 709. <
2866 2 5 -3 12 223. -1156. 914. <
2866 1 -11 3 12 223. -1156. 914. <
2867 2 4 -3 12 3465. 3555. 977. o
2867 1 -10 3 12 3465. 3555. 977. o
2868 2 3 -3 12 511. 454. 336. <
2868 1 -9 3 12 511. 454. 336. <
2869 2 2 -3 12 1094. 1240. 382. o
2869 1 -8 3 12 1094. 1240. 382. o
2870 2 1 -3 12 9024. 9167. 879. o
2870 1 -7 3 12 9024. 9167. 879. o
2871 2 0 -3 12 1887. 2092. 435. o
2871 1 -6 3 12 1887. 2092. 435. o
2872 2 -1 -3 12 1227. 1772. 383. o
2872 1 -5 3 12 1227. 1772. 383. o
2873 2 -2 -3 12 2794. 3371. 520. o
2873 1 -4 3 12 2794. 3371. 520. o
2874 2 -3 -3 12 727. 306. 353. <
2874 1 -3 3 12 727. 306. 353. <
2875 2 -4 -3 12 2530. 3424. 625. o
2875 1 -2 3 12 2530. 3424. 625. o
2876 2 -5 -3 12 1322. 1106. 401. <
2876 1 -1 3 12 1322. 1106. 401. <
2877 2 -6 -3 12 1814. 2553. 562. o
2877 1 0 3 12 1814. 2553. 562. o
2878 2 -7 -3 12 7194. 6728. 758. o
2878 1 1 3 12 7194. 6728. 758. o
2879 2 -8 -3 12 717. -17. 388. <
2879 1 2 3 12 717. -17. 388. <
2880 2 -9 -3 12 172. -78. 262. <
2880 1 3 3 12 172. -78. 262. <
2881 2 -10 -3 12 2772. 1682. 590. <
2881 1 4 3 12 2772. 1682. 590. <
2882 2 4 -4 12 41749. 37952. 4407. o
2882 1 -10 4 12 41749. 37952. 4407. o
2883 2 3 -4 12 3946. 3274. 662. o
2883 1 -9 4 12 3946. 3274. 662. o
2884 2 2 -4 12 5046. 5374. 853. o
2884 1 -8 4 12 5046. 5374. 853. o
2885 2 1 -4 12 105811. 105318. 3175. o
2885 1 -7 4 12 105811. 105318. 3175. o
2886 2 0 -4 12 103966. 103977. 3079. o
2886 1 -6 4 12 103966. 103977. 3079. o
2887 2 -1 -4 12 103317. 104557. 3030. o
2887 1 -5 4 12 103317. 104557. 3030. o
2888 2 -2 -4 12 83120. 82264. 3056. o
2888 1 -4 4 12 83120. 82264. 3056. o
2889 2 -3 -4 12 412874. 415615. 8130. o
2889 1 -3 4 12 412874. 415615. 8130. o
2890 2 -4 -4 12 89188. 93363. 3298. o
2890 1 -2 4 12 89188. 93363. 3298. o
2891 2 -5 -4 12 93154. 97631. 3406. o
2891 1 -1 4 12 93154. 97631. 3406. o
2892 2 -6 -4 12 92884. 93551. 3372. o
2892 1 0 4 12 92884. 93551. 3372. o
2893 2 -7 -4 12 94822. 99756. 3084. o
2893 1 1 4 12 94822. 99756. 3084. o
2894 2 -8 -4 12 1097. 1438. 458. o
2894 1 2 4 12 1097. 1438. 458. o
2895 2 -9 -4 12 4162. 4718. 664. o
2895 1 3 4 12 4162. 4718. 664. o
2896 2 -10 -4 12 31290. 29819. 2241. o
2896 1 4 4 12 31290. 29819. 2241. o
2897 2 3 -5 12 4773. 5792. 1018. o
2897 1 -9 5 12 4773. 5792. 1018. o
2898 2 2 -5 12 3830. 4022. 676. o
2898 1 -8 5 12 3830. 4022. 676. o
2899 2 1 -5 12 198. 800. 422. <
2899 1 -7 5 12 198. 800. 422. <
2900 2 0 -5 12 3673. 4564. 637. o
2900 1 -6 5 12 3673. 4564. 637. o
2901 2 -1 -5 12 4433. 4237. 618. o
2901 1 -5 5 12 4433. 4237. 618. o
2902 2 -2 -5 12 3605. 4382. 703. o
2902 1 -4 5 12 3605. 4382. 703. o
2903 2 -3 -5 12 7307. 7551. 922. o
2903 1 -3 5 12 7307. 7551. 922. o
2904 2 -4 -5 12 3317. 3190. 650. o
2904 1 -2 5 12 3317. 3190. 650. o
2905 2 -5 -5 12 5732. 6218. 861. o
2905 1 -1 5 12 5732. 6218. 861. o
2906 2 -6 -5 12 4197. 4141. 703. o
2906 1 0 5 12 4197. 4141. 703. o
2907 2 -7 -5 12 145. 379. 254. <
2907 1 1 5 12 145. 379. 254. <
2908 2 -8 -5 12 4758. 4673. 686. o
2908 1 2 5 12 4758. 4673. 686. o
2909 2 -9 -5 12 5766. 6005. 1007. o
2909 1 3 5 12 5766. 6005. 1007. o
2910 2 -10 -5 12 899. 393. 431. <
2910 1 4 5 12 899. 393. 431. <
2911 2 3 -6 12 5813. 6040. 1067. o
2911 1 -9 6 12 5813. 6040. 1067. o
2912 2 2 -6 12 12905. 11760. 1275. o
2912 1 -8 6 12 12905. 11760. 1275. o
2913 2 1 -6 12 15249. 17085. 1541. o
2913 1 -7 6 12 15249. 17085. 1541. o
2914 2 0 -6 12 16219. 17935. 1753. o
2914 1 -6 6 12 16219. 17935. 1753. o
2915 2 -1 -6 12 19739. 18062. 1449. o
2915 1 -5 6 12 19739. 18062. 1449. o
2916 2 -2 -6 12 8928. 10059. 1082. o
2916 1 -4 6 12 8928. 10059. 1082. o
2917 2 -3 -6 12 12491. 13764. 1253. o
2917 1 -3 6 12 12491. 13764. 1253. o
2918 2 -4 -6 12 15905. 17002. 1374. o
2918 1 -2 6 12 15905. 17002. 1374. o
2919 2 -5 -6 12 10000. 10112. 1097. o
2919 1 -1 6 12 10000. 10112. 1097. o
2920 2 -6 -6 12 17488. 16852. 1399. o
2920 1 0 6 12 17488. 16852. 1399. o
2921 2 -7 -6 12 14891. 15132. 1346. o
2921 1 1 6 12 14891. 15132. 1346. o
2922 2 -8 -6 12 7512. 7672. 983. o
2922 1 2 6 12 7512. 7672. 983. o
2923 2 -9 -6 12 6988. 7047. 1085. o
2923 1 3 6 12 6988. 7047. 1085. o
2924 2 -10 -6 12 9165. 10132. 2116. o
2924 1 4 6 12 9165. 10132. 2116. o
2925 2 3 -7 12 5470. 2660. 1236. <
2925 1 -9 7 12 5470. 2660. 1236. <
2926 2 2 -7 12 7615. 6211. 1295. o
2926 1 -8 7 12 7615. 6211. 1295. o
2927 2 1 -7 12 1983. 2745. 690. o
2927 1 -7 7 12 1983. 2745. 690. o
2928 2 0 -7 12 8084. 9466. 1175. o
2928 1 -6 7 12 8084. 9466. 1175. o
2929 2 -1 -7 12 6566. 7676. 1183. o
2929 1 -5 7 12 6566. 7676. 1183. o
2930 2 -2 -7 12 2094. 1198. 479. <
2930 1 -4 7 12 2094. 1198. 479. <
2931 2 -3 -7 12 3997. 3352. 690. o
2931 1 -3 7 12 3997. 3352. 690. o
2932 2 -4 -7 12 2890. 2749. 581. o
2932 1 -2 7 12 2890. 2749. 581. o
2933 2 -5 -7 12 6324. 6312. 870. o
2933 1 -1 7 12 6324. 6312. 870. o
2934 2 -6 -7 12 6855. 7031. 930. o
2934 1 0 7 12 6855. 7031. 930. o
2935 2 -7 -7 12 1856. 1423. 534. <
2935 1 1 7 12 1856. 1423. 534. <
2936 2 -8 -7 12 5470. 6006. 1052. o
2936 1 2 7 12 5470. 6006. 1052. o
2937 2 -9 -7 12 4476. 4795. 1783. <
2937 1 3 7 12 4476. 4795. 1783. <
2938 2 2 -8 12 14045. 13645. 2650. o
2938 1 -8 8 12 14045. 13645. 2650. o
2939 2 1 -8 12 2320. 2461. 922. <
2939 1 -7 8 12 2320. 2461. 922. <
2940 2 0 -8 12 251222. 251632. 6605. o
2940 1 -6 8 12 251222. 251632. 6605. o
2941 2 -1 -8 12 16544. 17423. 1590. o
2941 1 -5 8 12 16544. 17423. 1590. o
2942 2 -2 -8 12 39295. 42926. 2745. o
2942 1 -4 8 12 39295. 42926. 2745. o
2943 2 -3 -8 12 309834. 316239. 7070. o
2943 1 -3 8 12 309834. 316239. 7070. o
2944 2 -4 -8 12 40177. 42761. 2285. o
2944 1 -2 8 12 40177. 42761. 2285. o
2945 2 -5 -8 12 11862. 12338. 1223. o
2945 1 -1 8 12 11862. 12338. 1223. o
2946 2 -6 -8 12 231095. 235714. 5968. o
2946 1 0 8 12 231095. 235714. 5968. o
2947 2 -7 -8 12 2979. 2655. 730. o
2947 1 1 8 12 2979. 2655. 730. o
2948 2 -8 -8 12 14209. 15112. 3204. o
2948 1 2 8 12 14209. 15112. 3204. o
2949 2 2 -9 12 2721. 2165. 1016. <
2949 1 -8 9 12 2721. 2165. 1016. <
2950 2 1 -9 12 6653. 5940. 1832. o
2950 1 -7 9 12 6653. 5940. 1832. o
2951 2 0 -9 12 2436. 2407. 843. <
2951 1 -6 9 12 2436. 2407. 843. <
2952 2 -1 -9 12 4398. 4512. 837. o
2952 1 -5 9 12 4398. 4512. 837. o
2953 2 -2 -9 12 7903. 7455. 1171. o
2953 1 -4 9 12 7903. 7455. 1171. o
2954 2 -3 -9 12 6352. 6940. 1118. o
2954 1 -3 9 12 6352. 6940. 1118. o
2955 2 -4 -9 12 10169. 10320. 1136. o
2955 1 -2 9 12 10169. 10320. 1136. o
2956 2 -5 -9 12 3895. 4273. 746. o
2956 1 -1 9 12 3895. 4273. 746. o
2957 2 -6 -9 12 2813. 1615. 558. <
2957 1 0 9 12 2813. 1615. 558. <
2958 2 -7 -9 12 8559. 9498. 2181. o
2958 1 1 9 12 8559. 9498. 2181. o
2959 2 -1 -10 12 8332. 10512. 1818. o
2959 1 -5 10 12 8332. 10512. 1818. o
2960 2 -2 -10 12 12604. 12476. 1947. o
2960 1 -4 10 12 12604. 12476. 1947. o
2961 2 -3 -10 12 8284. 6806. 1328. o
2961 1 -3 10 12 8284. 6806. 1328. o
2962 2 -4 -10 12 6734. 5165. 1154. o
2962 1 -2 10 12 6734. 5165. 1154. o
2963 2 -5 -10 12 13242. 12259. 1744. o
2963 1 -1 10 12 13242. 12259. 1744. o
2964 2 -6 -10 12 9341. 11781. 2447. o
2964 1 0 10 12 9341. 11781. 2447. o
2965 2 -2 -11 12 2041. 492. 1060. <
2965 1 -4 11 12 2041. 492. 1060. <
2966 2 -3 -11 12 704. 1992. 888. <
2966 1 -3 11 12 704. 1992. 888. <
2967 2 -4 -11 12 1706. 1800. 1140. <
2967 1 -2 11 12 1706. 1800. 1140. <
2968 1 -10 1 13 87. 732. 397. <
2969 1 -9 1 13 105. 1189. 369. o
2970 1 -8 1 13 2776. 3035. 554. o
2971 1 -7 1 13 33. -527. 322. <
2972 1 -6 1 13 1. -218. 383. <
2973 1 -5 1 13 711. 628. 331. <
2974 1 -4 1 13 7300. 7503. 914. o
2975 1 -3 1 13 16411. 16983. 1374. o
2976 1 -2 1 13 826. 511. 334. <
2977 1 -1 1 13 837. 1022. 407. <
2978 1 0 1 13 9. 358. 372. <
2979 1 1 1 13 16. 573. 360. <
2980 1 2 1 13 13260. 11389. 1114. o
2981 1 -10 2 13 846. 1405. 745. <
2982 1 -9 2 13 329. 670. 361. <
2983 1 -8 2 13 40. -373. 298. <
2984 1 -7 2 13 147. 172. 293. <
2985 1 -6 2 13 1. 316. 296. <
2986 1 -5 2 13 333. 846. 386. <
2987 1 -4 2 13 2515. 2564. 540. o
2988 1 -3 2 13 3173. 3524. 681. o
2989 1 -2 2 13 848. 31. 378. <
2990 1 -1 2 13 75. -286. 421. <
2991 1 0 2 13 72. 112. 288. <
2992 1 1 2 13 39. 622. 328. <
2993 1 2 2 13 392. 1106. 427. <
2994 1 3 2 13 1247. 624. 603. <
2995 1 -10 3 13 1393. 2918. 1245. <
2996 1 -9 3 13 216. 888. 427. <
2997 1 -8 3 13 8420. 9152. 881. o
2998 1 -7 3 13 4556. 5504. 735. o
2999 1 -6 3 13 550. 1122. 347. o
3000 1 -5 3 13 9. -144. 313. <
3001 1 -4 3 13 4. 159. 350. <
3002 1 -3 3 13 138. 683. 472. <
3003 1 -2 3 13 435. 852. 361. <
3004 1 -1 3 13 1075. 1407. 475. <
3005 1 0 3 13 2130. 1760. 558. o
3006 1 1 3 13 1623. 1108. 395. <
3007 1 2 3 13 7621. 7778. 901. o
3008 1 3 3 13 5287. 4978. 1146. o
3009 1 -9 4 13 4320. 5224. 954. o
3010 1 -8 4 13 3432. 4427. 737. o
3011 1 -7 4 13 2245. 1644. 436. o
3012 1 -6 4 13 4709. 5315. 730. o
3013 1 -5 4 13 3840. 3494. 699. o
3014 1 -4 4 13 4170. 4249. 760. o
3015 1 -3 4 13 5963. 5865. 795. o
3016 1 -2 4 13 3560. 4448. 771. o
3017 1 -1 4 13 4359. 5818. 880. o
3018 1 0 4 13 3778. 4242. 724. o
3019 1 1 4 13 1698. 894. 394. <
3020 1 2 4 13 3568. 4278. 897. o
3021 1 3 4 13 3263. 2205. 738. <
3022 1 -9 5 13 12201. 11742. 1774. o
3023 1 -8 5 13 1346. 1713. 610. <
3024 1 -7 5 13 5982. 7146. 968. o
3025 1 -6 5 13 6783. 7073. 921. o
3026 1 -5 5 13 22599. 24486. 1722. o
3027 1 -4 5 13 24686. 27778. 1836. o
3028 1 -3 5 13 13104. 12362. 1218. o
3029 1 -2 5 13 32408. 34693. 2086. o
3030 1 -1 5 13 9538. 11059. 1190. o
3031 1 0 5 13 6257. 7058. 982. o
3032 1 1 5 13 11550. 13458. 1565. o
3033 1 2 5 13 501. 400. 431. <
3034 1 3 5 13 37552. 36021. 2918. o
3035 1 -9 6 13 4. -3586. 1407. <
3036 1 -8 6 13 6. -1649. 709. <
3037 1 -7 6 13 460. 567. 443. <
3038 1 -6 6 13 343. 647. 505. <
3039 1 -5 6 13 829. 1118. 461. <
3040 1 -4 6 13 843. 598. 317. <
3041 1 -3 6 13 795. 746. 356. <
3042 1 -2 6 13 1287. 440. 416. <
3043 1 -1 6 13 43. 537. 371. <
3044 1 0 6 13 310. 203. 310. <
3045 1 1 6 13 12. 130. 403. <
3046 1 2 6 13 3. 40. 471. <
3047 1 -8 7 13 5. 548. 524. <
3048 1 -7 7 13 1366. 433. 438. <
3049 1 -6 7 13 6117. 7994. 1088. o
3050 1 -5 7 13 842. 763. 555. <
3051 1 -4 7 13 162. 232. 404. <
3052 1 -3 7 13 402. 733. 431. <
3053 1 -2 7 13 688. 1054. 407. <
3054 1 -1 7 13 1670. 2445. 607. o
3055 1 0 7 13 3721. 3013. 666. o
3056 1 1 7 13 2022. 1800. 990. <
3057 1 2 7 13 515. 553. 624. <
3058 1 -6 8 13 3594. 1766. 879. <
3059 1 -5 8 13 7506. 11002. 1795. o
3060 1 -4 8 13 9502. 10514. 1420. o
3061 1 -3 8 13 6622. 7051. 977. o
3062 1 -2 8 13 10676. 10215. 1154. o
3063 1 -1 8 13 5383. 5832. 1032. o
3064 1 0 8 13 3941. 3983. 836. o
3065 1 1 8 13 7891. 7900. 1936. o
3066 1 -4 9 13 29934. 24533. 3558. o
3067 1 -3 9 13 53580. 55327. 5356. o
3068 1 -2 9 13 13646. 15815. 2036. o
3069 1 -1 9 13 18710. 18907. 1786. o
3070 1 0 9 13 12553. 10010. 2210. o
3071 1 -2 10 13 315. 930. 969. <
3072 2 2 0 14 4936. 4268. 1049. o
3072 1 -9 0 14 4936. 4268. 1049. o
3073 2 1 0 14 3759. 3529. 1033. o
3073 1 -8 0 14 3759. 3529. 1033. o
3074 2 0 0 14 12935. 11808. 1728. o
3074 1 -7 0 14 12935. 11808. 1728. o
3075 2 -1 0 14 7989. 6734. 1292. o
3075 1 -6 0 14 7989. 6734. 1292. o
3076 2 -2 0 14 11041. 11735. 1738. o
3076 1 -5 0 14 11041. 11735. 1738. o
3077 2 -3 0 14 17689. 20786. 2318. o
3077 1 -4 0 14 17689. 20786. 2318. o
3078 2 -4 0 14 12394. 11566. 1658. o
3078 1 -3 0 14 12394. 11566. 1658. o
3079 2 -5 0 14 14619. 14646. 1954. o
3079 1 -2 0 14 14619. 14646. 1954. o
3080 2 -6 0 14 7185. 6864. 1374. o
3080 1 -1 0 14 7185. 6864. 1374. o
3081 2 -7 0 14 6539. 7457. 1445. o
3081 1 0 0 14 6539. 7457. 1445. o
3082 2 -8 0 14 10128. 12858. 1888. o
3082 1 1 0 14 10128. 12858. 1888. o
3083 2 2 -1 14 21336. 18880. 1797. o
3083 1 -9 1 14 21336. 18880. 1797. o
3084 2 1 -1 14 10348. 10733. 1044. o
3084 1 -8 1 14 10348. 10733. 1044. o
3085 2 0 -1 14 14535. 13808. 1332. o
3085 1 -7 1 14 14535. 13808. 1332. o
3086 2 -1 -1 14 22422. 24153. 1769. o
3086 1 -6 1 14 22422. 24153. 1769. o
3087 2 -2 -1 14 18170. 17586. 1500. o
3087 1 -5 1 14 18170. 17586. 1500. o
3088 2 -3 -1 14 47676. 47936. 2503. o
3088 1 -4 1 14 47676. 47936. 2503. o
3089 2 -4 -1 14 47216. 49818. 2569. o
3089 1 -3 1 14 47216. 49818. 2569. o
3090 2 -5 -1 14 15608. 13209. 1316. o
3090 1 -2 1 14 15608. 13209. 1316. o
3091 2 -6 -1 14 18140. 17254. 1524. o
3091 1 -1 1 14 18140. 17254. 1524. o
3092 2 -7 -1 14 13889. 13799. 1348. o
3092 1 0 1 14 13889. 13799. 1348. o
3093 2 -8 -1 14 9647. 9371. 1318. o
3093 1 1 1 14 9647. 9371. 1318. o
3094 2 2 -2 14 196775. 185788. 6087. o
3094 1 -9 2 14 196775. 185788. 6087. o
3095 2 1 -2 14 56672. 56626. 2437. o
3095 1 -8 2 14 56672. 56626. 2437. o
3096 2 0 -2 14 31079. 33186. 1834. o
3096 1 -7 2 14 31079. 33186. 1834. o
3097 2 -1 -2 14 124863. 127074. 4235. o
3097 1 -6 2 14 124863. 127074. 4235. o
3098 2 -2 -2 14 35625. 35544. 2126. o
3098 1 -5 2 14 35625. 35544. 2126. o
3099 2 -3 -2 14 2449. 2299. 576. o
3099 1 -4 2 14 2449. 2299. 576. o
3100 2 -4 -2 14 827. 968. 489. <
3100 1 -3 2 14 827. 968. 489. <
3101 2 -5 -2 14 34475. 35900. 2188. o
3101 1 -2 2 14 34475. 35900. 2188. o
3102 2 -6 -2 14 129798. 134492. 4463. o
3102 1 -1 2 14 129798. 134492. 4463. o
3103 2 -7 -2 14 34492. 34459. 2171. o
3103 1 0 2 14 34492. 34459. 2171. o
3104 2 -8 -2 14 49631. 50222. 3119. o
3104 1 1 2 14 49631. 50222. 3119. o
3105 2 2 -3 14 9728. 7896. 2109. o
3105 1 -9 3 14 9728. 7896. 2109. o
3106 2 1 -3 14 9614. 9192. 1078. o
3106 1 -8 3 14 9614. 9192. 1078. o
3107 2 0 -3 14 4975. 5166. 845. o
3107 1 -7 3 14 4975. 5166. 845. o
3108 2 -1 -3 14 7824. 7381. 1005. o
3108 1 -6 3 14 7824. 7381. 1005. o
3109 2 -2 -3 14 31822. 33256. 2078. o
3109 1 -5 3 14 31822. 33256. 2078. o
3110 2 -3 -3 14 22515. 23107. 1730. o
3110 1 -4 3 14 22515. 23107. 1730. o
3111 2 -4 -3 14 20746. 19982. 1640. o
3111 1 -3 3 14 20746. 19982. 1640. o
3112 2 -5 -3 14 28326. 31718. 2062. o
3112 1 -2 3 14 28326. 31718. 2062. o
3113 2 -6 -3 14 6471. 5983. 912. o
3113 1 -1 3 14 6471. 5983. 912. o
3114 2 -7 -3 14 3409. 2686. 598. o
3114 1 0 3 14 3409. 2686. 598. o
3115 2 -8 -3 14 7927. 9333. 1665. o
3115 1 1 3 14 7927. 9333. 1665. o
3116 2 2 -4 14 7144. 7976. 2031. o
3116 1 -9 4 14 7144. 7976. 2031. o
3117 2 1 -4 14 6063. 6872. 1355. o
3117 1 -8 4 14 6063. 6872. 1355. o
3118 2 0 -4 14 682. 760. 349. <
3118 1 -7 4 14 682. 760. 349. <
3119 2 -1 -4 14 4750. 3986. 719. o
3119 1 -6 4 14 4750. 3986. 719. o
3120 2 -2 -4 14 7808. 8754. 1105. o
3120 1 -5 4 14 7808. 8754. 1105. o
3121 2 -3 -4 14 7184. 8901. 1109. o
3121 1 -4 4 14 7184. 8901. 1109. o
3122 2 -4 -4 14 10474. 11280. 1226. o
3122 1 -3 4 14 10474. 11280. 1226. o
3123 2 -5 -4 14 4384. 5868. 900. o
3123 1 -2 4 14 4384. 5868. 900. o
3124 2 -6 -4 14 4384. 3660. 711. o
3124 1 -1 4 14 4384. 3660. 711. o
3125 2 -7 -4 14 2734. 2782. 702. o
3125 1 0 4 14 2734. 2782. 702. o
3126 2 -8 -4 14 1370. 1604. 843. <
3126 1 1 4 14 1370. 1604. 843. <
3127 2 -9 -4 14 9283. 7814. 2216. o
3127 1 2 4 14 9283. 7814. 2216. o
3128 2 0 -5 14 5172. 4579. 1542. <
3128 1 -7 5 14 5172. 4579. 1542. <
3129 2 -1 -5 14 7255. 9055. 1114. o
3129 1 -6 5 14 7255. 9055. 1114. o
3130 2 -2 -5 14 26869. 27799. 1944. o
3130 1 -5 5 14 26869. 27799. 1944. o
3131 2 -3 -5 14 17418. 17514. 1534. o
3131 1 -4 5 14 17418. 17514. 1534. o
3132 2 -4 -5 14 15978. 17107. 1525. o
3132 1 -3 5 14 15978. 17107. 1525. o
3133 2 -5 -5 14 24648. 26091. 1893. o
3133 1 -2 5 14 24648. 26091. 1893. o
3134 2 -6 -5 14 6806. 6526. 960. o
3134 1 -1 5 14 6806. 6526. 960. o
3135 2 -7 -5 14 3861. 1958. 728. <
3135 1 0 5 14 3861. 1958. 728. <
3136 2 -8 -5 14 8584. 13409. 3047. o
3136 1 1 5 14 8584. 13409. 3047. o
3137 2 -2 -6 14 39628. 41737. 2410. o
3137 1 -5 6 14 39628. 41737. 2410. o
3138 2 -3 -6 14 587. 702. 447. <
3138 1 -4 6 14 587. 702. 447. <
3139 2 -4 -6 14 78. 1477. 486. o
3139 1 -3 6 14 78. 1477. 486. o
3140 2 -5 -6 14 36829. 36439. 2255. o
3140 1 -2 6 14 36829. 36439. 2255. o
3141 2 -6 -6 14 93240. 88889. 4025. o
3141 1 -1 6 14 93240. 88889. 4025. o
3142 2 -7 -6 14 36098. 35801. 3110. o
3142 1 0 6 14 36098. 35801. 3110. o
3143 2 -3 -7 14 15408. 15813. 2685. o
3143 1 -4 7 14 15408. 15813. 2685. o
3144 2 -4 -7 14 14648. 17494. 1752. o
3144 1 -3 7 14 14648. 17494. 1752. o
3145 2 -5 -7 14 1656. 1832. 583. o
3145 1 -2 7 14 1656. 1832. 583. o
3146 2 -6 -7 14 2214. 1115. 667. <
3146 1 -1 7 14 2214. 1115. 667. <
3147 2 -5 -8 14 398. -904. 752. <
3147 1 -2 8 14 398. -904. 752. <
3148 1 -7 1 15 229. 936. 805. <
3149 1 -6 1 15 256. 506. 428. <
3150 1 -5 1 15 3396. 4657. 842. o
3151 1 -4 1 15 263. 136. 384. <
3152 1 -3 1 15 1863. 2060. 503. o
3153 1 -2 1 15 3792. 4672. 835. o
3154 1 -1 1 15 1409. 1868. 865. <
3155 1 0 1 15 10027. 12858. 1999. o
3156 1 1 1 15 7929. 8890. 2430. o
3157 1 -8 2 15 20874. 19421. 3087. o
3158 1 -7 2 15 24284. 25876. 3531. o
3159 1 -6 2 15 17159. 18884. 1843. o
3160 1 -5 2 15 7328. 8184. 1094. o
3161 1 -4 2 15 5626. 6071. 946. o
3162 1 -3 2 15 7513. 7406. 998. o
3163 1 -2 2 15 14007. 13936. 1424. o
3164 1 -1 2 15 25982. 26414. 2912. o
3165 1 0 2 15 26766. 26237. 2952. o
3166 1 1 2 15 18707. 15155. 3351. o
3167 1 -7 3 15 2987. 2655. 1158. <
3168 1 -6 3 15 1289. 475. 574. <
3169 1 -5 3 15 1845. 1276. 573. <
3170 1 -4 3 15 1267. 2355. 603. o
3171 1 -3 3 15 617. 628. 570. <
3172 1 -2 3 15 508. 773. 552. <
3173 1 -1 3 15 13876. 16674. 2326. o
3174 1 0 3 15 902. -1244. 963. <
3175 1 -7 4 15 1529. 1689. 872. <
3176 1 -6 4 15 1925. 1975. 1043. <
3177 1 -5 4 15 2702. 2594. 988. <
3178 1 -4 4 15 1992. 2377. 1060. <
3179 1 -3 4 15 2626. 2563. 934. <
3180 1 -2 4 15 1761. 577. 839. <
3181 1 -1 4 15 1032. 1749. 1104. <
3182 1 0 4 15 1911. 803. 829. <
3183 1 -6 5 15 2064. 2323. 1115. <
3184 1 -5 5 15 104. 417. 973. <
3185 1 -4 5 15 635. 723. 697. <
3186 1 -3 5 15 89. 315. 597. <
3187 1 -1 5 15 11689. 10830. 2630. o
3188 1 -4 6 15 81. 767. 724. <
