#------------------------------------------------------------------------------
#$Date: 2017-03-05 07:10:43 +0200 (Sun, 05 Mar 2017) $
#$Revision: 193804 $
#$URL: file:///home/coder/svn-repositories/cod/cif/7/04/16/7041643.cif $
#------------------------------------------------------------------------------
#
# This file is available in the Crystallography Open Database (COD),
# http://www.crystallography.net/
#
# All data on this site have been placed in the public domain by the
# contributors.
#
data_7041643
loop_
_publ_author_name
'Poupon, Morgane'
'Barrier, Nicolas'
'Petit, S\'ebastien'
'Boudin, Sophie'
_publ_section_title
;
 A new \b-CdTeO3 polymorph with a structure related to \a-CdTeO3.
;
_journal_issue                   6
_journal_name_full
'Dalton transactions (Cambridge, England : 2003)'
_journal_page_first              1927
_journal_page_last               1935
_journal_paper_doi               10.1039/c6dt04449b
_journal_volume                  46
_journal_year                    2017
_chemical_formula_moiety         'Cd Te O3'
_chemical_formula_sum            'Cd O3 Te'
_chemical_formula_weight         288
_chemical_name_systematic        ' ?'
_space_group_IT_number           62
_symmetry_cell_setting           orthorhombic
_symmetry_Int_Tables_number      62
_symmetry_space_group_name_Hall  '-P 2ac 2n'
_symmetry_space_group_name_H-M   'P n m a'
_cell_angle_alpha                90
_cell_angle_beta                 90
_cell_angle_gamma                90
_cell_formula_units_Z            16
_cell_length_a                   7.45850(3)
_cell_length_b                   14.52185(6)
_cell_length_c                   11.04584(5)
_cell_measurement_temperature    293
_cell_volume                     1196.388(9)
_computing_molecular_graphics
'Diamond 3.2k (Crystal Impact GbR, Bonn, Germany, 1997-2014)'
_computing_publication_material
'Jana2006 (Petricek, Dusek & Palatinus, 2006)'
_computing_structure_refinement
'Jana2006 (Petricek, Dusek & Palatinus, 2006)'
_computing_structure_solution
'Superflip (Palatinus L. & Chapuis G. (2007). J. Appl. Cryst. 40, 786-790.)'
_diffrn_ambient_temperature      293
_diffrn_detector                 'Bruker LynxEye'
_diffrn_detector_type            PSD
_diffrn_measurement_device       'Bragg-Brentano theta-2theta diffractometer'
_diffrn_measurement_device_type  'Bruker D8 advance vario 1'
_diffrn_radiation_monochromator  1.5406
_diffrn_radiation_probe          x-ray
_diffrn_radiation_type           'Cu K\a1'
_diffrn_radiation_wavelength     1.5406
_diffrn_source                   'sealed X-ray tube'
_diffrn_source_target            Cu
_diffrn_source_type              X-ray
_exptl_absorpt_coefficient_mu    135.615
_exptl_crystal_density_diffrn    6.3959
_exptl_crystal_F_000             1984
_pd_char_colour                  white
_pd_char_particle_morphology     plate-like
_pd_instr_location               ' ?'
_pd_meas_2theta_range_inc        0.009
_pd_meas_2theta_range_max        149.996
_pd_meas_2theta_range_min        8.000
_pd_meas_number_of_points        15437
_pd_meas_scan_method             cont
_pd_prep_temperature             293
_pd_proc_2theta_range_inc        0.009
_pd_proc_2theta_range_max        149.996
_pd_proc_2theta_range_min        8
_pd_proc_ls_background_function  '12 Legendre polynoms'
_pd_proc_ls_pref_orient_corr     none
_pd_proc_ls_profile_function     Pseudo-Voigt
_pd_proc_ls_prof_R_factor        0.0446
_pd_proc_ls_prof_wR_expected     0.0382
_pd_proc_ls_prof_wR_factor       0.0595
_pd_proc_wavelength              1.5406
_pd_spec_mounting                ' packed powder pellet'
_pd_spec_mount_mode              reflection
_pd_spec_shape                   flat_sheet
_pd_spec_size_axial              16
_pd_spec_size_equat              16
_pd_spec_size_thick              1
_refine_diff_density_max         0.94
_refine_diff_density_min         -1.11
_refine_ls_goodness_of_fit_all   1.56
_refine_ls_number_constraints    1
_refine_ls_number_parameters     63
_refine_ls_number_restraints     0
_refine_ls_R_factor_all          0.0228
_refine_ls_R_factor_gt           0.0225
_refine_ls_shift/su_max          0.0339
_refine_ls_shift/su_mean         0.0023
_refine_ls_weighting_scheme      sigma
_refine_ls_wR_factor_all         0.0276
_refine_ls_wR_factor_gt          0.0276
_cod_data_source_file            c6dt04449b2.cif
_cod_data_source_block           I
_cod_depositor_comments
;
The following automatic conversions were performed:

'_diffrn_radiation_probe' value 'X-ray' changed to 'x-ray' according
to
/usr/data/users/saulius/crontab/automatic-downloads/rss-feeds/RSC/lib/dictionaries/cif_core.dic
dictionary named 'cif_core.dic' version 2.4.2 from 2011-04-26.

Automatic conversion script
Id: cif_fix_values 4268 2015-11-12 08:31:59Z antanas 

 Adding full bibliography for 7041643.cif.
;
_cod_original_formula_sum        'Cd1 O3 Te1'
_cod_database_code               7041643
loop_
_space_group_symop_id
_space_group_symop_operation_xyz
1 x,y,z
2 -x+1/2,-y,z+1/2
3 -x,y+1/2,-z
4 x+1/2,-y+1/2,-z+1/2
5 -x,-y,-z
6 x+1/2,y,-z+1/2
7 x,-y+1/2,z
8 -x+1/2,y+1/2,z+1/2
loop_
_atom_site_label
_atom_site_type_symbol
_atom_site_fract_x
_atom_site_fract_y
_atom_site_fract_z
_atom_site_adp_type
_atom_site_U_iso_or_equiv
_atom_site_site_symmetry_multiplicity
_atom_site_occupancy
_atom_site_calc_flag
Cd1 Cd 0.28314(17) 0.63304(7) 0.98002(11) Uiso 0.0256(3) 8 1 d
Cd2 Cd 0.46482(14) 0.50067(9) 0.23286(12) Uiso 0.0238(3) 8 1 d
Te1 Te 0.69089(20) 0.25 0.76639(16) Uiso 0.0253(4) 4 1 d
Te2 Te 0.30596(15) 0.91498(6) 0.50017(11) Uiso 0.0230(2) 8 1 d
Te3 Te 0.57463(18) 0.75 0.76991(16) Uiso 0.0228(4) 4 1 d
O1 O 0.2314(12) 0.5080(6) 0.3686(9) Uiso 0.025(3) 8 1 d
O2 O 0.1376(12) 0.5192(7) 0.0932(9) Uiso 0.024(3) 8 1 d
O3 O 0.0875(13) 0.5951(7) 0.5740(9) Uiso 0.030(3) 8 1 d
O4 O 0.1522(17) 0.75 0.0982(13) Uiso 0.020(4) 4 1 d
O5 O 0.0596(12) 0.3475(6) 0.6743(8) Uiso 0.021(3) 8 1 d
O6 O 0.160(2) 0.25 0.3448(15) Uiso 0.048(5) 4 1 d
O7 O 0.0145(12) 0.6492(7) 0.8335(8) Uiso 0.021(3) 8 1 d
loop_
_atom_type_symbol
_atom_type_scat_dispersion_real
_atom_type_scat_dispersion_imag
_atom_type_scat_source
Cd 0.1177 4.6976 'International Tables Vol C tables 4.2.6.8 and 6.1.1.1'
O 0.0516 0.0335 'International Tables Vol C tables 4.2.6.8 and 6.1.1.1'
Te -0.1504 6.4072 'International Tables Vol C tables 4.2.6.8 and 6.1.1.1'
loop_
_geom_angle_atom_site_label_1
_geom_angle_atom_site_label_2
_geom_angle_atom_site_label_3
_geom_angle_site_symmetry_1
_geom_angle_site_symmetry_3
_geom_angle
O1 Cd1 O2 2_565 1_556 69.4(3)
O1 Cd1 O3 2_565 6_556 73.7(3)
O1 Cd1 O4 2_565 1_556 152.1(4)
O1 Cd1 O5 2_565 2_565 124.6(3)
O1 Cd1 O6 2_565 2_565 107.8(4)
O1 Cd1 O7 2_565 . 73.8(3)
O2 Cd1 O3 1_556 6_556 114.1(3)
O2 Cd1 O4 1_556 1_556 91.2(3)
O2 Cd1 O5 1_556 2_565 80.6(3)
O2 Cd1 O6 1_556 2_565 162.5(5)
O2 Cd1 O7 1_556 . 92.2(3)
O3 Cd1 O4 6_556 1_556 133.8(4)
O3 Cd1 O5 6_556 2_565 78.1(3)
O3 Cd1 O6 6_556 2_565 80.5(4)
O3 Cd1 O7 6_556 . 126.5(3)
O4 Cd1 O5 1_556 2_565 68.4(4)
O4 Cd1 O6 1_556 2_565 84.5(4)
O4 Cd1 O7 1_556 . 87.7(4)
O5 Cd1 O6 2_565 2_565 113.1(4)
O5 Cd1 O7 2_565 . 154.7(3)
O6 Cd1 O7 2_565 . 70.7(4)
O1 Cd2 O1 . 6_555 167.5(3)
O1 Cd2 O2 . . 72.9(3)
O1 Cd2 O2 . 6_555 82.8(3)
O1 Cd2 O3 . 2_564 113.7(3)
O1 Cd2 O5 . 2_564 94.5(3)
O1 Cd2 O7 . 2_564 78.1(3)
O1 Cd2 O2 6_555 . 117.8(3)
O1 Cd2 O2 6_555 6_555 85.3(3)
O1 Cd2 O3 6_555 2_564 78.4(3)
O1 Cd2 O5 6_555 2_564 83.5(3)
O1 Cd2 O7 6_555 2_564 102.1(3)
O2 Cd2 O2 . 6_555 153.3(3)
O2 Cd2 O3 . 2_564 60.1(3)
O2 Cd2 O5 . 2_564 72.3(3)
O2 Cd2 O7 . 2_564 112.2(3)
O2 Cd2 O3 6_555 2_564 143.4(3)
O2 Cd2 O5 6_555 2_564 99.5(3)
O2 Cd2 O7 6_555 2_564 72.2(3)
O3 Cd2 O5 2_564 2_564 110.8(3)
O3 Cd2 O7 2_564 2_564 79.5(3)
O5 Cd2 O7 2_564 2_564 169.3(3)
O4 Te1 O5 3_646 4_556 92.7(4)
O4 Te1 O5 3_646 6_556 92.7(4)
O5 Te1 O5 4_556 6_556 100.5(4)
O1 Te2 O2 7_565 4_565 77.4(3)
O1 Te2 O2 7_565 8_555 90.5(4)
O1 Te2 O3 7_565 7_565 97.3(4)
O1 Te2 O7 7_565 4_566 157.7(3)
O2 Te2 O2 4_565 8_555 74.5(4)
O2 Te2 O3 4_565 7_565 164.5(4)
O2 Te2 O7 4_565 4_566 81.7(3)
O2 Te2 O3 8_555 7_565 91.2(4)
O2 Te2 O7 8_555 4_566 76.5(4)
O3 Te2 O7 7_565 4_566 101.0(4)
O3 Te3 O3 4_566 6_556 105.0(3)
O3 Te3 O6 4_566 2_565 76.7(3)
O3 Te3 O6 4_566 3_656 107.4(3)
O3 Te3 O7 4_566 4_566 76.3(3)
O3 Te3 O7 4_566 6_556 168.3(3)
O3 Te3 O6 6_556 2_565 76.7(3)
O3 Te3 O6 6_556 3_656 107.4(3)
O3 Te3 O7 6_556 4_566 168.3(3)
O3 Te3 O7 6_556 6_556 76.3(3)
O6 Te3 O6 2_565 3_656 172.7(6)
O6 Te3 O7 2_565 4_566 92.5(4)
O6 Te3 O7 2_565 6_556 92.5(4)
O6 Te3 O7 3_656 4_566 82.9(4)
O6 Te3 O7 3_656 6_556 82.9(4)
O7 Te3 O7 4_566 6_556 100.0(4)
Cd1 O1 Cd2 2_564 . 109.3(4)
Cd1 O1 Cd2 2_564 6_455 99.9(3)
Cd1 O1 Te2 2_564 7_565 97.1(4)
Cd1 O1 O2 2_564 2_565 54.4(3)
Cd1 O1 O3 2_564 . 87.3(4)
Cd1 O1 O3 2_564 5_566 53.4(3)
Cd1 O1 O7 2_564 2_564 56.1(3)
Cd2 O1 Cd2 . 6_455 109.7(4)
Cd2 O1 Te2 . 7_565 107.6(4)
Cd2 O1 O2 . 2_565 108.6(4)
Cd2 O1 O3 . . 146.8(4)
Cd2 O1 O3 . 5_566 138.1(4)
Cd2 O1 O7 . 2_564 53.2(3)
Cd2 O1 Te2 6_455 7_565 130.7(5)
Cd2 O1 O2 6_455 2_565 139.5(5)
Cd2 O1 O3 6_455 . 94.9(4)
Cd2 O1 O3 6_455 5_566 50.6(3)
Cd2 O1 O7 6_455 2_564 116.9(4)
Te2 O1 O2 7_565 2_565 44.2(3)
Te2 O1 O3 7_565 . 40.2(3)
Te2 O1 O3 7_565 5_566 112.1(4)
Te2 O1 O7 7_565 2_564 111.1(4)
O2 O1 O3 2_565 . 57.4(3)
O2 O1 O3 2_565 5_566 91.2(4)
O2 O1 O7 2_565 2_564 77.1(4)
O3 O1 O3 . 5_566 75.0(4)
O3 O1 O7 . 2_564 133.6(4)
O3 O1 O7 5_566 2_564 98.9(4)
Cd1 O2 Cd2 1_554 . 87.7(3)
Cd1 O2 Cd2 1_554 6_455 141.2(5)
Cd1 O2 Te2 1_554 4_465 88.4(3)
Cd1 O2 Te2 1_554 8_544 100.0(4)
Cd1 O2 O1 1_554 2_564 56.2(3)
Cd1 O2 O2 1_554 5_565 94.8(4)
Cd1 O2 O3 1_554 2_564 92.3(4)
Cd1 O2 O7 1_554 5_566 162.7(5)
Cd2 O2 Cd2 . 6_455 90.9(3)
Cd2 O2 Te2 . 4_465 162.9(4)
Cd2 O2 Te2 . 8_544 91.6(3)
Cd2 O2 O1 . 2_564 99.8(4)
Cd2 O2 O2 . 5_565 159.4(4)
Cd2 O2 O3 . 2_564 48.1(3)
Cd2 O2 O7 . 5_566 96.0(3)
Cd2 O2 Te2 6_455 4_465 81.8(3)
Cd2 O2 Te2 6_455 8_544 118.8(5)
Cd2 O2 O1 6_455 2_564 160.5(5)
Cd2 O2 O2 6_455 5_565 99.7(4)
Cd2 O2 O3 6_455 2_564 115.0(4)
Cd2 O2 O7 6_455 5_566 55.9(3)
Te2 O2 Te2 4_465 8_544 105.5(4)
Te2 O2 O1 4_465 2_564 91.8(4)
Te2 O2 O2 4_465 5_565 37.7(2)
Te2 O2 O3 4_465 2_564 148.8(5)
Te2 O2 O7 4_465 5_566 92.6(3)
Te2 O2 O1 8_544 2_564 45.3(3)
Te2 O2 O2 8_544 5_565 67.8(3)
Te2 O2 O3 8_544 2_564 43.7(3)
Te2 O2 O7 8_544 5_566 63.1(3)
O1 O2 O2 2_564 5_565 65.4(3)
O1 O2 O3 2_564 2_564 63.5(4)
O1 O2 O7 2_564 5_566 106.4(4)
O2 O2 O3 5_565 2_564 111.3(4)
O2 O2 O7 5_565 5_566 75.9(4)
O3 O2 O7 2_564 5_566 77.9(4)
Cd1 O3 Cd2 6_456 2_565 99.7(4)
Cd1 O3 Te2 6_456 7_565 138.4(5)
Cd1 O3 Te3 6_456 4_466 86.4(3)
Cd1 O3 O1 6_456 . 105.2(4)
Cd1 O3 O1 6_456 5_566 52.8(3)
Cd1 O3 O2 6_456 2_565 153.2(5)
Cd2 O3 Te2 2_565 7_565 116.6(5)
Cd2 O3 Te3 2_565 4_466 90.6(3)
Cd2 O3 O1 2_565 . 114.4(4)
Cd2 O3 O1 2_565 5_566 51.0(3)
Cd2 O3 O2 2_565 2_565 71.8(3)
Te2 O3 Te3 7_565 4_466 111.4(4)
Te2 O3 O1 7_565 . 42.6(3)
Te2 O3 O1 7_565 5_566 142.4(5)
Te2 O3 O2 7_565 2_565 45.2(3)
Te3 O3 O1 4_466 . 149.4(4)
Te3 O3 O1 4_466 5_566 104.5(4)
Te3 O3 O2 4_466 2_565 118.4(4)
O1 O3 O1 . 5_566 105.0(4)
O1 O3 O2 . 2_565 59.1(3)
O1 O3 O2 5_566 2_565 107.2(4)
Cd1 O4 Cd1 1_554 7_564 92.3(5)
Cd1 O4 Te1 1_554 3_656 100.4(4)
Cd1 O4 O5 1_554 2_564 57.7(3)
Cd1 O4 O5 1_554 8_554 102.7(5)
Cd1 O4 Te1 7_564 3_656 100.4(4)
Cd1 O4 O5 7_564 2_564 102.7(5)
Cd1 O4 O5 7_564 8_554 57.7(3)
Te1 O4 O5 3_656 2_564 42.8(3)
Te1 O4 O5 3_656 8_554 42.8(3)
O5 O4 O5 2_564 8_554 63.0(4)
Cd1 O5 Cd2 2_564 2_565 99.9(3)
Cd1 O5 Te1 2_564 4_456 98.3(4)
Cd1 O5 O4 2_564 2_565 53.9(3)
Cd1 O5 O5 2_564 7_555 96.6(3)
Cd2 O5 Te1 2_565 4_456 132.7(5)
Cd2 O5 O4 2_565 2_565 130.5(4)
Cd2 O5 O5 2_565 7_555 163.1(4)
Te1 O5 O4 4_456 2_565 44.5(3)
Te1 O5 O5 4_456 7_555 39.8(3)
O4 O5 O5 2_565 7_555 58.5(3)
Cd1 O6 Cd1 2_564 8_544 95.1(6)
Cd1 O6 Te3 2_564 2_564 116.4(5)
Cd1 O6 Te3 2_564 3_646 101.2(5)
Cd1 O6 O7 2_564 2_564 59.3(3)
Cd1 O6 O7 2_564 3_546 159.3(6)
Cd1 O6 O7 2_564 5_566 99.1(2)
Cd1 O6 O7 2_564 8_544 104.5(6)
Cd1 O6 Te3 8_544 2_564 116.4(5)
Cd1 O6 Te3 8_544 3_646 101.2(5)
Cd1 O6 O7 8_544 2_564 104.5(6)
Cd1 O6 O7 8_544 3_546 99.1(2)
Cd1 O6 O7 8_544 5_566 159.3(6)
Cd1 O6 O7 8_544 8_544 59.3(3)
Te3 O6 Te3 2_564 3_646 122.1(8)
Te3 O6 O7 2_564 2_564 139.0(5)
Te3 O6 O7 2_564 3_546 43.4(3)
Te3 O6 O7 2_564 5_566 43.4(3)
Te3 O6 O7 2_564 8_544 139.0(5)
Te3 O6 O7 3_646 2_564 41.9(3)
Te3 O6 O7 3_646 3_546 90.7(5)
Te3 O6 O7 3_646 5_566 90.7(5)
Te3 O6 O7 3_646 8_544 41.9(3)
O7 O6 O7 2_564 3_546 129.9(7)
O7 O6 O7 2_564 5_566 95.6(4)
O7 O6 O7 2_564 8_544 62.1(4)
O7 O6 O7 3_546 5_566 63.6(4)
O7 O6 O7 3_546 8_544 95.6(4)
O7 O6 O7 5_566 8_544 129.9(7)
Cd1 O7 Cd2 . 2_565 98.9(3)
Cd1 O7 Te2 . 4_466 89.4(3)
Cd1 O7 Te3 . 4_466 105.2(4)
Cd1 O7 O1 . 2_565 50.1(2)
Cd1 O7 O2 . 5_566 93.0(3)
Cd1 O7 O6 . 2_565 49.9(3)
Cd1 O7 O6 . 3_556 148.7(4)
Cd1 O7 O7 . 7_565 95.2(3)
Cd2 O7 Te2 2_565 4_466 92.3(3)
Cd2 O7 Te3 2_565 4_466 113.2(4)
Cd2 O7 O1 2_565 2_565 48.8(2)
Cd2 O7 O2 2_565 5_566 52.0(3)
Cd2 O7 O6 2_565 2_565 115.1(4)
Cd2 O7 O6 2_565 3_556 100.1(4)
Cd2 O7 O7 2_565 7_565 152.7(4)
Te2 O7 Te3 4_466 4_466 147.6(5)
Te2 O7 O1 4_466 2_565 90.8(3)
Te2 O7 O2 4_466 5_566 40.4(2)
Te2 O7 O6 4_466 2_565 132.1(5)
Te2 O7 O6 4_466 3_556 114.4(4)
Te2 O7 O7 4_466 7_565 111.2(4)
Te3 O7 O1 4_466 2_565 120.9(4)
Te3 O7 O2 4_466 5_566 158.8(5)
Te3 O7 O6 4_466 2_565 55.3(4)
Te3 O7 O6 4_466 3_556 44.1(3)
Te3 O7 O7 4_466 7_565 40.0(3)
O1 O7 O2 2_565 5_566 63.6(3)
O1 O7 O6 2_565 2_565 81.1(3)
O1 O7 O6 2_565 3_556 142.2(5)
O1 O7 O7 2_565 7_565 139.7(4)
O2 O7 O6 5_566 2_565 141.3(4)
O2 O7 O6 5_566 3_556 118.3(4)
O2 O7 O7 5_566 7_565 150.3(4)
O6 O7 O6 2_565 3_556 99.2(5)
O6 O7 O7 2_565 7_565 59.0(3)
O6 O7 O7 3_556 7_565 58.2(3)
loop_
_geom_bond_atom_site_label_1
_geom_bond_atom_site_label_2
_geom_bond_site_symmetry_2
_geom_bond_distance
Cd1 O1 2_565 2.392(9)
Cd1 O2 1_556 2.339(10)
Cd1 O3 6_556 2.411(10)
Cd1 O4 1_556 2.354(9)
Cd1 O5 2_565 2.462(9)
Cd1 O6 2_565 2.302(11)
Cd1 O7 . 2.586(9)
Cd2 O1 . 2.300(9)
Cd2 O1 6_555 2.285(9)
Cd2 O2 . 2.900(9)
Cd2 O2 6_555 2.329(10)
Cd2 O3 2_564 2.273(10)
Cd2 O5 2_564 2.305(9)
Cd2 O7 2_564 2.449(9)
Te1 O4 3_646 1.899(14)
Te1 O5 4_556 1.842(9)
Te1 O5 6_556 1.842(9)
Te2 O1 7_565 1.916(9)
Te2 O2 4_565 2.845(9)
Te2 O2 8_555 1.878(10)
Te2 O3 7_565 1.828(10)
Te2 O7 4_566 2.581(9)
Te3 O3 4_566 2.836(10)
Te3 O3 6_556 2.836(10)
Te3 O6 2_565 1.935(16)
Te3 O6 3_656 2.351(16)
Te3 O7 4_566 1.910(9)
Te3 O7 6_556 1.910(9)
O1 O2 2_565 2.695(14)
O1 O3 . 2.810(14)
O1 O3 5_566 2.881(13)
O1 O7 2_564 2.993(13)
O2 O2 5_565 2.959(14)
O2 O3 2_564 2.647(14)
O2 O7 5_566 2.815(13)
O4 O5 2_564 2.708(14)
O4 O5 8_554 2.708(14)
O5 O5 7_555 2.831(13)
O6 O7 2_564 2.838(16)
O6 O7 3_546 2.777(16)
O6 O7 5_566 2.777(16)
O6 O7 8_544 2.838(16)
O7 O7 7_565 2.927(13)
loop_
_pd_proc_point_id
_pd_proc_2theta_corrected
_pd_proc_intensity_net
_pd_calc_intensity_net
_pd_proc_ls_weight
1 7.9228 910.00 949.97 30.17
2 7.9320 964.00 949.08 31.05
3 7.9412 1033.00 948.20 32.14
4 7.9504 937.00 947.31 30.61
5 7.9596 956.00 946.43 30.92
6 7.9688 910.00 945.55 30.17
7 7.9780 964.00 944.67 31.05
8 7.9872 936.00 943.79 30.59
9 7.9964 900.00 942.91 30.00
10 8.0056 917.00 942.04 30.28
11 8.0148 966.00 941.16 31.08
12 8.0240 945.00 940.29 30.74
13 8.0332 911.00 939.42 30.18
14 8.0424 987.00 938.55 31.42
15 8.0516 916.00 937.69 30.27
16 8.0608 914.00 936.82 30.23
17 8.0700 908.00 935.96 30.13
18 8.0792 939.00 935.09 30.64
19 8.0884 927.00 934.23 30.45
20 8.0976 992.00 933.37 31.50
21 8.1068 923.00 932.52 30.38
22 8.1160 975.00 931.66 31.23
23 8.1252 944.00 930.80 30.72
24 8.1344 900.00 929.95 30.00
25 8.1436 968.00 929.10 31.11
26 8.1528 915.00 928.25 30.25
27 8.1620 957.00 927.40 30.94
28 8.1712 957.00 926.55 30.94
29 8.1804 964.00 925.71 31.05
30 8.1896 931.00 924.86 30.51
31 8.1988 945.00 924.02 30.74
32 8.2080 982.00 923.18 31.34
33 8.2172 912.00 922.34 30.20
34 8.2264 935.00 921.50 30.58
35 8.2356 898.00 920.66 29.97
36 8.2448 905.00 919.83 30.08
37 8.2540 979.00 918.99 31.29
38 8.2632 949.00 918.16 30.81
39 8.2724 882.00 917.33 29.70
40 8.2816 872.00 916.50 29.53
41 8.2908 914.00 915.67 30.23
42 8.3000 949.00 914.84 30.81
43 8.3092 922.00 914.02 30.36
44 8.3184 960.00 913.19 30.98
45 8.3276 937.00 912.37 30.61
46 8.3368 990.00 911.55 31.46
47 8.3460 958.00 910.73 30.95
48 8.3552 910.00 909.91 30.17
49 8.3644 944.00 909.10 30.72
50 8.3736 993.00 908.28 31.51
51 8.3828 916.00 907.47 30.27
52 8.3920 933.00 906.66 30.55
53 8.4012 945.00 905.85 30.74
54 8.4104 906.00 905.04 30.10
55 8.4196 922.00 904.23 30.36
56 8.4288 927.00 903.42 30.45
57 8.4380 917.00 902.62 30.28
58 8.4472 975.00 901.81 31.23
59 8.4564 923.00 901.01 30.38
60 8.4656 875.00 900.21 29.58
61 8.4748 920.00 899.41 30.33
62 8.4840 926.00 898.61 30.43
63 8.4932 877.00 897.82 29.61
64 8.5024 903.00 897.02 30.05
65 8.5116 860.00 896.23 29.33
66 8.5208 877.00 895.44 29.61
67 8.5300 895.00 894.65 29.92
68 8.5392 880.00 893.86 29.66
69 8.5484 895.00 893.07 29.92
70 8.5576 903.00 892.28 30.05
71 8.5668 894.00 891.50 29.90
72 8.5760 892.00 890.72 29.87
73 8.5852 843.00 889.93 29.03
74 8.5944 877.00 889.15 29.61
75 8.6036 889.00 888.38 29.82
76 8.6128 907.00 887.60 30.12
77 8.6220 883.00 886.82 29.72
78 8.6312 863.00 886.05 29.38
79 8.6404 913.00 885.27 30.22
80 8.6496 948.00 884.50 30.79
81 8.6588 892.00 883.73 29.87
82 8.6680 949.00 882.96 30.81
83 8.6772 870.00 882.19 29.50
84 8.6864 866.00 881.43 29.43
85 8.6956 849.00 880.66 29.14
86 8.7048 931.00 879.90 30.51
87 8.7140 934.00 879.14 30.56
88 8.7232 851.00 878.37 29.17
89 8.7324 880.00 877.61 29.66
90 8.7416 863.00 876.86 29.38
91 8.7508 880.00 876.10 29.66
92 8.7600 875.00 875.34 29.58
93 8.7692 958.00 874.59 30.95
94 8.7784 909.00 873.84 30.15
95 8.7876 888.00 873.09 29.80
96 8.7968 840.00 872.34 28.98
97 8.8060 818.00 871.59 28.60
98 8.8152 846.00 870.84 29.09
99 8.8244 858.00 870.09 29.29
100 8.8336 813.00 869.35 28.51
101 8.8428 861.00 868.61 29.34
102 8.8520 885.00 867.86 29.75
103 8.8612 878.00 867.12 29.63
104 8.8704 879.00 866.39 29.65
105 8.8796 921.00 865.65 30.35
106 8.8888 907.00 864.91 30.12
107 8.8980 829.00 864.18 28.79
108 8.9072 921.00 863.44 30.35
109 8.9163 882.00 862.71 29.70
110 8.9255 863.00 861.98 29.38
111 8.9347 819.00 861.25 28.62
112 8.9439 820.00 860.52 28.64
113 8.9531 843.00 859.79 29.03
114 8.9623 841.00 859.07 29.00
115 8.9715 881.00 858.34 29.68
116 8.9807 861.00 857.62 29.34
117 8.9899 853.00 856.90 29.21
118 8.9991 863.00 856.18 29.38
119 9.0083 862.00 855.46 29.36
120 9.0175 865.00 854.74 29.41
121 9.0267 852.00 854.03 29.19
122 9.0359 861.00 853.31 29.34
123 9.0451 839.00 852.60 28.97
124 9.0543 871.00 851.89 29.51
125 9.0635 833.00 851.17 28.86
126 9.0727 848.00 850.46 29.12
127 9.0819 914.00 849.76 30.23
128 9.0911 859.00 849.05 29.31
129 9.1003 828.00 848.34 28.77
130 9.1095 808.00 847.64 28.43
131 9.1187 838.00 846.93 28.95
132 9.1279 807.00 846.23 28.41
133 9.1371 841.00 845.53 29.00
134 9.1463 839.00 844.83 28.97
135 9.1555 888.00 844.14 29.80
136 9.1647 886.00 843.44 29.77
137 9.1739 865.00 842.74 29.41
138 9.1831 879.00 842.05 29.65
139 9.1923 813.00 841.35 28.51
140 9.2015 868.00 840.66 29.46
141 9.2107 798.00 839.97 28.25
142 9.2199 864.00 839.28 29.39
143 9.2291 850.00 838.60 29.15
144 9.2383 828.00 837.91 28.77
145 9.2475 810.00 837.22 28.46
146 9.2567 815.00 836.54 28.55
147 9.2659 813.00 835.86 28.51
148 9.2751 811.00 835.18 28.48
149 9.2843 849.00 834.50 29.14
150 9.2935 850.00 833.82 29.15
151 9.3027 865.00 833.14 29.41
152 9.3119 810.00 832.46 28.46
153 9.3211 838.00 831.79 28.95
154 9.3303 830.00 831.11 28.81
155 9.3395 766.00 830.44 27.68
156 9.3487 810.00 829.77 28.46
157 9.3579 872.00 829.10 29.53
158 9.3671 821.00 828.43 28.65
159 9.3763 851.00 827.76 29.17
160 9.3855 849.00 827.10 29.14
161 9.3947 855.00 826.43 29.24
162 9.4039 843.00 825.77 29.03
163 9.4131 825.00 825.11 28.72
164 9.4223 790.00 824.45 28.11
165 9.4315 810.00 823.78 28.46
166 9.4407 842.00 823.13 29.02
167 9.4499 794.00 822.47 28.18
168 9.4591 824.00 821.81 28.71
169 9.4683 776.00 821.16 27.86
170 9.4775 811.00 820.50 28.48
171 9.4867 825.00 819.85 28.72
172 9.4959 748.00 819.20 27.35
173 9.5051 845.00 818.55 29.07
174 9.5143 817.00 818.10 28.58
175 9.5235 831.00 817.46 28.83
176 9.5327 812.00 816.83 28.50
177 9.5419 814.00 816.20 28.53
178 9.5511 826.00 815.58 28.74
179 9.5603 805.00 814.96 28.37
180 9.5695 826.00 814.36 28.74
181 9.5787 798.00 813.74 28.25
182 9.5879 786.00 813.13 28.04
183 9.5971 833.00 812.52 28.86
184 9.6063 815.00 811.91 28.55
185 9.6155 787.00 811.29 28.05
186 9.6247 789.00 810.68 28.09
187 9.6339 803.00 810.08 28.34
188 9.6431 893.00 809.47 29.88
189 9.6523 767.00 808.87 27.69
190 9.6615 810.00 808.27 28.46
191 9.6707 839.00 807.68 28.97
192 9.6799 822.00 807.09 28.67
193 9.6891 800.00 806.50 28.28
194 9.6983 767.00 805.92 27.69
195 9.7075 799.00 805.35 28.27
196 9.7167 790.00 804.78 28.11
197 9.7259 817.00 804.21 28.58
198 9.7351 823.00 803.66 28.69
199 9.7443 834.00 803.11 28.88
200 9.7535 805.00 802.57 28.37
201 9.7627 777.00 802.04 27.87
202 9.7719 793.00 801.53 28.16
203 9.7811 820.00 801.03 28.64
204 9.7903 790.00 800.55 28.11
205 9.7995 820.00 800.11 28.64
206 9.8087 768.00 799.71 27.71
207 9.8179 779.00 799.39 27.91
208 9.8271 843.00 799.09 29.03
209 9.8363 772.00 798.85 27.78
210 9.8455 804.00 798.68 28.35
211 9.8547 815.00 798.57 28.55
212 9.8639 821.00 798.56 28.65
213 9.8731 771.00 798.66 27.77
214 9.8823 827.00 798.90 28.76
215 9.8915 804.00 799.30 28.35
216 9.9007 789.00 799.90 28.09
217 9.9099 742.00 800.74 27.24
218 9.9190 817.00 801.88 28.58
219 9.9282 768.00 803.38 27.71
220 9.9374 796.00 805.32 28.21
221 9.9466 743.00 807.81 27.26
222 9.9558 783.00 811.01 27.98
223 9.9650 824.00 815.08 28.71
224 9.9742 797.00 820.30 28.23
225 9.9834 818.00 827.03 28.60
226 9.9926 846.00 835.80 29.09
227 10.0018 844.00 847.37 29.05
228 10.0110 933.00 862.72 30.55
229 10.0202 913.00 882.43 30.22
230 10.0294 915.00 904.41 30.25
231 10.0386 982.00 921.39 31.34
232 10.0478 960.00 925.09 30.98
233 10.0570 867.00 913.07 29.44
234 10.0662 833.00 888.40 28.86
235 10.0754 909.00 858.44 30.15
236 10.0846 936.00 832.44 30.59
237 10.0938 832.00 814.74 28.84
238 10.1030 826.00 803.65 28.74
239 10.1122 855.00 796.57 29.24
240 10.1214 785.00 791.75 28.02
241 10.1306 834.00 788.28 28.88
242 10.1398 784.00 785.62 28.00
243 10.1490 801.00 783.51 28.30
244 10.1582 747.00 781.76 27.33
245 10.1674 756.00 780.27 27.50
246 10.1766 779.00 778.96 27.91
247 10.1858 732.00 777.80 27.06
248 10.1950 777.00 776.75 27.87
249 10.2042 761.00 775.78 27.59
250 10.2134 788.00 774.88 28.07
251 10.2226 710.00 774.02 26.65
252 10.2318 833.00 773.21 28.86
253 10.2410 775.00 772.44 27.84
254 10.2502 819.00 771.69 28.62
255 10.2594 808.00 770.97 28.43
256 10.2686 784.00 770.27 28.00
257 10.2778 747.00 769.58 27.33
258 10.2870 743.00 768.91 27.26
259 10.2962 746.00 768.26 27.31
260 10.3054 733.00 767.61 27.07
261 10.3146 790.00 766.98 28.11
262 10.3238 781.00 766.36 27.95
263 10.3330 758.00 765.74 27.53
264 10.3422 682.00 765.14 26.12
265 10.3514 781.00 764.54 27.95
266 10.3606 699.00 763.94 26.44
267 10.3698 683.00 763.35 26.13
268 10.3790 708.00 762.77 26.61
269 10.3882 755.00 762.18 27.48
270 10.3974 723.00 761.61 26.89
271 10.4066 733.00 761.03 27.07
272 10.4158 768.00 760.47 27.71
273 10.4250 724.00 759.90 26.91
274 10.4342 737.00 759.34 27.15
275 10.4434 740.00 758.78 27.20
276 10.4526 770.00 758.22 27.75
277 10.4618 763.00 757.66 27.62
278 10.4710 770.00 757.11 27.75
279 10.4802 747.00 756.56 27.33
280 10.4894 762.00 756.01 27.60
281 10.4986 769.00 755.46 27.73
282 10.5078 731.00 754.92 27.04
283 10.5170 746.00 754.38 27.31
284 10.5262 772.00 753.83 27.78
285 10.5354 739.00 753.29 27.18
286 10.5446 708.00 752.76 26.61
287 10.5538 705.00 752.22 26.55
288 10.5630 785.00 751.69 28.02
289 10.5722 769.00 751.15 27.73
290 10.5814 742.00 750.62 27.24
291 10.5906 732.00 750.09 27.06
292 10.5998 754.00 749.57 27.46
293 10.6090 750.00 748.78 27.39
294 10.6182 703.00 748.26 26.51
295 10.6274 714.00 747.75 26.72
296 10.6366 783.00 747.23 27.98
297 10.6458 717.00 746.72 26.78
298 10.6550 770.00 746.20 27.75
299 10.6642 734.00 745.69 27.09
300 10.6734 746.00 745.18 27.31
301 10.6826 722.00 744.67 26.87
302 10.6918 747.00 744.16 27.33
303 10.7010 744.00 743.65 27.28
304 10.7102 756.00 743.15 27.50
305 10.7194 706.00 742.64 26.57
306 10.7286 720.00 742.13 26.83
307 10.7378 759.00 741.63 27.55
308 10.7470 721.00 741.12 26.85
309 10.7562 762.00 740.62 27.60
310 10.7654 732.00 740.12 27.06
311 10.7746 773.00 739.62 27.80
312 10.7838 746.00 739.12 27.31
313 10.7930 758.00 738.62 27.53
314 10.8022 724.00 738.13 26.91
315 10.8114 714.00 737.63 26.72
316 10.8206 711.00 737.13 26.66
317 10.8298 732.00 736.64 27.06
318 10.8390 716.00 736.14 26.76
319 10.8482 730.00 735.65 27.02
320 10.8574 707.00 735.16 26.59
321 10.8666 685.00 734.67 26.17
322 10.8758 728.00 734.18 26.98
323 10.8850 680.00 733.69 26.08
324 10.8942 693.00 733.20 26.32
325 10.9034 706.00 732.71 26.57
326 10.9125 697.00 732.22 26.40
327 10.9218 708.00 731.74 26.61
328 10.9309 703.00 731.26 26.51
329 10.9401 726.00 730.77 26.94
330 10.9493 732.00 730.29 27.06
331 10.9585 753.00 729.81 27.44
332 10.9677 685.00 729.33 26.17
333 10.9769 720.00 728.85 26.83
334 10.9861 769.00 728.37 27.73
335 10.9953 722.00 727.89 26.87
336 11.0045 649.00 727.41 25.48
337 11.0137 683.00 726.94 26.13
338 11.0229 706.00 726.46 26.57
339 11.0321 684.00 725.99 26.15
340 11.0413 792.00 725.51 28.14
341 11.0505 701.00 725.04 26.48
342 11.0597 751.00 724.57 27.40
343 11.0689 686.00 724.10 26.19
344 11.0781 717.00 723.63 26.78
345 11.0873 735.00 723.16 27.11
346 11.0965 716.00 722.69 26.76
347 11.1057 678.00 722.22 26.04
348 11.1149 667.00 721.76 25.83
349 11.1241 718.00 721.29 26.80
350 11.1333 706.00 720.83 26.57
351 11.1425 684.00 720.36 26.15
352 11.1517 703.00 719.90 26.51
353 11.1609 735.00 719.44 27.11
354 11.1701 738.00 718.98 27.17
355 11.1793 704.00 718.52 26.53
356 11.1885 721.00 718.06 26.85
357 11.1977 718.00 717.60 26.80
358 11.2069 680.00 717.14 26.08
359 11.2161 710.00 716.68 26.65
360 11.2253 703.00 716.23 26.51
361 11.2345 749.00 715.77 27.37
362 11.2437 724.00 715.32 26.91
363 11.2529 722.00 714.87 26.87
364 11.2621 687.00 714.41 26.21
365 11.2713 775.00 713.96 27.84
366 11.2805 679.00 713.51 26.06
367 11.2897 687.00 713.06 26.21
368 11.2989 703.00 712.61 26.51
369 11.3081 700.00 712.17 26.46
370 11.3173 716.00 711.72 26.76
371 11.3265 771.00 711.27 27.77
372 11.3357 704.00 710.83 26.53
373 11.3449 732.00 710.38 27.06
374 11.3541 690.00 709.94 26.27
375 11.3633 703.00 709.49 26.51
376 11.3725 756.00 709.05 27.50
377 11.3817 660.00 708.61 25.69
378 11.3909 727.00 708.17 26.96
379 11.4001 686.00 707.73 26.19
380 11.4093 711.00 707.29 26.66
381 11.4185 677.00 706.86 26.02
382 11.4277 680.00 706.42 26.08
383 11.4369 716.00 705.98 26.76
384 11.4461 696.00 705.55 26.38
385 11.4553 666.00 705.11 25.81
386 11.4645 706.00 704.68 26.57
387 11.4737 652.00 704.25 25.53
388 11.4829 706.00 703.81 26.57
389 11.4921 712.00 703.38 26.68
390 11.5013 663.00 702.95 25.75
391 11.5105 710.00 702.52 26.65
392 11.5197 671.00 702.09 25.90
393 11.5289 702.00 701.67 26.50
394 11.5381 675.00 701.24 25.98
395 11.5473 675.00 700.81 25.98
396 11.5565 697.00 700.39 26.40
397 11.5657 684.00 699.96 26.15
398 11.5749 714.00 699.54 26.72
399 11.5841 713.00 699.11 26.70
400 11.5933 712.00 698.69 26.68
401 11.6025 708.00 698.27 26.61
402 11.6117 696.00 697.85 26.38
403 11.6209 636.00 698.40 25.22
404 11.6301 680.00 698.03 26.08
405 11.6393 671.00 697.68 25.90
406 11.6485 716.00 697.34 26.76
407 11.6577 678.00 697.02 26.04
408 11.6669 688.00 696.73 26.23
409 11.6761 720.00 696.51 26.83
410 11.6853 675.00 696.21 25.98
411 11.6945 686.00 695.90 26.19
412 11.7037 685.00 695.60 26.17
413 11.7129 658.00 695.30 25.65
414 11.7221 710.00 695.00 26.65
415 11.7313 652.00 694.70 25.53
416 11.7405 641.00 694.40 25.32
417 11.7497 627.00 694.12 25.04
418 11.7589 684.00 693.84 26.15
419 11.7681 657.00 693.57 25.63
420 11.7773 696.00 693.31 26.38
421 11.7865 656.00 693.06 25.61
422 11.7957 676.00 692.83 26.00
423 11.8049 697.00 692.60 26.40
424 11.8141 679.00 692.40 26.06
425 11.8233 719.00 692.21 26.81
426 11.8325 694.00 692.03 26.34
427 11.8417 676.00 691.89 26.00
428 11.8509 658.00 691.76 25.65
429 11.8601 694.00 691.66 26.34
430 11.8693 734.00 691.59 27.09
431 11.8785 672.00 691.56 25.92
432 11.8877 650.00 691.57 25.50
433 11.8969 684.00 691.63 26.15
434 11.9061 689.00 691.75 26.25
435 11.9153 669.00 691.95 25.86
436 11.9245 704.00 692.25 26.53
437 11.9337 664.00 692.65 25.77
438 11.9429 704.00 693.21 26.53
439 11.9520 697.00 693.94 26.40
440 11.9612 682.00 694.87 26.12
441 11.9704 634.00 696.05 25.18
442 11.9796 691.00 697.52 26.29
443 11.9888 671.00 699.38 25.90
444 11.9980 682.00 701.72 26.12
445 12.0072 666.00 704.65 25.81
446 12.0164 668.00 708.31 25.85
447 12.0256 707.00 712.88 26.59
448 12.0348 648.00 718.58 25.46
449 12.0440 681.00 725.69 26.10
450 12.0532 723.00 734.56 26.89
451 12.0624 733.00 745.64 27.07
452 12.0716 706.00 759.52 26.57
453 12.0808 717.00 776.98 26.78
454 12.0900 773.00 799.07 27.80
455 12.0992 829.00 827.20 28.79
456 12.1084 847.00 863.40 29.10
457 12.1176 904.00 910.58 30.07
458 12.1268 960.00 972.92 30.98
459 12.1360 1028.00 1055.66 32.06
460 12.1452 1153.00 1162.16 33.96
461 12.1544 1181.00 1283.69 34.37
462 12.1636 1316.00 1385.95 36.28
463 12.1728 1355.00 1424.14 36.81
464 12.1820 1335.00 1379.36 36.54
465 12.1912 1398.00 1263.51 37.39
466 12.2004 1281.00 1111.82 35.79
467 12.2096 1142.00 972.46 33.79
468 12.2188 1038.00 873.98 32.22
469 12.2280 952.00 812.32 30.85
470 12.2372 856.00 774.05 29.26
471 12.2464 777.00 749.29 27.87
472 12.2556 763.00 732.38 27.62
473 12.2648 771.00 720.25 27.77
474 12.2740 714.00 711.19 26.72
475 12.2832 727.00 704.22 26.96
476 12.2924 751.00 698.72 27.40
477 12.3016 636.00 694.27 25.22
478 12.3108 666.00 690.61 25.81
479 12.3200 690.00 687.55 26.27
480 12.3292 653.00 684.95 25.55
481 12.3384 701.00 682.71 26.48
482 12.3476 610.00 680.75 24.70
483 12.3568 631.00 679.02 25.12
484 12.3660 644.00 677.48 25.38
485 12.3752 634.00 676.09 25.18
486 12.3844 672.00 674.83 25.92
487 12.3936 699.00 673.67 26.44
488 12.4028 732.00 672.60 27.06
489 12.4120 647.00 671.60 25.44
490 12.4212 655.00 670.68 25.59
491 12.4304 650.00 669.82 25.50
492 12.4396 694.00 669.03 26.34
493 12.4488 702.00 668.28 26.50
494 12.4580 644.00 667.57 25.38
495 12.4672 662.00 666.90 25.73
496 12.4764 717.00 666.25 26.78
497 12.4856 705.00 665.64 26.55
498 12.4948 664.00 665.04 25.77
499 12.5040 647.00 664.47 25.44
500 12.5132 617.00 663.92 24.84
501 12.5224 691.00 663.38 26.29
502 12.5316 682.00 662.86 26.12
503 12.5408 685.00 662.35 26.17
504 12.5500 703.00 661.85 26.51
505 12.5592 673.00 661.37 25.94
506 12.5684 656.00 660.89 25.61
507 12.5776 653.00 660.43 25.55
508 12.5868 665.00 659.97 25.79
509 12.5960 649.00 659.52 25.48
510 12.6052 663.00 659.08 25.75
511 12.6144 650.00 658.64 25.50
512 12.6236 618.00 658.21 24.86
513 12.6328 712.00 657.79 26.68
514 12.6420 648.00 657.37 25.46
515 12.6512 692.00 656.96 26.31
516 12.6604 676.00 656.55 26.00
517 12.6696 660.00 656.15 25.69
518 12.6788 651.00 655.75 25.51
519 12.6880 600.00 655.35 24.49
520 12.6972 659.00 654.96 25.67
521 12.7064 631.00 654.57 25.12
522 12.7156 606.00 654.18 24.62
523 12.7248 653.00 653.80 25.55
524 12.7340 648.00 653.42 25.46
525 12.7432 679.00 651.73 26.06
526 12.7524 654.00 651.40 25.57
527 12.7616 676.00 651.07 26.00
528 12.7708 652.00 650.74 25.53
529 12.7800 643.00 650.41 25.36
530 12.7892 678.00 650.07 26.04
531 12.7984 630.00 649.74 25.10
532 12.8076 634.00 649.41 25.18
533 12.8168 651.00 649.09 25.51
534 12.8260 661.00 648.76 25.71
535 12.8352 638.00 648.43 25.26
536 12.8444 590.00 648.10 24.29
537 12.8536 613.00 647.78 24.76
538 12.8628 694.00 647.45 26.34
539 12.8720 636.00 647.12 25.22
540 12.8812 652.00 646.80 25.53
541 12.8904 672.00 646.48 25.92
542 12.8996 617.00 646.15 24.84
543 12.9088 608.00 645.83 24.66
544 12.9180 625.00 645.51 25.00
545 12.9272 614.00 645.19 24.78
546 12.9364 640.00 644.87 25.30
547 12.9456 635.00 644.54 25.20
548 12.9548 652.00 644.22 25.53
549 12.9640 666.00 643.91 25.81
550 12.9731 626.00 643.59 25.02
551 12.9823 636.00 643.27 25.22
552 12.9915 665.00 642.95 25.79
553 13.0007 670.00 642.64 25.88
554 13.0099 646.00 642.32 25.42
555 13.0191 668.00 642.00 25.85
556 13.0283 612.00 641.69 24.74
557 13.0375 637.00 641.37 25.24
558 13.0467 676.00 641.06 26.00
559 13.0559 652.00 640.74 25.53
560 13.0651 596.00 640.43 24.41
561 13.0743 639.00 640.12 25.28
562 13.0835 657.00 639.81 25.63
563 13.0927 607.00 639.50 24.64
564 13.1019 694.00 639.19 26.34
565 13.1111 663.00 638.88 25.75
566 13.1203 661.00 638.57 25.71
567 13.1295 660.00 638.26 25.69
568 13.1387 662.00 637.95 25.73
569 13.1479 639.00 637.64 25.28
570 13.1571 648.00 637.33 25.46
571 13.1663 645.00 637.03 25.40
572 13.1755 642.00 636.72 25.34
573 13.1847 639.00 636.41 25.28
574 13.1939 616.00 636.11 24.82
575 13.2031 627.00 635.80 25.04
576 13.2123 673.00 635.50 25.94
577 13.2215 629.00 635.20 25.08
578 13.2307 645.00 634.90 25.40
579 13.2399 680.00 634.59 26.08
580 13.2491 684.00 634.29 26.15
581 13.2583 642.00 633.99 25.34
582 13.2675 650.00 633.69 25.50
583 13.2767 658.00 633.39 25.65
584 13.2859 632.00 633.09 25.14
585 13.2951 652.00 632.79 25.53
586 13.3043 633.00 632.49 25.16
587 13.3135 643.00 632.19 25.36
588 13.3227 629.00 631.90 25.08
589 13.3319 637.00 631.60 25.24
590 13.3411 662.00 631.30 25.73
591 13.3503 610.00 631.01 24.70
592 13.3595 640.00 630.71 25.30
593 13.3687 640.00 630.42 25.30
594 13.3779 625.00 630.12 25.00
595 13.3871 598.00 629.83 24.45
596 13.3963 646.00 629.53 25.42
597 13.4055 590.00 629.24 24.29
598 13.4147 610.00 628.95 24.70
599 13.4239 612.00 628.66 24.74
600 13.4331 635.00 628.37 25.20
601 13.4423 610.00 628.08 24.70
602 13.4515 642.00 627.79 25.34
603 13.4607 567.00 627.50 23.81
604 13.4699 635.00 627.21 25.20
605 13.4791 630.00 626.92 25.10
606 13.4883 624.00 626.63 24.98
607 13.4975 665.00 626.34 25.79
608 13.5067 613.00 626.06 24.76
609 13.5159 653.00 625.77 25.55
610 13.5251 622.00 625.48 24.94
611 13.5343 645.00 625.20 25.40
612 13.5435 661.00 624.91 25.71
613 13.5527 617.00 624.63 24.84
614 13.5619 603.00 624.34 24.56
615 13.5711 629.00 624.06 25.08
616 13.5803 644.00 623.78 25.38
617 13.5895 643.00 623.49 25.36
618 13.5987 567.00 623.21 23.81
619 13.6079 613.00 622.93 24.76
620 13.6171 605.00 622.65 24.60
621 13.6263 549.00 622.37 23.43
622 13.6355 645.00 622.09 25.40
623 13.6447 629.00 621.81 25.08
624 13.6539 664.00 621.53 25.77
625 13.6631 641.00 621.25 25.32
626 13.6723 618.00 620.97 24.86
627 13.6815 635.00 620.70 25.20
628 13.6907 615.00 620.42 24.80
629 13.6999 614.00 620.14 24.78
630 13.7091 620.00 619.87 24.90
631 13.7183 598.00 619.59 24.45
632 13.7275 625.00 619.32 25.00
633 13.7367 619.00 619.04 24.88
634 13.7459 656.00 618.78 25.61
635 13.7551 625.00 618.51 25.00
636 13.7643 652.00 618.23 25.53
637 13.7735 620.00 617.96 24.90
638 13.7827 595.00 617.69 24.39
639 13.7919 648.00 617.42 25.46
640 13.8011 600.00 617.15 24.49
641 13.8103 606.00 616.88 24.62
642 13.8195 627.00 616.61 25.04
643 13.8287 617.00 616.35 24.84
644 13.8379 669.00 616.08 25.86
645 13.8471 616.00 615.81 24.82
646 13.8563 597.00 615.54 24.43
647 13.8655 615.00 615.28 24.80
648 13.8747 662.00 615.01 25.73
649 13.8839 592.00 614.75 24.33
650 13.8931 632.00 614.48 25.14
651 13.9023 595.00 614.22 24.39
652 13.9115 638.00 613.95 25.26
653 13.9207 631.00 613.69 25.12
654 13.9299 593.00 613.43 24.35
655 13.9391 563.00 613.16 23.73
656 13.9483 610.00 612.90 24.70
657 13.9575 619.00 612.64 24.88
658 13.9667 661.00 612.38 25.71
659 13.9759 617.00 612.12 24.84
660 13.9851 629.00 611.86 25.08
661 13.9943 656.00 611.61 25.61
662 14.0035 625.00 611.35 25.00
663 14.0126 608.00 611.09 24.66
664 14.0218 641.00 610.84 25.32
665 14.0310 598.00 610.59 24.45
666 14.0402 624.00 610.33 24.98
667 14.0494 593.00 610.08 24.35
668 14.0586 576.00 609.83 24.00
669 14.0678 605.00 609.58 24.60
670 14.0770 625.00 609.34 25.00
671 14.0862 682.00 609.09 26.12
672 14.0954 620.00 608.85 24.90
673 14.1046 627.00 608.61 25.04
674 14.1138 591.00 608.38 24.31
675 14.1230 602.00 608.15 24.54
676 14.1322 625.00 607.92 25.00
677 14.1414 624.00 607.71 24.98
678 14.1506 626.00 607.50 25.02
679 14.1598 638.00 607.30 25.26
680 14.1690 616.00 607.12 24.82
681 14.1782 594.00 606.95 24.37
682 14.1874 604.00 606.81 24.58
683 14.1966 606.00 606.70 24.62
684 14.2058 612.00 606.62 24.74
685 14.2150 619.00 606.60 24.88
686 14.2242 632.00 606.63 25.14
687 14.2334 607.00 606.76 24.64
688 14.2426 598.00 606.99 24.45
689 14.2518 598.00 607.38 24.45
690 14.2610 625.00 607.99 25.00
691 14.2702 635.00 608.89 25.20
692 14.2794 570.00 610.15 23.87
693 14.2886 649.00 611.71 25.48
694 14.2978 619.00 613.20 24.88
695 14.3070 626.00 613.96 25.02
696 14.3162 662.00 613.53 25.73
697 14.3254 661.00 611.94 25.71
698 14.3346 593.00 609.59 24.35
699 14.3438 625.00 607.16 25.00
700 14.3530 607.00 605.22 24.64
701 14.3622 665.00 603.86 25.79
702 14.3714 644.00 602.93 25.38
703 14.3806 636.00 602.25 25.22
704 14.3898 629.00 601.72 25.08
705 14.3990 582.00 601.27 24.12
706 14.4082 661.00 600.88 25.71
707 14.4174 575.00 600.53 23.98
708 14.4266 631.00 600.20 25.12
709 14.4358 607.00 599.89 24.64
710 14.4450 633.00 599.60 25.16
711 14.4542 595.00 599.31 24.39
712 14.4634 564.00 599.04 23.75
713 14.4726 583.00 598.77 24.15
714 14.4818 636.00 598.50 25.22
715 14.4910 551.00 598.24 23.47
716 14.5002 593.00 597.98 24.35
717 14.5094 643.00 597.73 25.36
718 14.5186 601.00 597.47 24.52
719 14.5278 611.00 597.22 24.72
720 14.5370 604.00 596.97 24.58
721 14.5462 603.00 596.73 24.56
722 14.5554 599.00 596.48 24.47
723 14.5646 617.00 596.24 24.84
724 14.5738 646.00 595.99 25.42
725 14.5830 574.00 595.75 23.96
726 14.5922 582.00 595.51 24.12
727 14.6014 632.00 595.27 25.14
728 14.6106 622.00 595.03 24.94
729 14.6198 605.00 594.80 24.60
730 14.6290 600.00 594.56 24.49
731 14.6382 609.00 594.32 24.68
732 14.6474 586.00 594.09 24.21
733 14.6566 558.00 593.85 23.62
734 14.6658 565.00 593.62 23.77
735 14.6750 584.00 593.38 24.17
736 14.6842 607.00 593.15 24.64
737 14.6934 585.00 592.92 24.19
738 14.7026 613.00 592.68 24.76
739 14.7118 594.00 592.45 24.37
740 14.7210 619.00 592.22 24.88
741 14.7302 629.00 591.99 25.08
742 14.7394 617.00 591.76 24.84
743 14.7486 623.00 591.53 24.96
744 14.7578 577.00 591.30 24.02
745 14.7670 611.00 591.07 24.72
746 14.7762 591.00 590.84 24.31
747 14.7854 575.00 590.61 23.98
748 14.7946 606.00 590.39 24.62
749 14.8038 586.00 590.16 24.21
750 14.8130 572.00 589.93 23.92
751 14.8222 624.00 589.70 24.98
752 14.8314 582.00 589.48 24.12
753 14.8406 617.00 589.25 24.84
754 14.8498 581.00 589.03 24.10
755 14.8590 608.00 588.80 24.66
756 14.8682 530.00 588.58 23.02
757 14.8774 592.00 588.35 24.33
758 14.8866 614.00 588.13 24.78
759 14.8958 549.00 587.89 23.43
760 14.9050 567.00 587.66 23.81
761 14.9142 579.00 587.44 24.06
762 14.9234 585.00 587.22 24.19
763 14.9326 611.00 587.00 24.72
764 14.9418 635.00 586.78 25.20
765 14.9510 625.00 586.56 25.00
766 14.9602 576.00 586.34 24.00
767 14.9694 633.00 586.11 25.16
768 14.9786 627.00 585.90 25.04
769 14.9878 633.00 586.95 25.16
770 14.9970 588.00 586.80 24.25
771 15.0062 571.00 586.66 23.90
772 15.0154 611.00 586.54 24.72
773 15.0246 596.00 586.44 24.41
774 15.0338 600.00 586.39 24.49
775 15.0430 593.00 586.40 24.35
776 15.0522 597.00 586.33 24.43
777 15.0613 555.00 586.24 23.56
778 15.0705 630.00 586.17 25.10
779 15.0797 593.00 586.09 24.35
780 15.0889 602.00 586.01 24.54
781 15.0981 598.00 585.93 24.45
782 15.1073 569.00 585.85 23.85
783 15.1165 595.00 585.78 24.39
784 15.1257 582.00 585.71 24.12
785 15.1349 576.00 585.66 24.00
786 15.1441 612.00 585.61 24.74
787 15.1533 654.00 585.58 25.57
788 15.1625 589.00 585.56 24.27
789 15.1717 585.00 585.55 24.19
790 15.1809 650.00 585.55 25.50
791 15.1901 573.00 585.57 23.94
792 15.1993 602.00 585.61 24.54
793 15.2085 643.00 585.67 25.36
794 15.2177 580.00 585.76 24.08
795 15.2269 630.00 585.86 25.10
796 15.2361 609.00 586.00 24.68
797 15.2453 580.00 586.17 24.08
798 15.2545 644.00 586.38 25.38
799 15.2637 598.00 586.64 24.45
800 15.2729 581.00 586.94 24.10
801 15.2821 619.00 587.31 24.88
802 15.2913 593.00 587.75 24.35
803 15.3005 577.00 588.26 24.02
804 15.3097 626.00 588.87 25.02
805 15.3189 643.00 589.61 25.36
806 15.3281 624.00 590.51 24.98
807 15.3373 655.00 591.58 25.59
808 15.3465 594.00 592.83 24.37
809 15.3557 617.00 594.27 24.84
810 15.3649 619.00 595.97 24.88
811 15.3741 593.00 598.01 24.35
812 15.3833 609.00 600.48 24.68
813 15.3925 612.00 603.53 24.74
814 15.4017 629.00 607.33 25.08
815 15.4109 589.00 612.10 24.27
816 15.4201 610.00 618.12 24.70
817 15.4293 657.00 625.77 25.63
818 15.4385 616.00 635.51 24.82
819 15.4477 577.00 647.98 24.02
820 15.4569 645.00 664.01 25.40
821 15.4661 688.00 684.71 26.23
822 15.4753 747.00 711.59 27.33
823 15.4845 752.00 746.76 27.42
824 15.4937 858.00 793.23 29.29
825 15.5029 868.00 855.32 29.46
826 15.5121 972.00 939.23 31.18
827 15.5213 1093.00 1052.62 33.06
828 15.5305 1171.00 1201.11 34.22
829 15.5397 1322.00 1376.64 36.36
830 15.5489 1386.00 1540.02 37.23
831 15.5581 1567.00 1629.10 39.59
832 15.5673 1546.00 1604.55 39.32
833 15.5765 1547.00 1471.11 39.33
834 15.5857 1460.00 1269.55 38.21
835 15.5949 1359.00 1064.26 36.86
836 15.6041 1220.00 905.88 34.93
837 15.6133 1014.00 802.11 31.84
838 15.6225 876.00 737.30 29.60
839 15.6317 800.00 696.08 28.28
840 15.6409 797.00 668.61 28.23
841 15.6501 658.00 649.31 25.65
842 15.6593 615.00 635.16 24.80
843 15.6685 613.00 624.43 24.76
844 15.6777 666.00 616.09 25.81
845 15.6869 601.00 609.46 24.52
846 15.6961 601.00 604.10 24.52
847 15.7053 590.00 599.68 24.29
848 15.7145 577.00 596.00 24.02
849 15.7237 583.00 592.89 24.15
850 15.7329 587.00 590.22 24.23
851 15.7421 617.00 587.92 24.84
852 15.7513 560.00 585.91 23.66
853 15.7605 578.00 584.13 24.04
854 15.7697 584.00 582.54 24.17
855 15.7789 563.00 581.11 23.73
856 15.7881 610.00 579.82 24.70
857 15.7973 577.00 578.63 24.02
858 15.8065 527.00 577.55 22.96
859 15.8157 562.00 576.59 23.71
860 15.8249 607.00 575.72 24.64
861 15.8341 541.00 574.93 23.26
862 15.8433 596.00 574.21 24.41
863 15.8525 548.00 573.54 23.41
864 15.8617 572.00 572.91 23.92
865 15.8709 609.00 572.33 24.68
866 15.8801 570.00 571.78 23.87
867 15.8893 552.00 571.27 23.49
868 15.8985 577.00 570.78 24.02
869 15.9077 586.00 570.31 24.21
870 15.9169 551.00 569.87 23.47
871 15.9261 601.00 569.45 24.52
872 15.9353 571.00 569.05 23.90
873 15.9445 596.00 568.67 24.41
874 15.9537 529.00 568.31 23.00
875 15.9629 588.00 567.96 24.25
876 15.9721 552.00 567.63 23.49
877 15.9813 580.00 567.33 24.08
878 15.9905 566.00 567.04 23.79
879 15.9997 609.00 566.78 24.68
880 16.0089 607.00 566.53 24.64
881 16.0181 560.00 566.28 23.66
882 16.0273 590.00 566.01 24.29
883 16.0365 569.00 565.69 23.85
884 16.0457 584.00 565.35 24.17
885 16.0549 573.00 564.99 23.94
886 16.0641 567.00 564.64 23.81
887 16.0733 520.00 564.31 22.80
888 16.0825 595.00 564.01 24.39
889 16.0917 588.00 563.72 24.25
890 16.1009 549.00 563.45 23.43
891 16.1101 594.00 563.19 24.37
892 16.1192 554.00 562.93 23.54
893 16.1284 567.00 562.68 23.81
894 16.1376 589.00 562.43 24.27
895 16.1468 556.00 562.19 23.58
896 16.1560 539.00 560.25 23.22
897 16.1652 588.00 560.06 24.25
898 16.1744 563.00 559.88 23.73
899 16.1836 582.00 559.69 24.12
900 16.1928 620.00 559.51 24.90
901 16.2020 603.00 559.33 24.56
902 16.2112 531.00 559.14 23.04
903 16.2204 573.00 558.96 23.94
904 16.2296 570.00 558.78 23.87
905 16.2388 566.00 558.59 23.79
906 16.2480 570.00 558.41 23.87
907 16.2572 570.00 558.23 23.87
908 16.2664 610.00 558.05 24.70
909 16.2756 552.00 557.87 23.49
910 16.2848 527.00 557.69 22.96
911 16.2940 570.00 557.51 23.87
912 16.3032 590.00 557.33 24.29
913 16.3124 559.00 557.15 23.64
914 16.3216 542.00 556.97 23.28
915 16.3308 546.00 556.79 23.37
916 16.3400 585.00 556.61 24.19
917 16.3492 552.00 556.43 23.49
918 16.3584 534.00 556.25 23.11
919 16.3676 562.00 556.07 23.71
920 16.3768 573.00 555.90 23.94
921 16.3860 548.00 555.72 23.41
922 16.3952 543.00 555.54 23.30
923 16.4044 574.00 555.36 23.96
924 16.4136 549.00 555.18 23.43
925 16.4228 586.00 555.01 24.21
926 16.4320 573.00 554.83 23.94
927 16.4412 595.00 554.65 24.39
928 16.4504 542.00 554.48 23.28
929 16.4596 544.00 554.30 23.32
930 16.4688 614.00 554.12 24.78
931 16.4780 557.00 553.95 23.60
932 16.4872 556.00 553.77 23.58
933 16.4964 579.00 553.60 24.06
934 16.5056 564.00 553.42 23.75
935 16.5148 592.00 553.25 24.33
936 16.5240 540.00 553.07 23.24
937 16.5332 552.00 552.90 23.49
938 16.5424 564.00 552.72 23.75
939 16.5516 579.00 552.55 24.06
940 16.5608 555.00 552.37 23.56
941 16.5700 544.00 552.20 23.32
942 16.5792 567.00 552.03 23.81
943 16.5884 575.00 551.85 23.98
944 16.5976 542.00 551.68 23.28
945 16.6068 599.00 551.51 24.47
946 16.6160 612.00 551.33 24.74
947 16.6252 577.00 551.16 24.02
948 16.6344 585.00 550.99 24.19
949 16.6436 565.00 550.82 23.77
950 16.6528 549.00 550.64 23.43
951 16.6620 563.00 550.47 23.73
952 16.6712 549.00 550.30 23.43
953 16.6804 515.00 550.13 22.69
954 16.6896 537.00 549.96 23.17
955 16.6988 572.00 549.79 23.92
956 16.7080 581.00 549.62 24.10
957 16.7172 555.00 549.45 23.56
958 16.7264 545.00 549.28 23.35
959 16.7356 567.00 549.10 23.81
960 16.7448 526.00 548.93 22.93
961 16.7540 512.00 548.76 22.63
962 16.7632 548.00 548.59 23.41
963 16.7724 560.00 548.42 23.66
964 16.7816 585.00 548.26 24.19
965 16.7908 522.00 548.09 22.85
966 16.8000 558.00 547.92 23.62
967 16.8092 552.00 547.75 23.49
968 16.8184 583.00 547.58 24.15
969 16.8276 569.00 547.41 23.85
970 16.8368 550.00 547.24 23.45
971 16.8460 543.00 547.08 23.30
972 16.8552 551.00 546.91 23.47
973 16.8644 542.00 546.74 23.28
974 16.8736 526.00 546.57 22.93
975 16.8828 563.00 546.41 23.73
976 16.8920 580.00 546.24 24.08
977 16.9012 536.00 546.07 23.15
978 16.9104 540.00 545.91 23.24
979 16.9196 569.00 545.74 23.85
980 16.9288 536.00 545.57 23.15
981 16.9380 540.00 545.41 23.24
982 16.9472 512.00 545.24 22.63
983 16.9564 575.00 545.07 23.98
984 16.9656 556.00 544.91 23.58
985 16.9748 543.00 544.74 23.30
986 16.9840 603.00 544.58 24.56
987 16.9932 537.00 544.41 23.17
988 17.0024 532.00 544.25 23.07
989 17.0116 541.00 544.08 23.26
990 17.0208 540.00 543.92 23.24
991 17.0300 593.00 543.75 24.35
992 17.0392 515.00 543.59 22.69
993 17.0484 519.00 543.42 22.78
994 17.0576 552.00 543.26 23.49
995 17.0668 582.00 543.10 24.12
996 17.0760 557.00 542.93 23.60
997 17.0852 548.00 542.77 23.41
998 17.0944 554.00 542.61 23.54
999 17.1036 574.00 542.44 23.96
1000 17.1128 562.00 542.28 23.71
1001 17.1220 555.00 542.12 23.56
1002 17.1312 586.00 541.96 24.21
1003 17.1404 567.00 541.79 23.81
1004 17.1496 489.00 541.63 22.11
1005 17.1588 516.00 541.47 22.72
1006 17.1680 497.00 541.31 22.29
1007 17.1772 543.00 541.14 23.30
1008 17.1864 547.00 540.98 23.39
1009 17.1956 545.00 540.82 23.35
1010 17.2048 535.00 540.66 23.13
1011 17.2139 566.00 540.50 23.79
1012 17.2231 556.00 540.34 23.58
1013 17.2323 517.00 540.18 22.74
1014 17.2415 511.00 540.02 22.61
1015 17.2507 533.00 539.85 23.09
1016 17.2599 469.00 539.70 21.66
1017 17.2691 582.00 539.53 24.12
1018 17.2783 543.00 539.37 23.30
1019 17.2875 525.00 539.21 22.91
1020 17.2967 558.00 539.05 23.62
1021 17.3059 516.00 538.90 22.72
1022 17.3151 508.00 538.74 22.54
1023 17.3243 538.00 538.58 23.19
1024 17.3335 585.00 538.42 24.19
1025 17.3427 626.00 538.26 25.02
1026 17.3519 567.00 538.10 23.81
1027 17.3611 539.00 537.94 23.22
1028 17.3703 535.00 537.78 23.13
1029 17.3795 564.00 537.62 23.75
1030 17.3887 570.00 537.47 23.87
1031 17.3979 588.00 537.31 24.25
1032 17.4071 585.00 537.15 24.19
1033 17.4163 548.00 536.99 23.41
1034 17.4255 608.00 536.83 24.66
1035 17.4347 546.00 536.68 23.37
1036 17.4439 532.00 536.52 23.07
1037 17.4531 564.00 536.36 23.75
1038 17.4623 524.00 536.21 22.89
1039 17.4715 522.00 536.05 22.85
1040 17.4807 533.00 535.89 23.09
1041 17.4899 576.00 535.73 24.00
1042 17.4991 549.00 535.58 23.43
1043 17.5083 566.00 535.42 23.79
1044 17.5175 526.00 535.27 22.93
1045 17.5267 540.00 535.11 23.24
1046 17.5359 543.00 534.95 23.30
1047 17.5451 577.00 534.80 24.02
1048 17.5543 557.00 534.64 23.60
1049 17.5635 537.00 534.49 23.17
1050 17.5727 550.00 534.33 23.45
1051 17.5819 566.00 534.18 23.79
1052 17.5911 559.00 534.02 23.64
1053 17.6003 567.00 533.87 23.81
1054 17.6095 494.00 533.71 22.23
1055 17.6187 522.00 533.56 22.85
1056 17.6279 543.00 533.40 23.30
1057 17.6371 554.00 533.25 23.54
1058 17.6463 553.00 533.09 23.52
1059 17.6555 552.00 532.94 23.49
1060 17.6647 502.00 532.79 22.41
1061 17.6739 532.00 532.63 23.07
1062 17.6831 508.00 532.48 22.54
1063 17.6923 501.00 532.33 22.38
1064 17.7015 510.00 532.17 22.58
1065 17.7107 543.00 532.02 23.30
1066 17.7199 539.00 531.86 23.22
1067 17.7291 559.00 531.71 23.64
1068 17.7383 538.00 531.56 23.19
1069 17.7475 550.00 531.41 23.45
1070 17.7567 528.00 531.25 22.98
1071 17.7659 547.00 531.10 23.39
1072 17.7751 522.00 530.95 22.85
1073 17.7843 530.00 530.80 23.02
1074 17.7935 546.00 530.64 23.37
1075 17.8027 531.00 530.49 23.04
1076 17.8119 536.00 530.34 23.15
1077 17.8211 532.00 530.19 23.07
1078 17.8303 563.00 530.04 23.73
1079 17.8395 523.00 529.89 22.87
1080 17.8487 590.00 529.73 24.29
1081 17.8579 521.00 529.58 22.83
1082 17.8671 535.00 529.43 23.13
1083 17.8763 542.00 529.28 23.28
1084 17.8855 525.00 529.13 22.91
1085 17.8947 518.00 528.98 22.76
1086 17.9039 544.00 528.83 23.32
1087 17.9131 510.00 528.68 22.58
1088 17.9223 504.00 528.53 22.45
1089 17.9315 532.00 528.38 23.07
1090 17.9407 531.00 528.23 23.04
1091 17.9499 526.00 528.08 22.93
1092 17.9591 564.00 527.93 23.75
1093 17.9683 484.00 527.78 22.00
1094 17.9775 581.00 527.63 24.10
1095 17.9867 559.00 527.48 23.64
1096 17.9959 481.00 527.33 21.93
1097 18.0051 507.00 527.18 22.52
1098 18.0143 523.00 527.03 22.87
1099 18.0235 513.00 526.88 22.65
1100 18.0327 545.00 526.73 23.35
1101 18.0419 550.00 526.58 23.45
1102 18.0511 549.00 526.43 23.43
1103 18.0603 531.00 526.28 23.04
1104 18.0695 512.00 526.14 22.63
1105 18.0787 527.00 525.99 22.96
1106 18.0879 508.00 525.84 22.54
1107 18.0971 527.00 525.69 22.96
1108 18.1063 517.00 525.54 22.74
1109 18.1155 566.00 525.40 23.79
1110 18.1247 511.00 525.25 22.61
1111 18.1339 515.00 525.10 22.69
1112 18.1431 554.00 524.95 23.54
1113 18.1523 524.00 524.80 22.89
1114 18.1615 501.00 524.66 22.38
1115 18.1707 504.00 524.51 22.45
1116 18.1799 528.00 524.36 22.98
1117 18.1891 524.00 524.22 22.89
1118 18.1983 526.00 524.07 22.93
1119 18.2075 524.00 523.92 22.89
1120 18.2167 528.00 523.78 22.98
1121 18.2259 509.00 523.63 22.56
1122 18.2351 519.00 523.81 22.78
1123 18.2443 548.00 523.68 23.41
1124 18.2535 511.00 523.56 22.61
1125 18.2627 509.00 523.43 22.56
1126 18.2719 513.00 523.32 22.65
1127 18.2810 538.00 523.21 23.19
1128 18.2902 522.00 523.12 22.85
1129 18.2994 523.00 523.01 22.87
1130 18.3086 545.00 522.90 23.35
1131 18.3178 502.00 522.78 22.41
1132 18.3270 476.00 522.67 21.82
1133 18.3362 493.00 522.56 22.20
1134 18.3454 560.00 522.45 23.66
1135 18.3546 556.00 522.33 23.58
1136 18.3638 538.00 522.22 23.19
1137 18.3730 544.00 522.11 23.32
1138 18.3822 495.00 522.00 22.25
1139 18.3914 551.00 521.90 23.47
1140 18.4006 515.00 521.79 22.69
1141 18.4098 522.00 521.69 22.85
1142 18.4190 522.00 521.59 22.85
1143 18.4282 492.00 521.49 22.18
1144 18.4374 548.00 521.40 23.41
1145 18.4466 532.00 521.31 23.07
1146 18.4558 538.00 521.23 23.19
1147 18.4650 495.00 521.15 22.25
1148 18.4742 506.00 521.08 22.49
1149 18.4834 514.00 521.01 22.67
1150 18.4926 560.00 520.95 23.66
1151 18.5018 506.00 520.89 22.49
1152 18.5110 569.00 520.85 23.85
1153 18.5202 514.00 520.81 22.67
1154 18.5294 519.00 520.79 22.78
1155 18.5386 524.00 520.78 22.89
1156 18.5478 517.00 520.78 22.74
1157 18.5570 528.00 520.79 22.98
1158 18.5662 527.00 520.83 22.96
1159 18.5754 510.00 520.90 22.58
1160 18.5846 523.00 520.99 22.87
1161 18.5938 535.00 521.12 23.13
1162 18.6030 539.00 521.30 23.22
1163 18.6122 505.00 521.52 22.47
1164 18.6214 517.00 521.79 22.74
1165 18.6306 520.00 522.11 22.80
1166 18.6398 538.00 522.48 23.19
1167 18.6490 514.00 522.95 22.67
1168 18.6582 518.00 523.52 22.76
1169 18.6674 517.00 524.22 22.74
1170 18.6766 539.00 525.11 23.22
1171 18.6858 531.00 526.25 23.04
1172 18.6950 536.00 527.70 23.15
1173 18.7042 518.00 529.59 22.76
1174 18.7134 541.00 532.05 23.26
1175 18.7226 508.00 535.29 22.54
1176 18.7318 561.00 539.58 23.69
1177 18.7410 510.00 545.29 22.58
1178 18.7502 535.00 552.94 23.13
1179 18.7594 605.00 563.29 24.60
1180 18.7686 578.00 577.44 24.04
1181 18.7778 599.00 596.97 24.47
1182 18.7870 643.00 623.96 25.36
1183 18.7962 662.00 660.38 25.73
1184 18.8054 705.00 706.11 26.55
1185 18.8146 756.00 754.89 27.50
1186 18.8238 769.00 792.42 27.73
1187 18.8330 772.00 803.91 27.78
1188 18.8422 776.00 784.11 27.86
1189 18.8514 740.00 738.86 27.20
1190 18.8606 718.00 682.48 26.80
1191 18.8698 681.00 631.47 26.10
1192 18.8790 649.00 594.39 25.48
1193 18.8882 647.00 570.26 25.44
1194 18.8974 578.00 554.96 24.04
1195 18.9066 566.00 545.02 23.79
1196 18.9158 522.00 538.23 22.85
1197 18.9250 532.00 533.35 23.07
1198 18.9342 520.00 529.70 22.80
1199 18.9434 547.00 526.88 23.39
1200 18.9526 518.00 524.65 22.76
1201 18.9618 537.00 522.84 23.17
1202 18.9710 541.00 521.34 23.26
1203 18.9802 510.00 520.09 22.58
1204 18.9894 510.00 519.03 22.58
1205 18.9986 535.00 518.12 23.13
1206 19.0078 525.00 517.32 22.91
1207 19.0170 521.00 516.61 22.83
1208 19.0262 547.00 515.98 23.39
1209 19.0354 522.00 515.41 22.85
1210 19.0446 494.00 514.89 22.23
1211 19.0538 544.00 514.41 23.32
1212 19.0630 517.00 513.96 22.74
1213 19.0722 498.00 513.55 22.32
1214 19.0814 531.00 513.17 23.04
1215 19.0906 522.00 512.82 22.85
1216 19.0998 502.00 512.49 22.41
1217 19.1090 508.00 512.19 22.54
1218 19.1182 522.00 511.91 22.85
1219 19.1274 537.00 511.64 23.17
1220 19.1366 499.00 511.39 22.34
1221 19.1458 514.00 511.14 22.67
1222 19.1550 542.00 510.91 23.28
1223 19.1642 515.00 510.68 22.69
1224 19.1734 518.00 510.46 22.76
1225 19.1826 506.00 510.25 22.49
1226 19.1918 509.00 510.04 22.56
1227 19.2010 462.00 509.84 21.49
1228 19.2102 522.00 509.64 22.85
1229 19.2194 531.00 509.45 23.04
1230 19.2286 518.00 509.26 22.76
1231 19.2378 495.00 509.08 22.25
1232 19.2470 510.00 508.89 22.58
1233 19.2562 488.00 508.71 22.09
1234 19.2654 500.00 508.54 22.36
1235 19.2746 520.00 508.36 22.80
1236 19.2838 539.00 508.19 23.22
1237 19.2930 496.00 508.02 22.27
1238 19.3022 533.00 507.86 23.09
1239 19.3114 518.00 507.69 22.76
1240 19.3206 478.00 507.52 21.86
1241 19.3298 499.00 507.36 22.34
1242 19.3390 492.00 507.20 22.18
1243 19.3482 529.00 507.04 23.00
1244 19.3574 491.00 506.88 22.16
1245 19.3666 520.00 506.73 22.80
1246 19.3757 522.00 506.57 22.85
1247 19.3849 476.00 506.42 21.82
1248 19.3941 538.00 506.29 23.19
1249 19.4033 505.00 506.13 22.47
1250 19.4125 479.00 505.98 21.89
1251 19.4217 481.00 505.83 21.93
1252 19.4309 509.00 505.68 22.56
1253 19.4401 521.00 505.54 22.83
1254 19.4493 535.00 504.95 23.13
1255 19.4585 503.00 504.82 22.43
1256 19.4677 514.00 504.69 22.67
1257 19.4769 524.00 504.55 22.89
1258 19.4861 487.00 504.42 22.07
1259 19.4953 510.00 504.29 22.58
1260 19.5045 532.00 504.15 23.07
1261 19.5137 525.00 504.02 22.91
1262 19.5229 465.00 503.89 21.56
1263 19.5321 499.00 503.75 22.34
1264 19.5413 509.00 503.62 22.56
1265 19.5505 518.00 503.49 22.76
1266 19.5597 508.00 503.36 22.54
1267 19.5689 503.00 504.87 22.43
1268 19.5781 537.00 504.83 23.17
1269 19.5873 502.00 504.80 22.41
1270 19.5965 495.00 504.78 22.25
1271 19.6057 475.00 504.79 21.79
1272 19.6149 484.00 504.85 22.00
1273 19.6241 527.00 504.98 22.96
1274 19.6333 495.00 505.03 22.25
1275 19.6425 479.00 505.07 21.89
1276 19.6517 475.00 505.10 21.79
1277 19.6609 520.00 505.14 22.80
1278 19.6701 501.00 505.16 22.38
1279 19.6793 546.00 505.18 23.37
1280 19.6885 511.00 505.21 22.61
1281 19.6977 480.00 505.24 21.91
1282 19.7069 480.00 505.28 21.91
1283 19.7161 493.00 505.33 22.20
1284 19.7253 528.00 505.39 22.98
1285 19.7345 516.00 505.46 22.72
1286 19.7437 516.00 505.55 22.72
1287 19.7529 518.00 505.64 22.76
1288 19.7621 514.00 505.76 22.67
1289 19.7713 507.00 505.89 22.52
1290 19.7805 492.00 506.05 22.18
1291 19.7897 457.00 506.23 21.38
1292 19.7989 516.00 506.43 22.72
1293 19.8081 454.00 506.66 21.31
1294 19.8173 464.00 506.92 21.54
1295 19.8265 483.00 507.23 21.98
1296 19.8357 512.00 507.57 22.63
1297 19.8449 504.00 507.96 22.45
1298 19.8541 535.00 508.42 23.13
1299 19.8633 495.00 508.94 22.25
1300 19.8725 487.00 509.55 22.07
1301 19.8817 513.00 510.26 22.65
1302 19.8909 514.00 511.09 22.67
1303 19.9001 485.00 512.08 22.02
1304 19.9093 512.00 513.27 22.63
1305 19.9185 479.00 514.73 21.89
1306 19.9277 494.00 516.55 22.23
1307 19.9369 500.00 518.85 22.36
1308 19.9461 547.00 521.78 23.39
1309 19.9553 523.00 525.49 22.87
1310 19.9645 517.00 530.05 22.74
1311 19.9737 503.00 535.44 22.43
1312 19.9829 534.00 541.35 23.11
1313 19.9921 547.00 547.08 23.39
1314 20.0013 536.00 551.67 23.15
1315 20.0105 545.00 554.72 23.35
1316 20.0197 545.00 556.61 23.35
1317 20.0289 528.00 558.43 22.98
1318 20.0381 518.00 561.67 22.76
1319 20.0473 540.00 567.65 23.24
1320 20.0565 591.00 577.20 24.31
1321 20.0657 550.00 591.01 23.45
1322 20.0749 629.00 610.06 25.08
1323 20.0841 595.00 635.92 24.39
1324 20.0933 662.00 670.96 25.73
1325 20.1025 676.00 718.69 26.00
1326 20.1117 758.00 784.32 27.53
1327 20.1209 936.00 875.46 30.59
1328 20.1301 1014.00 1002.38 31.84
1329 20.1393 1237.00 1175.86 35.17
1330 20.1485 1505.00 1399.56 38.79
1331 20.1577 1682.00 1652.34 41.01
1332 20.1669 1851.00 1872.44 43.02
1333 20.1761 1990.00 1980.14 44.61
1334 20.1853 1954.00 1931.07 44.20
1335 20.1945 1850.00 1737.83 43.01
1336 20.2037 1626.00 1461.22 40.32
1337 20.2129 1372.00 1185.75 37.04
1338 20.2221 1193.00 971.35 34.54
1339 20.2313 962.00 826.86 31.02
1340 20.2405 888.00 734.60 29.80
1341 20.2497 684.00 675.42 26.15
1342 20.2589 604.00 635.95 24.58
1343 20.2681 582.00 608.25 24.12
1344 20.2773 569.00 587.94 23.85
1345 20.2865 568.00 572.56 23.83
1346 20.2957 509.00 560.56 22.56
1347 20.3049 511.00 551.03 22.61
1348 20.3141 483.00 543.32 21.98
1349 20.3233 515.00 536.99 22.69
1350 20.3325 502.00 531.72 22.41
1351 20.3417 490.00 527.29 22.14
1352 20.3509 514.00 523.51 22.67
1353 20.3601 500.00 520.25 22.36
1354 20.3693 508.00 517.41 22.54
1355 20.3785 460.00 514.92 21.45
1356 20.3877 468.00 512.70 21.63
1357 20.3969 481.00 510.70 21.93
1358 20.4061 484.00 508.88 22.00
1359 20.4153 514.00 507.24 22.67
1360 20.4245 476.00 505.76 21.82
1361 20.4337 498.00 504.46 22.32
1362 20.4429 509.00 503.32 22.56
1363 20.4521 478.00 502.30 21.86
1364 20.4613 459.00 501.39 21.42
1365 20.4705 463.00 500.55 21.52
1366 20.4797 522.00 499.79 22.85
1367 20.4888 467.00 499.09 21.61
1368 20.4980 479.00 498.44 21.89
1369 20.5072 479.00 497.83 21.89
1370 20.5164 442.00 497.27 21.02
1371 20.5256 443.00 496.74 21.05
1372 20.5348 493.00 496.24 22.20
1373 20.5440 479.00 495.77 21.89
1374 20.5532 495.00 495.33 22.25
1375 20.5624 472.00 494.91 21.73
1376 20.5716 516.00 494.51 22.72
1377 20.5808 486.00 494.14 22.05
1378 20.5900 497.00 493.78 22.29
1379 20.5992 452.00 493.43 21.26
1380 20.6084 479.00 493.10 21.89
1381 20.6176 472.00 492.79 21.73
1382 20.6268 484.00 492.48 22.00
1383 20.6360 502.00 492.17 22.41
1384 20.6452 498.00 491.89 22.32
1385 20.6544 496.00 491.63 22.27
1386 20.6636 496.00 491.38 22.27
1387 20.6728 494.00 491.14 22.23
1388 20.6820 438.00 490.91 20.93
1389 20.6912 516.00 490.70 22.72
1390 20.7004 525.00 490.49 22.91
1391 20.7096 493.00 490.29 22.20
1392 20.7188 462.00 490.11 21.49
1393 20.7280 492.00 489.94 22.18
1394 20.7372 465.00 489.78 21.56
1395 20.7464 499.00 489.65 22.34
1396 20.7556 536.00 489.53 23.15
1397 20.7648 522.00 489.45 22.85
1398 20.7740 499.00 489.39 22.34
1399 20.7832 494.00 489.39 22.23
1400 20.7924 468.00 489.45 21.63
1401 20.8016 483.00 489.60 21.98
1402 20.8108 518.00 487.68 22.76
1403 20.8200 504.00 488.16 22.45
1404 20.8292 489.00 488.86 22.11
1405 20.8384 489.00 489.88 22.11
1406 20.8476 466.00 491.34 21.59
1407 20.8568 489.00 493.43 22.11
1408 20.8660 499.00 496.33 22.34
1409 20.8752 517.00 500.09 22.74
1410 20.8844 494.00 504.32 22.23
1411 20.8936 505.00 507.94 22.47
1412 20.9028 519.00 509.60 22.78
1413 20.9120 502.00 508.57 22.41
1414 20.9212 489.00 505.10 22.11
1415 20.9304 474.00 500.23 21.77
1416 20.9396 469.00 495.40 21.66
1417 20.9488 448.00 491.61 21.17
1418 20.9580 543.00 489.00 23.30
1419 20.9672 467.00 487.28 21.61
1420 20.9764 483.00 486.14 21.98
1421 20.9856 469.00 485.33 21.66
1422 20.9948 467.00 484.72 21.61
1423 21.0040 522.00 484.24 22.85
1424 21.0132 496.00 483.85 22.27
1425 21.0224 490.00 483.52 22.14
1426 21.0316 471.00 483.22 21.70
1427 21.0408 478.00 482.96 21.86
1428 21.0500 462.00 482.73 21.49
1429 21.0592 473.00 482.51 21.75
1430 21.0684 486.00 482.30 22.05
1431 21.0776 498.00 482.11 22.32
1432 21.0868 491.00 481.93 22.16
1433 21.0960 469.00 481.75 21.66
1434 21.1052 493.00 481.58 22.20
1435 21.1144 459.00 481.42 21.42
1436 21.1236 432.00 481.26 20.78
1437 21.1328 460.00 481.10 21.45
1438 21.1420 418.00 480.94 20.44
1439 21.1512 475.00 480.79 21.79
1440 21.1604 474.00 480.64 21.77
1441 21.1696 466.00 480.49 21.59
1442 21.1788 457.00 480.35 21.38
1443 21.1880 461.00 480.21 21.47
1444 21.1972 509.00 480.07 22.56
1445 21.2064 476.00 479.93 21.82
1446 21.2156 459.00 479.79 21.42
1447 21.2248 481.00 479.65 21.93
1448 21.2340 476.00 479.51 21.82
1449 21.2432 478.00 479.38 21.86
1450 21.2524 444.00 479.24 21.07
1451 21.2616 472.00 479.11 21.73
1452 21.2708 462.00 478.97 21.49
1453 21.2800 463.00 478.84 21.52
1454 21.2892 473.00 478.70 21.75
1455 21.2984 500.00 478.57 22.36
1456 21.3076 497.00 478.44 22.29
1457 21.3168 460.00 478.30 21.45
1458 21.3260 454.00 478.17 21.31
1459 21.3352 494.00 478.04 22.23
1460 21.3444 468.00 477.91 21.63
1461 21.3536 451.00 477.78 21.24
1462 21.3628 494.00 477.64 22.23
1463 21.3720 452.00 477.51 21.26
1464 21.3812 480.00 477.38 21.91
1465 21.3904 475.00 477.25 21.79
1466 21.3996 481.00 477.12 21.93
1467 21.4088 506.00 476.99 22.49
1468 21.4180 448.00 476.86 21.17
1469 21.4272 459.00 476.73 21.42
1470 21.4364 490.00 476.60 22.14
1471 21.4456 430.00 476.47 20.74
1472 21.4548 437.00 476.34 20.90
1473 21.4640 456.00 476.21 21.35
1474 21.4732 449.00 476.08 21.19
1475 21.4824 445.00 475.95 21.09
1476 21.4916 467.00 475.82 21.61
1477 21.5008 446.00 475.69 21.12
1478 21.5100 474.00 475.56 21.77
1479 21.5192 473.00 475.43 21.75
1480 21.5284 450.00 475.30 21.21
1481 21.5376 509.00 475.17 22.56
1482 21.5468 472.00 475.01 21.73
1483 21.5560 484.00 474.88 22.00
1484 21.5652 477.00 474.75 21.84
1485 21.5744 475.00 474.62 21.79
1486 21.5836 476.00 474.49 21.82
1487 21.5928 483.00 474.36 21.98
1488 21.6019 515.00 474.24 22.69
1489 21.6111 482.00 474.11 21.95
1490 21.6203 445.00 473.98 21.09
1491 21.6295 444.00 473.85 21.07
1492 21.6387 485.00 473.72 22.02
1493 21.6479 411.00 473.60 20.27
1494 21.6571 501.00 473.47 22.38
1495 21.6663 481.00 473.34 21.93
1496 21.6755 473.00 473.21 21.75
1497 21.6847 457.00 473.08 21.38
1498 21.6939 467.00 472.96 21.61
1499 21.7031 475.00 472.83 21.79
1500 21.7123 437.00 472.70 20.90
1501 21.7215 459.00 472.57 21.42
1502 21.7307 461.00 472.45 21.47
1503 21.7399 484.00 472.32 22.00
1504 21.7491 466.00 472.19 21.59
1505 21.7583 470.00 472.06 21.68
1506 21.7675 505.00 471.93 22.47
1507 21.7767 482.00 471.80 21.95
1508 21.7859 450.00 471.68 21.21
1509 21.7951 449.00 471.55 21.19
1510 21.8043 443.00 471.42 21.05
1511 21.8135 486.00 471.29 22.05
1512 21.8227 488.00 471.17 22.09
1513 21.8319 452.00 471.04 21.26
1514 21.8411 473.00 470.91 21.75
1515 21.8503 458.00 470.78 21.40
1516 21.8595 474.00 470.65 21.77
1517 21.8687 452.00 470.53 21.26
1518 21.8779 468.00 470.40 21.63
1519 21.8871 457.00 470.27 21.38
1520 21.8963 460.00 470.14 21.45
1521 21.9055 472.00 470.02 21.73
1522 21.9147 464.00 469.89 21.54
1523 21.9239 446.00 469.76 21.12
1524 21.9331 404.00 469.63 20.10
1525 21.9423 461.00 469.51 21.47
1526 21.9515 446.00 469.38 21.12
1527 21.9607 444.00 469.25 21.07
1528 21.9699 461.00 469.12 21.47
1529 21.9791 449.00 468.99 21.19
1530 21.9883 445.00 468.87 21.09
1531 21.9975 428.00 468.74 20.69
1532 22.0067 451.00 468.61 21.24
1533 22.0159 466.00 468.48 21.59
1534 22.0251 477.00 468.36 21.84
1535 22.0343 471.00 468.23 21.70
1536 22.0435 496.00 468.10 22.27
1537 22.0527 464.00 467.98 21.54
1538 22.0619 484.00 467.85 22.00
1539 22.0711 439.00 467.72 20.95
1540 22.0803 460.00 467.59 21.45
1541 22.0895 478.00 467.46 21.86
1542 22.0987 516.00 467.34 22.72
1543 22.1079 436.00 467.21 20.88
1544 22.1171 457.00 467.08 21.38
1545 22.1263 462.00 466.95 21.49
1546 22.1355 449.00 466.83 21.19
1547 22.1447 447.00 466.70 21.14
1548 22.1539 467.00 466.57 21.61
1549 22.1631 470.00 466.45 21.68
1550 22.1723 474.00 466.32 21.77
1551 22.1815 454.00 466.19 21.31
1552 22.1907 464.00 466.06 21.54
1553 22.1999 452.00 465.94 21.26
1554 22.2091 457.00 465.81 21.38
1555 22.2183 470.00 465.68 21.68
1556 22.2275 475.00 465.55 21.79
1557 22.2367 460.00 465.43 21.45
1558 22.2459 428.00 465.30 20.69
1559 22.2551 445.00 465.17 21.09
1560 22.2643 469.00 465.04 21.66
1561 22.2735 467.00 464.92 21.61
1562 22.2827 433.00 464.79 20.81
1563 22.2919 464.00 464.66 21.54
1564 22.3011 414.00 464.54 20.35
1565 22.3103 506.00 464.41 22.49
1566 22.3195 448.00 464.28 21.17
1567 22.3287 401.00 464.15 20.02
1568 22.3379 413.00 464.03 20.32
1569 22.3471 452.00 463.90 21.26
1570 22.3563 467.00 463.77 21.61
1571 22.3655 455.00 463.64 21.33
1572 22.3747 432.00 463.52 20.78
1573 22.3839 415.00 463.39 20.37
1574 22.3931 464.00 463.26 21.54
1575 22.4023 488.00 463.14 22.09
1576 22.4115 427.00 463.01 20.66
1577 22.4207 459.00 462.88 21.42
1578 22.4299 471.00 462.75 21.70
1579 22.4391 439.00 462.63 20.95
1580 22.4483 454.00 462.50 21.31
1581 22.4575 452.00 462.37 21.26
1582 22.4667 471.00 462.24 21.70
1583 22.4759 456.00 462.12 21.35
1584 22.4851 443.00 461.99 21.05
1585 22.4943 418.00 461.86 20.44
1586 22.5035 466.00 461.74 21.59
1587 22.5127 445.00 461.61 21.09
1588 22.5219 475.00 461.48 21.79
1589 22.5311 443.00 461.36 21.05
1590 22.5403 460.00 461.23 21.45
1591 22.5495 458.00 461.10 21.40
1592 22.5587 468.00 460.97 21.63
1593 22.5679 442.00 460.85 21.02
1594 22.5771 493.00 460.72 22.20
1595 22.5863 455.00 460.59 21.33
1596 22.5955 472.00 460.46 21.73
1597 22.6047 452.00 460.34 21.26
1598 22.6139 426.00 460.21 20.64
1599 22.6231 447.00 460.08 21.14
1600 22.6323 430.00 459.96 20.74
1601 22.6415 475.00 459.83 21.79
1602 22.6507 402.00 459.70 20.05
1603 22.6599 466.00 459.58 21.59
1604 22.6691 500.00 459.45 22.36
1605 22.6783 436.00 461.48 20.88
1606 22.6875 444.00 461.47 21.07
1607 22.6967 492.00 461.47 22.18
1608 22.7059 476.00 461.49 21.82
1609 22.7151 483.00 461.54 21.98
1610 22.7243 459.00 461.64 21.42
1611 22.7334 445.00 461.83 21.09
1612 22.7426 468.00 461.93 21.63
1613 22.7518 470.00 462.01 21.68
1614 22.7610 448.00 462.08 21.17
1615 22.7702 476.00 462.15 21.82
1616 22.7794 510.00 462.21 22.58
1617 22.7886 442.00 462.27 21.02
1618 22.7978 461.00 462.32 21.47
1619 22.8070 439.00 462.38 20.95
1620 22.8162 435.00 462.45 20.86
1621 22.8254 419.00 462.62 20.47
1622 22.8346 418.00 462.71 20.44
1623 22.8438 446.00 462.81 21.12
1624 22.8530 454.00 462.92 21.31
1625 22.8622 460.00 463.05 21.45
1626 22.8714 457.00 463.20 21.38
1627 22.8806 459.00 463.37 21.42
1628 22.8898 464.00 463.55 21.54
1629 22.8990 442.00 463.76 21.02
1630 22.9082 437.00 463.98 20.90
1631 22.9174 424.00 464.23 20.59
1632 22.9266 451.00 464.51 21.24
1633 22.9358 421.00 464.81 20.52
1634 22.9450 397.00 465.15 19.92
1635 22.9542 435.00 465.53 20.86
1636 22.9634 426.00 465.95 20.64
1637 22.9726 434.00 466.42 20.83
1638 22.9818 490.00 466.94 22.14
1639 22.9910 459.00 467.51 21.42
1640 23.0002 458.00 468.15 21.40
1641 23.0094 466.00 468.86 21.59
1642 23.0186 473.00 469.65 21.75
1643 23.0278 483.00 470.55 21.98
1644 23.0370 520.00 471.56 22.80
1645 23.0462 467.00 472.71 21.61
1646 23.0554 457.00 474.03 21.38
1647 23.0646 430.00 475.58 20.74
1648 23.0738 464.00 477.40 21.54
1649 23.0830 467.00 479.57 21.61
1650 23.0922 470.00 482.08 21.68
1651 23.1014 454.00 484.90 21.31
1652 23.1106 473.00 488.02 21.75
1653 23.1198 449.00 491.53 21.19
1654 23.1290 489.00 495.52 22.11
1655 23.1382 443.00 500.15 21.05
1656 23.1474 456.00 505.59 21.35
1657 23.1566 487.00 512.07 22.07
1658 23.1658 504.00 519.89 22.45
1659 23.1750 498.00 529.48 22.32
1660 23.1842 528.00 541.43 22.98
1661 23.1934 525.00 557.59 22.91
1662 23.2026 556.00 577.24 23.58
1663 23.2118 591.00 603.06 24.31
1664 23.2210 618.00 637.54 24.86
1665 23.2302 678.00 684.32 26.04
1666 23.2394 775.00 748.78 27.84
1667 23.2486 869.00 838.77 29.48
1668 23.2578 1049.00 965.76 32.39
1669 23.2670 1228.00 1144.57 35.04
1670 23.2762 1465.00 1389.51 38.28
1671 23.2854 1791.00 1702.59 42.32
1672 23.2946 2014.00 2051.47 44.88
1673 23.3038 2246.00 2353.43 47.39
1674 23.3130 2301.00 2505.32 47.97
1675 23.3222 2350.00 2448.15 48.48
1676 23.3314 2264.00 2196.53 47.58
1677 23.3406 1977.00 1829.69 44.46
1678 23.3498 1718.00 1456.92 41.45
1679 23.3590 1432.00 1158.08 37.84
1680 23.3682 1168.00 951.02 34.18
1681 23.3774 932.00 817.15 30.53
1682 23.3866 840.00 732.10 28.98
1683 23.3958 707.00 677.55 26.59
1684 23.4050 670.00 642.24 25.88
1685 23.4142 625.00 620.09 25.00
1686 23.4234 603.00 608.04 24.56
1687 23.4326 591.00 604.26 24.31
1688 23.4418 548.00 606.52 23.41
1689 23.4510 564.00 610.83 23.75
1690 23.4602 624.00 611.78 24.98
1691 23.4694 528.00 605.17 22.98
1692 23.4786 538.00 590.14 23.19
1693 23.4878 550.00 569.17 23.45
1694 23.4970 538.00 546.94 23.19
1695 23.5062 520.00 527.78 22.80
1696 23.5154 499.00 513.37 22.34
1697 23.5246 492.00 503.14 22.18
1698 23.5338 474.00 495.89 21.77
1699 23.5430 488.00 490.58 22.09
1700 23.5522 457.00 486.55 21.38
1701 23.5614 451.00 483.43 21.24
1702 23.5706 441.00 481.03 21.00
1703 23.5798 428.00 479.23 20.69
1704 23.5890 461.00 477.93 21.47
1705 23.5982 423.00 477.07 20.57
1706 23.6074 494.00 476.60 22.23
1707 23.6166 436.00 476.45 20.88
1708 23.6258 440.00 476.59 20.98
1709 23.6350 493.00 477.00 22.20
1710 23.6442 474.00 477.71 21.77
1711 23.6534 463.00 478.76 21.52
1712 23.6626 459.00 480.22 21.42
1713 23.6718 493.00 482.16 22.20
1714 23.6810 484.00 484.69 22.00
1715 23.6902 477.00 487.97 21.84
1716 23.6994 482.00 492.21 21.95
1717 23.7086 515.00 497.75 22.69
1718 23.7178 455.00 505.03 21.33
1719 23.7270 501.00 514.72 22.38
1720 23.7362 518.00 527.77 22.76
1721 23.7454 549.00 545.57 23.43
1722 23.7546 532.00 570.16 23.07
1723 23.7638 594.00 604.61 24.37
1724 23.7730 664.00 653.42 25.77
1725 23.7822 767.00 722.70 27.69
1726 23.7914 786.00 819.37 28.04
1727 23.8006 927.00 947.57 30.45
1728 23.8098 969.00 1100.68 31.13
1729 23.8190 1111.00 1251.26 33.33
1730 23.8282 1242.00 1353.90 35.24
1731 23.8374 1220.00 1371.12 34.93
1732 23.8466 1115.00 1293.68 33.39
1733 23.8558 1087.00 1145.85 32.97
1734 23.8650 1054.00 973.31 32.47
1735 23.8741 945.00 820.72 30.74
1736 23.8833 714.00 708.27 26.72
1737 23.8925 649.00 633.13 25.48
1738 23.9017 658.00 584.48 25.65
1739 23.9109 587.00 552.60 24.23
1740 23.9201 540.00 530.83 23.24
1741 23.9293 518.00 515.23 22.76
1742 23.9385 490.00 503.57 22.14
1743 23.9477 522.00 494.58 22.85
1744 23.9569 468.00 487.48 21.63
1745 23.9661 443.00 482.59 21.05
1746 23.9753 441.00 475.12 21.00
1747 23.9845 481.00 471.36 21.93
1748 23.9937 456.00 468.24 21.35
1749 24.0029 476.00 465.60 21.82
1750 24.0121 430.00 463.38 20.74
1751 24.0213 443.00 461.49 21.05
1752 24.0305 501.00 459.82 22.38
1753 24.0397 424.00 458.35 20.59
1754 24.0489 415.00 457.03 20.37
1755 24.0581 468.00 455.85 21.63
1756 24.0673 458.00 454.78 21.40
1757 24.0765 420.00 453.83 20.49
1758 24.0857 459.00 453.00 21.42
1759 24.0949 439.00 452.30 20.95
1760 24.1041 449.00 451.70 21.19
1761 24.1133 446.00 451.20 21.12
1762 24.1225 448.00 450.77 21.17
1763 24.1317 480.00 450.28 21.91
1764 24.1409 449.00 449.98 21.19
1765 24.1501 471.00 449.73 21.70
1766 24.1593 449.00 449.52 21.19
1767 24.1685 479.00 449.37 21.89
1768 24.1777 417.00 449.26 20.42
1769 24.1869 450.00 449.20 21.21
1770 24.1961 421.00 449.19 20.52
1771 24.2053 411.00 449.22 20.27
1772 24.2145 461.00 449.31 21.47
1773 24.2237 446.00 449.46 21.12
1774 24.2329 438.00 449.68 20.93
1775 24.2421 464.00 449.97 21.54
1776 24.2513 451.00 450.36 21.24
1777 24.2605 416.00 450.86 20.40
1778 24.2697 484.00 451.74 22.00
1779 24.2789 437.00 452.46 20.90
1780 24.2881 469.00 453.29 21.66
1781 24.2973 478.00 454.24 21.86
1782 24.3065 472.00 455.35 21.73
1783 24.3157 419.00 456.65 20.47
1784 24.3249 449.00 458.18 21.19
1785 24.3341 483.00 460.00 21.98
1786 24.3433 491.00 462.19 22.16
1787 24.3525 449.00 464.86 21.19
1788 24.3617 467.00 468.16 21.61
1789 24.3709 466.00 472.31 21.59
1790 24.3801 460.00 477.61 21.45
1791 24.3893 502.00 484.52 22.41
1792 24.3985 487.00 493.61 22.07
1793 24.4077 508.00 505.77 22.54
1794 24.4169 498.00 522.32 22.32
1795 24.4261 524.00 545.26 22.89
1796 24.4353 582.00 577.47 24.12
1797 24.4445 656.00 622.62 25.61
1798 24.4537 708.00 684.20 26.61
1799 24.4629 805.00 762.68 28.37
1800 24.4721 821.00 850.42 28.65
1801 24.4813 904.00 928.03 30.07
1802 24.4905 1012.00 971.23 31.81
1803 24.4997 1005.00 964.51 31.70
1804 24.5089 927.00 913.71 30.45
1805 24.5181 934.00 840.07 30.56
1806 24.5273 806.00 763.84 28.39
1807 24.5365 823.00 709.38 28.69
1808 24.5457 687.00 684.25 26.21
1809 24.5549 747.00 688.07 27.33
1810 24.5641 700.00 720.05 26.46
1811 24.5733 781.00 781.66 27.95
1812 24.5825 879.00 874.72 29.65
1813 24.5917 938.00 996.18 30.63
1814 24.6009 1090.00 1128.41 33.02
1815 24.6101 1146.00 1235.60 33.85
1816 24.6193 1162.00 1279.02 34.09
1817 24.6285 1144.00 1240.19 33.82
1818 24.6377 1097.00 1129.43 33.12
1819 24.6469 956.00 980.55 30.92
1820 24.6561 889.00 835.45 29.82
1821 24.6653 766.00 721.19 27.68
1822 24.6745 665.00 642.00 25.79
1823 24.6837 659.00 590.19 25.67
1824 24.6929 607.00 556.53 24.64
1825 24.7021 527.00 534.06 22.96
1826 24.7113 525.00 518.41 22.91
1827 24.7205 565.00 507.06 23.77
1828 24.7297 434.00 498.60 20.83
1829 24.7389 482.00 492.22 21.95
1830 24.7481 472.00 487.40 21.73
1831 24.7573 452.00 483.83 21.26
1832 24.7665 473.00 481.26 21.75
1833 24.7757 463.00 479.56 21.52
1834 24.7849 443.00 478.65 21.05
1835 24.7941 511.00 478.51 22.61
1836 24.8033 489.00 479.20 22.11
1837 24.8125 481.00 480.81 21.93
1838 24.8217 495.00 483.56 22.25
1839 24.8309 464.00 487.78 21.54
1840 24.8401 456.00 493.98 21.35
1841 24.8493 513.00 503.00 22.65
1842 24.8585 539.00 516.03 23.22
1843 24.8677 560.00 534.79 23.66
1844 24.8769 535.00 561.20 23.13
1845 24.8861 619.00 596.61 24.88
1846 24.8953 656.00 639.77 25.61
1847 24.9045 681.00 684.08 26.10
1848 24.9137 687.00 717.62 26.21
1849 24.9229 764.00 729.18 27.64
1850 24.9321 699.00 714.93 26.44
1851 24.9413 683.00 680.06 26.13
1852 24.9505 639.00 636.37 25.28
1853 24.9597 621.00 596.63 24.92
1854 24.9689 533.00 567.83 23.09
1855 24.9781 550.00 550.28 23.45
1856 24.9873 538.00 541.45 23.19
1857 24.9965 524.00 538.77 22.89
1858 25.0057 521.00 540.47 22.83
1859 25.0149 508.00 545.64 22.54
1860 25.0241 531.00 553.97 23.04
1861 25.0333 533.00 565.65 23.09
1862 25.0424 562.00 581.22 23.71
1863 25.0516 564.00 601.66 23.75
1864 25.0608 595.00 628.53 24.39
1865 25.0700 602.00 664.13 24.54
1866 25.0792 642.00 711.91 25.34
1867 25.0884 772.00 777.02 27.78
1868 25.0976 817.00 867.13 28.58
1869 25.1068 1061.00 993.81 32.57
1870 25.1160 1228.00 1174.16 35.04
1871 25.1252 1573.00 1430.99 39.66
1872 25.1344 1870.00 1789.28 43.24
1873 25.1436 2348.00 2262.77 48.46
1874 25.1528 2741.00 2824.62 52.35
1875 25.1620 3202.00 3374.17 56.59
1876 25.1712 3401.00 3748.92 58.32
1877 25.1804 3467.00 3814.59 58.88
1878 25.1896 3307.00 3540.11 57.51
1879 25.1988 2997.00 3009.53 54.74
1880 25.2080 2598.00 2385.56 50.97
1881 25.2172 2226.00 1827.42 47.18
1882 25.2264 1764.00 1410.57 42.00
1883 25.2356 1383.00 1128.70 37.19
1884 25.2448 1196.00 945.16 34.58
1885 25.2540 1018.00 826.93 31.91
1886 25.2632 851.00 745.19 29.17
1887 25.2724 842.00 686.95 29.02
1888 25.2816 702.00 643.66 26.50
1889 25.2908 623.00 610.47 24.96
1890 25.3000 647.00 583.36 25.44
1891 25.3092 556.00 562.61 23.58
1892 25.3184 525.00 545.69 22.91
1893 25.3276 540.00 531.73 23.24
1894 25.3368 569.00 520.08 23.85
1895 25.3460 483.00 510.25 21.98
1896 25.3552 520.00 501.85 22.80
1897 25.3644 461.00 494.60 21.47
1898 25.3736 454.00 488.28 21.31
1899 25.3828 479.00 482.71 21.89
1900 25.3920 443.00 477.72 21.05
1901 25.4012 490.00 473.23 22.14
1902 25.4104 479.00 469.17 21.89
1903 25.4196 490.00 465.54 22.14
1904 25.4288 485.00 462.39 22.02
1905 25.4380 428.00 459.69 20.69
1906 25.4472 466.00 457.39 21.59
1907 25.4564 421.00 455.41 20.52
1908 25.4656 433.00 453.69 20.81
1909 25.4748 424.00 452.18 20.59
1910 25.4840 418.00 450.85 20.44
1911 25.4932 446.00 449.68 21.12
1912 25.5024 473.00 448.65 21.75
1913 25.5116 413.00 447.75 20.32
1914 25.5208 460.00 446.97 21.45
1915 25.5300 457.00 446.29 21.38
1916 25.5392 410.00 445.73 20.25
1917 25.5484 413.00 445.26 20.32
1918 25.5576 416.00 444.89 20.40
1919 25.5668 451.00 444.60 21.24
1920 25.5760 425.00 444.41 20.62
1921 25.5852 416.00 444.31 20.40
1922 25.5944 440.00 444.31 20.98
1923 25.6036 448.00 444.07 21.17
1924 25.6128 427.00 444.29 20.66
1925 25.6220 436.00 444.62 20.88
1926 25.6312 421.00 445.07 20.52
1927 25.6404 410.00 445.66 20.25
1928 25.6496 447.00 446.40 21.14
1929 25.6588 417.00 447.33 20.42
1930 25.6680 450.00 448.49 21.21
1931 25.6772 448.00 449.93 21.17
1932 25.6864 455.00 451.72 21.33
1933 25.6956 421.00 453.90 20.52
1934 25.7048 423.00 456.46 20.57
1935 25.7140 442.00 459.36 21.02
1936 25.7232 464.00 462.60 21.54
1937 25.7324 492.00 466.27 22.18
1938 25.7416 440.00 470.50 20.98
1939 25.7508 450.00 475.45 21.21
1940 25.7600 465.00 481.31 21.56
1941 25.7692 493.00 488.33 22.20
1942 25.7784 465.00 496.85 21.56
1943 25.7876 519.00 507.32 22.78
1944 25.7968 559.00 520.38 23.64
1945 25.8060 570.00 536.98 23.87
1946 25.8152 563.00 558.48 23.73
1947 25.8244 610.00 586.89 24.70
1948 25.8336 637.00 625.21 25.24
1949 25.8428 731.00 677.91 27.04
1950 25.8520 878.00 751.78 29.63
1951 25.8612 890.00 852.43 29.83
1952 25.8704 1108.00 1002.66 33.29
1953 25.8796 1268.00 1213.77 35.61
1954 25.8888 1625.00 1496.85 40.31
1955 25.8980 1870.00 1842.22 43.24
1956 25.9072 2001.00 2198.13 44.73
1957 25.9164 2274.00 2469.15 47.69
1958 25.9256 2296.00 2561.61 47.92
1959 25.9348 2207.00 2439.12 46.98
1960 25.9440 2020.00 2138.08 44.94
1961 25.9532 1846.00 1751.47 42.97
1962 25.9624 1482.00 1384.15 38.50
1963 25.9716 1285.00 1097.93 35.85
1964 25.9808 1068.00 899.72 32.68
1965 25.9900 922.00 769.48 30.36
1966 25.9992 795.00 684.33 28.20
1967 26.0084 725.00 627.05 26.93
1968 26.0176 630.00 586.72 25.10
1969 26.0268 586.00 557.02 24.21
1970 26.0360 551.00 534.38 23.47
1971 26.0452 497.00 516.66 22.29
1972 26.0544 486.00 502.49 22.05
1973 26.0636 520.00 490.99 22.80
1974 26.0728 480.00 481.51 21.91
1975 26.0820 459.00 473.60 21.42
1976 26.0912 501.00 466.92 22.38
1977 26.1004 455.00 461.22 21.33
1978 26.1096 464.00 456.29 21.54
1979 26.1188 450.00 451.99 21.21
1980 26.1280 439.00 448.18 20.95
1981 26.1372 452.00 444.77 21.26
1982 26.1464 452.00 441.68 21.26
1983 26.1556 421.00 438.86 20.52
1984 26.1648 419.00 436.32 20.47
1985 26.1740 407.00 434.66 20.17
1986 26.1832 423.00 432.73 20.57
1987 26.1924 426.00 431.06 20.64
1988 26.2016 412.00 429.60 20.30
1989 26.2107 469.00 428.32 21.66
1990 26.2199 449.00 427.18 21.19
1991 26.2291 432.00 426.17 20.78
1992 26.2383 357.00 425.23 18.89
1993 26.2475 448.00 424.37 21.17
1994 26.2567 461.00 423.57 21.47
1995 26.2659 449.00 422.83 21.19
1996 26.2751 379.00 422.15 19.47
1997 26.2843 418.00 421.50 20.44
1998 26.2935 457.00 420.90 21.38
1999 26.3027 437.00 421.51 20.90
2000 26.3119 460.00 421.04 21.45
2001 26.3211 425.00 420.62 20.62
2002 26.3303 431.00 420.23 20.76
2003 26.3395 431.00 419.89 20.76
2004 26.3487 411.00 419.60 20.27
2005 26.3579 419.00 419.37 20.47
2006 26.3671 436.00 419.13 20.88
2007 26.3763 411.00 418.90 20.27
2008 26.3855 428.00 418.68 20.69
2009 26.3947 419.00 418.49 20.47
2010 26.4039 445.00 418.30 21.09
2011 26.4131 418.00 418.13 20.44
2012 26.4223 400.00 417.98 20.00
2013 26.4315 445.00 417.85 21.09
2014 26.4407 414.00 417.74 20.35
2015 26.4499 382.00 417.64 19.54
2016 26.4591 374.00 417.58 19.34
2017 26.4683 402.00 417.53 20.05
2018 26.4775 419.00 417.51 20.47
2019 26.4867 425.00 417.50 20.62
2020 26.4959 453.00 417.53 21.28
2021 26.5051 417.00 417.58 20.42
2022 26.5143 431.00 417.66 20.76
2023 26.5235 424.00 417.78 20.59
2024 26.5327 398.00 417.93 19.95
2025 26.5419 421.00 418.11 20.52
2026 26.5511 433.00 418.37 20.81
2027 26.5603 389.00 418.65 19.72
2028 26.5695 411.00 418.98 20.27
2029 26.5787 426.00 419.37 20.64
2030 26.5879 418.00 419.85 20.44
2031 26.5971 380.00 420.41 19.49
2032 26.6063 388.00 421.09 19.70
2033 26.6155 409.00 419.11 20.22
2034 26.6247 411.00 420.13 20.27
2035 26.6339 423.00 421.27 20.57
2036 26.6431 412.00 422.52 20.30
2037 26.6523 419.00 423.92 20.47
2038 26.6615 433.00 425.51 20.81
2039 26.6707 421.00 427.32 20.52
2040 26.6799 425.00 429.43 20.62
2041 26.6891 438.00 431.90 20.93
2042 26.6983 446.00 434.83 21.12
2043 26.7075 454.00 438.35 21.31
2044 26.7167 434.00 442.65 20.83
2045 26.7259 450.00 447.99 21.21
2046 26.7351 448.00 454.76 21.17
2047 26.7443 462.00 463.51 21.49
2048 26.7535 466.00 475.00 21.59
2049 26.7627 477.00 490.38 21.84
2050 26.7719 492.00 511.39 22.18
2051 26.7811 543.00 540.71 23.30
2052 26.7903 579.00 582.09 24.06
2053 26.7995 618.00 640.05 24.86
2054 26.8087 761.00 718.30 27.59
2055 26.8179 824.00 816.03 28.71
2056 26.8271 904.00 922.05 30.07
2057 26.8363 920.00 1012.35 30.33
2058 26.8455 874.00 1059.55 29.56
2059 26.8547 935.00 1049.04 30.58
2060 26.8639 953.00 986.51 30.87
2061 26.8731 922.00 895.43 30.36
2062 26.8823 853.00 806.88 29.21
2063 26.8915 794.00 744.32 28.18
2064 26.9007 786.00 716.61 28.04
2065 26.9099 843.00 724.42 29.03
2066 26.9191 898.00 768.18 29.97
2067 26.9283 941.00 850.99 30.68
2068 26.9375 1061.00 976.92 32.57
2069 26.9467 1235.00 1144.11 35.14
2070 26.9559 1342.00 1333.49 36.63
2071 26.9651 1399.00 1501.33 37.40
2072 26.9743 1531.00 1592.72 39.13
2073 26.9835 1466.00 1572.71 38.29
2074 26.9927 1424.00 1444.28 37.74
2075 27.0019 1281.00 1246.07 35.79
2076 27.0111 1191.00 1034.85 34.51
2077 27.0203 1000.00 856.12 31.62
2078 27.0295 861.00 725.67 29.34
2079 27.0387 735.00 637.57 27.11
2080 27.0479 612.00 579.57 24.74
2081 27.0571 580.00 540.88 24.08
2082 27.0663 582.00 514.02 24.12
2083 27.0755 501.00 494.49 22.38
2084 27.0847 516.00 479.72 22.72
2085 27.0939 506.00 468.24 22.49
2086 27.1031 473.00 459.13 21.75
2087 27.1123 450.00 451.82 21.21
2088 27.1215 449.00 445.89 21.19
2089 27.1307 455.00 441.05 21.33
2090 27.1399 444.00 437.13 21.07
2091 27.1491 426.00 434.01 20.64
2092 27.1583 423.00 431.65 20.57
2093 27.1675 390.00 430.05 19.75
2094 27.1767 448.00 429.32 21.17
2095 27.1859 422.00 429.54 20.54
2096 27.1951 441.00 430.79 21.00
2097 27.2043 465.00 432.89 21.56
2098 27.2135 483.00 435.20 21.98
2099 27.2227 458.00 436.64 21.40
2100 27.2319 451.00 436.23 21.24
2101 27.2411 408.00 433.58 20.20
2102 27.2503 423.00 429.11 20.57
2103 27.2595 432.00 423.82 20.78
2104 27.2687 416.00 418.86 20.40
2105 27.2779 412.00 414.86 20.30
2106 27.2871 470.00 411.89 21.68
2107 27.2963 419.00 409.74 20.47
2108 27.3055 458.00 408.15 21.40
2109 27.3147 427.00 406.92 20.66
2110 27.3239 419.00 405.91 20.47
2111 27.3331 432.00 405.07 20.78
2112 27.3423 467.00 404.33 21.61
2113 27.3515 419.00 403.68 20.47
2114 27.3607 449.00 403.09 21.19
2115 27.3699 418.00 403.18 20.44
2116 27.3791 389.00 402.72 19.72
2117 27.3883 445.00 402.30 21.09
2118 27.3975 402.00 401.91 20.05
2119 27.4067 428.00 401.57 20.69
2120 27.4158 417.00 401.26 20.42
2121 27.4250 416.00 400.96 20.40
2122 27.4342 407.00 400.67 20.17
2123 27.4434 400.00 400.39 20.00
2124 27.4526 412.00 400.13 20.30
2125 27.4618 426.00 399.87 20.64
2126 27.4710 426.00 399.63 20.64
2127 27.4802 422.00 399.40 20.54
2128 27.4894 402.00 399.18 20.05
2129 27.4986 422.00 398.97 20.54
2130 27.5078 395.00 398.78 19.87
2131 27.5170 407.00 398.60 20.17
2132 27.5262 459.00 398.43 21.42
2133 27.5354 399.00 398.28 19.98
2134 27.5446 430.00 397.36 20.74
2135 27.5538 415.00 397.26 20.37
2136 27.5630 458.00 397.18 21.40
2137 27.5722 417.00 397.12 20.42
2138 27.5814 383.00 397.10 19.57
2139 27.5906 422.00 397.11 20.54
2140 27.5998 444.00 397.19 21.07
2141 27.6090 426.00 397.35 20.64
2142 27.6182 401.00 397.62 20.02
2143 27.6274 430.00 398.06 20.74
2144 27.6366 467.00 398.72 21.61
2145 27.6458 404.00 399.61 20.10
2146 27.6550 432.00 400.67 20.78
2147 27.6642 432.00 401.69 20.78
2148 27.6734 411.00 402.38 20.27
2149 27.6826 422.00 401.01 20.54
2150 27.6918 450.00 400.51 21.21
2151 27.7010 478.00 399.54 21.86
2152 27.7102 400.00 398.39 20.00
2153 27.7194 428.00 397.38 20.69
2154 27.7286 415.00 396.63 20.37
2155 27.7378 427.00 396.17 20.66
2156 27.7470 409.00 395.93 20.22
2157 27.7562 422.00 395.84 20.54
2158 27.7654 423.00 395.86 20.57
2159 27.7746 400.00 395.98 20.00
2160 27.7838 429.00 396.16 20.71
2161 27.7930 402.00 396.43 20.05
2162 27.8022 434.00 396.78 20.83
2163 27.8114 415.00 397.23 20.37
2164 27.8206 410.00 397.79 20.25
2165 27.8298 421.00 398.48 20.52
2166 27.8390 404.00 399.28 20.10
2167 27.8482 422.00 400.18 20.54
2168 27.8574 411.00 401.19 20.27
2169 27.8666 449.00 402.34 21.19
2170 27.8758 462.00 403.67 21.49
2171 27.8850 429.00 405.23 20.71
2172 27.8942 449.00 407.08 21.19
2173 27.9034 432.00 409.32 20.78
2174 27.9126 432.00 412.03 20.78
2175 27.9218 437.00 415.37 20.90
2176 27.9310 454.00 419.53 21.31
2177 27.9402 436.00 424.87 20.88
2178 27.9494 460.00 431.82 21.45
2179 27.9586 496.00 441.07 22.27
2180 27.9678 489.00 453.68 22.11
2181 27.9770 519.00 471.26 22.78
2182 27.9862 573.00 496.26 23.94
2183 27.9954 604.00 532.20 24.58
2184 28.0046 663.00 583.53 25.75
2185 28.0138 701.00 654.55 26.48
2186 28.0230 813.00 746.31 28.51
2187 28.0322 882.00 851.38 29.70
2188 28.0414 971.00 949.24 31.16
2189 28.0506 944.00 1011.12 30.72
2190 28.0598 954.00 1015.48 30.89
2191 28.0690 876.00 959.62 29.60
2192 28.0782 888.00 860.59 29.80
2193 28.0874 797.00 747.53 28.23
2194 28.0966 700.00 647.00 26.46
2195 28.1058 600.00 571.13 24.49
2196 28.1150 592.00 518.93 24.33
2197 28.1242 524.00 484.43 22.89
2198 28.1334 527.00 461.59 22.96
2199 28.1426 519.00 445.99 22.78
2200 28.1518 433.00 434.83 20.81
2201 28.1610 440.00 439.83 20.98
2202 28.1702 450.00 434.05 21.21
2203 28.1794 437.00 429.69 20.90
2204 28.1886 421.00 426.42 20.52
2205 28.1978 458.00 424.03 21.40
2206 28.2070 484.00 422.48 22.00
2207 28.2162 427.00 421.74 20.66
2208 28.2254 468.00 421.00 21.63
2209 28.2346 423.00 420.37 20.57
2210 28.2438 388.00 419.94 19.70
2211 28.2530 450.00 419.67 21.21
2212 28.2622 402.00 419.45 20.05
2213 28.2714 440.00 419.29 20.98
2214 28.2806 431.00 419.22 20.76
2215 28.2898 431.00 419.26 20.76
2216 28.2990 420.00 419.41 20.49
2217 28.3082 465.00 419.69 21.56
2218 28.3174 474.00 420.10 21.77
2219 28.3266 426.00 420.65 20.64
2220 28.3358 469.00 421.32 21.66
2221 28.3450 423.00 422.10 20.57
2222 28.3542 412.00 423.01 20.30
2223 28.3634 442.00 424.02 21.02
2224 28.3726 407.00 425.17 20.17
2225 28.3818 414.00 426.44 20.35
2226 28.3910 456.00 427.85 21.35
2227 28.4002 459.00 429.45 21.42
2228 28.4094 429.00 431.24 20.71
2229 28.4186 456.00 433.29 21.35
2230 28.4278 459.00 435.65 21.42
2231 28.4370 432.00 438.38 20.78
2232 28.4462 445.00 441.54 21.09
2233 28.4554 433.00 445.10 20.81
2234 28.4646 467.00 448.88 21.61
2235 28.4738 411.00 452.54 20.27
2236 28.4830 482.00 455.83 21.95
2237 28.4922 467.00 458.62 21.61
2238 28.5014 411.00 461.05 20.27
2239 28.5106 452.00 463.48 21.26
2240 28.5198 486.00 466.29 22.05
2241 28.5290 465.00 469.75 21.56
2242 28.5382 439.00 473.95 20.95
2243 28.5474 451.00 478.91 21.24
2244 28.5566 435.00 484.61 20.86
2245 28.5658 447.00 491.10 21.14
2246 28.5750 445.00 498.43 21.09
2247 28.5842 464.00 506.75 21.54
2248 28.5934 498.00 516.29 22.32
2249 28.6026 536.00 527.37 23.15
2250 28.6117 478.00 540.40 21.86
2251 28.6209 493.00 555.83 22.20
2252 28.6301 554.00 573.86 23.54
2253 28.6393 513.00 594.28 22.65
2254 28.6485 587.00 616.82 24.23
2255 28.6577 589.00 641.63 24.27
2256 28.6669 601.00 669.32 24.52
2257 28.6761 577.00 700.77 24.02
2258 28.6853 653.00 737.09 25.55
2259 28.6945 671.00 779.61 25.90
2260 28.7037 719.00 851.93 26.81
2261 28.7129 732.00 913.51 27.06
2262 28.7221 846.00 988.41 29.09
2263 28.7313 952.00 1080.95 30.85
2264 28.7405 1018.00 1197.57 31.91
2265 28.7497 1196.00 1347.80 34.58
2266 28.7589 1489.00 1545.86 38.59
2267 28.7681 1839.00 1811.67 42.88
2268 28.7773 2346.00 2180.60 48.44
2269 28.7865 2933.00 2703.00 54.16
2270 28.7957 4032.00 3453.30 63.50
2271 28.8049 5226.00 4526.01 72.29
2272 28.8141 6716.00 6018.26 81.95
2273 28.8233 8479.00 7963.87 92.08
2274 28.8325 10417.00 10233.20 102.06
2275 28.8417 12085.00 12426.20 109.93
2276 28.8509 13263.00 13934.20 115.17
2277 28.8601 13295.00 14249.20 115.30
2278 28.8693 12754.00 13243.20 112.93
2279 28.8785 11225.00 11220.00 105.95
2280 28.8877 9304.00 8781.52 96.46
2281 28.8969 7617.00 6527.26 87.28
2282 28.9061 5740.00 4777.56 75.76
2283 28.9153 4400.00 3554.17 66.33
2284 28.9245 3357.00 2740.26 57.94
2285 28.9337 2483.00 2203.18 49.83
2286 28.9429 2010.00 1840.44 44.83
2287 28.9521 1589.00 1585.23 39.86
2288 28.9613 1231.00 1397.79 35.09
2289 28.9705 1104.00 1255.43 33.23
2290 28.9797 1023.00 1144.67 31.98
2291 28.9889 838.00 1057.11 28.95
2292 28.9981 812.00 986.68 28.50
2293 29.0073 738.00 929.60 27.17
2294 29.0165 690.00 882.89 26.27
2295 29.0257 635.00 844.49 25.20
2296 29.0349 639.00 812.82 25.28
2297 29.0441 600.00 786.62 24.49
2298 29.0533 613.00 764.90 24.76
2299 29.0625 624.00 746.88 24.98
2300 29.0717 580.00 731.96 24.08
2301 29.0809 561.00 719.77 23.69
2302 29.0901 557.00 710.16 23.60
2303 29.0993 546.00 703.25 23.37
2304 29.1085 514.00 699.34 22.67
2305 29.1177 527.00 698.55 22.96
2306 29.1269 527.00 700.83 22.96
2307 29.1361 572.00 706.09 23.92
2308 29.1453 576.00 714.42 24.00
2309 29.1545 581.00 726.13 24.10
2310 29.1637 545.00 741.73 23.35
2311 29.1729 578.00 761.88 24.04
2312 29.1821 585.00 786.99 24.19
2313 29.1913 582.00 816.76 24.12
2314 29.2005 601.00 850.56 24.52
2315 29.2097 624.00 888.49 24.98
2316 29.2189 613.00 931.39 24.76
2317 29.2281 656.00 980.64 25.61
2318 29.2373 693.00 1038.02 26.32
2319 29.2465 748.00 1105.67 27.35
2320 29.2557 765.00 1186.27 27.66
2321 29.2649 838.00 1283.44 28.95
2322 29.2741 888.00 1401.96 29.80
2323 29.2833 1041.00 1548.55 32.26
2324 29.2925 1148.00 1733.08 33.88
2325 29.3017 1423.00 1969.80 37.72
2326 29.3109 1656.00 2280.74 40.69
2327 29.3201 2124.00 2699.45 46.09
2328 29.3293 2888.00 3277.89 53.74
2329 29.3385 3763.00 4096.63 61.34
2330 29.3477 5143.00 5273.00 71.71
2331 29.3569 7344.00 6961.01 85.70
2332 29.3661 10038.00 9325.40 100.19
2333 29.3753 13751.00 12453.50 117.26
2334 29.3845 17701.00 16192.70 133.04
2335 29.3937 21021.00 19966.80 144.99
2336 29.4029 23550.00 22802.90 153.46
2337 29.4121 24893.00 23781.60 157.77
2338 29.4213 23328.00 22548.20 152.74
2339 29.4305 20714.00 19472.30 143.92
2340 29.4397 17188.00 15485.30 131.10
2341 29.4489 13685.00 11635.80 116.98
2342 29.4581 10242.00 8574.78 101.20
2343 29.4673 7500.00 6438.64 86.60
2344 29.4765 5446.00 5075.07 73.80
2345 29.4857 4355.00 4262.16 65.99
2346 29.4949 3672.00 3800.66 60.60
2347 29.5041 3154.00 3526.83 56.16
2348 29.5133 2860.00 3307.18 53.48
2349 29.5225 2636.00 3057.63 51.34
2350 29.5317 2346.00 2747.12 48.44
2351 29.5409 2177.00 2392.06 46.66
2352 29.5501 1950.00 2038.33 44.16
2353 29.5593 1667.00 1730.15 40.83
2354 29.5685 1518.00 1487.20 38.96
2355 29.5777 1321.00 1288.34 36.35
2356 29.5869 1165.00 1154.54 34.13
2357 29.5961 994.00 1054.47 31.53
2358 29.6053 889.00 977.74 29.82
2359 29.6145 818.00 917.58 28.60
2360 29.6237 773.00 870.22 27.80
2361 29.6329 752.00 834.03 27.42
2362 29.6421 671.00 808.81 25.90
2363 29.6513 694.00 795.21 26.34
2364 29.6605 709.00 793.38 26.63
2365 29.6697 733.00 800.83 27.07
2366 29.6789 703.00 810.65 26.51
2367 29.6881 758.00 812.91 27.53
2368 29.6973 813.00 799.55 28.51
2369 29.7065 705.00 768.36 26.55
2370 29.7157 650.00 723.76 25.50
2371 29.7249 595.00 674.56 24.39
2372 29.7341 600.00 629.38 24.49
2373 29.7433 585.00 592.77 24.19
2374 29.7525 498.00 565.14 22.32
2375 29.7617 529.00 544.27 23.00
2376 29.7709 488.00 528.35 22.09
2377 29.7801 457.00 515.80 21.38
2378 29.7893 513.00 505.50 22.65
2379 29.7985 458.00 496.78 21.40
2380 29.8077 460.00 489.23 21.45
2381 29.8169 458.00 482.58 21.40
2382 29.8260 464.00 476.65 21.54
2383 29.8352 448.00 471.33 21.17
2384 29.8444 448.00 466.52 21.17
2385 29.8536 431.00 462.16 20.76
2386 29.8628 438.00 458.19 20.93
2387 29.8720 417.00 454.57 20.42
2388 29.8812 461.00 451.26 21.47
2389 29.8904 411.00 448.24 20.27
2390 29.8996 432.00 445.48 20.78
2391 29.9088 457.00 442.97 21.38
2392 29.9180 431.00 440.69 20.76
2393 29.9272 429.00 438.64 20.71
2394 29.9364 432.00 436.81 20.78
2395 29.9456 434.00 435.23 20.83
2396 29.9548 392.00 433.90 19.80
2397 29.9640 409.00 432.84 20.22
2398 29.9732 448.00 432.08 21.17
2399 29.9824 451.00 431.65 21.24
2400 29.9916 452.00 431.57 21.26
2401 30.0008 473.00 431.82 21.75
2402 30.0100 436.00 432.37 20.88
2403 30.0192 459.00 433.21 21.42
2404 30.0284 440.00 434.38 20.98
2405 30.0376 445.00 435.96 21.09
2406 30.0468 440.00 438.04 20.98
2407 30.0560 466.00 440.75 21.59
2408 30.0652 437.00 444.23 20.90
2409 30.0744 477.00 448.69 21.84
2410 30.0836 482.00 454.38 21.95
2411 30.0928 473.00 461.68 21.75
2412 30.1020 520.00 471.12 22.80
2413 30.1112 482.00 483.52 21.95
2414 30.1204 522.00 500.07 22.85
2415 30.1296 543.00 522.65 23.30
2416 30.1388 596.00 525.77 24.41
2417 30.1480 639.00 571.54 25.28
2418 30.1572 758.00 637.39 27.53
2419 30.1664 813.00 732.10 28.51
2420 30.1756 906.00 865.06 30.10
2421 30.1848 1116.00 1041.54 33.41
2422 30.1940 1186.00 1253.81 34.44
2423 30.2032 1328.00 1470.95 36.44
2424 30.2124 1542.00 1639.02 39.27
2425 30.2216 1522.00 1704.71 39.01
2426 30.2308 1484.00 1644.55 38.52
2427 30.2400 1303.00 1475.93 36.10
2428 30.2492 1270.00 1247.76 35.64
2429 30.2584 1032.00 1022.35 32.12
2430 30.2676 925.00 837.69 30.41
2431 30.2768 819.00 703.86 28.62
2432 30.2860 767.00 613.08 27.69
2433 30.2952 678.00 553.07 26.04
2434 30.3044 596.00 513.01 24.41
2435 30.3136 554.00 485.42 23.54
2436 30.3228 598.00 465.72 24.45
2437 30.3320 541.00 451.24 23.26
2438 30.3412 495.00 440.47 22.25
2439 30.3504 467.00 432.52 21.61
2440 30.3596 446.00 426.89 21.12
2441 30.3688 492.00 423.35 22.18
2442 30.3780 467.00 421.89 21.61
2443 30.3872 466.00 422.77 21.59
2444 30.3964 474.00 426.57 21.77
2445 30.4056 457.00 434.27 21.38
2446 30.4148 494.00 447.29 22.23
2447 30.4240 491.00 466.99 22.16
2448 30.4332 556.00 495.00 23.58
2449 30.4424 505.00 530.20 22.47
2450 30.4516 579.00 567.88 24.06
2451 30.4608 609.00 598.94 24.68
2452 30.4700 592.00 613.34 24.33
2453 30.4792 618.00 605.55 24.86
2454 30.4884 565.00 577.25 23.77
2455 30.4976 522.00 536.54 22.85
2456 30.5068 560.00 494.15 23.66
2457 30.5160 476.00 458.16 21.82
2458 30.5252 533.00 431.35 23.09
2459 30.5344 458.00 412.75 21.40
2460 30.5436 429.00 400.20 20.71
2461 30.5528 477.00 391.63 21.84
2462 30.5620 435.00 385.58 20.86
2463 30.5712 447.00 381.10 21.14
2464 30.5804 453.00 377.64 21.28
2465 30.5896 493.00 376.55 22.20
2466 30.5988 441.00 374.37 21.00
2467 30.6080 498.00 372.59 22.32
2468 30.6172 496.00 371.10 22.27
2469 30.6264 492.00 369.87 22.18
2470 30.6356 522.00 368.86 22.85
2471 30.6448 497.00 367.96 22.29
2472 30.6540 458.00 367.15 21.40
2473 30.6632 497.00 366.43 22.29
2474 30.6724 480.00 365.79 21.91
2475 30.6816 489.00 365.19 22.11
2476 30.6908 482.00 364.64 21.95
2477 30.7000 477.00 368.78 21.84
2478 30.7092 453.00 368.53 21.28
2479 30.7184 436.00 368.36 20.88
2480 30.7276 416.00 368.27 20.40
2481 30.7368 461.00 368.27 21.47
2482 30.7460 439.00 368.40 20.95
2483 30.7552 410.00 368.68 20.25
2484 30.7644 418.00 368.89 20.44
2485 30.7736 428.00 369.07 20.69
2486 30.7828 409.00 369.26 20.22
2487 30.7920 409.00 369.47 20.22
2488 30.8012 418.00 369.67 20.44
2489 30.8104 438.00 369.87 20.93
2490 30.8196 440.00 370.09 20.98
2491 30.8288 402.00 370.33 20.05
2492 30.8380 389.00 370.60 19.72
2493 30.8472 396.00 370.91 19.90
2494 30.8564 420.00 371.24 20.49
2495 30.8656 408.00 371.62 20.20
2496 30.8748 433.00 372.04 20.81
2497 30.8840 376.00 372.49 19.39
2498 30.8932 411.00 372.99 20.27
2499 30.9024 425.00 373.53 20.62
2500 30.9116 454.00 374.13 21.31
2501 30.9208 427.00 374.78 20.66
2502 30.9300 391.00 375.48 19.77
2503 30.9392 451.00 376.26 21.24
2504 30.9484 416.00 377.10 20.40
2505 30.9576 430.00 376.39 20.74
2506 30.9668 419.00 377.43 20.47
2507 30.9760 411.00 378.56 20.27
2508 30.9852 431.00 379.79 20.76
2509 30.9944 425.00 381.12 20.62
2510 31.0036 439.00 382.58 20.95
2511 31.0128 423.00 384.16 20.57
2512 31.0220 445.00 385.89 21.09
2513 31.0312 415.00 387.81 20.37
2514 31.0404 424.00 389.93 20.59
2515 31.0496 458.00 392.31 21.40
2516 31.0588 440.00 395.00 20.98
2517 31.0679 432.00 398.08 20.78
2518 31.0771 448.00 401.92 21.17
2519 31.0863 412.00 405.91 20.30
2520 31.0955 479.00 410.39 21.89
2521 31.1047 480.00 415.27 21.91
2522 31.1139 469.00 420.65 21.66
2523 31.1231 468.00 426.64 21.63
2524 31.1323 459.00 433.40 21.42
2525 31.1415 502.00 441.12 22.41
2526 31.1507 506.00 450.05 22.49
2527 31.1599 474.00 460.49 21.77
2528 31.1691 519.00 472.91 22.78
2529 31.1783 530.00 487.86 23.02
2530 31.1875 553.00 506.12 23.52
2531 31.1967 574.00 528.68 23.96
2532 31.2059 588.00 556.81 24.25
2533 31.2151 611.00 592.18 24.72
2534 31.2243 709.00 638.61 26.63
2535 31.2335 785.00 701.11 28.02
2536 31.2427 865.00 787.61 29.41
2537 31.2519 950.00 908.90 30.82
2538 31.2611 1201.00 1077.63 34.66
2539 31.2703 1397.00 1303.93 37.38
2540 31.2795 1600.00 1586.11 40.00
2541 31.2887 1849.00 1897.47 43.00
2542 31.2979 1977.00 2180.38 44.46
2543 31.3071 2050.00 2364.33 45.28
2544 31.3163 2142.00 2404.61 46.28
2545 31.3255 2188.00 2307.41 46.78
2546 31.3347 2101.00 2129.77 45.84
2547 31.3439 2028.00 1958.68 45.03
2548 31.3531 2138.00 1875.96 46.24
2549 31.3623 2280.00 1936.08 47.75
2550 31.3715 2513.00 2170.61 50.13
2551 31.3807 2904.00 2598.45 53.89
2552 31.3899 3483.00 3217.96 59.02
2553 31.3991 4062.00 3976.52 63.73
2554 31.4083 4515.00 4737.07 67.19
2555 31.4175 4818.00 5293.42 69.41
2556 31.4267 4850.00 5459.14 69.64
2557 31.4359 4819.00 5166.50 69.42
2558 31.4451 4205.00 4496.47 64.85
2559 31.4543 3450.00 3640.39 58.74
2560 31.4635 2950.00 2809.08 54.31
2561 31.4727 2448.00 2133.85 49.48
2562 31.4819 1922.00 1643.09 43.84
2563 31.4911 1445.00 1307.61 38.01
2564 31.5003 1177.00 1083.02 34.31
2565 31.5095 989.00 930.65 31.45
2566 31.5187 845.00 823.49 29.07
2567 31.5279 719.00 744.83 26.81
2568 31.5371 680.00 684.86 26.08
2569 31.5463 611.00 637.76 24.72
2570 31.5555 583.00 600.04 24.15
2571 31.5647 546.00 569.40 23.37
2572 31.5739 539.00 544.23 23.22
2573 31.5831 544.00 523.34 23.32
2574 31.5923 545.00 505.85 23.35
2575 31.6015 493.00 491.03 22.20
2576 31.6107 470.00 478.38 21.68
2577 31.6199 440.00 467.47 20.98
2578 31.6291 442.00 457.99 21.02
2579 31.6383 455.00 449.68 21.33
2580 31.6475 449.00 450.32 21.19
2581 31.6567 432.00 444.39 20.78
2582 31.6659 423.00 439.55 20.57
2583 31.6751 483.00 435.94 21.98
2584 31.6843 486.00 433.72 22.05
2585 31.6935 463.00 433.03 21.52
2586 31.7027 443.00 434.03 21.05
2587 31.7119 453.00 436.65 21.28
2588 31.7211 464.00 441.44 21.54
2589 31.7303 449.00 449.36 21.19
2590 31.7395 544.00 461.81 23.32
2591 31.7487 524.00 480.80 22.89
2592 31.7579 541.00 508.95 23.26
2593 31.7671 595.00 548.86 24.39
2594 31.7763 645.00 601.56 25.40
2595 31.7855 681.00 663.90 26.10
2596 31.7947 725.00 726.12 26.93
2597 31.8039 752.00 772.87 27.42
2598 31.8131 766.00 789.89 27.68
2599 31.8223 681.00 771.18 26.10
2600 31.8315 723.00 721.89 26.89
2601 31.8407 668.00 656.05 25.85
2602 31.8499 646.00 589.78 25.42
2603 31.8591 578.00 534.02 24.04
2604 31.8683 495.00 492.33 22.25
2605 31.8775 476.00 463.30 21.82
2606 31.8867 475.00 443.77 21.79
2607 31.8959 454.00 430.66 21.31
2608 31.9051 423.00 421.69 20.57
2609 31.9143 403.00 415.36 20.07
2610 31.9235 425.00 410.77 20.62
2611 31.9327 424.00 407.41 20.59
2612 31.9419 390.00 404.94 19.75
2613 31.9511 382.00 403.17 19.54
2614 31.9603 414.00 401.93 20.35
2615 31.9695 397.00 401.15 19.92
2616 31.9787 426.00 400.77 20.64
2617 31.9879 366.00 400.73 19.13
2618 31.9971 413.00 401.01 20.32
2619 32.0063 412.00 401.57 20.30
2620 32.0155 400.00 402.42 20.00
2621 32.0247 419.00 403.52 20.47
2622 32.0339 411.00 404.90 20.27
2623 32.0431 397.00 406.56 19.92
2624 32.0523 434.00 408.54 20.83
2625 32.0615 439.00 409.16 20.95
2626 32.0707 413.00 411.91 20.32
2627 32.0799 403.00 415.09 20.07
2628 32.0891 396.00 418.71 19.90
2629 32.0983 424.00 422.86 20.59
2630 32.1075 416.00 427.60 20.40
2631 32.1167 438.00 433.08 20.93
2632 32.1259 426.00 439.45 20.64
2633 32.1351 428.00 446.97 20.69
2634 32.1443 415.00 455.92 20.37
2635 32.1535 455.00 466.57 21.33
2636 32.1627 476.00 478.96 21.82
2637 32.1719 491.00 486.92 22.16
2638 32.1811 463.00 502.40 21.52
2639 32.1903 496.00 519.45 22.27
2640 32.1995 499.00 538.51 22.34
2641 32.2087 560.00 560.16 23.66
2642 32.2179 568.00 585.20 23.83
2643 32.2271 545.00 614.50 23.35
2644 32.2363 606.00 649.28 24.62
2645 32.2455 660.00 691.03 25.69
2646 32.2547 775.00 741.87 27.84
2647 32.2639 775.00 804.76 27.84
2648 32.2731 917.00 884.11 30.28
2649 32.2823 1068.00 986.49 32.68
2650 32.2915 1209.00 1122.32 34.77
2651 32.3007 1445.00 1307.67 38.01
2652 32.3098 1871.00 1568.06 43.26
2653 32.3190 2401.00 1941.79 49.00
2654 32.3282 2978.00 2480.70 54.57
2655 32.3374 3806.00 3244.96 61.69
2656 32.3466 4892.00 4279.75 69.94
2657 32.3558 5963.00 5573.59 77.22
2658 32.3650 7062.00 6990.33 84.04
2659 32.3742 7970.00 8244.58 89.27
2660 32.3834 8363.00 8982.04 91.45
2661 32.3926 8385.00 8962.16 91.57
2662 32.4018 7632.00 8179.39 87.36
2663 32.4110 6372.00 6865.30 79.82
2664 32.4202 5292.00 5383.17 72.75
2665 32.4294 4251.00 4049.87 65.20
2666 32.4386 3208.00 3015.31 56.64
2667 32.4478 2393.00 2282.42 48.92
2668 32.4570 1815.00 1786.17 42.60
2669 32.4662 1271.00 1453.97 35.65
2670 32.4754 1106.00 1226.80 33.26
2671 32.4846 897.00 1065.52 29.95
2672 32.4938 783.00 946.04 27.98
2673 32.5030 665.00 854.43 25.79
2674 32.5122 623.00 782.20 24.96
2675 32.5214 554.00 724.21 23.54
2676 32.5306 540.00 676.86 23.24
2677 32.5398 519.00 637.73 22.78
2678 32.5490 467.00 605.01 21.61
2679 32.5582 448.00 577.38 21.17
2680 32.5674 464.00 553.40 21.54
2681 32.5766 447.00 533.03 21.14
2682 32.5858 454.00 515.33 21.31
2683 32.5950 464.00 499.66 21.54
2684 32.6042 420.00 485.65 20.49
2685 32.6134 452.00 473.05 21.26
2686 32.6226 430.00 461.80 20.74
2687 32.6318 412.00 452.01 20.30
2688 32.6410 433.00 443.83 20.81
2689 32.6502 424.00 437.24 20.59
2690 32.6594 411.00 432.15 20.27
2691 32.6686 414.00 428.41 20.35
2692 32.6778 433.00 425.95 20.81
2693 32.6870 422.00 424.82 20.54
2694 32.6962 414.00 425.22 20.35
2695 32.7054 421.00 427.52 20.52
2696 32.7146 455.00 432.40 21.33
2697 32.7238 450.00 440.99 21.21
2698 32.7330 444.00 454.97 21.07
2699 32.7422 509.00 476.67 22.56
2700 32.7514 503.00 508.76 22.43
2701 32.7606 549.00 553.24 23.43
2702 32.7698 624.00 609.52 24.98
2703 32.7790 733.00 671.54 27.07
2704 32.7882 745.00 726.49 27.29
2705 32.7974 719.00 758.44 26.81
2706 32.8066 736.00 756.50 27.13
2707 32.8158 709.00 720.24 26.63
2708 32.8250 625.00 659.90 25.00
2709 32.8342 625.00 591.62 25.00
2710 32.8434 538.00 529.78 23.19
2711 32.8526 501.00 481.33 22.38
2712 32.8618 477.00 446.56 21.84
2713 32.8710 412.00 422.64 20.30
2714 32.8802 429.00 406.30 20.71
2715 32.8894 409.00 394.85 20.22
2716 32.8986 386.00 386.49 19.65
2717 32.9078 410.00 380.11 20.25
2718 32.9170 355.00 375.06 18.84
2719 32.9262 376.00 370.94 19.39
2720 32.9354 355.00 367.50 18.84
2721 32.9446 399.00 364.59 19.98
2722 32.9538 378.00 362.08 19.44
2723 32.9630 367.00 359.89 19.16
2724 32.9722 388.00 357.96 19.70
2725 32.9814 370.00 356.24 19.24
2726 32.9906 377.00 354.69 19.42
2727 32.9998 368.00 353.28 19.18
2728 33.0090 353.00 351.97 18.79
2729 33.0182 322.00 350.76 17.94
2730 33.0274 396.00 349.63 19.90
2731 33.0366 354.00 348.58 18.81
2732 33.0458 364.00 347.60 19.08
2733 33.0550 380.00 346.70 19.49
2734 33.0642 389.00 345.88 19.72
2735 33.0734 369.00 345.13 19.21
2736 33.0826 358.00 344.44 18.92
2737 33.0918 356.00 343.79 18.87
2738 33.1010 399.00 343.18 19.98
2739 33.1102 330.00 342.61 18.17
2740 33.1194 369.00 342.07 19.21
2741 33.1286 345.00 341.55 18.57
2742 33.1378 376.00 341.05 19.39
2743 33.1470 373.00 330.39 19.31
2744 33.1562 349.00 330.19 18.68
2745 33.1654 355.00 329.99 18.84
2746 33.1746 341.00 329.80 18.47
2747 33.1838 365.00 329.62 19.10
2748 33.1930 359.00 329.45 18.95
2749 33.2022 354.00 329.28 18.81
2750 33.2114 365.00 329.12 19.10
2751 33.2206 353.00 328.96 18.79
2752 33.2298 357.00 328.81 18.89
2753 33.2390 381.00 328.66 19.52
2754 33.2482 356.00 328.52 18.87
2755 33.2574 369.00 328.38 19.21
2756 33.2666 359.00 328.24 18.95
2757 33.2758 393.00 328.11 19.82
2758 33.2850 373.00 327.98 19.31
2759 33.2942 389.00 327.85 19.72
2760 33.3034 372.00 327.73 19.29
2761 33.3126 347.00 331.27 18.63
2762 33.3218 356.00 331.31 18.87
2763 33.3310 333.00 331.38 18.25
2764 33.3402 366.00 331.47 19.13
2765 33.3494 350.00 331.60 18.71
2766 33.3586 362.00 331.79 19.03
2767 33.3678 392.00 332.06 19.80
2768 33.3770 385.00 332.26 19.62
2769 33.3862 395.00 332.43 19.87
2770 33.3954 409.00 332.58 20.22
2771 33.4046 383.00 332.73 19.57
2772 33.4138 374.00 332.86 19.34
2773 33.4230 370.00 332.97 19.24
2774 33.4322 404.00 335.76 20.10
2775 33.4414 394.00 336.01 19.85
2776 33.4506 401.00 336.27 20.02
2777 33.4598 369.00 336.57 19.21
2778 33.4690 368.00 336.93 19.18
2779 33.4782 392.00 337.34 19.80
2780 33.4874 374.00 337.72 19.34
2781 33.4966 402.00 338.09 20.05
2782 33.5058 392.00 338.46 19.80
2783 33.5150 377.00 338.85 19.42
2784 33.5242 379.00 339.23 19.47
2785 33.5334 372.00 339.62 19.29
2786 33.5426 389.00 340.03 19.72
2787 33.5518 364.00 340.46 19.08
2788 33.5610 384.00 340.91 19.60
2789 33.5702 342.00 340.94 18.49
2790 33.5793 375.00 341.46 19.36
2791 33.5886 387.00 342.02 19.67
2792 33.5977 385.00 342.61 19.62
2793 33.6069 341.00 343.24 18.47
2794 33.6161 347.00 343.92 18.63
2795 33.6253 378.00 344.63 19.44
2796 33.6345 381.00 347.01 19.52
2797 33.6437 355.00 347.90 18.84
2798 33.6529 376.00 348.86 19.39
2799 33.6621 343.00 349.89 18.52
2800 33.6713 395.00 351.02 19.87
2801 33.6805 375.00 355.87 19.36
2802 33.6897 353.00 357.32 18.79
2803 33.6989 398.00 358.86 19.95
2804 33.7081 382.00 360.53 19.54
2805 33.7173 365.00 362.33 19.10
2806 33.7265 386.00 364.32 19.65
2807 33.7357 377.00 366.49 19.42
2808 33.7449 383.00 368.76 19.57
2809 33.7541 381.00 371.15 19.52
2810 33.7633 403.00 373.73 20.07
2811 33.7725 400.00 376.53 20.00
2812 33.7817 371.00 379.57 19.26
2813 33.7909 379.00 382.90 19.47
2814 33.8001 381.00 386.60 19.52
2815 33.8093 377.00 390.78 19.42
2816 33.8185 395.00 395.55 19.87
2817 33.8277 376.00 401.07 19.39
2818 33.8369 408.00 408.01 20.20
2819 33.8461 394.00 415.38 19.85
2820 33.8553 388.00 423.62 19.70
2821 33.8645 448.00 432.67 21.17
2822 33.8737 445.00 442.58 21.09
2823 33.8829 470.00 453.56 21.68
2824 33.8921 453.00 465.91 21.28
2825 33.9013 447.00 480.00 21.14
2826 33.9105 464.00 496.29 21.54
2827 33.9197 528.00 515.37 22.98
2828 33.9289 515.00 538.03 22.69
2829 33.9381 554.00 565.30 23.54
2830 33.9473 577.00 598.63 24.02
2831 33.9565 634.00 640.09 25.18
2832 33.9657 700.00 692.46 26.46
2833 33.9749 754.00 760.33 27.46
2834 33.9841 870.00 850.99 29.50
2835 33.9933 1067.00 977.67 32.67
2836 34.0025 1283.00 1154.63 35.82
2837 34.0117 1587.00 1407.20 39.84
2838 34.0209 1945.00 1763.39 44.10
2839 34.0301 2498.00 2245.42 49.98
2840 34.0393 3194.00 2851.99 56.52
2841 34.0485 3642.00 3531.05 60.35
2842 34.0577 4083.00 4162.03 63.90
2843 34.0669 4344.00 4585.61 65.91
2844 34.0761 4294.00 4679.51 65.53
2845 34.0853 4084.00 4422.21 63.91
2846 34.0945 3746.00 3904.41 61.20
2847 34.1037 3167.00 3290.27 56.28
2848 34.1129 2908.00 2744.43 53.93
2849 34.1221 2625.00 2368.88 51.23
2850 34.1313 2432.00 2198.01 49.32
2851 34.1405 2454.00 2227.33 49.54
2852 34.1497 2638.00 2432.79 51.36
2853 34.1589 2885.00 2768.00 53.71
2854 34.1681 3120.00 3150.70 55.86
2855 34.1773 3234.00 3462.53 56.87
2856 34.1865 3367.00 3589.17 58.03
2857 34.1957 3384.00 3471.45 58.17
2858 34.2049 2987.00 3130.91 54.65
2859 34.2141 2659.00 2658.12 51.57
2860 34.2233 2250.00 2168.39 47.43
2861 34.2325 1912.00 1749.35 43.73
2862 34.2417 1501.00 1433.81 38.74
2863 34.2509 1195.00 1216.14 34.57
2864 34.2601 1126.00 1074.89 33.56
2865 34.2693 973.00 988.29 31.19
2866 34.2785 924.00 939.78 30.40
2867 34.2877 863.00 919.40 29.38
2868 34.2969 904.00 922.73 30.07
2869 34.3061 926.00 949.91 30.43
2870 34.3153 983.00 1005.15 31.35
2871 34.3245 1108.00 1096.86 33.29
2872 34.3337 1297.00 1237.45 36.01
2873 34.3429 1511.00 1441.98 38.87
2874 34.3521 1782.00 1724.17 42.21
2875 34.3613 2174.00 2089.23 46.63
2876 34.3705 2502.00 2523.13 50.02
2877 34.3797 2978.00 2990.80 54.57
2878 34.3889 3342.00 3451.16 57.81
2879 34.3981 3606.00 3882.81 60.05
2880 34.4073 3999.00 4288.72 63.24
2881 34.4165 4464.00 4669.10 66.81
2882 34.4257 4557.00 4982.21 67.51
2883 34.4349 4567.00 5132.98 67.58
2884 34.4441 4362.00 5022.70 66.05
2885 34.4533 4133.00 4617.88 64.29
2886 34.4625 3576.00 3980.36 59.80
2887 34.4717 3016.00 3245.95 54.92
2888 34.4809 2435.00 2556.89 49.35
2889 34.4901 2025.00 1999.79 45.00
2890 34.4993 1720.00 1592.11 41.47
2891 34.5085 1438.00 1313.11 37.92
2892 34.5177 1216.00 1130.22 34.87
2893 34.5269 1122.00 1015.51 33.50
2894 34.5361 935.00 949.87 30.58
2895 34.5453 969.00 922.86 31.13
2896 34.5545 905.00 929.74 30.08
2897 34.5637 995.00 967.33 31.54
2898 34.5729 1038.00 1029.14 32.22
2899 34.5821 1085.00 1100.89 32.94
2900 34.5913 1142.00 1160.03 33.79
2901 34.6005 1100.00 1183.63 33.17
2902 34.6097 1116.00 1159.34 33.41
2903 34.6189 1091.00 1091.24 33.03
2904 34.6281 971.00 997.97 31.16
2905 34.6373 922.00 906.23 30.36
2906 34.6465 875.00 831.85 29.58
2907 34.6557 883.00 786.47 29.72
2908 34.6649 840.00 772.66 28.98
2909 34.6741 843.00 791.24 29.03
2910 34.6833 918.00 844.82 30.30
2911 34.6925 994.00 938.96 31.53
2912 34.7017 1113.00 1081.33 33.36
2913 34.7109 1339.00 1278.42 36.59
2914 34.7201 1534.00 1530.31 39.17
2915 34.7293 1850.00 1819.99 43.01
2916 34.7385 2095.00 2104.21 45.77
2917 34.7477 2233.00 2315.42 47.25
2918 34.7569 2244.00 2389.35 47.37
2919 34.7661 2180.00 2297.26 46.69
2920 34.7753 1917.00 2060.44 43.78
2921 34.7845 1711.00 1741.61 41.36
2922 34.7937 1460.00 1416.30 38.21
2923 34.8029 1145.00 1138.32 33.84
2924 34.8121 1063.00 927.16 32.60
2925 34.8213 827.00 777.53 28.76
2926 34.8305 703.00 675.03 26.51
2927 34.8397 609.00 604.92 24.68
2928 34.8489 649.00 555.81 25.48
2929 34.8581 521.00 515.41 22.83
2930 34.8673 501.00 488.44 22.38
2931 34.8765 465.00 467.35 21.56
2932 34.8857 437.00 450.46 20.90
2933 34.8948 431.00 436.69 20.76
2934 34.9040 427.00 425.28 20.66
2935 34.9132 392.00 415.73 19.80
2936 34.9224 367.00 407.65 19.16
2937 34.9316 389.00 400.76 19.72
2938 34.9408 418.00 394.82 20.44
2939 34.9500 380.00 389.66 19.49
2940 34.9592 390.00 385.13 19.75
2941 34.9684 382.00 377.80 19.54
2942 34.9776 356.00 374.31 18.87
2943 34.9868 410.00 371.23 20.25
2944 34.9960 382.00 368.55 19.54
2945 35.0052 393.00 366.32 19.82
2946 35.0144 359.00 364.56 18.95
2947 35.0236 391.00 363.27 19.77
2948 35.0328 373.00 362.43 19.31
2949 35.0420 381.00 362.02 19.52
2950 35.0512 334.00 362.06 18.28
2951 35.0604 377.00 362.62 19.42
2952 35.0696 378.00 363.82 19.44
2953 35.0788 337.00 365.86 18.36
2954 35.0880 394.00 369.10 19.85
2955 35.0972 338.00 374.06 18.38
2956 35.1064 378.00 381.41 19.44
2957 35.1156 419.00 391.91 20.47
2958 35.1248 449.00 406.04 21.19
2959 35.1340 464.00 423.53 21.54
2960 35.1432 456.00 442.56 21.35
2961 35.1524 479.00 459.58 21.89
2962 35.1616 492.00 470.40 22.18
2963 35.1708 519.00 472.19 22.78
2964 35.1800 452.00 462.99 21.26
2965 35.1892 492.00 449.63 22.18
2966 35.1984 439.00 434.38 20.95
2967 35.2076 434.00 421.11 20.83
2968 35.2168 396.00 411.82 19.90
2969 35.2260 437.00 402.30 20.90
2970 35.2352 418.00 401.30 20.44
2971 35.2444 442.00 403.46 21.02
2972 35.2536 428.00 408.28 20.69
2973 35.2628 396.00 415.56 19.90
2974 35.2720 415.00 425.38 20.37
2975 35.2812 439.00 438.10 20.95
2976 35.2904 433.00 454.40 20.81
2977 35.2996 466.00 475.41 21.59
2978 35.3088 542.00 502.86 23.28
2979 35.3180 584.00 539.59 24.17
2980 35.3272 592.00 590.09 24.33
2981 35.3364 693.00 661.47 26.32
2982 35.3456 834.00 764.20 28.88
2983 35.3548 911.00 912.34 30.18
2984 35.3640 1194.00 1121.16 34.55
2985 35.3732 1541.00 1401.72 39.26
2986 35.3824 1705.00 1748.66 41.29
2987 35.3916 2105.00 2126.14 45.88
2988 35.4008 2256.00 2463.41 47.50
2989 35.4100 2329.00 2670.47 48.26
2990 35.4192 2359.00 2683.73 48.57
2991 35.4284 2170.00 2496.62 46.58
2992 35.4376 1991.00 2162.45 44.62
2993 35.4468 1713.00 1771.12 41.39
2994 35.4560 1454.00 1405.51 38.13
2995 35.4652 1203.00 1111.31 34.68
2996 35.4744 969.00 895.85 31.13
2997 35.4836 813.00 746.57 28.51
2998 35.4928 691.00 645.21 26.29
2999 35.5020 586.00 575.89 24.21
3000 35.5112 539.00 526.86 23.22
3001 35.5204 528.00 490.93 22.98
3002 35.5296 470.00 463.55 21.68
3003 35.5388 401.00 442.03 20.02
3004 35.5480 408.00 422.58 20.20
3005 35.5572 442.00 408.50 21.02
3006 35.5664 417.00 396.83 20.42
3007 35.5756 401.00 387.05 20.02
3008 35.5848 350.00 378.74 18.71
3009 35.5940 423.00 371.61 20.57
3010 35.6032 348.00 365.41 18.65
3011 35.6124 364.00 359.95 19.08
3012 35.6216 356.00 355.08 18.87
3013 35.6308 373.00 350.89 19.31
3014 35.6400 319.00 346.87 17.86
3015 35.6492 372.00 343.21 19.29
3016 35.6584 378.00 339.94 19.44
3017 35.6676 382.00 337.08 19.54
3018 35.6768 370.00 334.62 19.24
3019 35.6860 370.00 332.52 19.24
3020 35.6952 340.00 330.71 18.44
3021 35.7044 339.00 329.12 18.41
3022 35.7136 379.00 327.71 19.47
3023 35.7228 355.00 326.44 18.84
3024 35.7320 327.00 325.29 18.08
3025 35.7412 316.00 324.25 17.78
3026 35.7504 371.00 323.29 19.26
3027 35.7596 345.00 322.40 18.57
3028 35.7688 313.00 321.59 17.69
3029 35.7780 345.00 320.83 18.57
3030 35.7872 298.00 320.14 17.26
3031 35.7964 320.00 319.48 17.89
3032 35.8056 342.00 318.88 18.49
3033 35.8148 316.00 318.31 17.78
3034 35.8240 362.00 317.78 19.03
3035 35.8332 361.00 317.29 19.00
3036 35.8424 328.00 316.82 18.11
3037 35.8516 305.00 316.39 17.46
3038 35.8608 340.00 315.98 18.44
3039 35.8700 315.00 315.59 17.75
3040 35.8792 302.00 315.22 17.38
3041 35.8884 302.00 314.88 17.38
3042 35.8976 343.00 314.55 18.52
3043 35.9068 342.00 314.24 18.49
3044 35.9160 307.00 313.95 17.52
3045 35.9252 306.00 313.68 17.49
3046 35.9344 303.00 313.42 17.41
3047 35.9436 332.00 313.17 18.22
3048 35.9528 344.00 312.94 18.55
3049 35.9620 296.00 312.59 17.20
3050 35.9712 339.00 313.11 18.41
3051 35.9804 295.00 312.95 17.18
3052 35.9896 325.00 312.81 18.03
3053 35.9988 295.00 312.68 17.18
3054 36.0080 329.00 312.58 18.14
3055 36.0172 301.00 312.72 17.35
3056 36.0264 321.00 312.65 17.92
3057 36.0356 294.00 312.58 17.15
3058 36.0448 341.00 312.52 18.47
3059 36.0540 327.00 312.47 18.08
3060 36.0632 337.00 312.44 18.36
3061 36.0724 316.00 312.41 17.78
3062 36.0816 335.00 312.39 18.30
3063 36.0908 314.00 312.39 17.72
3064 36.1000 320.00 312.39 17.89
3065 36.1092 289.00 312.42 17.00
3066 36.1184 289.00 312.46 17.00
3067 36.1276 314.00 312.52 17.72
3068 36.1368 309.00 312.60 17.58
3069 36.1460 320.00 312.70 17.89
3070 36.1552 343.00 313.16 18.52
3071 36.1644 304.00 313.36 17.44
3072 36.1736 356.00 313.61 18.87
3073 36.1828 288.00 313.92 16.97
3074 36.1920 328.00 314.29 18.11
3075 36.2011 324.00 314.73 18.00
3076 36.2104 363.00 312.57 19.05
3077 36.2195 335.00 313.18 18.30
3078 36.2287 312.00 314.04 17.66
3079 36.2379 321.00 314.79 17.92
3080 36.2471 309.00 315.65 17.58
3081 36.2563 307.00 316.64 17.52
3082 36.2655 364.00 317.80 19.08
3083 36.2747 327.00 319.18 18.08
3084 36.2839 345.00 320.83 18.57
3085 36.2931 329.00 322.84 18.14
3086 36.3023 352.00 325.33 18.76
3087 36.3115 324.00 328.69 18.00
3088 36.3207 373.00 332.84 19.31
3089 36.3299 319.00 338.43 17.86
3090 36.3391 386.00 346.21 19.65
3091 36.3483 380.00 357.30 19.49
3092 36.3575 400.00 373.17 20.00
3093 36.3667 418.00 395.52 20.44
3094 36.3759 433.00 425.55 20.81
3095 36.3851 463.00 462.99 21.52
3096 36.3943 548.00 504.51 23.41
3097 36.4035 542.00 542.83 23.28
3098 36.4127 565.00 568.43 23.77
3099 36.4219 539.00 573.80 23.22
3100 36.4311 575.00 557.20 23.98
3101 36.4403 482.00 523.44 21.95
3102 36.4495 495.00 481.73 22.25
3103 36.4587 436.00 441.42 20.88
3104 36.4679 421.00 408.18 20.52
3105 36.4771 393.00 383.57 19.82
3106 36.4863 355.00 366.54 18.84
3107 36.4955 407.00 355.26 20.17
3108 36.5047 345.00 347.95 18.57
3109 36.5139 351.00 343.27 18.74
3110 36.5231 361.00 340.38 19.00
3111 36.5323 352.00 338.71 18.76
3112 36.5415 328.00 337.94 18.11
3113 36.5507 322.00 337.84 17.94
3114 36.5599 353.00 338.32 18.79
3115 36.5691 362.00 339.33 19.03
3116 36.5783 344.00 340.87 18.55
3117 36.5875 363.00 342.98 19.05
3118 36.5967 324.00 345.69 18.00
3119 36.6059 325.00 349.10 18.03
3120 36.6151 302.00 353.33 17.38
3121 36.6243 334.00 358.58 18.28
3122 36.6335 326.00 365.13 18.06
3123 36.6427 355.00 373.41 18.84
3124 36.6519 368.00 384.08 19.18
3125 36.6611 399.00 398.18 19.98
3126 36.6703 405.00 417.35 20.12
3127 36.6795 465.00 444.12 21.56
3128 36.6887 538.00 482.25 23.19
3129 36.6979 576.00 536.64 24.00
3130 36.7071 697.00 612.70 26.40
3131 36.7163 721.00 714.16 26.85
3132 36.7255 869.00 839.77 29.48
3133 36.7347 968.00 978.34 31.11
3134 36.7439 1089.00 1107.18 33.00
3135 36.7531 1109.00 1198.37 33.30
3136 36.7623 1236.00 1232.14 35.16
3137 36.7715 1173.00 1205.91 34.25
3138 36.7807 1107.00 1135.90 33.27
3139 36.7899 1023.00 1046.73 31.98
3140 36.7991 891.00 958.14 29.85
3141 36.8083 837.00 876.84 28.93
3142 36.8175 798.00 800.72 28.25
3143 36.8267 701.00 726.72 26.48
3144 36.8359 611.00 655.91 24.72
3145 36.8451 607.00 592.89 24.64
3146 36.8543 547.00 542.62 23.39
3147 36.8635 530.00 507.44 23.02
3148 36.8727 495.00 487.40 22.25
3149 36.8819 485.00 481.85 22.02
3150 36.8911 514.00 490.47 22.67
3151 36.9003 548.00 513.50 23.41
3152 36.9095 543.00 551.00 23.30
3153 36.9187 649.00 600.91 25.48
3154 36.9279 680.00 657.07 26.08
3155 36.9371 732.00 708.24 27.06
3156 36.9463 731.00 741.67 27.04
3157 36.9555 742.00 749.06 27.24
3158 36.9647 698.00 731.08 26.42
3159 36.9739 705.00 697.41 26.55
3160 36.9831 664.00 662.50 25.77
3161 36.9923 685.00 638.49 26.17
3162 37.0015 712.00 629.53 26.68
3163 37.0107 611.00 631.05 24.72
3164 37.0199 616.00 633.62 24.82
3165 37.0291 538.00 628.66 23.19
3166 37.0383 560.00 612.90 23.66
3167 37.0475 586.00 589.66 24.21
3168 37.0567 555.00 566.91 23.56
3169 37.0659 516.00 553.02 22.72
3170 37.0751 585.00 552.33 24.19
3171 37.0843 620.00 563.08 24.90
3172 37.0935 550.00 577.87 23.45
3173 37.1027 577.00 586.71 24.02
3174 37.1119 588.00 581.46 24.25
3175 37.1211 557.00 559.41 23.60
3176 37.1303 534.00 523.94 23.11
3177 37.1395 466.00 482.58 21.59
3178 37.1487 494.00 443.05 22.23
3179 37.1579 428.00 410.22 20.69
3180 37.1671 400.00 385.29 20.00
3181 37.1763 374.00 367.34 19.34
3182 37.1855 332.00 354.67 18.22
3183 37.1947 351.00 345.68 18.74
3184 37.2039 327.00 339.14 18.08
3185 37.2131 315.00 334.21 17.75
3186 37.2223 322.00 330.37 17.94
3187 37.2315 343.00 327.01 18.52
3188 37.2407 332.00 324.49 18.22
3189 37.2499 338.00 322.39 18.38
3190 37.2591 311.00 320.63 17.64
3191 37.2683 333.00 319.16 18.25
3192 37.2775 304.00 317.92 17.44
3193 37.2867 297.00 316.90 17.23
3194 37.2959 319.00 316.07 17.86
3195 37.3051 291.00 315.41 17.06
3196 37.3143 294.00 314.91 17.15
3197 37.3235 345.00 314.56 18.57
3198 37.3327 323.00 314.36 17.97
3199 37.3419 331.00 314.28 18.19
3200 37.3511 315.00 314.32 17.75
3201 37.3603 275.00 314.48 16.58
3202 37.3695 313.00 314.79 17.69
3203 37.3787 303.00 315.25 17.41
3204 37.3879 302.00 315.89 17.38
3205 37.3971 322.00 317.35 17.94
3206 37.4063 316.00 318.48 17.78
3207 37.4155 336.00 319.91 18.33
3208 37.4247 326.00 321.74 18.06
3209 37.4339 330.00 324.07 18.17
3210 37.4431 344.00 327.08 18.55
3211 37.4523 291.00 331.03 17.06
3212 37.4615 337.00 336.33 18.36
3213 37.4707 386.00 343.65 19.65
3214 37.4799 349.00 354.01 18.68
3215 37.4891 374.00 368.95 19.34
3216 37.4982 401.00 390.43 20.02
3217 37.5075 424.00 420.55 20.59
3218 37.5167 463.00 460.65 21.52
3219 37.5259 481.00 509.91 21.93
3220 37.5350 531.00 563.28 23.04
3221 37.5443 568.00 610.97 23.83
3222 37.5534 590.00 640.91 24.29
3223 37.5626 570.00 644.26 23.87
3224 37.5718 545.00 618.82 23.35
3225 37.5810 509.00 573.19 22.56
3226 37.5902 484.00 518.42 22.00
3227 37.5994 506.00 466.02 22.49
3228 37.6086 408.00 422.76 20.20
3229 37.6178 424.00 390.38 20.59
3230 37.6270 358.00 367.22 18.92
3231 37.6362 366.00 351.54 19.13
3232 37.6454 326.00 340.77 18.06
3233 37.6546 331.00 333.20 18.19
3234 37.6638 334.00 327.68 18.28
3235 37.6730 302.00 323.50 17.38
3236 37.6822 336.00 320.24 18.33
3237 37.6914 322.00 317.64 17.94
3238 37.7006 331.00 315.52 18.19
3239 37.7098 318.00 313.77 17.83
3240 37.7190 311.00 312.31 17.64
3241 37.7282 354.00 311.08 18.81
3242 37.7374 336.00 310.04 18.33
3243 37.7466 325.00 309.15 18.03
3244 37.7558 291.00 308.37 17.06
3245 37.7650 286.00 307.29 16.91
3246 37.7742 289.00 306.70 17.00
3247 37.7834 280.00 306.17 16.73
3248 37.7926 328.00 305.71 18.11
3249 37.8018 296.00 305.32 17.20
3250 37.8110 298.00 305.00 17.26
3251 37.8202 308.00 304.76 17.55
3252 37.8294 286.00 304.58 16.91
3253 37.8386 278.00 304.46 16.67
3254 37.8478 320.00 304.15 17.89
3255 37.8570 300.00 304.14 17.32
3256 37.8662 306.00 304.17 17.49
3257 37.8754 313.00 304.24 17.69
3258 37.8846 307.00 304.35 17.52
3259 37.8938 284.00 304.51 16.85
3260 37.9030 309.00 304.71 17.58
3261 37.9122 294.00 304.96 17.15
3262 37.9214 291.00 305.28 17.06
3263 37.9306 329.00 305.41 18.14
3264 37.9398 311.00 305.88 17.64
3265 37.9490 304.00 306.46 17.44
3266 37.9582 291.00 307.17 17.06
3267 37.9674 350.00 308.04 18.71
3268 37.9766 317.00 309.06 17.80
3269 37.9858 291.00 310.24 17.06
3270 37.9950 293.00 311.56 17.12
3271 38.0042 290.00 313.01 17.03
3272 38.0134 305.00 314.63 17.46
3273 38.0226 277.00 316.46 16.64
3274 38.0318 314.00 318.57 17.72
3275 38.0410 287.00 321.02 16.94
3276 38.0502 306.00 323.91 17.49
3277 38.0594 325.00 327.38 18.03
3278 38.0686 302.00 331.57 17.38
3279 38.0778 320.00 336.72 17.89
3280 38.0870 351.00 343.16 18.74
3281 38.0962 359.00 351.39 18.95
3282 38.1054 351.00 362.23 18.74
3283 38.1146 362.00 376.94 19.03
3284 38.1238 391.00 397.53 19.77
3285 38.1330 465.00 426.96 21.56
3286 38.1422 491.00 469.19 22.16
3287 38.1514 525.00 528.56 22.91
3288 38.1606 615.00 608.45 24.80
3289 38.1698 740.00 708.22 27.20
3290 38.1790 775.00 819.74 27.84
3291 38.1882 883.00 924.68 29.72
3292 38.1974 911.00 998.28 30.18
3293 38.2066 920.00 1019.67 30.33
3294 38.2158 929.00 982.06 30.48
3295 38.2250 812.00 895.77 28.50
3296 38.2342 776.00 784.32 27.86
3297 38.2434 718.00 671.65 26.80
3298 38.2526 578.00 575.39 24.04
3299 38.2618 489.00 501.46 22.11
3300 38.2710 462.00 448.46 21.49
3301 38.2802 435.00 411.81 20.86
3302 38.2894 403.00 386.69 20.07
3303 38.2986 392.00 369.95 19.80
3304 38.3078 373.00 357.34 19.31
3305 38.3170 333.00 347.89 18.25
3306 38.3262 331.00 340.58 18.19
3307 38.3354 327.00 334.78 18.08
3308 38.3446 332.00 330.08 18.22
3309 38.3538 330.00 326.23 18.17
3310 38.3630 324.00 323.01 18.00
3311 38.3722 311.00 320.30 17.64
3312 38.3814 298.00 317.61 17.26
3313 38.3906 265.00 315.61 16.28
3314 38.3998 299.00 313.87 17.29
3315 38.4090 315.00 312.32 17.75
3316 38.4182 284.00 310.92 16.85
3317 38.4274 279.00 309.66 16.70
3318 38.4366 285.00 308.52 16.88
3319 38.4458 300.00 307.49 17.32
3320 38.4550 305.00 306.67 17.46
3321 38.4642 305.00 305.92 17.46
3322 38.4734 290.00 305.29 17.03
3323 38.4826 308.00 304.77 17.55
3324 38.4918 276.00 304.33 16.61
3325 38.5010 299.00 303.97 17.29
3326 38.5102 324.00 303.66 18.00
3327 38.5194 272.00 303.39 16.49
3328 38.5286 314.00 303.17 17.72
3329 38.5378 278.00 302.98 16.67
3330 38.5470 301.00 302.82 17.35
3331 38.5562 286.00 302.69 16.91
3332 38.5654 314.00 302.59 17.72
3333 38.5746 252.00 302.51 15.87
3334 38.5838 267.00 302.46 16.34
3335 38.5930 327.00 302.43 18.08
3336 38.6022 296.00 302.72 17.20
3337 38.6114 342.00 302.75 18.49
3338 38.6206 310.00 302.81 17.61
3339 38.6298 292.00 302.89 17.09
3340 38.6390 320.00 302.99 17.89
3341 38.6482 299.00 303.13 17.29
3342 38.6574 264.00 303.45 16.25
3343 38.6666 300.00 303.64 17.32
3344 38.6758 277.00 303.86 16.64
3345 38.6850 286.00 304.11 16.91
3346 38.6942 265.00 304.38 16.28
3347 38.7034 298.00 304.69 17.26
3348 38.7126 323.00 305.03 17.97
3349 38.7218 300.00 305.42 17.32
3350 38.7310 284.00 305.84 16.85
3351 38.7402 301.00 306.31 17.35
3352 38.7494 291.00 306.83 17.06
3353 38.7586 290.00 307.41 17.03
3354 38.7678 324.00 308.05 18.00
3355 38.7770 313.00 308.78 17.69
3356 38.7862 297.00 309.61 17.23
3357 38.7954 331.00 310.56 18.19
3358 38.8046 306.00 311.66 17.49
3359 38.8138 298.00 312.93 17.26
3360 38.8230 276.00 314.40 16.61
3361 38.8321 301.00 316.06 17.35
3362 38.8414 320.00 317.92 17.89
3363 38.8506 331.00 320.01 18.19
3364 38.8598 318.00 322.35 17.83
3365 38.8689 307.00 325.03 17.52
3366 38.8782 328.00 328.13 18.11
3367 38.8873 338.00 331.74 18.38
3368 38.8965 335.00 336.46 18.30
3369 38.9057 315.00 341.31 17.75
3370 38.9149 333.00 346.95 18.25
3371 38.9241 343.00 353.58 18.52
3372 38.9333 382.00 361.55 19.54
3373 38.9425 362.00 371.32 19.03
3374 38.9517 372.00 383.63 19.29
3375 38.9609 406.00 399.63 20.15
3376 38.9701 441.00 421.07 21.00
3377 38.9793 433.00 450.56 20.81
3378 38.9885 475.00 491.57 21.79
3379 38.9977 528.00 548.20 22.98
3380 39.0069 625.00 623.98 25.00
3381 39.0161 706.00 720.09 26.57
3382 39.0253 817.00 832.15 28.58
3383 39.0345 955.00 947.94 30.90
3384 39.0437 1071.00 1052.42 32.73
3385 39.0529 1091.00 1131.27 33.03
3386 39.0621 1151.00 1182.01 33.93
3387 39.0713 1244.00 1215.65 35.27
3388 39.0805 1215.00 1250.38 34.86
3389 39.0897 1270.00 1299.18 35.64
3390 39.0989 1274.00 1357.06 35.69
3391 39.1081 1346.00 1399.84 36.69
3392 39.1173 1322.00 1398.04 36.36
3393 39.1265 1228.00 1334.30 35.04
3394 39.1357 1055.00 1212.87 32.48
3395 39.1449 1026.00 1056.55 32.03
3396 39.1541 917.00 895.92 30.28
3397 39.1633 784.00 754.95 28.00
3398 39.1725 692.00 644.10 26.31
3399 39.1817 610.00 563.32 24.70
3400 39.1909 518.00 507.36 22.76
3401 39.2001 486.00 469.88 22.05
3402 39.2093 461.00 445.55 21.47
3403 39.2185 446.00 430.69 21.12
3404 39.2277 451.00 423.07 21.24
3405 39.2369 432.00 421.34 20.78
3406 39.2461 458.00 424.28 21.40
3407 39.2553 435.00 430.15 20.86
3408 39.2645 388.00 436.36 19.70
3409 39.2737 417.00 439.97 20.42
3410 39.2829 406.00 438.79 20.15
3411 39.2921 436.00 432.36 20.88
3412 39.3013 440.00 422.14 20.98
3413 39.3105 419.00 410.87 20.47
3414 39.3197 379.00 402.43 19.47
3415 39.3289 409.00 397.07 20.22
3416 39.3381 394.00 397.07 19.85
3417 39.3473 398.00 403.50 19.95
3418 39.3565 409.00 417.65 20.22
3419 39.3657 452.00 441.19 21.26
3420 39.3749 525.00 475.73 22.91
3421 39.3841 560.00 521.82 23.66
3422 39.3933 577.00 577.13 24.02
3423 39.4025 638.00 635.43 25.26
3424 39.4117 708.00 686.68 26.61
3425 39.4209 766.00 720.80 27.68
3426 39.4301 703.00 732.60 26.51
3427 39.4393 666.00 724.04 25.81
3428 39.4485 654.00 702.73 25.57
3429 39.4577 712.00 677.00 26.68
3430 39.4669 675.00 650.99 25.98
3431 39.4761 604.00 623.47 24.58
3432 39.4853 567.00 591.44 23.81
3433 39.4945 551.00 553.80 23.47
3434 39.5037 478.00 512.88 21.86
3435 39.5129 463.00 473.14 21.52
3436 39.5221 456.00 438.79 21.35
3437 39.5313 372.00 411.80 19.29
3438 39.5405 360.00 392.15 18.97
3439 39.5497 364.00 378.67 19.08
3440 39.5589 378.00 369.95 19.44
3441 39.5681 314.00 364.73 17.72
3442 39.5773 337.00 362.14 18.36
3443 39.5865 355.00 361.65 18.84
3444 39.5957 329.00 363.08 18.14
3445 39.6049 338.00 366.50 18.38
3446 39.6141 349.00 372.26 18.68
3447 39.6233 348.00 381.11 18.65
3448 39.6325 399.00 394.32 19.98
3449 39.6417 420.00 413.90 20.49
3450 39.6509 497.00 442.75 22.29
3451 39.6601 481.00 484.42 21.93
3452 39.6693 615.00 542.45 24.80
3453 39.6785 671.00 618.49 25.90
3454 39.6877 771.00 709.73 27.77
3455 39.6969 831.00 805.81 28.83
3456 39.7061 896.00 888.63 29.93
3457 39.7153 910.00 937.47 30.17
3458 39.7245 881.00 938.28 29.68
3459 39.7337 845.00 890.34 29.07
3460 39.7429 793.00 806.73 28.16
3461 39.7521 663.00 708.24 25.75
3462 39.7613 653.00 614.47 25.55
3463 39.7705 553.00 537.28 23.52
3464 39.7797 515.00 478.76 22.69
3465 39.7889 485.00 437.24 22.02
3466 39.7981 427.00 408.87 20.66
3467 39.8073 437.00 389.71 20.90
3468 39.8165 345.00 377.33 18.57
3469 39.8257 370.00 368.50 19.24
3470 39.8349 341.00 362.51 18.47
3471 39.8441 397.00 358.65 19.92
3472 39.8533 372.00 356.57 19.29
3473 39.8625 350.00 356.17 18.71
3474 39.8717 372.00 357.58 19.29
3475 39.8809 381.00 361.17 19.52
3476 39.8901 377.00 367.65 19.42
3477 39.8993 368.00 377.37 19.18
3478 39.9085 422.00 392.80 20.54
3479 39.9177 411.00 414.29 20.27
3480 39.9269 437.00 441.96 20.90
3481 39.9361 479.00 474.09 21.89
3482 39.9453 513.00 506.39 22.65
3483 39.9545 513.00 532.39 22.65
3484 39.9637 485.00 544.77 22.02
3485 39.9729 549.00 542.36 23.43
3486 39.9821 510.00 525.60 22.58
3487 39.9913 487.00 499.95 22.07
3488 40.0005 470.00 472.60 21.68
3489 40.0097 434.00 449.37 20.83
3490 40.0189 393.00 433.37 19.82
3491 40.0281 393.00 425.36 19.82
3492 40.0373 403.00 425.02 20.07
3493 40.0465 420.00 432.08 20.49
3494 40.0557 437.00 446.95 20.90
3495 40.0649 459.00 471.36 21.42
3496 40.0741 495.00 508.64 22.25
3497 40.0833 620.00 563.92 24.90
3498 40.0925 674.00 643.70 25.96
3499 40.1017 749.00 754.19 27.37
3500 40.1109 948.00 898.21 30.79
3501 40.1201 1090.00 1069.98 33.02
3502 40.1293 1244.00 1249.94 35.27
3503 40.1385 1285.00 1404.69 35.85
3504 40.1477 1410.00 1496.94 37.55
3505 40.1569 1374.00 1502.30 37.07
3506 40.1661 1305.00 1421.15 36.12
3507 40.1753 1248.00 1278.71 35.33
3508 40.1845 1037.00 1113.33 32.20
3509 40.1937 943.00 959.26 30.71
3510 40.2029 825.00 834.22 28.72
3511 40.2121 743.00 739.37 27.26
3512 40.2213 677.00 667.11 26.02
3513 40.2305 660.00 608.41 25.69
3514 40.2397 603.00 557.35 24.56
3515 40.2489 543.00 511.82 23.30
3516 40.2580 475.00 472.85 21.79
3517 40.2673 433.00 439.91 20.81
3518 40.2764 449.00 414.31 21.19
3519 40.2856 403.00 394.82 20.07
3520 40.2948 329.00 380.23 18.14
3521 40.3040 366.00 369.30 19.13
3522 40.3132 325.00 361.00 18.03
3523 40.3224 357.00 354.38 18.89
3524 40.3316 355.00 349.33 18.84
3525 40.3408 349.00 345.30 18.68
3526 40.3500 346.00 342.09 18.60
3527 40.3592 315.00 339.54 17.75
3528 40.3684 340.00 337.56 18.44
3529 40.3776 322.00 336.11 17.94
3530 40.3868 339.00 335.17 18.41
3531 40.3960 336.00 334.74 18.33
3532 40.4052 351.00 334.83 18.74
3533 40.4144 330.00 335.45 18.17
3534 40.4236 316.00 336.62 17.78
3535 40.4328 303.00 338.34 17.41
3536 40.4420 327.00 340.63 18.08
3537 40.4512 330.00 343.62 18.17
3538 40.4604 340.00 347.17 18.44
3539 40.4696 348.00 351.52 18.65
3540 40.4788 346.00 356.88 18.60
3541 40.4880 382.00 363.51 19.54
3542 40.4972 365.00 371.83 19.10
3543 40.5064 345.00 382.46 18.57
3544 40.5156 340.00 398.74 18.44
3545 40.5248 404.00 417.44 20.10
3546 40.5340 415.00 443.10 20.37
3547 40.5432 491.00 478.90 22.16
3548 40.5524 479.00 528.79 21.89
3549 40.5616 563.00 597.04 23.73
3550 40.5708 674.00 686.06 25.96
3551 40.5800 802.00 796.72 28.32
3552 40.5892 895.00 922.19 29.92
3553 40.5984 1002.00 1049.55 31.65
3554 40.6076 1087.00 1163.45 32.97
3555 40.6168 1260.00 1252.48 35.50
3556 40.6260 1278.00 1312.97 35.75
3557 40.6352 1347.00 1346.33 36.70
3558 40.6444 1378.00 1352.75 37.12
3559 40.6536 1384.00 1327.35 37.20
3560 40.6628 1361.00 1263.56 36.89
3561 40.6720 1247.00 1160.98 35.31
3562 40.6812 1080.00 1029.86 32.86
3563 40.6904 907.00 889.04 30.12
3564 40.6996 767.00 758.04 27.69
3565 40.7088 659.00 648.99 25.67
3566 40.7180 597.00 565.32 24.43
3567 40.7272 489.00 504.35 22.11
3568 40.7364 421.00 461.23 20.52
3569 40.7456 419.00 430.83 20.47
3570 40.7548 391.00 409.12 19.77
3571 40.7640 348.00 393.13 18.65
3572 40.7732 365.00 381.01 19.10
3573 40.7824 326.00 371.55 18.06
3574 40.7916 342.00 364.04 18.49
3575 40.8008 358.00 357.98 18.92
3576 40.8100 348.00 353.04 18.65
3577 40.8192 343.00 348.78 18.52
3578 40.8284 326.00 345.47 18.06
3579 40.8376 344.00 342.79 18.55
3580 40.8468 324.00 340.73 18.00
3581 40.8560 342.00 339.13 18.49
3582 40.8652 309.00 338.02 17.58
3583 40.8744 345.00 337.41 18.57
3584 40.8836 339.00 337.24 18.41
3585 40.8928 303.00 337.51 17.41
3586 40.9020 318.00 338.21 17.83
3587 40.9112 314.00 339.39 17.72
3588 40.9204 326.00 341.13 18.06
3589 40.9296 334.00 343.55 18.28
3590 40.9388 327.00 346.81 18.08
3591 40.9480 313.00 351.17 17.69
3592 40.9572 379.00 356.98 19.47
3593 40.9664 349.00 364.66 18.68
3594 40.9756 362.00 374.68 19.03
3595 40.9848 380.00 387.40 19.49
3596 40.9940 438.00 402.93 20.93
3597 41.0032 448.00 420.99 21.17
3598 41.0124 397.00 439.85 19.92
3599 41.0216 466.00 461.90 21.59
3600 41.0308 518.00 487.29 22.76
3601 41.0400 538.00 519.33 23.19
3602 41.0492 578.00 562.74 24.04
3603 41.0584 668.00 622.18 25.85
3604 41.0676 729.00 699.26 27.00
3605 41.0768 799.00 789.14 28.27
3606 41.0860 894.00 879.11 29.90
3607 41.0952 932.00 949.41 30.53
3608 41.1044 896.00 981.38 29.93
3609 41.1136 897.00 965.66 29.95
3610 41.1228 894.00 906.64 29.90
3611 41.1320 816.00 820.46 28.57
3612 41.1412 776.00 727.59 27.86
3613 41.1504 611.00 644.53 24.72
3614 41.1596 542.00 579.37 23.28
3615 41.1688 503.00 533.38 22.43
3616 41.1780 522.00 504.02 22.85
3617 41.1872 469.00 487.71 21.66
3618 41.1964 487.00 481.31 22.07
3619 41.2056 451.00 482.67 21.24
3620 41.2148 476.00 490.77 21.82
3621 41.2240 490.00 505.60 22.14
3622 41.2332 485.00 527.95 22.02
3623 41.2424 579.00 559.38 24.06
3624 41.2516 571.00 601.99 23.90
3625 41.2608 628.00 658.47 25.06
3626 41.2700 728.00 732.03 26.98
3627 41.2792 853.00 827.12 29.21
3628 41.2884 984.00 950.43 31.37
3629 41.2976 1137.00 1112.93 33.72
3630 41.3068 1417.00 1329.69 37.64
3631 41.3160 1750.00 1615.38 41.83
3632 41.3252 2104.00 1975.38 45.87
3633 41.3344 2508.00 2390.21 50.08
3634 41.3436 2965.00 2805.14 54.45
3635 41.3528 3290.00 3133.39 57.36
3636 41.3620 3345.00 3287.97 57.84
3637 41.3712 3186.00 3220.93 56.44
3638 41.3804 2882.00 2946.05 53.68
3639 41.3896 2596.00 2533.42 50.95
3640 41.3988 2041.00 2076.94 45.18
3641 41.4080 1685.00 1656.05 41.05
3642 41.4172 1322.00 1312.28 36.36
3643 41.4264 1021.00 1053.39 31.95
3644 41.4356 846.00 868.37 29.09
3645 41.4448 759.00 739.32 27.55
3646 41.4540 608.00 649.49 24.66
3647 41.4632 521.00 585.60 22.83
3648 41.4724 531.00 538.06 23.04
3649 41.4816 471.00 502.37 21.70
3650 41.4908 432.00 474.39 20.78
3651 41.5000 410.00 451.92 20.25
3652 41.5092 392.00 433.61 19.80
3653 41.5184 369.00 418.49 19.21
3654 41.5276 396.00 405.19 19.90
3655 41.5368 347.00 394.76 18.63
3656 41.5460 398.00 386.09 19.95
3657 41.5552 362.00 378.96 19.03
3658 41.5644 350.00 373.15 18.71
3659 41.5736 366.00 368.47 19.13
3660 41.5828 374.00 364.68 19.34
3661 41.5920 337.00 361.54 18.36
3662 41.6012 340.00 358.87 18.44
3663 41.6104 351.00 356.68 18.74
3664 41.6196 315.00 355.24 17.75
3665 41.6287 365.00 355.11 19.10
3666 41.6380 353.00 357.06 18.79
3667 41.6471 408.00 363.75 20.20
3668 41.6564 344.00 371.17 18.55
3669 41.6656 443.00 380.95 21.05
3670 41.6747 401.00 391.55 20.02
3671 41.6839 410.00 400.48 20.25
3672 41.6931 381.00 405.69 19.52
3673 41.7023 371.00 404.08 19.26
3674 41.7115 401.00 396.26 20.02
3675 41.7207 384.00 383.94 19.60
3676 41.7299 392.00 369.83 19.80
3677 41.7391 366.00 356.40 19.13
3678 41.7483 347.00 345.10 18.63
3679 41.7575 312.00 336.33 17.66
3680 41.7667 332.00 329.87 18.22
3681 41.7759 320.00 325.56 17.89
3682 41.7851 325.00 322.21 18.03
3683 41.7943 303.00 319.75 17.41
3684 41.8035 307.00 317.87 17.52
3685 41.8127 328.00 316.40 18.11
3686 41.8219 322.00 315.21 17.94
3687 41.8311 316.00 314.24 17.78
3688 41.8403 309.00 313.43 17.58
3689 41.8495 299.00 312.74 17.29
3690 41.8587 330.00 312.15 18.17
3691 41.8679 363.00 311.66 19.05
3692 41.8771 318.00 311.24 17.83
3693 41.8863 325.00 310.89 18.03
3694 41.8955 289.00 310.54 17.00
3695 41.9047 285.00 310.29 16.88
3696 41.9139 307.00 310.09 17.52
3697 41.9231 339.00 309.93 18.41
3698 41.9323 326.00 309.82 18.06
3699 41.9415 331.00 309.74 18.19
3700 41.9507 329.00 309.71 18.14
3701 41.9599 329.00 309.72 18.14
3702 41.9691 288.00 309.77 16.97
3703 41.9783 296.00 309.22 17.20
3704 41.9875 309.00 309.41 17.58
3705 41.9967 326.00 309.59 18.06
3706 42.0059 302.00 309.81 17.38
3707 42.0151 332.00 310.06 18.22
3708 42.0243 330.00 310.35 18.17
3709 42.0335 334.00 310.68 18.28
3710 42.0427 312.00 311.05 17.66
3711 42.0519 333.00 311.45 18.25
3712 42.0611 317.00 311.90 17.80
3713 42.0703 329.00 312.40 18.14
3714 42.0795 311.00 312.94 17.64
3715 42.0887 311.00 313.54 17.64
3716 42.0979 324.00 314.18 18.00
3717 42.1071 347.00 314.89 18.63
3718 42.1163 343.00 315.66 18.52
3719 42.1255 324.00 316.49 18.00
3720 42.1347 284.00 317.41 16.85
3721 42.1439 322.00 318.41 17.94
3722 42.1531 322.00 319.50 17.94
3723 42.1623 316.00 320.69 17.78
3724 42.1715 308.00 321.86 17.55
3725 42.1807 324.00 323.30 18.00
3726 42.1899 331.00 324.87 18.19
3727 42.1991 333.00 326.61 18.25
3728 42.2083 340.00 328.53 18.44
3729 42.2175 323.00 330.68 17.97
3730 42.2267 298.00 333.10 17.26
3731 42.2359 338.00 332.86 18.38
3732 42.2451 361.00 336.13 19.00
3733 42.2543 359.00 339.89 18.95
3734 42.2635 364.00 344.27 19.08
3735 42.2727 361.00 349.39 19.00
3736 42.2819 387.00 355.27 19.67
3737 42.2911 378.00 361.88 19.44
3738 42.3003 351.00 369.22 18.74
3739 42.3095 396.00 377.33 19.90
3740 42.3187 406.00 386.38 20.15
3741 42.3279 422.00 396.58 20.54
3742 42.3371 406.00 408.21 20.15
3743 42.3463 422.00 421.58 20.54
3744 42.3555 461.00 437.15 21.47
3745 42.3647 477.00 455.49 21.84
3746 42.3739 433.00 477.46 20.81
3747 42.3831 490.00 504.19 22.14
3748 42.3923 587.00 537.46 24.23
3749 42.4015 611.00 579.89 24.72
3750 42.4107 656.00 635.64 25.61
3751 42.4199 784.00 711.23 28.00
3752 42.4291 876.00 816.25 29.60
3753 42.4383 1048.00 964.11 32.37
3754 42.4475 1258.00 1170.60 35.47
3755 42.4567 1469.00 1451.23 38.33
3756 42.4659 1898.00 1813.48 43.57
3757 42.4751 2274.00 2247.26 47.69
3758 42.4843 2737.00 2713.06 52.32
3759 42.4935 2952.00 3140.90 54.33
3760 42.5027 3239.00 3449.04 56.91
3761 42.5119 3388.00 3578.37 58.21
3762 42.5211 3434.00 3517.06 58.60
3763 42.5303 3188.00 3301.97 56.46
3764 42.5395 3083.00 2996.20 55.52
3765 42.5487 2684.00 2659.10 51.81
3766 42.5579 2371.00 2326.23 48.69
3767 42.5671 2036.00 2014.28 45.12
3768 42.5763 1811.00 1733.29 42.56
3769 42.5855 1504.00 1495.41 38.78
3770 42.5947 1258.00 1311.29 35.47
3771 42.6039 1229.00 1185.03 35.06
3772 42.6131 1120.00 1109.98 33.47
3773 42.6223 1087.00 1070.45 32.97
3774 42.6315 1002.00 1045.29 31.65
3775 42.6407 952.00 1014.23 30.85
3776 42.6499 890.00 964.27 29.83
3777 42.6591 854.00 892.93 29.22
3778 42.6683 791.00 807.41 28.12
3779 42.6775 651.00 719.36 25.51
3780 42.6867 611.00 639.31 24.72
3781 42.6959 562.00 572.81 23.71
3782 42.7051 481.00 520.84 21.93
3783 42.7143 482.00 481.57 21.95
3784 42.7235 423.00 452.21 20.57
3785 42.7327 436.00 430.07 20.88
3786 42.7419 398.00 413.06 19.95
3787 42.7511 432.00 399.76 20.78
3788 42.7603 375.00 389.34 19.36
3789 42.7695 393.00 381.33 19.82
3790 42.7787 430.00 375.51 20.74
3791 42.7879 391.00 371.83 19.77
3792 42.7971 380.00 370.36 19.49
3793 42.8063 398.00 371.17 19.95
3794 42.8155 397.00 374.11 19.92
3795 42.8247 344.00 378.56 18.55
3796 42.8339 373.00 383.30 19.31
3797 42.8431 376.00 386.61 19.39
3798 42.8523 374.00 386.87 19.34
3799 42.8615 407.00 383.20 20.17
3800 42.8707 403.00 375.90 20.07
3801 42.8799 358.00 366.26 18.92
3802 42.8891 401.00 355.98 20.02
3803 42.8983 358.00 346.52 18.92
3804 42.9075 359.00 338.63 18.95
3805 42.9167 362.00 332.45 19.03
3806 42.9259 353.00 327.80 18.79
3807 42.9351 363.00 324.33 19.05
3808 42.9443 316.00 321.73 17.78
3809 42.9535 365.00 319.74 19.10
3810 42.9627 360.00 318.18 18.97
3811 42.9719 325.00 316.95 18.03
3812 42.9811 338.00 315.98 18.38
3813 42.9903 319.00 315.24 17.86
3814 42.9995 316.00 314.72 17.78
3815 43.0087 338.00 314.45 18.38
3816 43.0179 322.00 314.55 17.94
3817 43.0271 323.00 314.95 17.97
3818 43.0363 308.00 315.87 17.55
3819 43.0454 324.00 317.52 18.00
3820 43.0547 325.00 320.15 18.03
3821 43.0639 360.00 323.99 18.97
3822 43.0731 324.00 329.16 18.00
3823 43.0822 366.00 335.48 19.13
3824 43.0914 333.00 342.29 18.25
3825 43.1006 337.00 348.38 18.36
3826 43.1098 360.00 352.29 18.97
3827 43.1190 344.00 352.90 18.55
3828 43.1282 374.00 349.91 19.34
3829 43.1374 354.00 344.02 18.81
3830 43.1466 312.00 336.57 17.66
3831 43.1558 342.00 329.02 18.49
3832 43.1650 317.00 322.39 17.80
3833 43.1742 331.00 317.08 18.19
3834 43.1834 336.00 313.13 18.33
3835 43.1926 320.00 310.24 17.89
3836 43.2018 337.00 308.17 18.36
3837 43.2110 313.00 306.66 17.69
3838 43.2202 328.00 305.53 18.11
3839 43.2294 324.00 304.66 18.00
3840 43.2386 339.00 303.95 18.41
3841 43.2478 286.00 303.36 16.91
3842 43.2570 319.00 302.87 17.86
3843 43.2662 304.00 302.44 17.44
3844 43.2754 285.00 302.07 16.88
3845 43.2846 301.00 301.73 17.35
3846 43.2938 307.00 301.44 17.52
3847 43.3030 324.00 301.17 18.00
3848 43.3122 351.00 300.93 18.74
3849 43.3214 341.00 300.71 18.47
3850 43.3306 343.00 300.50 18.52
3851 43.3398 306.00 300.31 17.49
3852 43.3490 304.00 300.14 17.44
3853 43.3582 331.00 299.97 18.19
3854 43.3674 314.00 299.83 17.72
3855 43.3766 277.00 299.69 16.64
3856 43.3858 316.00 299.45 17.78
3857 43.3950 328.00 296.61 18.11
3858 43.4042 331.00 296.57 18.19
3859 43.4134 307.00 296.54 17.52
3860 43.4226 295.00 296.51 17.18
3861 43.4318 294.00 296.49 17.15
3862 43.4410 291.00 295.63 17.06
3863 43.4502 304.00 295.64 17.44
3864 43.4594 318.00 295.65 17.83
3865 43.4686 321.00 295.67 17.92
3866 43.4778 324.00 295.73 18.00
3867 43.4870 329.00 295.75 18.14
3868 43.4962 321.00 295.82 17.92
3869 43.5054 295.00 295.85 17.18
3870 43.5146 272.00 295.89 16.49
3871 43.5238 306.00 295.93 17.49
3872 43.5330 287.00 295.54 16.94
3873 43.5422 307.00 295.60 17.52
3874 43.5514 322.00 295.67 17.94
3875 43.5606 293.00 295.73 17.12
3876 43.5698 298.00 295.81 17.26
3877 43.5790 298.00 295.89 17.26
3878 43.5882 308.00 295.97 17.55
3879 43.5974 281.00 296.06 16.76
3880 43.6066 303.00 296.16 17.41
3881 43.6158 303.00 296.27 17.41
3882 43.6250 281.00 296.40 16.76
3883 43.6342 294.00 296.54 17.15
3884 43.6434 312.00 296.69 17.66
3885 43.6526 325.00 296.87 18.03
3886 43.6618 288.00 297.08 16.97
3887 43.6710 315.00 297.31 17.75
3888 43.6802 294.00 297.57 17.15
3889 43.6894 309.00 297.86 17.58
3890 43.6986 287.00 299.58 16.94
3891 43.7078 307.00 299.97 17.52
3892 43.7170 298.00 300.41 17.26
3893 43.7262 318.00 300.90 17.83
3894 43.7354 307.00 301.46 17.52
3895 43.7446 280.00 302.06 16.73
3896 43.7538 318.00 302.83 17.83
3897 43.7630 319.00 303.71 17.86
3898 43.7722 324.00 304.74 18.00
3899 43.7814 332.00 305.99 18.22
3900 43.7906 333.00 307.56 18.25
3901 43.7998 346.00 309.57 18.60
3902 43.8090 301.00 312.27 17.35
3903 43.8182 364.00 315.99 19.08
3904 43.8274 327.00 321.19 18.08
3905 43.8366 374.00 328.45 19.34
3906 43.8458 358.00 338.33 18.92
3907 43.8550 352.00 351.12 18.76
3908 43.8642 395.00 366.52 19.87
3909 43.8734 370.00 383.16 19.24
3910 43.8826 387.00 398.51 19.67
3911 43.8918 393.00 409.32 19.82
3912 43.9010 415.00 412.92 20.37
3913 43.9102 380.00 408.38 19.49
3914 43.9194 406.00 396.97 20.15
3915 43.9286 400.00 381.57 20.00
3916 43.9378 328.00 365.49 18.11
3917 43.9470 372.00 351.20 19.29
3918 43.9562 319.00 339.90 17.86
3919 43.9654 321.00 331.77 17.92
3920 43.9746 344.00 326.46 18.55
3921 43.9838 353.00 323.51 18.79
3922 43.9930 297.00 323.66 17.23
3923 44.0022 313.00 324.52 17.69
3924 44.0114 320.00 326.93 17.89
3925 44.0206 339.00 330.99 18.41
3926 44.0298 296.00 336.43 17.20
3927 44.0390 353.00 342.64 18.79
3928 44.0482 327.00 348.56 18.08
3929 44.0574 369.00 352.81 19.21
3930 44.0666 361.00 354.23 19.00
3931 44.0758 310.00 352.39 17.61
3932 44.0850 329.00 347.72 18.14
3933 44.0942 350.00 341.37 18.71
3934 44.1034 302.00 334.67 17.38
3935 44.1126 358.00 328.67 18.92
3936 44.1218 318.00 323.87 17.83
3937 44.1310 294.00 320.36 17.15
3938 44.1402 347.00 317.97 18.63
3939 44.1494 322.00 316.46 17.94
3940 44.1586 342.00 315.59 18.49
3941 44.1678 307.00 315.32 17.52
3942 44.1770 343.00 315.24 18.52
3943 44.1862 308.00 315.39 17.55
3944 44.1954 316.00 315.75 17.78
3945 44.2046 347.00 316.28 18.63
3946 44.2138 323.00 316.98 17.97
3947 44.2230 326.00 317.85 18.06
3948 44.2322 312.00 318.91 17.66
3949 44.2414 343.00 320.18 18.52
3950 44.2506 351.00 321.72 18.74
3951 44.2598 352.00 323.59 18.76
3952 44.2690 330.00 325.92 18.17
3953 44.2782 324.00 328.88 18.00
3954 44.2874 356.00 332.73 18.87
3955 44.2966 334.00 337.81 18.28
3956 44.3058 330.00 344.55 18.17
3957 44.3150 365.00 353.35 19.10
3958 44.3242 371.00 364.48 19.26
3959 44.3334 348.00 377.77 18.65
3960 44.3426 356.00 392.48 18.87
3961 44.3518 423.00 407.19 20.57
3962 44.3610 370.00 420.08 19.24
3963 44.3702 462.00 429.37 21.49
3964 44.3794 436.00 433.95 20.88
3965 44.3886 424.00 433.73 20.59
3966 44.3978 423.00 429.80 20.57
3967 44.4070 426.00 423.97 20.64
3968 44.4162 396.00 418.28 19.90
3969 44.4254 434.00 414.54 20.83
3970 44.4346 419.00 413.99 20.47
3971 44.4438 443.00 417.30 21.05
3972 44.4530 435.00 424.81 20.86
3973 44.4622 431.00 436.89 20.76
3974 44.4714 468.00 454.27 21.63
3975 44.4806 477.00 477.93 21.84
3976 44.4897 520.00 510.07 22.80
3977 44.4990 566.00 554.17 23.79
3978 44.5082 626.00 615.64 25.02
3979 44.5173 736.00 701.89 27.13
3980 44.5266 898.00 822.00 29.97
3981 44.5357 1034.00 984.09 32.16
3982 44.5449 1229.00 1191.77 35.06
3983 44.5541 1507.00 1437.36 38.82
3984 44.5633 1732.00 1696.32 41.62
3985 44.5725 1926.00 1925.55 43.89
3986 44.5817 1974.00 2074.65 44.43
3987 44.5909 1909.00 2105.22 43.69
3988 44.6001 1832.00 2008.56 42.80
3989 44.6093 1587.00 1809.34 39.84
3990 44.6185 1393.00 1554.96 37.32
3991 44.6277 1264.00 1295.55 35.55
3992 44.6369 964.00 1066.75 31.05
3993 44.6461 937.00 884.15 30.61
3994 44.6553 708.00 748.34 26.61
3995 44.6645 702.00 651.90 26.50
3996 44.6737 511.00 585.26 22.61
3997 44.6829 526.00 539.53 22.93
3998 44.6921 500.00 507.98 22.36
3999 44.7013 493.00 486.00 22.20
4000 44.7105 465.00 470.69 21.56
4001 44.7197 424.00 460.33 20.59
4002 44.7289 455.00 453.93 21.33
4003 44.7381 451.00 450.99 21.24
4004 44.7473 441.00 451.31 21.00
4005 44.7565 475.00 454.97 21.79
4006 44.7657 483.00 462.38 21.98
4007 44.7749 496.00 474.33 22.27
4008 44.7841 511.00 492.27 22.61
4009 44.7933 555.00 518.62 23.56
4010 44.8025 599.00 557.08 24.47
4011 44.8117 627.00 613.27 25.04
4012 44.8209 717.00 694.22 26.78
4013 44.8301 875.00 807.44 29.58
4014 44.8393 979.00 958.80 31.29
4015 44.8485 1174.00 1147.92 34.26
4016 44.8577 1405.00 1363.39 37.48
4017 44.8669 1614.00 1577.87 40.17
4018 44.8761 1736.00 1751.54 41.67
4019 44.8853 1835.00 1843.91 42.84
4020 44.8945 1822.00 1830.73 42.68
4021 44.9037 1643.00 1714.82 40.53
4022 44.9129 1412.00 1524.91 37.58
4023 44.9221 1277.00 1303.34 35.74
4024 44.9313 1115.00 1089.11 33.39
4025 44.9405 880.00 906.26 29.66
4026 44.9497 810.00 763.48 28.46
4027 44.9589 696.00 658.76 26.38
4028 44.9681 599.00 585.43 24.47
4029 44.9773 582.00 535.83 24.12
4030 44.9865 523.00 503.73 22.87
4031 44.9957 466.00 484.66 21.59
4032 45.0049 473.00 476.07 21.75
4033 45.0141 452.00 476.54 21.26
4034 45.0233 468.00 485.01 21.63
4035 45.0325 511.00 499.78 22.61
4036 45.0417 505.00 517.74 22.47
4037 45.0509 546.00 534.10 23.37
4038 45.0601 523.00 543.41 22.87
4039 45.0693 537.00 541.46 23.17
4040 45.0785 532.00 527.08 23.07
4041 45.0877 505.00 502.55 22.47
4042 45.0969 463.00 472.54 21.52
4043 45.1061 458.00 442.16 21.40
4044 45.1153 415.00 415.07 20.37
4045 45.1245 416.00 392.95 20.40
4046 45.1337 357.00 375.96 18.89
4047 45.1429 361.00 363.41 19.00
4048 45.1521 336.00 354.31 18.33
4049 45.1613 306.00 347.70 17.49
4050 45.1705 337.00 342.83 18.36
4051 45.1797 296.00 339.17 17.20
4052 45.1889 307.00 336.35 17.52
4053 45.1981 340.00 334.18 18.44
4054 45.2073 331.00 332.48 18.19
4055 45.2165 324.00 331.20 18.00
4056 45.2257 330.00 330.29 18.17
4057 45.2349 297.00 329.74 17.23
4058 45.2441 327.00 329.56 18.08
4059 45.2533 345.00 329.77 18.57
4060 45.2625 342.00 330.47 18.49
4061 45.2717 301.00 331.75 17.35
4062 45.2809 315.00 333.93 17.75
4063 45.2901 315.00 337.36 17.75
4064 45.2993 312.00 342.52 17.66
4065 45.3085 389.00 350.21 19.72
4066 45.3177 365.00 361.14 19.10
4067 45.3269 406.00 375.89 20.15
4068 45.3361 431.00 394.45 20.76
4069 45.3453 414.00 415.69 20.35
4070 45.3545 431.00 437.00 20.76
4071 45.3637 472.00 454.37 21.73
4072 45.3729 461.00 463.74 21.47
4073 45.3821 476.00 462.58 21.82
4074 45.3913 446.00 451.05 21.12
4075 45.4005 423.00 431.93 20.57
4076 45.4097 390.00 409.44 19.75
4077 45.4189 372.00 387.54 19.29
4078 45.4281 360.00 368.70 18.97
4079 45.4373 351.00 353.85 18.74
4080 45.4465 321.00 342.80 17.92
4081 45.4557 314.00 334.85 17.72
4082 45.4649 321.00 329.22 17.92
4083 45.4741 294.00 325.19 17.15
4084 45.4833 342.00 322.24 18.49
4085 45.4925 331.00 320.01 18.19
4086 45.5017 290.00 316.53 17.03
4087 45.5109 301.00 315.17 17.35
4088 45.5201 316.00 314.06 17.78
4089 45.5293 292.00 313.14 17.09
4090 45.5385 302.00 312.37 17.38
4091 45.5477 301.00 311.72 17.35
4092 45.5569 295.00 311.30 17.18
4093 45.5661 287.00 310.83 16.94
4094 45.5753 333.00 310.43 18.25
4095 45.5845 304.00 310.10 17.44
4096 45.5937 306.00 309.82 17.49
4097 45.6029 272.00 309.59 16.49
4098 45.6121 295.00 309.43 17.18
4099 45.6213 314.00 309.34 17.72
4100 45.6305 333.00 309.35 18.25
4101 45.6397 326.00 309.48 18.06
4102 45.6489 312.00 309.77 17.66
4103 45.6581 302.00 310.27 17.38
4104 45.6673 316.00 311.06 17.78
4105 45.6765 291.00 312.17 17.06
4106 45.6857 307.00 313.64 17.52
4107 45.6949 302.00 315.39 17.38
4108 45.7041 303.00 317.26 17.41
4109 45.7133 314.00 318.93 17.72
4110 45.7225 380.00 320.13 19.49
4111 45.7317 306.00 320.37 17.49
4112 45.7409 324.00 319.68 18.00
4113 45.7501 319.00 318.22 17.86
4114 45.7593 289.00 316.32 17.00
4115 45.7685 317.00 314.36 17.80
4116 45.7777 316.00 312.61 17.78
4117 45.7869 306.00 311.18 17.49
4118 45.7961 308.00 310.11 17.55
4119 45.8053 286.00 307.93 16.91
4120 45.8145 310.00 307.42 17.61
4121 45.8237 329.00 307.02 18.14
4122 45.8329 322.00 306.80 17.94
4123 45.8421 329.00 306.97 18.14
4124 45.8513 322.00 306.90 17.94
4125 45.8605 321.00 306.87 17.92
4126 45.8697 285.00 306.88 16.88
4127 45.8789 311.00 306.92 17.64
4128 45.8881 299.00 306.99 17.29
4129 45.8973 303.00 307.08 17.41
4130 45.9065 283.00 307.19 16.82
4131 45.9157 313.00 307.31 17.69
4132 45.9249 285.00 307.45 16.88
4133 45.9341 313.00 307.62 17.69
4134 45.9433 348.00 307.80 18.65
4135 45.9525 324.00 308.02 18.00
4136 45.9617 293.00 308.27 17.12
4137 45.9709 335.00 308.56 18.30
4138 45.9800 332.00 308.92 18.22
4139 45.9893 308.00 309.18 17.55
4140 45.9985 309.00 309.73 17.58
4141 46.0076 277.00 310.44 16.64
4142 46.0168 293.00 311.39 17.12
4143 46.0260 280.00 312.68 16.73
4144 46.0352 294.00 314.62 17.15
4145 46.0444 294.00 317.08 17.15
4146 46.0536 307.00 320.40 17.52
4147 46.0628 321.00 324.66 17.92
4148 46.0720 305.00 329.77 17.46
4149 46.0812 322.00 335.31 17.94
4150 46.0904 390.00 340.51 19.75
4151 46.0996 328.00 344.33 18.11
4152 46.1088 356.00 345.91 18.87
4153 46.1180 329.00 344.86 18.14
4154 46.1272 305.00 341.46 17.46
4155 46.1364 329.00 336.57 18.14
4156 46.1456 358.00 331.24 18.92
4157 46.1548 335.00 326.30 18.30
4158 46.1640 342.00 322.22 18.49
4159 46.1732 300.00 319.12 17.32
4160 46.1824 314.00 316.92 17.72
4161 46.1916 298.00 315.42 17.26
4162 46.2008 289.00 314.45 17.00
4163 46.2100 306.00 313.85 17.49
4164 46.2192 297.00 313.51 17.23
4165 46.2284 298.00 313.36 17.26
4166 46.2376 325.00 313.36 18.03
4167 46.2468 320.00 313.48 17.89
4168 46.2560 287.00 313.69 16.94
4169 46.2652 318.00 313.99 17.83
4170 46.2744 312.00 314.37 17.66
4171 46.2836 311.00 314.81 17.64
4172 46.2928 330.00 315.34 18.17
4173 46.3020 304.00 315.81 17.44
4174 46.3112 320.00 316.53 17.89
4175 46.3204 286.00 317.37 16.91
4176 46.3296 339.00 318.37 18.41
4177 46.3388 314.00 319.56 17.72
4178 46.3480 318.00 321.01 17.83
4179 46.3572 327.00 322.79 18.08
4180 46.3664 297.00 325.04 17.23
4181 46.3756 317.00 327.96 17.80
4182 46.3848 332.00 331.87 18.22
4183 46.3940 304.00 337.23 17.44
4184 46.4032 354.00 344.67 18.81
4185 46.4124 350.00 354.95 18.71
4186 46.4216 389.00 368.82 19.72
4187 46.4308 359.00 386.70 18.95
4188 46.4400 436.00 408.27 20.88
4189 46.4492 447.00 431.95 21.14
4190 46.4584 476.00 454.54 21.82
4191 46.4676 521.00 471.83 22.83
4192 46.4768 472.00 479.95 21.73
4193 46.4860 466.00 477.06 21.59
4194 46.4952 447.00 464.11 21.14
4195 46.5044 437.00 444.55 20.90
4196 46.5136 456.00 422.80 21.35
4197 46.5228 402.00 402.71 20.05
4198 46.5320 395.00 386.54 19.87
4199 46.5412 345.00 375.13 18.57
4200 46.5504 386.00 368.40 19.65
4201 46.5596 404.00 366.01 20.10
4202 46.5688 359.00 367.68 18.95
4203 46.5780 369.00 373.36 19.21
4204 46.5872 397.00 383.18 19.92
4205 46.5964 368.00 397.18 19.18
4206 46.6056 433.00 414.91 20.81
4207 46.6148 422.00 434.94 20.54
4208 46.6240 458.00 454.58 21.40
4209 46.6332 457.00 470.38 21.38
4210 46.6424 478.00 479.26 21.86
4211 46.6516 486.00 479.91 22.05
4212 46.6608 510.00 473.50 22.58
4213 46.6700 475.00 463.48 21.79
4214 46.6792 456.00 454.44 21.35
4215 46.6884 422.00 450.80 20.54
4216 46.6976 491.00 456.11 22.16
4217 46.7068 491.00 472.87 22.16
4218 46.7160 501.00 502.43 22.38
4219 46.7252 596.00 544.56 24.41
4220 46.7344 630.00 596.51 25.10
4221 46.7436 659.00 652.03 25.67
4222 46.7528 708.00 700.75 26.61
4223 46.7620 768.00 731.77 27.71
4224 46.7712 720.00 736.95 26.83
4225 46.7804 713.00 714.51 26.70
4226 46.7896 649.00 669.72 25.48
4227 46.7988 598.00 612.77 24.45
4228 46.8080 579.00 554.36 24.06
4229 46.8172 505.00 502.36 22.47
4230 46.8264 455.00 460.45 21.33
4231 46.8356 454.00 429.13 21.31
4232 46.8448 376.00 407.15 19.39
4233 46.8540 358.00 392.65 18.92
4234 46.8632 365.00 383.95 19.10
4235 46.8724 376.00 380.21 19.39
4236 46.8816 357.00 380.32 18.89
4237 46.8908 425.00 384.67 20.62
4238 46.9000 410.00 393.74 20.25
4239 46.9092 419.00 408.16 20.47
4240 46.9184 465.00 428.16 21.56
4241 46.9276 414.00 453.04 20.35
4242 46.9368 532.00 480.43 23.07
4243 46.9460 484.00 506.07 22.00
4244 46.9552 563.00 524.51 23.73
4245 46.9644 516.00 531.04 22.72
4246 46.9736 506.00 523.61 22.49
4247 46.9828 529.00 503.74 23.00
4248 46.9920 477.00 475.86 21.84
4249 47.0012 440.00 445.54 20.98
4250 47.0104 411.00 417.17 20.27
4251 47.0196 405.00 393.38 20.12
4252 47.0288 385.00 374.83 19.62
4253 47.0380 362.00 361.10 19.03
4254 47.0472 334.00 351.20 18.28
4255 47.0564 333.00 344.18 18.25
4256 47.0656 305.00 343.58 17.46
4257 47.0748 332.00 340.05 18.22
4258 47.0840 333.00 337.44 18.25
4259 47.0932 329.00 335.49 18.14
4260 47.1024 360.00 334.03 18.97
4261 47.1116 326.00 332.97 18.06
4262 47.1208 333.00 332.16 18.25
4263 47.1300 329.00 331.55 18.14
4264 47.1392 326.00 331.17 18.06
4265 47.1484 332.00 330.99 18.22
4266 47.1576 328.00 331.04 18.11
4267 47.1668 334.00 331.33 18.28
4268 47.1760 359.00 331.88 18.95
4269 47.1852 332.00 332.66 18.22
4270 47.1944 343.00 333.58 18.52
4271 47.2036 315.00 334.49 17.75
4272 47.2128 323.00 335.17 17.97
4273 47.2220 301.00 335.45 17.35
4274 47.2312 340.00 335.25 18.44
4275 47.2404 319.00 334.60 17.86
4276 47.2496 333.00 333.68 18.25
4277 47.2588 324.00 332.68 18.00
4278 47.2680 310.00 331.80 17.61
4279 47.2772 334.00 331.11 18.28
4280 47.2864 337.00 330.67 18.36
4281 47.2956 330.00 330.47 18.17
4282 47.3048 312.00 330.43 17.66
4283 47.3140 370.00 330.52 19.24
4284 47.3232 313.00 330.73 17.69
4285 47.3324 328.00 331.02 18.11
4286 47.3416 308.00 331.38 17.55
4287 47.3508 333.00 331.81 18.25
4288 47.3600 327.00 332.29 18.08
4289 47.3692 306.00 332.82 17.49
4290 47.3784 323.00 333.40 17.97
4291 47.3876 312.00 334.04 17.66
4292 47.3968 319.00 334.75 17.86
4293 47.4060 330.00 335.52 18.17
4294 47.4152 331.00 336.23 18.19
4295 47.4244 326.00 337.18 18.06
4296 47.4336 338.00 338.25 18.38
4297 47.4428 313.00 339.49 17.69
4298 47.4520 321.00 340.81 17.92
4299 47.4612 298.00 342.24 17.26
4300 47.4704 317.00 343.80 17.80
4301 47.4795 320.00 345.49 17.89
4302 47.4888 345.00 347.33 18.57
4303 47.4979 333.00 349.34 18.25
4304 47.5071 352.00 351.56 18.76
4305 47.5163 344.00 354.04 18.55
4306 47.5255 330.00 356.85 18.17
4307 47.5347 353.00 360.06 18.79
4308 47.5439 350.00 363.78 18.71
4309 47.5531 367.00 368.17 19.16
4310 47.5623 371.00 373.44 19.26
4311 47.5715 363.00 379.93 19.05
4312 47.5807 404.00 388.13 20.10
4313 47.5899 400.00 398.67 20.00
4314 47.5991 390.00 412.84 19.75
4315 47.6083 384.00 431.92 19.60
4316 47.6175 465.00 457.42 21.56
4317 47.6267 465.00 490.71 21.56
4318 47.6359 520.00 532.17 22.80
4319 47.6451 592.00 580.39 24.33
4320 47.6543 647.00 631.12 25.44
4321 47.6635 709.00 677.32 26.63
4322 47.6727 695.00 710.59 26.36
4323 47.6819 702.00 724.56 26.50
4324 47.6911 694.00 717.56 26.34
4325 47.7003 680.00 693.57 26.08
4326 47.7095 615.00 660.45 24.80
4327 47.7187 608.00 628.53 24.66
4328 47.7279 596.00 605.36 24.41
4329 47.7371 617.00 596.20 24.84
4330 47.7463 639.00 603.85 25.28
4331 47.7555 602.00 629.26 24.54
4332 47.7647 689.00 671.64 26.25
4333 47.7739 758.00 727.72 27.53
4334 47.7831 791.00 790.96 28.12
4335 47.7923 806.00 851.46 28.39
4336 47.8015 871.00 898.18 29.51
4337 47.8107 851.00 922.54 29.17
4338 47.8199 904.00 922.00 30.07
4339 47.8291 864.00 901.13 29.39
4340 47.8383 825.00 869.91 28.72
4341 47.8475 810.00 840.27 28.46
4342 47.8567 842.00 821.12 29.02
4343 47.8659 780.00 819.03 27.93
4344 47.8751 807.00 837.66 28.41
4345 47.8843 853.00 879.78 29.21
4346 47.8935 962.00 949.01 31.02
4347 47.9027 1073.00 1051.65 32.76
4348 47.9119 1186.00 1197.70 34.44
4349 47.9211 1441.00 1403.72 37.96
4350 47.9303 1756.00 1689.07 41.90
4351 47.9395 2132.00 2078.67 46.17
4352 47.9487 2668.00 2593.01 51.65
4353 47.9579 3270.00 3238.96 57.18
4354 47.9671 3889.00 3992.59 62.36
4355 47.9763 4728.00 4782.04 68.76
4356 47.9855 5482.00 5486.66 74.04
4357 47.9947 5780.00 5961.84 76.03
4358 48.0039 5830.00 6092.95 76.35
4359 48.0131 5724.00 5843.91 75.66
4360 48.0223 5019.00 5272.59 70.84
4361 48.0315 4295.00 4507.55 65.54
4362 48.0407 3441.00 3694.37 58.66
4363 48.0499 2827.00 2947.05 53.17
4364 48.0591 2320.00 2325.64 48.17
4365 48.0683 1753.00 1844.31 41.87
4366 48.0775 1466.00 1488.91 38.29
4367 48.0867 1174.00 1233.78 34.26
4368 48.0959 947.00 1052.35 30.77
4369 48.1051 819.00 921.95 28.62
4370 48.1143 727.00 826.13 26.96
4371 48.1235 692.00 753.51 26.31
4372 48.1327 632.00 696.93 25.14
4373 48.1419 575.00 651.79 23.98
4374 48.1511 564.00 615.28 23.75
4375 48.1603 513.00 585.52 22.65
4376 48.1695 481.00 561.35 21.93
4377 48.1787 486.00 541.94 22.05
4378 48.1879 496.00 526.71 22.27
4379 48.1971 465.00 515.11 21.56
4380 48.2063 502.00 506.46 22.41
4381 48.2155 446.00 499.81 21.12
4382 48.2247 446.00 493.90 21.12
4383 48.2339 468.00 487.35 21.63
4384 48.2431 451.00 479.10 21.24
4385 48.2523 445.00 468.77 21.09
4386 48.2615 459.00 458.62 21.42
4387 48.2707 437.00 446.16 20.90
4388 48.2799 482.00 434.37 21.95
4389 48.2891 396.00 424.31 19.90
4390 48.2983 396.00 416.62 19.90
4391 48.3075 419.00 411.65 20.47
4392 48.3167 387.00 409.52 19.67
4393 48.3259 399.00 410.28 19.98
4394 48.3351 426.00 413.86 20.64
4395 48.3443 394.00 420.00 19.85
4396 48.3535 430.00 427.93 20.74
4397 48.3627 441.00 436.27 21.00
4398 48.3719 437.00 443.09 20.90
4399 48.3811 457.00 446.38 21.38
4400 48.3903 470.00 444.83 21.68
4401 48.3995 437.00 438.34 20.90
4402 48.4087 442.00 428.05 21.02
4403 48.4179 423.00 415.89 20.57
4404 48.4271 428.00 403.75 20.69
4405 48.4363 388.00 392.98 19.70
4406 48.4455 354.00 384.16 18.81
4407 48.4547 386.00 377.36 19.65
4408 48.4639 402.00 372.30 20.05
4409 48.4731 368.00 368.62 19.18
4410 48.4823 360.00 365.96 18.97
4411 48.4915 337.00 364.05 18.36
4412 48.5007 354.00 362.68 18.81
4413 48.5099 344.00 361.70 18.55
4414 48.5191 325.00 361.06 18.03
4415 48.5283 355.00 360.70 18.84
4416 48.5375 347.00 360.60 18.63
4417 48.5467 338.00 360.75 18.38
4418 48.5559 354.00 361.16 18.81
4419 48.5651 336.00 362.41 18.33
4420 48.5743 317.00 363.33 17.80
4421 48.5835 361.00 364.48 19.00
4422 48.5927 376.00 365.87 19.39
4423 48.6019 357.00 367.53 18.89
4424 48.6111 352.00 369.51 18.76
4425 48.6203 364.00 371.89 19.08
4426 48.6295 375.00 374.74 19.36
4427 48.6387 370.00 377.85 19.24
4428 48.6479 375.00 381.96 19.36
4429 48.6571 389.00 386.87 19.72
4430 48.6663 368.00 392.76 19.18
4431 48.6755 410.00 399.95 20.25
4432 48.6847 375.00 408.90 19.36
4433 48.6939 417.00 420.39 20.42
4434 48.7031 447.00 435.57 21.14
4435 48.7123 468.00 456.04 21.63
4436 48.7215 545.00 483.87 23.35
4437 48.7307 518.00 521.44 22.76
4438 48.7399 608.00 570.64 24.66
4439 48.7491 648.00 632.32 25.46
4440 48.7583 737.00 704.90 27.15
4441 48.7675 785.00 782.72 28.02
4442 48.7767 871.00 857.65 29.51
4443 48.7859 919.00 918.98 30.32
4444 48.7951 927.00 959.47 30.45
4445 48.8043 991.00 978.73 31.48
4446 48.8135 942.00 984.47 30.69
4447 48.8227 991.00 990.60 31.48
4448 48.8319 1036.00 1008.10 32.19
4449 48.8411 1090.00 1044.03 33.02
4450 48.8503 1076.00 1094.26 32.80
4451 48.8595 1141.00 1144.75 33.78
4452 48.8687 1128.00 1176.29 33.59
4453 48.8779 1170.00 1172.52 34.21
4454 48.8871 1057.00 1126.75 32.51
4455 48.8963 1009.00 1044.36 31.76
4456 48.9055 896.00 940.02 29.93
4457 48.9147 782.00 831.21 27.96
4458 48.9239 727.00 731.79 26.96
4459 48.9331 613.00 649.17 24.76
4460 48.9423 574.00 585.22 23.96
4461 48.9515 510.00 538.29 22.58
4462 48.9607 487.00 499.83 22.07
4463 48.9699 487.00 477.26 22.07
4464 48.9791 434.00 462.24 20.83
4465 48.9883 451.00 452.62 21.24
4466 48.9975 473.00 446.86 21.75
4467 49.0066 448.00 443.90 21.17
4468 49.0159 437.00 443.09 20.90
4469 49.0251 435.00 444.09 20.86
4470 49.0343 427.00 446.76 20.66
4471 49.0434 441.00 451.13 21.00
4472 49.0526 449.00 457.33 21.19
4473 49.0618 463.00 465.59 21.52
4474 49.0710 541.00 476.26 23.26
4475 49.0802 455.00 489.85 21.33
4476 49.0894 496.00 507.14 22.27
4477 49.0986 523.00 529.77 22.87
4478 49.1078 563.00 558.79 23.73
4479 49.1170 617.00 597.61 24.84
4480 49.1262 702.00 650.74 26.50
4481 49.1354 764.00 724.78 27.64
4482 49.1446 928.00 828.48 30.46
4483 49.1538 1022.00 972.33 31.97
4484 49.1630 1265.00 1166.02 35.57
4485 49.1722 1546.00 1415.41 39.32
4486 49.1814 1790.00 1715.95 42.31
4487 49.1906 1970.00 2046.78 44.38
4488 49.1998 2309.00 2366.69 48.05
4489 49.2090 2480.00 2618.83 49.80
4490 49.2182 2464.00 2748.47 49.64
4491 49.2274 2399.00 2724.25 48.98
4492 49.2366 2324.00 2553.14 48.21
4493 49.2458 2119.00 2272.21 46.03
4494 49.2550 1937.00 1941.06 44.01
4495 49.2642 1645.00 1614.35 40.56
4496 49.2734 1456.00 1328.09 38.16
4497 49.2826 1177.00 1097.52 34.31
4498 49.2918 984.00 922.51 31.37
4499 49.3010 859.00 795.10 29.31
4500 49.3102 783.00 704.50 27.98
4501 49.3194 688.00 640.30 26.23
4502 49.3286 619.00 594.49 24.88
4503 49.3378 625.00 561.14 25.00
4504 49.3470 564.00 536.43 23.75
4505 49.3562 537.00 517.82 23.17
4506 49.3654 496.00 503.98 22.27
4507 49.3746 495.00 493.92 22.25
4508 49.3838 491.00 487.15 22.16
4509 49.3930 502.00 483.42 22.41
4510 49.4022 463.00 482.73 21.52
4511 49.4114 485.00 485.31 22.02
4512 49.4206 513.00 491.69 22.65
4513 49.4298 561.00 502.79 23.69
4514 49.4390 547.00 520.10 23.39
4515 49.4482 576.00 545.73 24.00
4516 49.4574 613.00 582.57 24.76
4517 49.4666 672.00 633.90 25.92
4518 49.4758 722.00 702.55 26.87
4519 49.4850 853.00 789.37 29.21
4520 49.4942 925.00 891.10 30.41
4521 49.5034 1032.00 998.27 32.12
4522 49.5126 1084.00 1095.25 32.92
4523 49.5218 1083.00 1162.41 32.91
4524 49.5310 1160.00 1184.45 34.06
4525 49.5402 1135.00 1155.68 33.69
4526 49.5494 1024.00 1082.89 32.00
4527 49.5586 998.00 982.38 31.59
4528 49.5678 892.00 873.64 29.87
4529 49.5770 779.00 772.46 27.91
4530 49.5862 720.00 688.00 26.83
4531 49.5954 651.00 623.14 25.51
4532 49.6046 552.00 577.03 23.49
4533 49.6138 572.00 546.88 23.92
4534 49.6230 551.00 529.69 23.47
4535 49.6322 534.00 522.93 23.11
4536 49.6414 553.00 524.80 23.52
4537 49.6506 561.00 533.98 23.69
4538 49.6598 563.00 549.25 23.73
4539 49.6690 564.00 569.17 23.75
4540 49.6782 564.00 591.98 23.75
4541 49.6874 598.00 616.18 24.45
4542 49.6966 629.00 641.63 25.08
4543 49.7058 621.00 670.59 24.92
4544 49.7150 740.00 708.12 27.20
4545 49.7242 762.00 761.33 27.60
4546 49.7334 840.00 837.62 28.98
4547 49.7426 985.00 941.83 31.38
4548 49.7518 1114.00 1073.31 33.38
4549 49.7610 1190.00 1222.73 34.50
4550 49.7702 1412.00 1370.11 37.58
4551 49.7794 1471.00 1489.00 38.35
4552 49.7886 1591.00 1551.98 39.89
4553 49.7978 1557.00 1542.61 39.46
4554 49.8070 1410.00 1461.92 37.55
4555 49.8162 1369.00 1327.70 37.00
4556 49.8254 1193.00 1167.58 34.54
4557 49.8346 1011.00 1007.91 31.80
4558 49.8438 817.00 866.87 28.58
4559 49.8530 758.00 751.81 27.53
4560 49.8622 670.00 664.81 25.88
4561 49.8714 585.00 601.54 24.19
4562 49.8806 543.00 557.04 23.30
4563 49.8898 537.00 526.34 23.17
4564 49.8990 537.00 505.46 23.17
4565 49.9082 460.00 491.52 21.45
4566 49.9174 459.00 482.61 21.42
4567 49.9266 482.00 477.50 21.95
4568 49.9358 435.00 475.44 20.86
4569 49.9450 440.00 476.08 20.98
4570 49.9542 459.00 479.41 21.42
4571 49.9634 414.00 485.89 20.35
4572 49.9726 420.00 496.51 20.49
4573 49.9818 472.00 512.79 21.73
4574 49.9910 490.00 536.75 22.14
4575 50.0002 518.00 570.66 22.76
4576 50.0094 615.00 616.70 24.80
4577 50.0186 641.00 676.33 25.32
4578 50.0278 691.00 747.94 26.29
4579 50.0370 806.00 827.19 28.39
4580 50.0462 941.00 905.08 30.68
4581 50.0554 986.00 969.55 31.40
4582 50.0646 1066.00 1009.02 32.65
4583 50.0738 1055.00 1017.37 32.48
4584 50.0830 1031.00 996.54 32.11
4585 50.0922 922.00 956.53 30.36
4586 50.1014 819.00 912.05 28.62
4587 50.1106 835.00 878.01 28.90
4588 50.1198 845.00 866.91 29.07
4589 50.1290 851.00 888.62 29.17
4590 50.1382 869.00 951.44 29.48
4591 50.1474 1045.00 1062.89 32.33
4592 50.1566 1230.00 1228.35 35.07
4593 50.1658 1466.00 1448.42 38.29
4594 50.1750 1927.00 1714.02 43.90
4595 50.1842 2299.00 2000.85 47.95
4596 50.1934 2553.00 2268.36 50.53
4597 50.2026 2818.00 2463.85 53.08
4598 50.2118 2919.00 2547.91 54.03
4599 50.2210 2783.00 2498.98 52.75
4600 50.2302 2498.00 2328.69 49.98
4601 50.2394 2373.00 2076.92 48.71
4602 50.2486 1917.00 1793.73 43.78
4603 50.2578 1594.00 1522.03 39.92
4604 50.2670 1297.00 1286.98 36.01
4605 50.2762 1038.00 1096.71 32.22
4606 50.2854 892.00 948.14 29.87
4607 50.2946 826.00 833.60 28.74
4608 50.3038 711.00 745.17 26.66
4609 50.3130 649.00 676.38 25.48
4610 50.3222 560.00 622.80 23.66
4611 50.3314 544.00 581.20 23.32
4612 50.3406 518.00 549.28 22.76
4613 50.3498 478.00 525.21 21.86
4614 50.3590 477.00 507.67 21.84
4615 50.3682 485.00 495.65 22.02
4616 50.3774 477.00 488.64 21.84
4617 50.3866 487.00 486.47 22.07
4618 50.3958 501.00 489.34 22.38
4619 50.4050 487.00 497.69 22.07
4620 50.4142 537.00 512.03 23.17
4621 50.4234 552.00 532.69 23.49
4622 50.4326 542.00 559.52 23.28
4623 50.4418 601.00 591.56 24.52
4624 50.4510 606.00 626.70 24.62
4625 50.4602 682.00 661.14 26.12
4626 50.4694 660.00 689.42 25.69
4627 50.4786 640.00 705.41 25.30
4628 50.4878 624.00 704.28 24.98
4629 50.4970 622.00 684.84 24.94
4630 50.5062 585.00 650.04 24.19
4631 50.5154 572.00 605.36 23.92
4632 50.5246 561.00 559.24 23.69
4633 50.5338 525.00 516.64 22.91
4634 50.5429 460.00 480.64 21.45
4635 50.5522 461.00 452.12 21.47
4636 50.5614 421.00 430.54 20.52
4637 50.5706 408.00 414.63 20.20
4638 50.5798 403.00 403.03 20.07
4639 50.5890 416.00 394.50 20.40
4640 50.5981 344.00 388.10 18.55
4641 50.6073 390.00 383.18 19.75
4642 50.6165 403.00 379.28 20.07
4643 50.6257 360.00 376.75 18.97
4644 50.6349 356.00 374.17 18.87
4645 50.6441 346.00 372.02 18.60
4646 50.6533 346.00 370.22 18.60
4647 50.6625 383.00 368.71 19.57
4648 50.6717 338.00 367.44 18.38
4649 50.6809 388.00 366.26 19.70
4650 50.6901 354.00 365.35 18.81
4651 50.6993 338.00 364.61 18.38
4652 50.7085 354.00 364.00 18.81
4653 50.7177 329.00 363.53 18.14
4654 50.7269 343.00 363.22 18.52
4655 50.7361 339.00 363.09 18.41
4656 50.7453 382.00 363.14 19.54
4657 50.7545 376.00 363.40 19.39
4658 50.7637 346.00 363.86 18.60
4659 50.7729 358.00 364.54 18.92
4660 50.7821 353.00 364.36 18.79
4661 50.7913 330.00 365.46 18.17
4662 50.8005 357.00 366.78 18.89
4663 50.8097 344.00 368.34 18.55
4664 50.8189 361.00 370.22 19.00
4665 50.8281 364.00 372.49 19.08
4666 50.8373 363.00 375.28 19.05
4667 50.8465 393.00 378.71 19.82
4668 50.8557 378.00 382.93 19.44
4669 50.8649 364.00 388.11 19.08
4670 50.8741 397.00 394.38 19.92
4671 50.8833 371.00 401.89 19.26
4672 50.8925 421.00 410.83 20.52
4673 50.9017 404.00 421.56 20.10
4674 50.9109 462.00 434.82 21.49
4675 50.9201 469.00 451.83 21.66
4676 50.9293 488.00 474.37 22.09
4677 50.9385 516.00 504.45 22.72
4678 50.9477 536.00 543.79 23.15
4679 50.9569 584.00 592.93 24.17
4680 50.9661 635.00 649.91 25.20
4681 50.9753 702.00 709.69 26.50
4682 50.9845 782.00 764.07 27.96
4683 50.9937 899.00 803.38 29.98
4684 51.0029 755.00 820.02 27.48
4685 51.0121 820.00 811.44 28.64
4686 51.0213 729.00 781.02 27.00
4687 51.0305 679.00 736.74 26.06
4688 51.0397 609.00 687.78 24.68
4689 51.0489 609.00 641.16 24.68
4690 51.0581 548.00 600.32 23.41
4691 51.0673 551.00 567.55 23.47
4692 51.0765 535.00 542.50 23.13
4693 51.0857 481.00 524.99 21.93
4694 51.0949 468.00 515.00 21.63
4695 51.1041 482.00 512.59 21.95
4696 51.1133 538.00 517.84 23.19
4697 51.1225 519.00 530.95 22.78
4698 51.1317 560.00 552.39 23.66
4699 51.1409 588.00 583.10 24.25
4700 51.1501 635.00 624.07 25.20
4701 51.1593 654.00 675.61 25.57
4702 51.1685 731.00 735.95 27.04
4703 51.1777 741.00 799.61 27.22
4704 51.1869 805.00 857.15 28.37
4705 51.1961 755.00 896.79 27.48
4706 51.2053 788.00 906.70 28.07
4707 51.2145 838.00 886.74 28.95
4708 51.2237 764.00 838.51 27.64
4709 51.2329 707.00 771.78 26.59
4710 51.2421 617.00 698.57 24.84
4711 51.2513 604.00 629.24 24.58
4712 51.2605 568.00 569.97 23.83
4713 51.2697 537.00 523.17 23.17
4714 51.2789 507.00 488.39 22.52
4715 51.2881 482.00 464.03 21.95
4716 51.2973 455.00 447.84 21.33
4717 51.3065 490.00 437.61 22.14
4718 51.3157 452.00 431.48 21.26
4719 51.3249 449.00 427.79 21.19
4720 51.3341 424.00 425.23 20.59
4721 51.3433 431.00 422.82 20.76
4722 51.3525 458.00 420.09 21.40
4723 51.3617 406.00 417.08 20.15
4724 51.3709 405.00 414.26 20.12
4725 51.3801 430.00 412.30 20.74
4726 51.3893 378.00 411.92 19.44
4727 51.3985 420.00 413.63 20.49
4728 51.4077 395.00 417.78 19.87
4729 51.4169 419.00 424.45 20.47
4730 51.4261 423.00 433.39 20.57
4731 51.4353 455.00 443.90 21.33
4732 51.4445 453.00 454.72 21.28
4733 51.4537 464.00 464.40 21.54
4734 51.4629 463.00 471.51 21.52
4735 51.4721 466.00 475.38 21.59
4736 51.4813 429.00 476.33 20.71
4737 51.4905 446.00 476.15 21.12
4738 51.4997 471.00 476.98 21.70
4739 51.5089 526.00 481.38 22.93
4740 51.5181 500.00 491.95 22.36
4741 51.5273 501.00 511.44 22.38
4742 51.5365 557.00 542.86 23.60
4743 51.5457 550.00 589.25 23.45
4744 51.5549 597.00 653.42 24.43
4745 51.5641 677.00 736.70 26.02
4746 51.5733 842.00 837.11 29.02
4747 51.5825 950.00 947.65 30.82
4748 51.5917 1026.00 1054.85 32.03
4749 51.6009 1099.00 1140.73 33.15
4750 51.6101 1157.00 1187.53 34.01
4751 51.6193 1175.00 1184.49 34.28
4752 51.6285 1139.00 1132.22 33.75
4753 51.6377 1069.00 1042.39 32.70
4754 51.6469 943.00 933.23 30.71
4755 51.6561 794.00 822.71 28.18
4756 51.6653 690.00 723.39 26.27
4757 51.6745 627.00 641.40 25.04
4758 51.6837 550.00 577.52 23.45
4759 51.6929 494.00 529.66 22.23
4760 51.7021 450.00 494.40 21.21
4761 51.7113 430.00 468.45 20.74
4762 51.7205 439.00 449.10 20.95
4763 51.7297 397.00 434.44 19.92
4764 51.7389 435.00 423.19 20.86
4765 51.7481 372.00 414.49 19.29
4766 51.7573 422.00 407.75 20.54
4767 51.7665 382.00 402.51 19.54
4768 51.7757 392.00 398.42 19.80
4769 51.7849 411.00 395.17 20.27
4770 51.7941 349.00 392.52 18.68
4771 51.8033 366.00 390.32 19.13
4772 51.8125 357.00 388.49 18.89
4773 51.8217 365.00 387.04 19.10
4774 51.8309 385.00 386.07 19.62
4775 51.8401 378.00 385.72 19.44
4776 51.8493 407.00 386.20 20.17
4777 51.8585 333.00 387.79 18.25
4778 51.8677 373.00 390.85 19.31
4779 51.8769 390.00 395.87 19.75
4780 51.8861 417.00 403.38 20.42
4781 51.8953 438.00 413.97 20.93
4782 51.9045 405.00 428.06 20.12
4783 51.9137 460.00 445.65 21.45
4784 51.9229 485.00 466.12 22.02
4785 51.9321 506.00 487.85 22.49
4786 51.9413 502.00 508.41 22.41
4787 51.9505 538.00 525.07 23.19
4788 51.9597 524.00 535.86 22.89
4789 51.9689 584.00 540.22 24.17
4790 51.9781 568.00 539.00 23.83
4791 51.9873 550.00 533.79 23.45
4792 51.9965 536.00 525.80 23.15
4793 52.0057 534.00 515.03 23.11
4794 52.0149 509.00 502.07 22.56
4795 52.0241 538.00 486.54 23.19
4796 52.0333 453.00 469.18 21.28
4797 52.0425 504.00 452.17 22.45
4798 52.0517 404.00 435.48 20.10
4799 52.0609 392.00 421.07 19.80
4800 52.0701 398.00 409.40 19.95
4801 52.0793 391.00 400.48 19.77
4802 52.0885 375.00 393.80 19.36
4803 52.0977 391.00 388.70 19.77
4804 52.1069 375.00 384.81 19.36
4805 52.1161 341.00 381.26 18.47
4806 52.1253 355.00 378.05 18.84
4807 52.1344 377.00 375.13 19.42
4808 52.1437 364.00 372.50 19.08
4809 52.1529 347.00 370.29 18.63
4810 52.1621 379.00 368.45 19.47
4811 52.1712 386.00 366.97 19.65
4812 52.1805 364.00 365.81 19.08
4813 52.1896 344.00 364.91 18.55
4814 52.1988 325.00 364.23 18.03
4815 52.2080 336.00 363.73 18.33
4816 52.2172 372.00 362.92 19.29
4817 52.2264 375.00 362.76 19.36
4818 52.2356 359.00 362.68 18.95
4819 52.2448 380.00 362.73 19.49
4820 52.2540 388.00 362.89 19.70
4821 52.2632 342.00 363.17 18.49
4822 52.2724 365.00 363.57 19.10
4823 52.2816 411.00 364.07 20.27
4824 52.2908 376.00 364.68 19.39
4825 52.3000 355.00 365.75 18.84
4826 52.3092 345.00 366.62 18.57
4827 52.3184 338.00 367.64 18.38
4828 52.3276 341.00 368.83 18.47
4829 52.3368 368.00 370.23 19.18
4830 52.3460 383.00 371.89 19.57
4831 52.3552 355.00 373.85 18.84
4832 52.3644 347.00 376.27 18.63
4833 52.3736 385.00 379.28 19.62
4834 52.3828 399.00 383.12 19.98
4835 52.3920 361.00 388.18 19.00
4836 52.4012 409.00 394.97 20.22
4837 52.4104 431.00 404.77 20.76
4838 52.4196 441.00 417.28 21.00
4839 52.4288 461.00 433.90 21.47
4840 52.4380 458.00 455.29 21.40
4841 52.4472 520.00 481.47 22.80
4842 52.4564 510.00 511.51 22.58
4843 52.4656 564.00 543.04 23.75
4844 52.4748 588.00 573.22 24.25
4845 52.4840 617.00 596.58 24.84
4846 52.4932 605.00 610.84 24.60
4847 52.5024 655.00 615.02 25.59
4848 52.5116 617.00 610.39 24.84
4849 52.5208 591.00 599.45 24.31
4850 52.5300 592.00 584.52 24.33
4851 52.5392 600.00 566.89 24.49
4852 52.5484 506.00 546.96 22.49
4853 52.5576 532.00 525.04 23.07
4854 52.5668 487.00 502.01 22.07
4855 52.5760 472.00 479.28 21.73
4856 52.5852 452.00 458.45 21.26
4857 52.5944 438.00 440.64 20.93
4858 52.6036 442.00 426.38 21.02
4859 52.6128 407.00 415.68 20.17
4860 52.6220 417.00 408.19 20.42
4861 52.6312 423.00 402.72 20.57
4862 52.6404 393.00 400.23 19.82
4863 52.6496 422.00 399.46 20.54
4864 52.6588 370.00 399.89 19.24
4865 52.6680 434.00 400.94 20.83
4866 52.6772 419.00 401.97 20.47
4867 52.6864 399.00 402.39 19.98
4868 52.6956 392.00 401.82 19.80
4869 52.7048 388.00 400.18 19.70
4870 52.7140 373.00 397.67 19.31
4871 52.7232 384.00 394.75 19.60
4872 52.7324 382.00 391.86 19.54
4873 52.7416 392.00 389.38 19.80
4874 52.7508 390.00 387.50 19.75
4875 52.7600 409.00 386.28 20.22
4876 52.7692 385.00 385.69 19.62
4877 52.7784 384.00 385.67 19.60
4878 52.7876 370.00 386.18 19.24
4879 52.7968 426.00 387.17 20.64
4880 52.8060 373.00 388.61 19.31
4881 52.8152 397.00 390.49 19.92
4882 52.8244 386.00 392.82 19.65
4883 52.8336 399.00 395.55 19.98
4884 52.8428 368.00 398.69 19.18
4885 52.8520 392.00 402.21 19.80
4886 52.8612 392.00 406.16 19.80
4887 52.8704 391.00 410.62 19.77
4888 52.8796 424.00 415.71 20.59
4889 52.8888 431.00 421.58 20.76
4890 52.8980 360.00 428.42 18.97
4891 52.9072 395.00 436.46 19.87
4892 52.9164 407.00 446.09 20.17
4893 52.9256 458.00 457.80 21.40
4894 52.9348 470.00 472.37 21.68
4895 52.9440 453.00 490.94 21.28
4896 52.9532 464.00 515.26 21.54
4897 52.9624 532.00 547.71 23.07
4898 52.9716 546.00 591.60 23.37
4899 52.9808 619.00 650.78 24.88
4900 52.9900 682.00 729.76 26.12
4901 52.9992 858.00 831.78 29.29
4902 53.0084 953.00 957.74 30.87
4903 53.0176 1123.00 1103.85 33.51
4904 53.0268 1392.00 1259.03 37.31
4905 53.0360 1520.00 1405.07 38.99
4906 53.0452 1732.00 1519.59 41.62
4907 53.0544 1790.00 1583.13 42.31
4908 53.0636 1683.00 1586.83 41.02
4909 53.0728 1609.00 1535.99 40.11
4910 53.0820 1549.00 1447.63 39.36
4911 53.0912 1386.00 1342.71 37.23
4912 53.1004 1266.00 1238.00 35.58
4913 53.1096 1199.00 1141.47 34.63
4914 53.1188 1064.00 1053.71 32.62
4915 53.1280 1029.00 972.07 32.08
4916 53.1372 846.00 894.39 29.09
4917 53.1464 764.00 821.04 27.64
4918 53.1556 731.00 754.36 27.04
4919 53.1648 732.00 697.26 27.06
4920 53.1740 633.00 651.68 25.16
4921 53.1832 615.00 618.34 24.80
4922 53.1924 597.00 596.72 24.43
4923 53.2016 568.00 585.69 23.83
4924 53.2108 593.00 583.79 24.35
4925 53.2200 627.00 589.54 25.04
4926 53.2292 542.00 601.79 23.28
4927 53.2384 624.00 619.99 24.98
4928 53.2476 628.00 644.51 25.06
4929 53.2568 722.00 676.58 26.87
4930 53.2660 693.00 717.61 26.32
4931 53.2752 837.00 768.23 28.93
4932 53.2844 780.00 826.72 27.93
4933 53.2936 854.00 887.99 29.22
4934 53.3028 920.00 943.74 30.33
4935 53.3120 979.00 984.78 31.29
4936 53.3212 913.00 1004.49 30.22
4937 53.3304 964.00 1002.15 31.05
4938 53.3396 993.00 983.91 31.51
4939 53.3488 934.00 961.29 30.56
4940 53.3580 927.00 947.71 30.45
4941 53.3672 956.00 954.89 30.92
4942 53.3764 1036.00 990.65 32.19
4943 53.3856 1063.00 1057.77 32.60
4944 53.3948 1111.00 1153.62 33.33
4945 53.4040 1339.00 1270.56 36.59
4946 53.4132 1295.00 1393.45 35.99
4947 53.4224 1472.00 1508.20 38.37
4948 53.4316 1599.00 1603.45 39.99
4949 53.4408 1584.00 1675.15 39.80
4950 53.4500 1665.00 1726.92 40.80
4951 53.4592 1747.00 1765.19 41.80
4952 53.4684 1823.00 1792.43 42.70
4953 53.4776 1856.00 1802.32 43.08
4954 53.4868 1849.00 1781.81 43.00
4955 53.4960 1780.00 1718.76 42.19
4956 53.5052 1654.00 1609.78 40.67
4957 53.5144 1533.00 1463.32 39.15
4958 53.5236 1305.00 1297.54 36.12
4959 53.5328 1093.00 1130.60 33.06
4960 53.5420 989.00 978.76 31.45
4961 53.5512 821.00 850.42 28.65
4962 53.5604 723.00 747.91 26.89
4963 53.5696 663.00 669.28 25.75
4964 53.5788 591.00 610.42 24.31
4965 53.5880 518.00 566.94 22.76
4966 53.5972 535.00 534.66 23.13
4967 53.6064 465.00 510.26 21.56
4968 53.6156 458.00 491.35 21.40
4969 53.6248 446.00 476.29 21.12
4970 53.6340 419.00 463.96 20.47
4971 53.6432 439.00 453.65 20.95
4972 53.6524 439.00 444.88 20.95
4973 53.6616 417.00 437.31 20.42
4974 53.6708 417.00 430.73 20.42
4975 53.6800 391.00 424.97 19.77
4976 53.6892 395.00 419.91 19.87
4977 53.6984 389.00 415.43 19.72
4978 53.7076 397.00 411.45 19.92
4979 53.7168 434.00 407.88 20.83
4980 53.7260 372.00 404.67 19.29
4981 53.7352 396.00 401.83 19.90
4982 53.7444 403.00 399.34 20.07
4983 53.7536 366.00 397.18 19.13
4984 53.7628 404.00 395.32 20.10
4985 53.7720 400.00 393.71 20.00
4986 53.7812 387.00 392.34 19.67
4987 53.7904 371.00 391.14 19.26
4988 53.7995 395.00 390.10 19.87
4989 53.8088 443.00 389.19 21.05
4990 53.8179 385.00 388.38 19.62
4991 53.8271 374.00 387.67 19.34
4992 53.8363 380.00 387.04 19.49
4993 53.8456 408.00 386.48 20.20
4994 53.8547 377.00 385.99 19.42
4995 53.8639 398.00 385.55 19.95
4996 53.8731 385.00 385.18 19.62
4997 53.8823 399.00 384.86 19.98
4998 53.8915 372.00 384.58 19.29
4999 53.9007 372.00 384.35 19.29
5000 53.9099 371.00 384.17 19.26
5001 53.9191 396.00 384.03 19.90
5002 53.9283 412.00 383.93 20.30
5003 53.9375 357.00 383.86 18.89
5004 53.9467 357.00 383.84 18.89
5005 53.9559 414.00 383.85 20.35
5006 53.9651 401.00 383.90 20.02
5007 53.9743 397.00 383.99 19.92
5008 53.9835 404.00 384.11 20.10
5009 53.9927 382.00 384.27 19.54
5010 54.0019 406.00 384.47 20.15
5011 54.0111 369.00 384.71 19.21
5012 54.0203 377.00 384.99 19.42
5013 54.0295 372.00 385.32 19.29
5014 54.0387 375.00 385.68 19.36
5015 54.0479 374.00 386.10 19.34
5016 54.0571 372.00 386.56 19.29
5017 54.0663 412.00 387.08 20.30
5018 54.0755 391.00 387.65 19.77
5019 54.0847 357.00 388.29 18.89
5020 54.0939 401.00 388.04 20.02
5021 54.1031 391.00 388.84 19.77
5022 54.1123 408.00 389.72 20.20
5023 54.1215 386.00 390.71 19.65
5024 54.1307 409.00 391.79 20.22
5025 54.1399 357.00 393.00 18.89
5026 54.1491 397.00 394.36 19.92
5027 54.1583 404.00 395.64 20.10
5028 54.1675 395.00 397.42 19.87
5029 54.1767 437.00 399.48 20.90
5030 54.1859 401.00 401.86 20.02
5031 54.1951 389.00 404.62 19.72
5032 54.2043 441.00 407.79 21.00
5033 54.2135 461.00 411.39 21.47
5034 54.2227 403.00 415.41 20.07
5035 54.2319 455.00 419.83 21.33
5036 54.2411 390.00 424.71 19.75
5037 54.2503 445.00 430.11 21.09
5038 54.2595 454.00 439.85 21.31
5039 54.2687 454.00 446.89 21.31
5040 54.2779 490.00 455.02 22.14
5041 54.2871 456.00 464.53 21.35
5042 54.2963 519.00 475.89 22.78
5043 54.3055 513.00 489.67 22.65
5044 54.3147 508.00 506.64 22.54
5045 54.3239 495.00 528.05 22.25
5046 54.3331 597.00 555.74 24.43
5047 54.3423 571.00 592.35 23.90
5048 54.3515 660.00 641.49 25.69
5049 54.3607 711.00 707.33 26.66
5050 54.3699 828.00 795.80 28.77
5051 54.3791 902.00 910.84 30.03
5052 54.3883 1096.00 1054.51 33.11
5053 54.3975 1260.00 1223.58 35.50
5054 54.4067 1473.00 1407.64 38.38
5055 54.4159 1619.00 1587.08 40.24
5056 54.4251 1751.00 1735.92 41.85
5057 54.4343 1893.00 1828.37 43.51
5058 54.4435 1846.00 1848.63 42.97
5059 54.4527 1862.00 1797.55 43.15
5060 54.4619 1700.00 1693.28 41.23
5061 54.4711 1555.00 1564.63 39.43
5062 54.4803 1475.00 1444.35 38.41
5063 54.4895 1307.00 1356.90 36.15
5064 54.4987 1271.00 1317.66 35.65
5065 54.5079 1313.00 1331.32 36.24
5066 54.5171 1413.00 1392.84 37.59
5067 54.5263 1411.00 1487.58 37.56
5068 54.5355 1542.00 1591.16 39.27
5069 54.5447 1650.00 1677.01 40.62
5070 54.5539 1601.00 1717.20 40.01
5071 54.5631 1620.00 1695.12 40.25
5072 54.5723 1497.00 1610.59 38.69
5073 54.5815 1365.00 1475.36 36.95
5074 54.5907 1206.00 1313.33 34.73
5075 54.5999 1076.00 1147.86 32.80
5076 54.6091 939.00 996.31 30.64
5077 54.6183 869.00 868.31 29.48
5078 54.6275 726.00 766.27 26.94
5079 54.6367 743.00 688.36 27.26
5080 54.6459 640.00 630.47 25.30
5081 54.6551 626.00 588.02 25.02
5082 54.6643 617.00 556.74 24.84
5083 54.6735 604.00 533.29 24.58
5084 54.6827 570.00 515.13 23.87
5085 54.6919 537.00 500.56 23.17
5086 54.7011 520.00 488.45 22.80
5087 54.7103 551.00 478.13 23.47
5088 54.7195 547.00 469.51 23.39
5089 54.7287 503.00 461.79 22.43
5090 54.7379 456.00 455.11 21.35
5091 54.7471 490.00 449.36 22.14
5092 54.7563 482.00 444.42 21.95
5093 54.7655 492.00 440.17 22.18
5094 54.7747 487.00 436.50 22.07
5095 54.7839 461.00 433.34 21.47
5096 54.7931 449.00 430.64 21.19
5097 54.8023 432.00 428.37 20.78
5098 54.8115 440.00 426.53 20.98
5099 54.8207 438.00 425.08 20.93
5100 54.8299 423.00 424.01 20.57
5101 54.8391 486.00 423.26 22.05
5102 54.8483 445.00 422.80 21.09
5103 54.8575 470.00 422.59 21.68
5104 54.8667 428.00 422.61 20.69
5105 54.8759 410.00 422.83 20.25
5106 54.8851 494.00 423.24 22.23
5107 54.8943 441.00 426.31 21.00
5108 54.9035 456.00 427.17 21.35
5109 54.9127 437.00 428.22 20.90
5110 54.9219 439.00 429.47 20.95
5111 54.9311 434.00 431.07 20.83
5112 54.9403 481.00 432.76 21.93
5113 54.9495 451.00 434.85 21.24
5114 54.9587 428.00 437.29 20.69
5115 54.9679 405.00 439.67 20.12
5116 54.9771 496.00 442.32 22.27
5117 54.9863 466.00 445.28 21.59
5118 54.9955 452.00 448.61 21.26
5119 55.0047 477.00 452.38 21.84
5120 55.0139 506.00 456.67 22.49
5121 55.0231 454.00 461.62 21.31
5122 55.0323 520.00 467.39 22.80
5123 55.0415 489.00 474.17 22.11
5124 55.0507 534.00 482.16 23.11
5125 55.0599 543.00 491.58 23.30
5126 55.0691 506.00 502.60 22.49
5127 55.0783 557.00 515.31 23.60
5128 55.0875 599.00 529.73 24.47
5129 55.0967 558.00 545.92 23.62
5130 55.1059 587.00 564.05 24.23
5131 55.1151 600.00 585.49 24.49
5132 55.1243 592.00 608.41 24.33
5133 55.1335 704.00 634.24 26.53
5134 55.1427 685.00 663.44 26.17
5135 55.1519 666.00 696.58 25.81
5136 55.1611 790.00 734.74 28.11
5137 55.1703 771.00 779.72 27.77
5138 55.1795 929.00 834.67 30.48
5139 55.1887 982.00 904.50 31.34
5140 55.1979 1071.00 996.65 32.73
5141 55.2071 1186.00 1121.47 34.44
5142 55.2163 1392.00 1292.93 37.31
5143 55.2255 1618.00 1527.94 40.22
5144 55.2347 1994.00 1844.48 44.65
5145 55.2439 2442.00 2258.06 49.42
5146 55.2531 2976.00 2774.15 54.55
5147 55.2623 3444.00 3380.49 58.69
5148 55.2715 4096.00 4036.81 64.00
5149 55.2807 4458.00 4670.82 66.77
5150 55.2899 4958.00 5185.86 70.41
5151 55.2991 4971.00 5486.36 70.51
5152 55.3083 5065.00 5509.85 71.17
5153 55.3175 4764.00 5251.51 69.02
5154 55.3267 4322.00 4765.87 65.74
5155 55.3359 3942.00 4146.27 62.79
5156 55.3451 3340.00 3490.91 57.79
5157 55.3543 2842.00 2877.32 53.31
5158 55.3635 2512.00 2349.85 50.12
5159 55.3727 2050.00 1924.89 45.28
5160 55.3819 1705.00 1598.35 41.29
5161 55.3911 1489.00 1356.50 38.59
5162 55.4003 1360.00 1181.17 36.88
5163 55.4095 1182.00 1055.56 34.38
5164 55.4187 1102.00 965.66 33.20
5165 55.4279 1000.00 901.25 31.62
5166 55.4371 876.00 855.12 29.60
5167 55.4463 826.00 822.57 28.74
5168 55.4554 785.00 800.35 28.02
5169 55.4646 790.00 786.64 28.11
5170 55.4738 741.00 779.37 27.22
5171 55.4831 847.00 778.15 29.10
5172 55.4922 786.00 783.05 28.04
5173 55.5014 805.00 793.79 28.37
5174 55.5106 835.00 814.27 28.90
5175 55.5198 863.00 845.47 29.38
5176 55.5290 889.00 889.84 29.82
5177 55.5382 1015.00 950.22 31.86
5178 55.5474 1053.00 1029.63 32.45
5179 55.5566 1140.00 1131.18 33.76
5180 55.5658 1331.00 1256.92 36.48
5181 55.5750 1453.00 1406.19 38.12
5182 55.5842 1512.00 1572.63 38.88
5183 55.5934 1843.00 1742.35 42.93
5184 55.6026 2049.00 1893.73 45.27
5185 55.6118 2042.00 2000.81 45.19
5186 55.6210 2031.00 2040.49 45.07
5187 55.6302 2146.00 2004.27 46.32
5188 55.6394 1918.00 1896.59 43.79
5189 55.6486 1789.00 1737.62 42.30
5190 55.6578 1606.00 1554.01 40.07
5191 55.6670 1361.00 1372.66 36.89
5192 55.6762 1209.00 1212.82 34.77
5193 55.6854 1079.00 1085.44 32.85
5194 55.6946 1013.00 994.19 31.83
5195 55.7038 875.00 938.29 29.58
5196 55.7130 973.00 914.33 31.19
5197 55.7222 904.00 917.56 30.07
5198 55.7314 925.00 942.17 30.41
5199 55.7406 995.00 981.12 31.54
5200 55.7498 1003.00 1025.78 31.67
5201 55.7590 1076.00 1066.70 32.80
5202 55.7682 1134.00 1094.97 33.67
5203 55.7774 1087.00 1104.79 32.97
5204 55.7866 1140.00 1095.31 33.76
5205 55.7958 1073.00 1070.88 32.76
5206 55.8050 1040.00 1039.66 32.25
5207 55.8142 1023.00 1011.09 31.98
5208 55.8234 966.00 993.95 31.08
5209 55.8326 1013.00 995.43 31.83
5210 55.8418 1026.00 1021.85 32.03
5211 55.8510 1150.00 1079.75 33.91
5212 55.8602 1228.00 1177.13 35.04
5213 55.8694 1432.00 1323.59 37.84
5214 55.8786 1563.00 1530.02 39.53
5215 55.8878 1891.00 1805.45 43.49
5216 55.8970 2322.00 2154.14 48.19
5217 55.9062 2734.00 2569.58 52.29
5218 55.9154 3160.00 3027.87 56.21
5219 55.9246 3851.00 3486.76 62.06
5220 55.9338 4176.00 3888.93 64.62
5221 55.9430 4474.00 4174.10 66.89
5222 55.9522 4708.00 4300.01 68.61
5223 55.9614 4627.00 4256.07 68.02
5224 55.9706 4270.00 4066.18 65.35
5225 55.9798 3951.00 3777.14 62.86
5226 55.9890 3554.00 3439.98 59.62
5227 55.9982 3082.00 3093.71 55.52
5228 56.0074 2684.00 2760.06 51.81
5229 56.0166 2345.00 2447.40 48.43
5230 56.0258 2024.00 2159.23 44.99
5231 56.0350 1739.00 1898.32 41.70
5232 56.0442 1594.00 1669.37 39.92
5233 56.0534 1371.00 1476.52 37.03
5234 56.0626 1252.00 1322.81 35.38
5235 56.0718 1203.00 1209.54 34.68
5236 56.0810 1089.00 1135.13 33.00
5237 56.0902 1011.00 1100.15 31.80
5238 56.0994 1037.00 1103.21 32.20
5239 56.1086 1085.00 1145.75 32.94
5240 56.1178 1142.00 1228.62 33.79
5241 56.1270 1327.00 1350.93 36.43
5242 56.1362 1523.00 1507.70 39.03
5243 56.1454 1685.00 1686.76 41.05
5244 56.1546 1871.00 1867.51 43.26
5245 56.1638 2101.00 2021.47 45.84
5246 56.1730 2157.00 2118.99 46.44
5247 56.1822 2136.00 2137.59 46.22
5248 56.1914 2098.00 2070.35 45.80
5249 56.2006 1896.00 1928.46 43.54
5250 56.2098 1713.00 1736.83 41.39
5251 56.2190 1505.00 1525.57 38.79
5252 56.2282 1265.00 1320.91 35.57
5253 56.2374 1060.00 1139.98 32.56
5254 56.2466 957.00 990.77 30.94
5255 56.2558 805.00 873.91 28.37
5256 56.2650 745.00 786.08 27.29
5257 56.2742 670.00 721.76 25.88
5258 56.2834 641.00 675.26 25.32
5259 56.2926 631.00 641.41 25.12
5260 56.3018 580.00 616.07 24.08
5261 56.3110 571.00 596.13 23.90
5262 56.3202 552.00 579.54 23.49
5263 56.3294 530.00 565.82 23.02
5264 56.3386 549.00 552.96 23.43
5265 56.3478 502.00 541.58 22.41
5266 56.3570 476.00 531.75 21.82
5267 56.3662 509.00 523.58 22.56
5268 56.3754 557.00 512.85 23.60
5269 56.3846 483.00 508.21 21.98
5270 56.3938 545.00 505.35 23.35
5271 56.4030 538.00 504.40 23.19
5272 56.4122 489.00 505.62 22.11
5273 56.4214 507.00 509.64 22.52
5274 56.4306 523.00 517.23 22.87
5275 56.4398 539.00 529.52 23.22
5276 56.4490 567.00 547.90 23.81
5277 56.4582 651.00 573.88 25.51
5278 56.4674 641.00 608.70 25.32
5279 56.4766 612.00 652.85 24.74
5280 56.4858 754.00 705.33 27.46
5281 56.4950 750.00 762.89 27.39
5282 56.5042 837.00 819.63 28.93
5283 56.5134 856.00 867.61 29.26
5284 56.5226 943.00 898.46 30.71
5285 56.5318 925.00 906.14 30.41
5286 56.5410 945.00 889.07 30.74
5287 56.5502 842.00 850.80 29.02
5288 56.5594 821.00 798.71 28.65
5289 56.5686 773.00 741.53 27.80
5290 56.5778 673.00 686.71 25.94
5291 56.5870 617.00 639.25 24.84
5292 56.5962 573.00 601.51 23.94
5293 56.6054 598.00 574.09 24.45
5294 56.6146 567.00 556.48 23.81
5295 56.6238 567.00 547.95 23.81
5296 56.6330 526.00 547.79 22.93
5297 56.6422 565.00 555.98 23.77
5298 56.6514 572.00 572.52 23.92
5299 56.6606 630.00 597.41 25.10
5300 56.6698 687.00 630.17 26.21
5301 56.6790 659.00 669.00 25.67
5302 56.6882 711.00 710.69 26.66
5303 56.6974 762.00 748.72 27.60
5304 56.7066 772.00 779.35 27.78
5305 56.7158 812.00 795.22 28.50
5306 56.7250 736.00 793.22 27.13
5307 56.7342 767.00 773.77 27.69
5308 56.7434 733.00 740.92 27.07
5309 56.7526 697.00 700.75 26.40
5310 56.7618 691.00 659.55 26.29
5311 56.7710 653.00 622.00 25.55
5312 56.7802 611.00 590.74 24.72
5313 56.7894 612.00 566.47 24.74
5314 56.7986 576.00 548.70 24.00
5315 56.8078 558.00 536.24 23.62
5316 56.8170 568.00 527.93 23.83
5317 56.8262 529.00 522.82 23.00
5318 56.8354 565.00 520.42 23.77
5319 56.8446 533.00 521.13 23.09
5320 56.8538 466.00 523.83 21.59
5321 56.8630 521.00 530.33 22.83
5322 56.8722 545.00 541.17 23.35
5323 56.8814 583.00 557.67 24.15
5324 56.8906 612.00 581.62 24.74
5325 56.8998 681.00 615.25 26.10
5326 56.9090 706.00 661.04 26.57
5327 56.9182 742.00 721.72 27.24
5328 56.9274 837.00 797.12 28.93
5329 56.9366 938.00 886.45 30.63
5330 56.9458 1084.00 985.00 32.92
5331 56.9550 1152.00 1083.87 33.94
5332 56.9642 1246.00 1170.45 35.30
5333 56.9734 1258.00 1231.28 35.47
5334 56.9826 1341.00 1255.88 36.62
5335 56.9918 1277.00 1240.80 35.74
5336 57.0010 1182.00 1190.96 34.38
5337 57.0102 1090.00 1117.95 33.02
5338 57.0194 1036.00 1036.35 32.19
5339 57.0286 999.00 956.59 31.61
5340 57.0378 929.00 894.49 30.48
5341 57.0470 899.00 853.19 29.98
5342 57.0562 817.00 836.27 28.58
5343 57.0654 844.00 846.09 29.05
5344 57.0746 894.00 884.69 29.90
5345 57.0838 978.00 954.85 31.27
5346 57.0930 1075.00 1058.09 32.79
5347 57.1022 1212.00 1196.21 34.81
5348 57.1114 1302.00 1365.79 36.08
5349 57.1206 1530.00 1558.02 39.12
5350 57.1298 1764.00 1757.11 42.00
5351 57.1390 1952.00 1940.47 44.18
5352 57.1482 2040.00 2082.72 45.17
5353 57.1574 2241.00 2160.71 47.34
5354 57.1666 2297.00 2160.49 47.93
5355 57.1758 2228.00 2081.35 47.20
5356 57.1849 1937.00 1936.24 44.01
5357 57.1941 1782.00 1747.71 42.21
5358 57.2033 1573.00 1542.06 39.66
5359 57.2125 1357.00 1342.11 36.84
5360 57.2217 1162.00 1164.05 34.09
5361 57.2309 1027.00 1015.79 32.05
5362 57.2401 928.00 898.96 30.46
5363 57.2493 809.00 810.96 28.44
5364 57.2585 786.00 747.27 28.04
5365 57.2677 700.00 701.57 26.46
5366 57.2769 645.00 672.36 25.40
5367 57.2861 697.00 655.18 26.40
5368 57.2953 625.00 648.23 25.00
5369 57.3045 701.00 650.99 26.48
5370 57.3137 646.00 664.20 25.42
5371 57.3229 686.00 689.69 26.19
5372 57.3321 785.00 730.12 28.02
5373 57.3413 809.00 788.42 28.44
5374 57.3505 844.00 866.95 29.05
5375 57.3597 957.00 966.13 30.94
5376 57.3689 1121.00 1083.09 33.48
5377 57.3781 1281.00 1209.74 35.79
5378 57.3873 1415.00 1332.39 37.62
5379 57.3965 1481.00 1432.98 38.48
5380 57.4057 1570.00 1493.39 39.62
5381 57.4149 1611.00 1501.12 40.14
5382 57.4241 1570.00 1453.76 39.62
5383 57.4333 1397.00 1359.95 37.38
5384 57.4425 1303.00 1236.37 36.10
5385 57.4517 1124.00 1101.64 33.53
5386 57.4609 1029.00 972.11 32.08
5387 57.4701 889.00 857.75 29.82
5388 57.4793 777.00 763.23 27.87
5389 57.4885 708.00 688.85 26.61
5390 57.4977 689.00 632.39 26.25
5391 57.5069 579.00 590.40 24.06
5392 57.5161 497.00 559.56 22.29
5393 57.5253 515.00 536.80 22.69
5394 57.5345 519.00 519.78 22.78
5395 57.5437 492.00 506.83 22.18
5396 57.5529 474.00 496.78 21.77
5397 57.5621 500.00 488.86 22.36
5398 57.5713 476.00 482.54 21.82
5399 57.5805 470.00 477.46 21.68
5400 57.5897 473.00 473.38 21.75
5401 57.5989 455.00 470.14 21.33
5402 57.6081 494.00 467.62 22.23
5403 57.6173 485.00 465.36 22.02
5404 57.6265 494.00 464.14 22.23
5405 57.6357 486.00 463.57 22.05
5406 57.6449 496.00 463.73 22.27
5407 57.6541 451.00 464.74 21.24
5408 57.6633 444.00 466.82 21.07
5409 57.6725 452.00 470.20 21.26
5410 57.6817 453.00 475.28 21.28
5411 57.6909 523.00 482.74 22.87
5412 57.7001 483.00 493.69 21.98
5413 57.7093 492.00 507.52 22.18
5414 57.7185 517.00 525.63 22.74
5415 57.7277 569.00 548.75 23.85
5416 57.7369 549.00 577.07 23.43
5417 57.7461 642.00 609.94 25.34
5418 57.7553 668.00 645.54 25.85
5419 57.7645 749.00 680.80 27.37
5420 57.7737 764.00 711.59 27.64
5421 57.7829 766.00 733.88 27.68
5422 57.7921 824.00 745.05 28.71
5423 57.8013 767.00 745.00 27.69
5424 57.8105 750.00 736.19 27.39
5425 57.8197 725.00 724.16 26.93
5426 57.8289 730.00 714.52 27.02
5427 57.8381 698.00 712.97 26.42
5428 57.8473 720.00 725.04 26.83
5429 57.8565 722.00 753.13 26.87
5430 57.8657 813.00 800.50 28.51
5431 57.8749 892.00 868.17 29.87
5432 57.8841 979.00 955.03 31.29
5433 57.8933 1003.00 1057.01 31.67
5434 57.9025 1237.00 1166.60 35.17
5435 57.9117 1311.00 1273.35 36.21
5436 57.9209 1373.00 1366.36 37.05
5437 57.9301 1499.00 1437.32 38.72
5438 57.9393 1556.00 1484.14 39.45
5439 57.9485 1530.00 1511.09 39.12
5440 57.9577 1609.00 1527.18 40.11
5441 57.9669 1556.00 1541.25 39.45
5442 57.9761 1505.00 1555.69 38.79
5443 57.9853 1457.00 1566.09 38.17
5444 57.9945 1443.00 1561.77 37.99
5445 58.0037 1487.00 1531.10 38.56
5446 58.0129 1436.00 1469.06 37.89
5447 58.0221 1277.00 1373.28 35.74
5448 58.0313 1224.00 1254.44 34.99
5449 58.0405 1069.00 1125.85 32.70
5450 58.0497 938.00 1000.16 30.63
5451 58.0589 895.00 887.20 29.92
5452 58.0681 774.00 791.65 27.82
5453 58.0773 730.00 714.05 27.02
5454 58.0865 716.00 654.26 26.76
5455 58.0957 600.00 608.92 24.49
5456 58.1049 537.00 574.83 23.17
5457 58.1141 541.00 549.21 23.26
5458 58.1233 547.00 529.64 23.39
5459 58.1325 547.00 514.37 23.39
5460 58.1417 480.00 502.16 21.91
5461 58.1509 516.00 492.16 22.72
5462 58.1601 477.00 483.80 21.84
5463 58.1693 496.00 476.73 22.27
5464 58.1785 484.00 470.68 22.00
5465 58.1877 473.00 465.47 21.75
5466 58.1969 461.00 460.97 21.47
5467 58.2061 470.00 457.05 21.68
5468 58.2153 454.00 453.61 21.31
5469 58.2245 450.00 450.59 21.21
5470 58.2337 433.00 447.93 20.81
5471 58.2429 430.00 445.62 20.74
5472 58.2521 459.00 442.98 21.42
5473 58.2613 458.00 441.33 21.40
5474 58.2705 434.00 439.14 20.83
5475 58.2797 455.00 438.07 21.33
5476 58.2889 435.00 437.25 20.86
5477 58.2981 442.00 436.64 21.02
5478 58.3073 456.00 436.22 21.35
5479 58.3165 424.00 435.97 20.59
5480 58.3257 435.00 435.93 20.86
5481 58.3349 469.00 436.00 21.66
5482 58.3441 416.00 436.22 20.40
5483 58.3533 476.00 436.62 21.82
5484 58.3625 422.00 437.22 20.54
5485 58.3717 422.00 438.06 20.54
5486 58.3809 431.00 439.21 20.76
5487 58.3901 466.00 440.76 21.59
5488 58.3993 469.00 442.83 21.66
5489 58.4085 460.00 445.56 21.45
5490 58.4177 465.00 449.10 21.56
5491 58.4269 449.00 453.59 21.19
5492 58.4361 454.00 459.04 21.31
5493 58.4453 468.00 465.37 21.63
5494 58.4545 481.00 472.22 21.93
5495 58.4637 478.00 479.05 21.86
5496 58.4729 500.00 485.07 22.36
5497 58.4821 524.00 489.51 22.89
5498 58.4913 495.00 491.79 22.25
5499 58.5005 535.00 491.77 23.13
5500 58.5097 477.00 489.83 21.84
5501 58.5189 524.00 485.83 22.89
5502 58.5281 473.00 482.43 21.75
5503 58.5373 516.00 479.57 22.72
5504 58.5465 519.00 477.84 22.78
5505 58.5557 451.00 477.56 21.24
5506 58.5649 470.00 478.86 21.68
5507 58.5741 516.00 481.67 22.72
5508 58.5833 480.00 485.85 21.91
5509 58.5925 495.00 491.17 22.25
5510 58.6017 480.00 497.44 21.91
5511 58.6109 517.00 504.50 22.74
5512 58.6201 517.00 512.28 22.74
5513 58.6293 534.00 520.84 23.11
5514 58.6385 554.00 530.40 23.54
5515 58.6477 526.00 541.40 22.93
5516 58.6569 562.00 554.48 23.71
5517 58.6661 551.00 570.86 23.47
5518 58.6753 642.00 591.25 25.34
5519 58.6845 626.00 617.70 25.02
5520 58.6937 732.00 652.65 27.06
5521 58.7029 686.00 699.49 26.19
5522 58.7121 719.00 762.43 26.81
5523 58.7213 861.00 846.34 29.34
5524 58.7305 967.00 956.47 31.10
5525 58.7397 1077.00 1095.54 32.82
5526 58.7489 1261.00 1264.22 35.51
5527 58.7581 1449.00 1457.79 38.07
5528 58.7673 1685.00 1663.80 41.05
5529 58.7765 1967.00 1861.86 44.35
5530 58.7857 2069.00 2025.87 45.49
5531 58.7949 2099.00 2129.90 45.81
5532 58.8041 2189.00 2156.44 46.79
5533 58.8133 2097.00 2102.26 45.79
5534 58.8225 1894.00 1980.19 43.52
5535 58.8317 1859.00 1814.81 43.12
5536 58.8409 1593.00 1634.84 39.91
5537 58.8501 1420.00 1465.92 37.68
5538 58.8593 1330.00 1326.05 36.47
5539 58.8685 1241.00 1225.95 35.23
5540 58.8777 1238.00 1170.02 35.19
5541 58.8869 1131.00 1158.39 33.63
5542 58.8961 1175.00 1187.83 34.28
5543 58.9053 1282.00 1252.94 35.81
5544 58.9144 1381.00 1344.72 37.16
5545 58.9236 1491.00 1450.56 38.61
5546 58.9328 1669.00 1554.59 40.85
5547 58.9421 1683.00 1639.73 41.02
5548 58.9512 1778.00 1691.90 42.17
5549 58.9604 1757.00 1704.64 41.92
5550 58.9696 1682.00 1681.60 41.01
5551 58.9788 1630.00 1635.88 40.37
5552 58.9880 1527.00 1586.17 39.08
5553 58.9972 1471.00 1551.52 38.35
5554 59.0064 1512.00 1547.18 38.88
5555 59.0156 1515.00 1582.66 38.92
5556 59.0248 1625.00 1661.74 40.31
5557 59.0340 1821.00 1784.85 42.67
5558 59.0432 2001.00 1944.77 44.73
5559 59.0524 2283.00 2137.85 47.78
5560 59.0616 2515.00 2357.21 50.15
5561 59.0708 2792.00 2594.81 52.84
5562 59.0800 3098.00 2839.30 55.66
5563 59.0892 3518.00 3072.38 59.31
5564 59.0984 3775.00 3267.60 61.44
5565 59.1076 3702.00 3391.46 60.84
5566 59.1168 3743.00 3413.25 61.18
5567 59.1260 3545.00 3317.97 59.54
5568 59.1352 3320.00 3110.19 57.62
5569 59.1444 2930.00 2816.89 54.13
5570 59.1536 2500.00 2477.22 50.00
5571 59.1628 2021.00 2131.75 44.96
5572 59.1720 1750.00 1811.81 41.83
5573 59.1812 1451.00 1535.73 38.09
5574 59.1904 1263.00 1310.12 35.54
5575 59.1996 1048.00 1132.71 32.37
5576 59.2088 935.00 996.94 30.58
5577 59.2180 829.00 894.36 28.79
5578 59.2272 840.00 816.75 28.98
5579 59.2364 729.00 757.28 27.00
5580 59.2456 649.00 710.81 25.48
5581 59.2548 689.00 673.66 26.25
5582 59.2640 655.00 643.43 25.59
5583 59.2732 641.00 618.45 25.32
5584 59.2824 610.00 597.58 24.70
5585 59.2916 537.00 579.99 23.17
5586 59.3008 563.00 565.05 23.73
5587 59.3100 565.00 552.31 23.77
5588 59.3192 551.00 541.45 23.47
5589 59.3284 552.00 532.23 23.49
5590 59.3376 509.00 524.55 22.56
5591 59.3468 469.00 518.44 21.66
5592 59.3560 508.00 513.99 22.54
5593 59.3652 495.00 511.42 22.25
5594 59.3744 507.00 510.92 22.52
5595 59.3836 531.00 512.58 23.04
5596 59.3928 483.00 516.32 21.98
5597 59.4020 542.00 521.76 23.28
5598 59.4112 578.00 528.18 24.04
5599 59.4204 530.00 534.45 23.02
5600 59.4296 537.00 539.24 23.17
5601 59.4388 576.00 541.29 24.00
5602 59.4480 555.00 539.79 23.56
5603 59.4572 522.00 534.66 22.85
5604 59.4664 513.00 526.56 22.65
5605 59.4756 507.00 516.65 22.52
5606 59.4848 502.00 506.21 22.41
5607 59.4940 485.00 496.32 22.02
5608 59.5032 463.00 487.67 21.52
5609 59.5124 484.00 480.57 22.00
5610 59.5216 501.00 475.08 22.38
5611 59.5308 489.00 471.05 22.11
5612 59.5400 455.00 468.28 21.33
5613 59.5492 483.00 466.55 21.98
5614 59.5584 498.00 465.65 22.32
5615 59.5676 458.00 465.44 21.40
5616 59.5768 473.00 465.80 21.75
5617 59.5860 467.00 466.66 21.61
5618 59.5952 458.00 467.99 21.40
5619 59.6044 492.00 469.81 22.18
5620 59.6136 474.00 472.12 21.77
5621 59.6228 509.00 475.04 22.56
5622 59.6320 480.00 478.61 21.91
5623 59.6412 522.00 482.92 22.85
5624 59.6504 506.00 488.16 22.49
5625 59.6596 479.00 494.58 21.89
5626 59.6688 460.00 502.57 21.45
5627 59.6780 528.00 512.74 22.98
5628 59.6872 538.00 525.89 23.19
5629 59.6964 536.00 543.14 23.15
5630 59.7056 554.00 565.81 23.54
5631 59.7148 602.00 595.39 24.54
5632 59.7240 651.00 633.28 25.51
5633 59.7332 707.00 680.48 26.59
5634 59.7424 756.00 737.07 27.50
5635 59.7516 808.00 801.91 28.43
5636 59.7608 927.00 872.07 30.45
5637 59.7700 1005.00 943.08 31.70
5638 59.7792 1011.00 1009.88 31.80
5639 59.7884 1027.00 1068.25 32.05
5640 59.7976 1133.00 1116.30 33.66
5641 59.8068 1155.00 1154.51 33.99
5642 59.8160 1247.00 1184.69 35.31
5643 59.8252 1182.00 1207.71 34.38
5644 59.8344 1225.00 1221.76 35.00
5645 59.8436 1267.00 1222.23 35.59
5646 59.8528 1264.00 1203.85 35.55
5647 59.8620 1200.00 1163.56 34.64
5648 59.8712 1104.00 1102.66 33.23
5649 59.8804 1118.00 1026.79 33.44
5650 59.8896 961.00 944.96 31.00
5651 59.8988 860.00 864.01 29.33
5652 59.9080 799.00 790.98 28.27
5653 59.9172 710.00 729.50 26.65
5654 59.9264 680.00 679.46 26.08
5655 59.9356 644.00 642.64 25.38
5656 59.9448 629.00 616.44 25.08
5657 59.9540 600.00 598.84 24.49
5658 59.9632 569.00 587.86 23.85
5659 59.9724 553.00 582.10 23.52
5660 59.9816 578.00 580.50 24.04
5661 59.9908 558.00 582.42 23.62
5662 60.0000 647.00 587.62 25.44
5663 60.0092 603.00 596.19 24.56
5664 60.0184 621.00 608.58 24.92
5665 60.0276 676.00 625.65 26.00
5666 60.0368 663.00 648.89 25.75
5667 60.0460 687.00 680.42 26.21
5668 60.0552 695.00 723.48 26.36
5669 60.0644 859.00 782.37 29.31
5670 60.0736 891.00 862.55 29.85
5671 60.0828 991.00 969.33 31.48
5672 60.0920 1124.00 1110.82 33.53
5673 60.1012 1272.00 1289.19 35.67
5674 60.1104 1462.00 1504.86 38.24
5675 60.1196 1734.00 1750.40 41.64
5676 60.1288 2042.00 2009.21 45.19
5677 60.1380 2218.00 2254.06 47.10
5678 60.1472 2407.00 2451.95 49.06
5679 60.1564 2529.00 2570.03 50.29
5680 60.1656 2559.00 2586.54 50.59
5681 60.1748 2427.00 2498.11 49.26
5682 60.1840 2254.00 2321.09 47.48
5683 60.1932 2114.00 2086.04 45.98
5684 60.2024 1836.00 1826.96 42.85
5685 60.2116 1604.00 1574.33 40.05
5686 60.2208 1432.00 1348.10 37.84
5687 60.2300 1229.00 1156.97 35.06
5688 60.2392 1122.00 1003.36 33.50
5689 60.2484 1001.00 883.91 31.64
5690 60.2576 863.00 791.13 29.38
5691 60.2668 776.00 723.06 27.86
5692 60.2760 739.00 671.95 27.18
5693 60.2852 699.00 633.21 26.44
5694 60.2944 645.00 603.28 25.40
5695 60.3036 593.00 579.70 24.35
5696 60.3128 592.00 560.70 24.33
5697 60.3220 575.00 545.08 23.98
5698 60.3312 577.00 532.01 24.02
5699 60.3404 582.00 520.90 24.12
5700 60.3496 531.00 511.29 23.04
5701 60.3588 530.00 502.90 23.02
5702 60.3680 506.00 495.47 22.49
5703 60.3772 527.00 488.84 22.96
5704 60.3864 491.00 482.90 22.16
5705 60.3956 454.00 477.58 21.31
5706 60.4048 500.00 472.84 22.36
5707 60.4140 459.00 468.66 21.42
5708 60.4232 498.00 464.98 22.32
5709 60.4324 490.00 461.75 22.14
5710 60.4416 458.00 458.91 21.40
5711 60.4508 473.00 456.38 21.75
5712 60.4600 490.00 454.15 22.14
5713 60.4692 451.00 452.17 21.24
5714 60.4784 463.00 450.42 21.52
5715 60.4876 483.00 448.89 21.98
5716 60.4968 463.00 447.56 21.52
5717 60.5060 426.00 446.40 20.64
5718 60.5152 429.00 445.44 20.71
5719 60.5244 451.00 444.57 21.24
5720 60.5336 456.00 443.82 21.35
5721 60.5428 472.00 443.18 21.73
5722 60.5520 428.00 442.63 20.69
5723 60.5612 463.00 442.16 21.52
5724 60.5704 488.00 441.77 22.09
5725 60.5796 450.00 441.39 21.21
5726 60.5888 414.00 441.13 20.35
5727 60.5980 429.00 440.94 20.71
5728 60.6072 424.00 440.82 20.59
5729 60.6164 446.00 440.75 21.12
5730 60.6256 482.00 440.76 21.95
5731 60.6348 456.00 440.82 21.35
5732 60.6440 439.00 440.93 20.95
5733 60.6532 452.00 441.11 21.26
5734 60.6624 460.00 441.36 21.45
5735 60.6716 453.00 441.67 21.28
5736 60.6808 480.00 442.07 21.91
5737 60.6900 422.00 442.56 20.54
5738 60.6992 460.00 443.16 21.45
5739 60.7084 489.00 443.87 22.11
5740 60.7175 429.00 444.73 20.71
5741 60.7267 439.00 445.75 20.95
5742 60.7360 459.00 446.96 21.42
5743 60.7452 454.00 448.38 21.31
5744 60.7543 433.00 450.02 20.81
5745 60.7635 452.00 451.88 21.26
5746 60.7727 483.00 453.95 21.98
5747 60.7819 474.00 456.21 21.77
5748 60.7911 451.00 458.65 21.24
5749 60.8003 498.00 461.27 22.32
5750 60.8095 480.00 464.07 21.91
5751 60.8187 464.00 467.08 21.54
5752 60.8279 495.00 470.39 22.25
5753 60.8371 429.00 474.08 20.71
5754 60.8463 489.00 478.30 22.11
5755 60.8555 492.00 483.19 22.18
5756 60.8647 448.00 488.92 21.17
5757 60.8739 486.00 495.80 22.05
5758 60.8831 495.00 503.96 22.25
5759 60.8923 487.00 513.94 22.07
5760 60.9015 515.00 526.39 22.69
5761 60.9107 554.00 542.26 23.54
5762 60.9199 570.00 562.91 23.87
5763 60.9291 490.00 590.23 22.14
5764 60.9383 558.00 626.21 23.62
5765 60.9475 632.00 674.39 25.14
5766 60.9567 699.00 737.20 26.44
5767 60.9659 803.00 816.88 28.34
5768 60.9751 916.00 914.10 30.27
5769 60.9843 1039.00 1026.85 32.23
5770 60.9935 1192.00 1149.81 34.53
5771 61.0027 1453.00 1271.07 38.12
5772 61.0119 1572.00 1378.18 39.65
5773 61.0211 1766.00 1455.68 42.02
5774 61.0303 1771.00 1491.95 42.08
5775 61.0395 1770.00 1482.16 42.07
5776 61.0487 1625.00 1430.23 40.31
5777 61.0579 1481.00 1347.04 38.48
5778 61.0671 1334.00 1246.67 36.52
5779 61.0763 1185.00 1142.28 34.42
5780 61.0855 1028.00 1043.14 32.06
5781 61.0947 997.00 955.03 31.58
5782 61.1039 855.00 880.25 29.24
5783 61.1131 842.00 819.63 29.02
5784 61.1223 744.00 773.18 27.28
5785 61.1315 718.00 740.62 26.80
5786 61.1407 707.00 721.82 26.59
5787 61.1499 679.00 716.74 26.06
5788 61.1591 725.00 725.55 26.93
5789 61.1683 694.00 748.44 26.34
5790 61.1775 803.00 785.26 28.34
5791 61.1867 826.00 835.10 28.74
5792 61.1959 922.00 895.58 30.36
5793 61.2051 937.00 962.40 30.61
5794 61.2143 1069.00 1029.38 32.70
5795 61.2235 1074.00 1089.25 32.77
5796 61.2327 1152.00 1135.20 33.94
5797 61.2419 1140.00 1162.79 33.76
5798 61.2511 1110.00 1171.12 33.32
5799 61.2603 1106.00 1162.51 33.26
5800 61.2695 1207.00 1142.81 34.74
5801 61.2787 1106.00 1119.47 33.26
5802 61.2879 1143.00 1100.32 33.81
5803 61.2971 1138.00 1092.47 33.73
5804 61.3063 1102.00 1100.89 33.20
5805 61.3155 1097.00 1125.63 33.12
5806 61.3247 1243.00 1167.73 35.26
5807 61.3339 1185.00 1218.70 34.42
5808 61.3431 1327.00 1268.22 36.43
5809 61.3523 1322.00 1304.03 36.36
5810 61.3615 1290.00 1315.04 35.92
5811 61.3707 1239.00 1294.44 35.20
5812 61.3799 1220.00 1241.84 34.93
5813 61.3891 1145.00 1163.13 33.84
5814 61.3983 1068.00 1068.46 32.68
5815 61.4075 973.00 969.01 31.19
5816 61.4167 859.00 874.14 29.31
5817 61.4259 818.00 789.96 28.60
5818 61.4351 749.00 719.35 27.37
5819 61.4443 684.00 662.52 26.15
5820 61.4535 651.00 618.24 25.51
5821 61.4627 601.00 584.41 24.52
5822 61.4719 591.00 558.82 24.31
5823 61.4811 582.00 539.44 24.12
5824 61.4903 518.00 524.61 22.76
5825 61.4995 544.00 513.08 23.32
5826 61.5087 528.00 503.98 22.98
5827 61.5179 548.00 496.68 23.41
5828 61.5271 509.00 490.75 22.56
5829 61.5363 491.00 485.96 22.16
5830 61.5455 481.00 482.13 21.93
5831 61.5547 503.00 479.16 22.43
5832 61.5639 492.00 477.03 22.18
5833 61.5731 526.00 475.96 22.93
5834 61.5823 500.00 475.66 22.36
5835 61.5915 489.00 476.41 22.11
5836 61.6007 503.00 478.30 22.43
5837 61.6099 476.00 481.36 21.82
5838 61.6191 473.00 485.47 21.75
5839 61.6283 523.00 490.35 22.87
5840 61.6375 541.00 495.43 23.26
5841 61.6467 555.00 500.01 23.56
5842 61.6559 530.00 503.30 23.02
5843 61.6651 553.00 504.70 23.52
5844 61.6743 508.00 503.94 22.54
5845 61.6835 551.00 501.40 23.47
5846 61.6927 527.00 497.42 22.96
5847 61.7019 519.00 492.99 22.78
5848 61.7111 501.00 488.96 22.38
5849 61.7203 499.00 485.95 22.34
5850 61.7295 551.00 484.28 23.47
5851 61.7387 534.00 483.93 23.11
5852 61.7479 481.00 484.58 21.93
5853 61.7571 479.00 485.70 21.89
5854 61.7663 513.00 486.64 22.65
5855 61.7755 545.00 486.82 23.35
5856 61.7847 489.00 485.88 22.11
5857 61.7939 493.00 483.77 22.20
5858 61.8031 459.00 480.72 21.42
5859 61.8123 505.00 477.18 22.47
5860 61.8215 469.00 473.61 21.66
5861 61.8307 460.00 470.42 21.45
5862 61.8399 453.00 467.86 21.28
5863 61.8491 496.00 466.07 22.27
5864 61.8583 449.00 465.09 21.19
5865 61.8675 513.00 464.92 22.65
5866 61.8767 465.00 465.52 21.56
5867 61.8859 467.00 466.91 21.61
5868 61.8951 505.00 469.11 22.47
5869 61.9043 472.00 472.20 21.73
5870 61.9135 476.00 476.36 21.82
5871 61.9227 503.00 481.86 22.43
5872 61.9319 486.00 488.86 22.05
5873 61.9411 499.00 497.76 22.34
5874 61.9503 537.00 508.96 23.17
5875 61.9595 506.00 522.82 22.49
5876 61.9687 529.00 539.57 23.00
5877 61.9779 533.00 559.22 23.09
5878 61.9871 570.00 581.15 23.87
5879 61.9963 637.00 604.36 25.24
5880 62.0055 584.00 627.34 24.17
5881 62.0147 642.00 648.42 25.34
5882 62.0239 667.00 666.40 25.83
5883 62.0331 704.00 681.07 26.53
5884 62.0423 715.00 693.92 26.74
5885 62.0515 684.00 708.01 26.15
5886 62.0607 761.00 727.66 27.59
5887 62.0699 750.00 757.63 27.39
5888 62.0791 806.00 802.46 28.39
5889 62.0883 815.00 865.20 28.55
5890 62.0975 966.00 947.07 31.08
5891 62.1067 987.00 1045.99 31.42
5892 62.1159 1199.00 1155.87 34.63
5893 62.1251 1269.00 1266.59 35.62
5894 62.1343 1468.00 1363.49 38.31
5895 62.1435 1538.00 1431.70 39.22
5896 62.1527 1550.00 1458.78 39.37
5897 62.1619 1480.00 1439.16 38.47
5898 62.1711 1388.00 1375.94 37.26
5899 62.1803 1289.00 1279.53 35.90
5900 62.1895 1141.00 1164.81 33.78
5901 62.1987 1031.00 1045.25 32.11
5902 62.2079 843.00 933.72 29.03
5903 62.2171 766.00 836.26 27.68
5904 62.2263 730.00 755.76 27.02
5905 62.2355 667.00 692.04 25.83
5906 62.2447 608.00 643.38 24.66
5907 62.2539 601.00 607.00 24.52
5908 62.2631 572.00 580.44 23.92
5909 62.2723 553.00 561.28 23.52
5910 62.2815 538.00 547.67 23.19
5911 62.2907 532.00 538.36 23.07
5912 62.2999 534.00 532.83 23.11
5913 62.3091 517.00 530.26 22.74
5914 62.3183 548.00 530.91 23.41
5915 62.3275 561.00 535.03 23.69
5916 62.3367 539.00 543.10 23.22
5917 62.3459 542.00 555.57 23.28
5918 62.3551 645.00 572.76 25.40
5919 62.3643 595.00 594.56 24.39
5920 62.3735 666.00 620.10 25.81
5921 62.3827 672.00 647.63 25.92
5922 62.3919 657.00 674.28 25.63
5923 62.4011 710.00 696.09 26.65
5924 62.4103 731.00 710.03 27.04
5925 62.4195 733.00 713.05 27.07
5926 62.4287 725.00 704.33 26.93
5927 62.4379 720.00 684.99 26.83
5928 62.4471 723.00 658.41 26.89
5929 62.4563 625.00 628.22 25.00
5930 62.4655 603.00 597.93 24.56
5931 62.4747 552.00 570.15 23.49
5932 62.4839 593.00 546.31 24.35
5933 62.4931 551.00 526.97 23.47
5934 62.5023 527.00 511.93 22.96
5935 62.5115 493.00 500.82 22.20
5936 62.5207 451.00 492.87 21.24
5937 62.5299 491.00 487.48 22.16
5938 62.5391 497.00 483.48 22.29
5939 62.5482 495.00 481.65 22.25
5940 62.5575 469.00 481.13 21.66
5941 62.5667 500.00 481.75 22.36
5942 62.5759 523.00 483.44 22.87
5943 62.5850 526.00 486.18 22.93
5944 62.5942 523.00 489.96 22.87
5945 62.6034 491.00 494.86 22.16
5946 62.6126 501.00 500.95 22.38
5947 62.6218 498.00 508.43 22.32
5948 62.6310 504.00 517.51 22.45
5949 62.6402 540.00 528.55 23.24
5950 62.6494 516.00 541.91 22.72
5951 62.6586 593.00 557.92 24.35
5952 62.6678 613.00 576.88 24.76
5953 62.6770 643.00 599.05 25.36
5954 62.6862 617.00 624.40 24.84
5955 62.6954 603.00 652.61 24.56
5956 62.7046 675.00 682.63 25.98
5957 62.7138 700.00 712.45 26.46
5958 62.7230 757.00 739.14 27.51
5959 62.7322 757.00 759.36 27.51
5960 62.7414 813.00 770.30 28.51
5961 62.7506 817.00 770.83 28.58
5962 62.7598 782.00 762.00 27.96
5963 62.7690 768.00 746.94 27.71
5964 62.7782 780.00 729.86 27.93
5965 62.7874 685.00 714.92 26.17
5966 62.7966 699.00 705.21 26.44
5967 62.8058 691.00 702.26 26.29
5968 62.8150 692.00 706.06 26.31
5969 62.8242 679.00 714.49 26.06
5970 62.8334 730.00 724.35 27.02
5971 62.8426 721.00 731.79 26.85
5972 62.8518 739.00 733.18 27.18
5973 62.8610 726.00 725.96 26.94
5974 62.8702 693.00 709.56 26.32
5975 62.8794 676.00 685.36 26.00
5976 62.8886 635.00 656.21 25.20
5977 62.8978 583.00 625.41 24.15
5978 62.9070 596.00 595.85 24.41
5979 62.9162 605.00 569.52 24.60
5980 62.9254 528.00 547.43 22.98
5981 62.9346 546.00 529.80 23.37
5982 62.9438 488.00 516.36 22.09
5983 62.9530 532.00 506.55 23.07
5984 62.9622 519.00 499.83 22.78
5985 62.9714 541.00 495.64 23.26
5986 62.9806 512.00 493.63 22.63
5987 62.9898 475.00 494.48 21.79
5988 62.9990 552.00 496.47 23.49
5989 63.0082 529.00 500.58 23.00
5990 63.0174 499.00 507.06 22.34
5991 63.0266 508.00 516.15 22.54
5992 63.0358 554.00 528.04 23.54
5993 63.0450 588.00 542.79 24.25
5994 63.0542 567.00 559.97 23.81
5995 63.0634 602.00 578.98 24.54
5996 63.0726 635.00 598.79 25.20
5997 63.0818 706.00 618.20 26.57
5998 63.0910 635.00 636.18 25.20
5999 63.1002 644.00 652.05 25.38
6000 63.1094 722.00 665.67 26.87
6001 63.1186 700.00 677.18 26.46
6002 63.1278 726.00 686.49 26.94
6003 63.1370 720.00 693.03 26.83
6004 63.1462 750.00 695.60 27.39
6005 63.1554 715.00 692.89 26.74
6006 63.1646 721.00 684.17 26.85
6007 63.1738 685.00 670.13 26.17
6008 63.1830 697.00 651.77 26.40
6009 63.1922 675.00 631.79 25.98
6010 63.2014 651.00 612.85 25.51
6011 63.2106 607.00 597.15 24.64
6012 63.2198 604.00 586.59 24.58
6013 63.2290 588.00 581.98 24.25
6014 63.2382 623.00 583.63 24.96
6015 63.2474 567.00 591.20 23.81
6016 63.2566 643.00 603.76 25.36
6017 63.2658 652.00 619.73 25.53
6018 63.2750 660.00 636.94 25.69
6019 63.2842 713.00 652.77 26.70
6020 63.2934 651.00 664.52 25.51
6021 63.3026 709.00 670.06 26.63
6022 63.3118 649.00 668.48 25.48
6023 63.3210 680.00 660.36 26.08
6024 63.3302 652.00 647.69 25.53
6025 63.3394 578.00 632.49 24.04
6026 63.3486 618.00 619.26 24.86
6027 63.3578 598.00 609.68 24.45
6028 63.3670 588.00 605.48 24.25
6029 63.3762 614.00 607.66 24.78
6030 63.3854 591.00 616.55 24.31
6031 63.3946 606.00 631.96 24.62
6032 63.4038 684.00 653.26 26.15
6033 63.4130 695.00 679.56 26.36
6034 63.4222 757.00 709.71 27.51
6035 63.4314 718.00 742.47 26.80
6036 63.4406 818.00 776.08 28.60
6037 63.4498 810.00 808.11 28.46
6038 63.4590 810.00 835.24 28.46
6039 63.4682 832.00 853.51 28.84
6040 63.4774 820.00 859.37 28.64
6041 63.4866 812.00 850.81 28.50
6042 63.4958 773.00 828.31 27.80
6043 63.5050 721.00 794.86 26.85
6044 63.5142 716.00 755.10 26.76
6045 63.5234 697.00 714.02 26.40
6046 63.5326 636.00 675.60 25.22
6047 63.5418 643.00 642.47 25.36
6048 63.5510 582.00 615.59 24.12
6049 63.5602 561.00 594.66 23.69
6050 63.5694 576.00 578.50 24.00
6051 63.5786 565.00 565.64 23.77
6052 63.5878 562.00 554.46 23.71
6053 63.5970 536.00 543.96 23.15
6054 63.6062 567.00 533.43 23.81
6055 63.6154 516.00 523.22 22.72
6056 63.6246 540.00 513.44 23.24
6057 63.6338 494.00 504.42 22.23
6058 63.6430 505.00 496.44 22.47
6059 63.6522 530.00 489.65 23.02
6060 63.6614 515.00 484.06 22.69
6061 63.6706 443.00 479.58 21.05
6062 63.6798 469.00 476.06 21.66
6063 63.6890 518.00 473.37 22.76
6064 63.6982 473.00 471.32 21.75
6065 63.7074 492.00 469.81 22.18
6066 63.7166 488.00 468.74 22.09
6067 63.7258 484.00 468.05 22.00
6068 63.7350 462.00 467.72 21.49
6069 63.7442 484.00 467.72 22.00
6070 63.7534 444.00 468.05 21.07
6071 63.7626 477.00 468.69 21.84
6072 63.7718 492.00 469.64 22.18
6073 63.7810 526.00 470.90 22.93
6074 63.7902 524.00 472.45 22.89
6075 63.7994 472.00 474.27 21.73
6076 63.8086 518.00 476.38 22.76
6077 63.8178 522.00 478.79 22.85
6078 63.8270 505.00 481.57 22.47
6079 63.8362 467.00 484.79 21.61
6080 63.8454 502.00 488.55 22.41
6081 63.8546 493.00 492.99 22.20
6082 63.8638 491.00 498.34 22.16
6083 63.8730 505.00 504.87 22.47
6084 63.8822 529.00 513.09 23.00
6085 63.8914 563.00 523.57 23.73
6086 63.9006 594.00 537.17 24.37
6087 63.9098 608.00 554.99 24.66
6088 63.9190 622.00 578.29 24.94
6089 63.9282 645.00 608.49 25.40
6090 63.9374 651.00 646.60 25.51
6091 63.9466 682.00 693.78 26.12
6092 63.9558 783.00 749.41 27.98
6093 63.9650 828.00 811.74 28.77
6094 63.9742 944.00 876.95 30.72
6095 63.9834 940.00 939.26 30.66
6096 63.9926 1001.00 991.55 31.64
6097 64.0018 1056.00 1027.09 32.50
6098 64.0110 1128.00 1041.03 33.59
6099 64.0202 1058.00 1032.41 32.53
6100 64.0294 996.00 1004.46 31.56
6101 64.0386 1003.00 963.61 31.67
6102 64.0478 925.00 917.91 30.41
6103 64.0570 879.00 874.90 29.65
6104 64.0662 872.00 841.37 29.53
6105 64.0754 803.00 821.90 28.34
6106 64.0846 870.00 820.13 29.50
6107 64.0938 823.00 838.89 28.69
6108 64.1030 896.00 880.66 29.93
6109 64.1122 926.00 947.47 30.43
6110 64.1214 1077.00 1040.42 32.82
6111 64.1306 1234.00 1158.25 35.13
6112 64.1398 1360.00 1297.31 36.88
6113 64.1490 1546.00 1449.24 39.32
6114 64.1582 1858.00 1600.79 43.10
6115 64.1674 2068.00 1734.61 45.48
6116 64.1766 2132.00 1832.57 46.17
6117 64.1858 2183.00 1879.69 46.72
6118 64.1950 2095.00 1869.03 45.77
6119 64.2042 2024.00 1803.76 44.99
6120 64.2134 1823.00 1695.67 42.70
6121 64.2226 1583.00 1561.54 39.79
6122 64.2318 1410.00 1418.23 37.55
6123 64.2410 1201.00 1279.15 34.66
6124 64.2502 1087.00 1153.59 32.97
6125 64.2594 1022.00 1046.87 31.97
6126 64.2686 948.00 961.51 30.79
6127 64.2778 897.00 898.05 29.95
6128 64.2870 822.00 856.12 28.67
6129 64.2962 837.00 834.45 28.93
6130 64.3054 846.00 831.45 29.09
6131 64.3146 864.00 844.58 29.39
6132 64.3238 882.00 870.44 29.70
6133 64.3330 887.00 904.26 29.78
6134 64.3422 938.00 939.92 30.63
6135 64.3514 955.00 970.16 30.90
6136 64.3606 1010.00 987.84 31.78
6137 64.3698 1007.00 988.00 31.73
6138 64.3790 1011.00 968.47 31.80
6139 64.3882 968.00 930.95 31.11
6140 64.3974 892.00 880.23 29.87
6141 64.4065 896.00 822.63 29.93
6142 64.4157 756.00 764.13 27.50
6143 64.4249 726.00 709.44 26.94
6144 64.4342 688.00 661.39 26.23
6145 64.4434 631.00 621.49 25.12
6146 64.4526 650.00 589.18 25.50
6147 64.4618 521.00 563.88 22.83
6148 64.4709 522.00 544.42 22.85
6149 64.4801 539.00 529.52 23.22
6150 64.4893 556.00 518.04 23.58
6151 64.4986 494.00 509.06 22.23
6152 64.5077 477.00 501.73 21.84
6153 64.5169 466.00 495.84 21.59
6154 64.5261 537.00 490.92 23.17
6155 64.5353 513.00 486.74 22.65
6156 64.5445 458.00 483.16 21.40
6157 64.5537 479.00 480.07 21.89
6158 64.5629 407.00 477.40 20.17
6159 64.5721 474.00 475.08 21.77
6160 64.5813 479.00 473.07 21.89
6161 64.5905 497.00 471.33 22.29
6162 64.5997 485.00 469.85 22.02
6163 64.6089 495.00 468.62 22.25
6164 64.6181 483.00 467.65 21.98
6165 64.6273 481.00 466.98 21.93
6166 64.6365 458.00 466.59 21.40
6167 64.6457 435.00 466.54 20.86
6168 64.6549 434.00 466.86 20.83
6169 64.6641 487.00 467.64 22.07
6170 64.6733 464.00 468.99 21.54
6171 64.6825 508.00 471.07 22.54
6172 64.6917 483.00 473.78 21.98
6173 64.7009 508.00 477.88 22.54
6174 64.7101 483.00 483.28 21.98
6175 64.7193 503.00 490.07 22.43
6176 64.7285 507.00 498.22 22.52
6177 64.7377 512.00 507.53 22.63
6178 64.7469 545.00 517.23 23.35
6179 64.7561 540.00 526.54 23.24
6180 64.7653 494.00 534.36 22.23
6181 64.7745 583.00 539.60 24.15
6182 64.7837 565.00 541.49 23.77
6183 64.7929 529.00 539.90 23.00
6184 64.8021 573.00 535.22 23.94
6185 64.8113 566.00 528.47 23.79
6186 64.8205 519.00 520.91 22.78
6187 64.8297 498.00 513.68 22.32
6188 64.8389 492.00 507.66 22.18
6189 64.8481 514.00 503.32 22.67
6190 64.8573 500.00 500.71 22.36
6191 64.8665 518.00 499.59 22.76
6192 64.8757 494.00 499.44 22.23
6193 64.8849 450.00 499.61 21.21
6194 64.8941 510.00 499.46 22.58
6195 64.9033 531.00 498.52 23.04
6196 64.9125 490.00 496.52 22.14
6197 64.9217 518.00 493.52 22.76
6198 64.9309 484.00 489.75 22.00
6199 64.9401 505.00 485.62 22.47
6200 64.9493 476.00 481.54 21.82
6201 64.9585 487.00 477.86 22.07
6202 64.9677 512.00 474.79 22.63
6203 64.9769 481.00 472.43 21.93
6204 64.9861 510.00 470.77 22.58
6205 64.9953 491.00 469.68 22.16
6206 65.0045 484.00 469.01 22.00
6207 65.0137 449.00 468.60 21.19
6208 65.0229 519.00 468.32 22.78
6209 65.0321 441.00 468.12 21.00
6210 65.0413 458.00 468.03 21.40
6211 65.0505 475.00 468.16 21.79
6212 65.0597 450.00 468.67 21.21
6213 65.0689 471.00 469.74 21.70
6214 65.0781 469.00 471.55 21.66
6215 65.0873 445.00 474.23 21.09
6216 65.0965 468.00 477.86 21.63
6217 65.1057 467.00 482.45 21.61
6218 65.1149 502.00 487.81 22.41
6219 65.1241 491.00 493.65 22.16
6220 65.1333 513.00 499.49 22.65
6221 65.1425 502.00 504.73 22.41
6222 65.1517 499.00 508.78 22.34
6223 65.1609 514.00 511.20 22.67
6224 65.1701 499.00 511.87 22.34
6225 65.1793 522.00 511.01 22.85
6226 65.1885 509.00 509.19 22.56
6227 65.1977 476.00 507.15 21.82
6228 65.2069 507.00 505.70 22.52
6229 65.2161 503.00 505.56 22.43
6230 65.2253 519.00 506.99 22.78
6231 65.2345 521.00 511.42 22.83
6232 65.2437 484.00 519.07 22.00
6233 65.2529 575.00 530.36 23.98
6234 65.2621 516.00 545.76 22.72
6235 65.2713 569.00 565.52 23.85
6236 65.2805 610.00 589.48 24.70
6237 65.2897 605.00 616.80 24.60
6238 65.2989 664.00 645.91 25.77
6239 65.3081 665.00 674.50 25.79
6240 65.3173 745.00 699.63 27.29
6241 65.3265 725.00 718.45 26.93
6242 65.3357 742.00 729.02 27.24
6243 65.3449 750.00 730.97 27.39
6244 65.3541 722.00 725.80 26.87
6245 65.3633 724.00 716.46 26.91
6246 65.3725 731.00 706.49 27.04
6247 65.3817 719.00 699.01 26.81
6248 65.3909 742.00 695.97 27.24
6249 65.4001 673.00 697.75 25.94
6250 65.4093 727.00 702.09 26.96
6251 65.4185 661.00 708.53 25.71
6252 65.4277 742.00 712.86 27.24
6253 65.4369 680.00 712.20 26.08
6254 65.4461 691.00 704.57 26.29
6255 65.4553 718.00 689.78 26.80
6256 65.4645 714.00 669.08 26.72
6257 65.4737 643.00 644.95 25.36
6258 65.4829 613.00 619.97 24.76
6259 65.4921 580.00 596.40 24.08
6260 65.5013 595.00 575.88 24.39
6261 65.5105 578.00 559.28 24.04
6262 65.5197 528.00 546.99 22.98
6263 65.5289 552.00 539.03 23.49
6264 65.5381 509.00 535.28 22.56
6265 65.5473 550.00 535.68 23.45
6266 65.5565 528.00 540.29 22.98
6267 65.5657 553.00 549.34 23.52
6268 65.5749 563.00 563.22 23.73
6269 65.5841 578.00 582.33 24.04
6270 65.5933 633.00 606.54 25.16
6271 65.6025 631.00 636.34 25.12
6272 65.6117 631.00 670.60 25.12
6273 65.6209 674.00 707.09 25.96
6274 65.6301 767.00 742.81 27.69
6275 65.6393 777.00 773.67 27.87
6276 65.6485 836.00 795.38 28.91
6277 65.6577 823.00 804.39 28.69
6278 65.6669 862.00 799.03 29.36
6279 65.6761 829.00 780.13 28.79
6280 65.6853 777.00 750.64 27.87
6281 65.6945 747.00 714.86 27.33
6282 65.7037 676.00 677.22 26.00
6283 65.7129 697.00 641.32 26.40
6284 65.7221 626.00 609.65 25.02
6285 65.7313 589.00 583.54 24.27
6286 65.7405 547.00 563.41 23.39
6287 65.7497 543.00 549.09 23.30
6288 65.7589 527.00 540.14 22.96
6289 65.7681 550.00 536.03 23.45
6290 65.7773 498.00 536.22 22.32
6291 65.7865 541.00 540.25 23.26
6292 65.7957 546.00 547.59 23.37
6293 65.8049 562.00 557.62 23.71
6294 65.8141 589.00 569.49 24.27
6295 65.8233 635.00 582.04 25.20
6296 65.8325 615.00 593.84 24.80
6297 65.8417 624.00 603.47 24.98
6298 65.8509 617.00 609.83 24.84
6299 65.8601 605.00 612.54 24.60
6300 65.8693 612.00 612.14 24.74
6301 65.8785 589.00 610.01 24.27
6302 65.8877 600.00 608.02 24.49
6303 65.8969 593.00 608.05 24.35
6304 65.9061 647.00 611.54 25.44
6305 65.9153 625.00 619.21 25.00
6306 65.9245 631.00 630.96 25.12
6307 65.9337 672.00 645.80 25.92
6308 65.9429 693.00 662.09 26.32
6309 65.9521 728.00 677.91 26.98
6310 65.9613 696.00 691.40 26.38
6311 65.9705 733.00 701.28 27.07
6312 65.9797 714.00 706.92 26.72
6313 65.9889 719.00 708.18 26.81
6314 65.9981 658.00 705.07 25.65
6315 66.0073 692.00 697.44 26.31
6316 66.0165 685.00 685.33 26.17
6317 66.0257 652.00 668.73 25.53
6318 66.0349 579.00 648.31 24.06
6319 66.0441 593.00 625.27 24.35
6320 66.0533 596.00 601.24 24.41
6321 66.0625 554.00 577.76 23.54
6322 66.0717 537.00 556.12 23.17
6323 66.0809 502.00 537.14 22.41
6324 66.0901 530.00 521.10 23.02
6325 66.0993 497.00 507.97 22.29
6326 66.1085 491.00 497.50 22.16
6327 66.1177 539.00 489.29 23.22
6328 66.1269 487.00 482.89 22.07
6329 66.1361 469.00 477.92 21.66
6330 66.1453 487.00 474.02 22.07
6331 66.1545 468.00 470.94 21.63
6332 66.1637 468.00 468.46 21.63
6333 66.1729 439.00 466.42 20.95
6334 66.1821 461.00 464.72 21.47
6335 66.1913 437.00 463.30 20.90
6336 66.2005 454.00 462.09 21.31
6337 66.2097 438.00 461.07 20.93
6338 66.2189 461.00 460.75 21.47
6339 66.2281 534.00 460.06 23.11
6340 66.2373 473.00 459.53 21.75
6341 66.2465 454.00 459.12 21.31
6342 66.2557 484.00 458.82 22.00
6343 66.2649 460.00 458.66 21.45
6344 66.2741 471.00 458.62 21.70
6345 66.2833 462.00 458.69 21.49
6346 66.2924 450.00 458.87 21.21
6347 66.3017 438.00 459.17 20.93
6348 66.3109 468.00 459.59 21.63
6349 66.3201 418.00 460.15 20.44
6350 66.3293 489.00 460.88 22.11
6351 66.3385 444.00 461.81 21.07
6352 66.3477 473.00 463.01 21.75
6353 66.3568 455.00 464.57 21.33
6354 66.3661 478.00 466.60 21.86
6355 66.3753 464.00 469.27 21.54
6356 66.3845 456.00 472.79 21.35
6357 66.3936 490.00 477.37 22.14
6358 66.4028 516.00 483.34 22.72
6359 66.4120 493.00 490.91 22.20
6360 66.4212 457.00 500.21 21.38
6361 66.4304 534.00 511.27 23.11
6362 66.4397 529.00 523.77 23.00
6363 66.4489 576.00 537.14 24.00
6364 66.4580 582.00 550.42 24.12
6365 66.4672 597.00 562.41 24.43
6366 66.4764 626.00 571.81 25.02
6367 66.4856 593.00 577.58 24.35
6368 66.4948 602.00 579.11 24.54
6369 66.5040 589.00 576.37 24.27
6370 66.5132 583.00 569.89 24.15
6371 66.5224 608.00 560.58 24.66
6372 66.5316 542.00 549.60 23.28
6373 66.5408 570.00 538.08 23.87
6374 66.5500 529.00 527.55 23.00
6375 66.5592 489.00 517.95 22.11
6376 66.5684 522.00 510.30 22.85
6377 66.5776 509.00 504.79 22.56
6378 66.5868 484.00 501.97 22.00
6379 66.5960 510.00 501.73 22.58
6380 66.6052 517.00 504.05 22.74
6381 66.6144 485.00 508.73 22.02
6382 66.6236 500.00 515.52 22.36
6383 66.6328 506.00 523.92 22.49
6384 66.6420 604.00 533.20 24.58
6385 66.6512 530.00 542.36 23.02
6386 66.6604 589.00 550.20 24.27
6387 66.6696 594.00 555.59 24.37
6388 66.6788 536.00 557.54 23.15
6389 66.6880 562.00 556.47 23.71
6390 66.6972 527.00 551.90 22.96
6391 66.7064 526.00 545.10 22.93
6392 66.7156 589.00 537.34 24.27
6393 66.7248 531.00 529.88 23.04
6394 66.7340 543.00 523.85 23.30
6395 66.7432 518.00 520.11 22.76
6396 66.7524 444.00 519.32 21.07
6397 66.7616 545.00 521.97 23.35
6398 66.7708 528.00 528.36 22.98
6399 66.7800 487.00 538.66 22.07
6400 66.7892 560.00 552.75 23.66
6401 66.7984 569.00 570.19 23.85
6402 66.8076 567.00 589.87 23.81
6403 66.8168 627.00 610.25 25.04
6404 66.8260 620.00 629.10 24.90
6405 66.8352 594.00 643.94 24.37
6406 66.8444 671.00 652.48 25.90
6407 66.8536 637.00 653.22 25.24
6408 66.8628 594.00 645.90 24.37
6409 66.8720 641.00 631.62 25.32
6410 66.8812 580.00 612.44 24.08
6411 66.8904 564.00 590.80 23.75
6412 66.8996 570.00 568.95 23.87
6413 66.9088 564.00 548.35 23.75
6414 66.9180 577.00 530.50 24.02
6415 66.9272 536.00 515.76 23.15
6416 66.9364 516.00 503.76 22.72
6417 66.9456 519.00 494.38 22.78
6418 66.9548 510.00 487.21 22.58
6419 66.9640 473.00 481.80 21.75
6420 66.9732 469.00 477.73 21.66
6421 66.9824 440.00 474.65 20.98
6422 66.9916 499.00 472.30 22.34
6423 67.0008 501.00 470.49 22.38
6424 67.0100 477.00 469.07 21.84
6425 67.0192 475.00 467.94 21.79
6426 67.0284 494.00 467.04 22.23
6427 67.0376 455.00 466.31 21.33
6428 67.0468 446.00 465.74 21.12
6429 67.0560 419.00 465.30 20.47
6430 67.0652 441.00 464.98 21.00
6431 67.0744 437.00 464.76 20.90
6432 67.0836 482.00 464.67 21.95
6433 67.0928 475.00 464.82 21.79
6434 67.1020 487.00 464.91 22.07
6435 67.1112 504.00 465.24 22.45
6436 67.1204 458.00 465.73 21.40
6437 67.1296 489.00 466.39 22.11
6438 67.1388 462.00 467.22 21.49
6439 67.1480 462.00 468.21 21.49
6440 67.1572 463.00 469.34 21.52
6441 67.1664 510.00 470.57 22.58
6442 67.1756 480.00 471.84 21.91
6443 67.1848 462.00 473.12 21.49
6444 67.1940 500.00 474.36 22.36
6445 67.2032 451.00 475.57 21.24
6446 67.2124 491.00 476.66 22.16
6447 67.2216 460.00 477.94 21.45
6448 67.2308 459.00 479.39 21.42
6449 67.2400 484.00 481.08 22.00
6450 67.2492 484.00 483.10 22.00
6451 67.2584 451.00 485.49 21.24
6452 67.2676 505.00 488.18 22.47
6453 67.2768 447.00 491.39 21.14
6454 67.2860 492.00 495.11 22.18
6455 67.2952 460.00 499.41 21.45
6456 67.3044 491.00 504.40 22.16
6457 67.3136 485.00 510.27 22.02
6458 67.3228 550.00 517.31 23.45
6459 67.3320 497.00 525.86 22.29
6460 67.3412 540.00 536.49 23.24
6461 67.3504 554.00 549.97 23.54
6462 67.3596 572.00 567.39 23.92
6463 67.3688 577.00 590.12 24.02
6464 67.3780 590.00 619.88 24.29
6465 67.3872 680.00 658.54 26.08
6466 67.3964 739.00 708.03 27.18
6467 67.4056 746.00 769.78 27.31
6468 67.4148 785.00 844.22 28.02
6469 67.4240 903.00 930.35 30.05
6470 67.4332 1043.00 1024.54 32.30
6471 67.4424 1162.00 1120.61 34.09
6472 67.4516 1224.00 1209.61 34.99
6473 67.4608 1312.00 1281.21 36.22
6474 67.4700 1374.00 1325.63 37.07
6475 67.4792 1359.00 1335.82 36.86
6476 67.4884 1287.00 1310.32 35.87
6477 67.4976 1212.00 1253.30 34.81
6478 67.5068 1154.00 1173.34 33.97
6479 67.5160 1093.00 1081.03 33.06
6480 67.5252 966.00 986.74 31.08
6481 67.5344 856.00 897.46 29.26
6482 67.5436 790.00 818.61 28.11
6483 67.5528 777.00 752.48 27.87
6484 67.5620 679.00 699.27 26.06
6485 67.5712 651.00 658.02 25.51
6486 67.5804 625.00 627.06 25.00
6487 67.5896 630.00 604.68 25.10
6488 67.5988 597.00 588.68 24.43
6489 67.6080 586.00 577.78 24.21
6490 67.6172 582.00 570.85 24.12
6491 67.6264 626.00 567.10 25.02
6492 67.6356 580.00 566.02 24.08
6493 67.6448 603.00 567.34 24.56
6494 67.6540 625.00 570.93 25.00
6495 67.6632 594.00 576.76 24.37
6496 67.6724 609.00 584.93 24.68
6497 67.6816 668.00 595.65 25.85
6498 67.6908 635.00 609.27 25.20
6499 67.7000 661.00 626.47 25.71
6500 67.7092 675.00 648.23 25.98
6501 67.7184 738.00 675.93 27.17
6502 67.7276 758.00 711.19 27.53
6503 67.7368 813.00 755.75 28.51
6504 67.7460 862.00 810.78 29.36
6505 67.7552 874.00 876.53 29.56
6506 67.7644 1001.00 951.50 31.64
6507 67.7736 1079.00 1032.14 32.85
6508 67.7828 1139.00 1112.53 33.75
6509 67.7920 1244.00 1184.77 35.27
6510 67.8012 1320.00 1240.63 36.33
6511 67.8104 1352.00 1273.23 36.77
6512 67.8196 1358.00 1279.41 36.85
6513 67.8288 1357.00 1260.28 36.84
6514 67.8380 1258.00 1221.70 35.47
6515 67.8472 1256.00 1172.55 35.44
6516 67.8564 1130.00 1121.40 33.62
6517 67.8656 1041.00 1076.82 32.26
6518 67.8748 1099.00 1044.67 33.15
6519 67.8840 1020.00 1028.34 31.94
6520 67.8932 1007.00 1028.48 31.73
6521 67.9024 1023.00 1043.08 31.98
6522 67.9116 1085.00 1067.59 32.94
6523 67.9208 1111.00 1095.26 33.33
6524 67.9300 1132.00 1118.31 33.65
6525 67.9392 1204.00 1129.38 34.70
6526 67.9484 1238.00 1123.47 35.19
6527 67.9576 1150.00 1098.94 33.91
6528 67.9668 1112.00 1058.12 33.35
6529 67.9760 1025.00 1006.08 32.02
6530 67.9852 923.00 949.45 30.38
6531 67.9944 805.00 894.34 28.37
6532 68.0036 865.00 845.37 29.41
6533 68.0128 720.00 805.05 26.83
6534 68.0220 693.00 774.06 26.32
6535 68.0312 763.00 751.47 27.62
6536 68.0404 724.00 735.22 26.91
6537 68.0496 716.00 722.91 26.76
6538 68.0588 667.00 712.20 25.83
6539 68.0680 651.00 701.61 25.51
6540 68.0772 702.00 690.63 26.50
6541 68.0864 621.00 679.81 24.92
6542 68.0956 629.00 670.51 25.08
6543 68.1048 623.00 664.31 24.96
6544 68.1140 626.00 662.71 25.02
6545 68.1232 657.00 667.21 25.63
6546 68.1324 621.00 678.25 24.92
6547 68.1416 724.00 695.55 26.91
6548 68.1508 746.00 717.90 27.31
6549 68.1600 789.00 743.01 28.09
6550 68.1692 875.00 767.60 29.58
6551 68.1784 842.00 787.95 29.02
6552 68.1876 879.00 800.36 29.65
6553 68.1968 867.00 802.24 29.44
6554 68.2060 830.00 792.78 28.81
6555 68.2152 771.00 773.13 27.77
6556 68.2244 714.00 746.08 26.72
6557 68.2336 687.00 715.24 26.21
6558 68.2428 715.00 684.23 26.74
6559 68.2520 646.00 655.95 25.42
6560 68.2612 625.00 632.50 25.00
6561 68.2704 551.00 615.15 23.47
6562 68.2796 525.00 604.44 22.91
6563 68.2888 588.00 600.47 24.25
6564 68.2980 598.00 602.89 24.45
6565 68.3072 588.00 611.01 24.25
6566 68.3164 614.00 623.72 24.78
6567 68.3256 608.00 639.47 24.66
6568 68.3348 623.00 656.24 24.96
6569 68.3439 611.00 671.45 24.72
6570 68.3531 689.00 682.65 26.25
6571 68.3624 730.00 687.66 27.02
6572 68.3716 679.00 685.31 26.06
6573 68.3808 657.00 675.65 25.63
6574 68.3900 649.00 659.90 25.48
6575 68.3992 651.00 640.08 25.51
6576 68.4083 573.00 618.48 23.94
6577 68.4175 558.00 597.02 23.62
6578 68.4268 570.00 577.22 23.87
6579 68.4360 516.00 559.91 22.72
6580 68.4451 501.00 545.47 22.38
6581 68.4543 526.00 533.89 22.93
6582 68.4635 518.00 524.97 22.76
6583 68.4727 501.00 518.39 22.38
6584 68.4819 508.00 513.84 22.54
6585 68.4911 483.00 511.05 21.98
6586 68.5003 530.00 509.80 23.02
6587 68.5095 494.00 509.95 22.23
6588 68.5187 490.00 511.39 22.14
6589 68.5279 518.00 514.01 22.76
6590 68.5371 497.00 517.71 22.29
6591 68.5463 519.00 522.31 22.78
6592 68.5555 524.00 527.59 22.89
6593 68.5647 539.00 533.24 23.22
6594 68.5739 499.00 538.92 22.34
6595 68.5831 529.00 544.29 23.00
6596 68.5923 534.00 549.18 23.11
6597 68.6015 591.00 553.64 24.31
6598 68.6107 577.00 558.04 24.02
6599 68.6199 541.00 563.03 23.26
6600 68.6291 581.00 569.53 24.10
6601 68.6383 560.00 578.56 23.66
6602 68.6475 579.00 591.26 24.06
6603 68.6567 597.00 608.81 24.43
6604 68.6659 628.00 632.59 25.06
6605 68.6751 690.00 663.05 26.27
6606 68.6843 704.00 701.15 26.53
6607 68.6935 719.00 747.09 26.81
6608 68.7027 830.00 800.36 28.81
6609 68.7119 889.00 859.55 29.82
6610 68.7211 987.00 922.22 31.42
6611 68.7303 983.00 985.33 31.35
6612 68.7395 996.00 1045.58 31.56
6613 68.7487 1124.00 1100.03 33.53
6614 68.7579 1167.00 1146.29 34.16
6615 68.7671 1206.00 1184.87 34.73
6616 68.7763 1253.00 1214.90 35.40
6617 68.7855 1275.00 1235.97 35.71
6618 68.7947 1244.00 1247.33 35.27
6619 68.8039 1300.00 1248.16 36.06
6620 68.8131 1257.00 1238.34 35.45
6621 68.8223 1297.00 1218.98 36.01
6622 68.8315 1278.00 1192.15 35.75
6623 68.8407 1223.00 1160.19 34.97
6624 68.8499 1152.00 1124.69 33.94
6625 68.8591 1099.00 1086.16 33.15
6626 68.8683 1005.00 1044.06 31.70
6627 68.8775 997.00 997.95 31.58
6628 68.8867 964.00 948.19 31.05
6629 68.8959 918.00 896.07 30.30
6630 68.9051 835.00 843.88 28.90
6631 68.9143 769.00 794.11 27.73
6632 68.9235 690.00 748.95 26.27
6633 68.9327 623.00 709.79 24.96
6634 68.9419 667.00 677.42 25.83
6635 68.9511 600.00 651.99 24.49
6636 68.9603 622.00 633.27 24.94
6637 68.9695 609.00 620.82 24.68
6638 68.9787 621.00 614.32 24.92
6639 68.9879 581.00 613.57 24.10
6640 68.9971 602.00 618.66 24.54
6641 69.0063 623.00 630.09 24.96
6642 69.0155 636.00 648.59 25.22
6643 69.0247 624.00 675.09 24.98
6644 69.0339 698.00 710.57 26.42
6645 69.0431 753.00 755.67 27.44
6646 69.0523 839.00 810.38 28.97
6647 69.0615 903.00 873.55 30.05
6648 69.0707 892.00 942.77 29.87
6649 69.0799 970.00 1013.74 31.14
6650 69.0891 1090.00 1080.94 33.02
6651 69.0983 1073.00 1137.38 32.76
6652 69.1075 1160.00 1177.88 34.06
6653 69.1167 1195.00 1196.90 34.57
6654 69.1259 1203.00 1191.99 34.68
6655 69.1351 1137.00 1163.86 33.72
6656 69.1443 1197.00 1116.30 34.60
6657 69.1535 1091.00 1055.25 33.03
6658 69.1627 1008.00 987.55 31.75
6659 69.1719 947.00 919.15 30.77
6660 69.1811 880.00 854.49 29.66
6661 69.1903 829.00 796.37 28.79
6662 69.1995 706.00 745.75 26.57
6663 69.2087 681.00 702.64 26.10
6664 69.2179 666.00 666.56 25.81
6665 69.2271 622.00 636.82 24.94
6666 69.2363 557.00 612.31 23.60
6667 69.2455 568.00 593.21 23.83
6668 69.2547 557.00 578.58 23.60
6669 69.2639 595.00 567.93 24.39
6670 69.2731 536.00 560.84 23.15
6671 69.2823 551.00 556.93 23.47
6672 69.2915 543.00 555.80 23.30
6673 69.3007 493.00 557.03 22.20
6674 69.3099 557.00 560.15 23.60
6675 69.3191 502.00 564.60 22.41
6676 69.3283 587.00 569.84 24.23
6677 69.3375 547.00 575.29 23.39
6678 69.3467 589.00 580.34 24.27
6679 69.3559 571.00 584.62 23.90
6680 69.3651 577.00 587.52 24.02
6681 69.3743 585.00 588.57 24.19
6682 69.3835 572.00 587.42 23.92
6683 69.3927 572.00 584.01 23.92
6684 69.4019 594.00 578.60 24.37
6685 69.4111 569.00 571.79 23.85
6686 69.4203 557.00 564.34 23.60
6687 69.4295 598.00 556.96 24.45
6688 69.4387 559.00 550.14 23.64
6689 69.4479 511.00 544.03 22.61
6690 69.4571 497.00 538.55 22.29
6691 69.4663 542.00 533.48 23.28
6692 69.4755 541.00 528.57 23.26
6693 69.4847 514.00 523.50 22.67
6694 69.4939 495.00 518.78 22.25
6695 69.5031 474.00 514.45 21.77
6696 69.5123 488.00 510.77 22.09
6697 69.5215 498.00 508.15 22.32
6698 69.5307 491.00 506.89 22.16
6699 69.5399 491.00 507.26 22.16
6700 69.5491 510.00 509.40 22.58
6701 69.5583 498.00 513.36 22.32
6702 69.5675 475.00 519.01 21.79
6703 69.5767 516.00 526.01 22.72
6704 69.5859 539.00 533.79 23.22
6705 69.5951 524.00 541.55 22.89
6706 69.6043 525.00 548.29 22.91
6707 69.6135 551.00 553.01 23.47
6708 69.6227 515.00 554.90 22.69
6709 69.6319 581.00 553.57 24.10
6710 69.6411 502.00 549.12 22.41
6711 69.6503 513.00 542.18 22.65
6712 69.6595 495.00 533.55 22.25
6713 69.6687 507.00 524.40 22.52
6714 69.6779 467.00 515.47 21.61
6715 69.6871 492.00 507.37 22.18
6716 69.6963 489.00 500.48 22.11
6717 69.7055 479.00 494.93 21.89
6718 69.7147 438.00 490.75 20.93
6719 69.7239 484.00 487.81 22.00
6720 69.7331 460.00 485.97 21.45
6721 69.7423 462.00 485.05 21.49
6722 69.7515 478.00 484.92 21.86
6723 69.7607 467.00 485.44 21.61
6724 69.7699 485.00 486.55 22.02
6725 69.7791 478.00 488.21 21.86
6726 69.7883 508.00 490.46 22.54
6727 69.7975 458.00 493.35 21.40
6728 69.8067 497.00 496.99 22.29
6729 69.8159 524.00 501.54 22.89
6730 69.8251 549.00 507.24 23.43
6731 69.8343 505.00 514.41 22.47
6732 69.8435 486.00 523.52 22.05
6733 69.8527 493.00 535.13 22.20
6734 69.8619 564.00 550.01 23.75
6735 69.8711 543.00 569.06 23.30
6736 69.8803 566.00 593.20 23.79
6737 69.8895 585.00 623.26 24.19
6738 69.8987 589.00 659.76 24.27
6739 69.9079 712.00 702.48 26.68
6740 69.9171 761.00 750.18 27.59
6741 69.9263 852.00 800.46 29.19
6742 69.9355 884.00 849.45 29.73
6743 69.9447 977.00 892.25 31.26
6744 69.9539 1019.00 923.56 31.92
6745 69.9631 930.00 939.07 30.50
6746 69.9723 991.00 936.39 31.48
6747 69.9815 986.00 915.86 31.40
6748 69.9907 912.00 880.42 30.20
6749 69.9999 826.00 834.72 28.74
6750 70.0091 776.00 784.02 27.86
6751 70.0183 687.00 733.09 26.21
6752 70.0275 631.00 685.38 25.12
6753 70.0367 606.00 643.15 24.62
6754 70.0459 587.00 607.18 24.23
6755 70.0551 530.00 577.89 23.02
6756 70.0643 526.00 554.62 22.93
6757 70.0735 483.00 536.49 21.98
6758 70.0827 554.00 522.52 23.54
6759 70.0919 497.00 511.80 22.29
6760 70.1011 469.00 503.51 21.66
6761 70.1103 474.00 496.70 21.77
6762 70.1195 471.00 491.58 21.70
6763 70.1287 440.00 487.45 20.98
6764 70.1379 469.00 484.06 21.66
6765 70.1471 468.00 481.25 21.63
6766 70.1563 460.00 478.91 21.45
6767 70.1655 490.00 476.96 22.14
6768 70.1747 495.00 475.21 22.25
6769 70.1839 469.00 473.90 21.66
6770 70.1931 469.00 472.87 21.66
6771 70.2023 429.00 472.08 20.71
6772 70.2115 481.00 471.49 21.93
6773 70.2207 464.00 471.14 21.54
6774 70.2299 466.00 470.80 21.59
6775 70.2391 450.00 470.46 21.21
6776 70.2483 452.00 470.06 21.26
6777 70.2575 432.00 469.54 20.78
6778 70.2667 472.00 468.89 21.73
6779 70.2759 470.00 468.12 21.68
6780 70.2851 433.00 467.30 20.81
6781 70.2943 448.00 466.47 21.17
6782 70.3035 472.00 465.70 21.73
6783 70.3127 465.00 465.05 21.56
6784 70.3219 445.00 464.53 21.09
6785 70.3311 434.00 464.19 20.83
6786 70.3403 455.00 464.03 21.33
6787 70.3495 482.00 464.08 21.95
6788 70.3587 454.00 464.35 21.31
6789 70.3679 441.00 464.87 21.00
6790 70.3771 457.00 465.71 21.38
6791 70.3863 462.00 466.93 21.49
6792 70.3954 430.00 468.64 20.74
6793 70.4047 464.00 470.79 21.54
6794 70.4139 487.00 473.96 22.07
6795 70.4231 452.00 477.80 21.26
6796 70.4323 504.00 482.13 22.45
6797 70.4415 471.00 487.67 21.70
6798 70.4507 470.00 493.90 21.68
6799 70.4599 455.00 500.47 21.33
6800 70.4690 475.00 506.90 21.79
6801 70.4782 500.00 512.57 22.36
6802 70.4874 484.00 516.79 22.00
6803 70.4966 475.00 518.97 21.79
6804 70.5058 514.00 518.77 22.67
6805 70.5150 464.00 516.43 21.54
6806 70.5243 497.00 512.01 22.29
6807 70.5334 489.00 506.33 22.11
6808 70.5426 472.00 499.96 21.73
6809 70.5518 468.00 493.58 21.63
6810 70.5611 464.00 487.68 21.54
6811 70.5702 481.00 482.55 21.93
6812 70.5794 468.00 478.32 21.63
6813 70.5886 479.00 474.99 21.89
6814 70.5978 441.00 472.49 21.00
6815 70.6070 472.00 470.67 21.73
6816 70.6162 463.00 469.38 21.52
6817 70.6254 464.00 468.46 21.54
6818 70.6346 489.00 467.79 22.11
6819 70.6438 464.00 467.25 21.54
6820 70.6530 439.00 466.85 20.95
6821 70.6622 497.00 466.56 22.29
6822 70.6714 445.00 466.39 21.09
6823 70.6806 454.00 466.42 21.31
6824 70.6898 417.00 466.67 20.42
6825 70.6990 412.00 467.18 20.30
6826 70.7082 462.00 468.17 21.49
6827 70.7174 464.00 469.67 21.54
6828 70.7266 429.00 471.78 20.71
6829 70.7358 482.00 474.61 21.95
6830 70.7450 466.00 478.22 21.59
6831 70.7542 448.00 482.63 21.17
6832 70.7634 450.00 487.77 21.21
6833 70.7726 482.00 493.46 21.95
6834 70.7818 531.00 499.36 23.04
6835 70.7910 509.00 505.05 22.56
6836 70.8002 503.00 509.97 22.43
6837 70.8094 484.00 513.58 22.00
6838 70.8186 535.00 515.49 23.13
6839 70.8278 518.00 515.57 22.76
6840 70.8370 492.00 513.97 22.18
6841 70.8462 483.00 511.18 21.98
6842 70.8554 481.00 507.84 21.93
6843 70.8646 502.00 504.72 22.41
6844 70.8738 499.00 502.32 22.34
6845 70.8830 476.00 501.27 21.82
6846 70.8922 501.00 501.97 22.38
6847 70.9014 494.00 504.67 22.23
6848 70.9106 478.00 509.45 21.86
6849 70.9198 495.00 516.22 22.25
6850 70.9290 476.00 524.64 21.82
6851 70.9382 526.00 534.07 22.93
6852 70.9474 497.00 543.75 22.29
6853 70.9566 590.00 552.56 24.29
6854 70.9658 570.00 559.35 23.87
6855 70.9750 566.00 563.09 23.79
6856 70.9842 608.00 563.17 24.66
6857 70.9934 563.00 559.50 23.73
6858 71.0026 544.00 552.50 23.32
6859 71.0118 555.00 543.10 23.56
6860 71.0210 543.00 532.34 23.30
6861 71.0302 492.00 521.25 22.18
6862 71.0394 482.00 510.66 21.95
6863 71.0486 487.00 501.10 22.07
6864 71.0578 466.00 492.86 21.59
6865 71.0670 434.00 486.04 20.83
6866 71.0762 463.00 480.54 21.52
6867 71.0854 490.00 476.23 22.14
6868 71.0946 464.00 472.90 21.54
6869 71.1038 452.00 470.36 21.26
6870 71.1130 472.00 468.42 21.73
6871 71.1222 402.00 466.94 20.05
6872 71.1314 483.00 465.80 21.98
6873 71.1406 454.00 464.91 21.31
6874 71.1498 464.00 464.22 21.54
6875 71.1590 442.00 463.72 21.02
6876 71.1682 437.00 463.29 20.90
6877 71.1774 433.00 462.96 20.81
6878 71.1866 432.00 462.71 20.78
6879 71.1958 455.00 462.53 21.33
6880 71.2050 437.00 462.43 20.90
6881 71.2142 470.00 462.43 21.68
6882 71.2234 445.00 462.49 21.09
6883 71.2326 444.00 462.63 21.07
6884 71.2418 441.00 462.86 21.00
6885 71.2510 451.00 463.20 21.24
6886 71.2602 426.00 463.63 20.64
6887 71.2694 456.00 464.27 21.35
6888 71.2786 471.00 464.92 21.70
6889 71.2878 480.00 465.38 21.91
6890 71.2970 477.00 466.27 21.84
6891 71.3062 445.00 467.26 21.09
6892 71.3154 462.00 468.44 21.49
6893 71.3246 458.00 469.79 21.40
6894 71.3338 454.00 471.36 21.31
6895 71.3430 437.00 473.20 20.90
6896 71.3522 483.00 475.39 21.98
6897 71.3614 439.00 478.05 20.95
6898 71.3706 467.00 481.32 21.61
6899 71.3798 483.00 485.42 21.98
6900 71.3890 483.00 490.61 21.98
6901 71.3982 482.00 497.22 21.95
6902 71.4074 507.00 505.60 22.52
6903 71.4166 524.00 516.12 22.89
6904 71.4258 526.00 529.08 22.93
6905 71.4350 502.00 544.68 22.41
6906 71.4442 531.00 562.88 23.04
6907 71.4534 570.00 583.33 23.87
6908 71.4626 619.00 605.26 24.88
6909 71.4718 606.00 627.52 24.62
6910 71.4810 651.00 648.62 25.51
6911 71.4902 682.00 666.93 26.12
6912 71.4994 693.00 681.13 26.32
6913 71.5086 716.00 690.26 26.76
6914 71.5178 686.00 694.08 26.19
6915 71.5270 662.00 692.79 25.73
6916 71.5362 664.00 686.94 25.77
6917 71.5454 669.00 677.15 25.86
6918 71.5546 654.00 664.11 25.57
6919 71.5638 619.00 648.61 24.88
6920 71.5730 589.00 631.58 24.27
6921 71.5822 575.00 614.12 23.98
6922 71.5914 589.00 597.39 24.27
6923 71.6006 562.00 582.40 23.71
6924 71.6098 557.00 569.94 23.60
6925 71.6190 536.00 560.63 23.15
6926 71.6282 483.00 554.86 21.98
6927 71.6374 535.00 552.89 23.13
6928 71.6466 519.00 555.05 22.78
6929 71.6558 574.00 561.36 23.96
6930 71.6650 547.00 572.06 23.39
6931 71.6742 552.00 587.27 23.49
6932 71.6834 557.00 606.86 23.60
6933 71.6926 590.00 630.42 24.29
6934 71.7018 676.00 657.03 26.00
6935 71.7110 655.00 685.32 25.59
6936 71.7202 714.00 713.35 26.72
6937 71.7294 774.00 738.80 27.82
6938 71.7386 734.00 759.60 27.09
6939 71.7478 815.00 774.23 28.55
6940 71.7570 785.00 782.35 28.02
6941 71.7662 804.00 784.99 28.35
6942 71.7754 796.00 784.32 28.21
6943 71.7846 789.00 783.03 28.09
6944 71.7938 772.00 783.84 27.78
6945 71.8030 787.00 788.04 28.05
6946 71.8122 737.00 796.18 27.15
6947 71.8214 817.00 807.26 28.58
6948 71.8306 850.00 818.78 29.15
6949 71.8398 887.00 827.98 29.78
6950 71.8490 898.00 831.49 29.97
6951 71.8582 849.00 826.97 29.14
6952 71.8674 803.00 813.47 28.34
6953 71.8766 834.00 791.52 28.88
6954 71.8858 804.00 763.10 28.35
6955 71.8950 691.00 730.81 26.29
6956 71.9042 698.00 697.62 26.42
6957 71.9134 631.00 666.02 25.12
6958 71.9226 633.00 637.92 25.16
6959 71.9318 592.00 614.42 24.33
6960 71.9410 592.00 596.05 24.33
6961 71.9502 579.00 582.60 24.06
6962 71.9594 506.00 573.56 22.49
6963 71.9686 591.00 568.11 24.31
6964 71.9778 549.00 565.26 23.43
6965 71.9870 559.00 563.84 23.64
6966 71.9962 596.00 562.84 24.41
6967 72.0054 579.00 561.40 24.06
6968 72.0146 536.00 558.81 23.15
6969 72.0238 509.00 554.82 22.56
6970 72.0330 545.00 549.46 23.35
6971 72.0422 547.00 543.08 23.39
6972 72.0514 551.00 536.21 23.47
6973 72.0606 492.00 529.47 22.18
6974 72.0698 488.00 523.43 22.09
6975 72.0790 477.00 518.61 21.84
6976 72.0882 496.00 515.39 22.27
6977 72.0974 497.00 514.09 22.29
6978 72.1066 488.00 514.98 22.09
6979 72.1158 484.00 518.27 22.00
6980 72.1250 515.00 524.08 22.69
6981 72.1342 517.00 532.46 22.74
6982 72.1434 518.00 543.29 22.76
6983 72.1526 524.00 556.21 22.89
6984 72.1618 538.00 570.55 23.19
6985 72.1710 559.00 585.33 23.64
6986 72.1802 622.00 599.17 24.94
6987 72.1894 620.00 610.55 24.90
6988 72.1986 634.00 618.02 25.18
6989 72.2078 618.00 620.55 24.86
6990 72.2170 631.00 617.82 25.12
6991 72.2262 582.00 610.33 24.12
6992 72.2354 585.00 599.25 24.19
6993 72.2446 589.00 586.15 24.27
6994 72.2538 549.00 572.59 23.43
6995 72.2630 546.00 559.90 23.37
6996 72.2722 512.00 549.04 22.63
6997 72.2814 553.00 540.51 23.52
6998 72.2906 525.00 534.40 22.91
6999 72.2998 529.00 530.50 23.00
7000 72.3090 484.00 528.33 22.00
7001 72.3182 467.00 527.21 21.61
7002 72.3274 539.00 526.61 23.22
7003 72.3366 511.00 525.87 22.61
7004 72.3458 526.00 524.61 22.93
7005 72.3550 513.00 522.73 22.65
7006 72.3642 503.00 520.36 22.43
7007 72.3734 491.00 518.34 22.16
7008 72.3826 520.00 516.15 22.80
7009 72.3918 519.00 514.74 22.78
7010 72.4010 486.00 514.54 22.05
7011 72.4102 479.00 515.88 21.89
7012 72.4194 501.00 518.96 22.38
7013 72.4286 487.00 523.86 22.07
7014 72.4378 535.00 530.51 23.13
7015 72.4470 541.00 538.66 23.26
7016 72.4562 542.00 547.91 23.28
7017 72.4654 527.00 557.73 22.96
7018 72.4746 553.00 567.46 23.52
7019 72.4837 554.00 576.42 23.54
7020 72.4930 577.00 584.04 24.02
7021 72.5022 548.00 589.94 23.41
7022 72.5114 564.00 594.09 23.75
7023 72.5206 544.00 596.82 23.32
7024 72.5298 550.00 598.77 23.45
7025 72.5390 581.00 600.71 24.10
7026 72.5482 562.00 603.36 23.71
7027 72.5574 581.00 607.24 24.10
7028 72.5666 593.00 612.51 24.35
7029 72.5758 596.00 618.98 24.41
7030 72.5849 595.00 626.01 24.39
7031 72.5941 675.00 632.66 25.98
7032 72.6033 635.00 637.66 25.20
7033 72.6125 644.00 639.71 25.38
7034 72.6217 612.00 637.76 24.74
7035 72.6310 625.00 631.34 25.00
7036 72.6402 551.00 620.66 23.47
7037 72.6494 570.00 606.60 23.87
7038 72.6585 556.00 590.49 23.58
7039 72.6677 542.00 573.65 23.28
7040 72.6769 511.00 557.31 22.61
7041 72.6861 524.00 542.37 22.89
7042 72.6953 496.00 529.38 22.27
7043 72.7045 522.00 518.54 22.85
7044 72.7137 500.00 509.88 22.36
7045 72.7229 496.00 503.25 22.27
7046 72.7321 483.00 498.40 21.98
7047 72.7413 447.00 495.08 21.14
7048 72.7505 503.00 493.01 22.43
7049 72.7597 474.00 491.92 21.77
7050 72.7689 512.00 491.57 22.63
7051 72.7781 484.00 491.73 22.00
7052 72.7873 490.00 492.18 22.14
7053 72.7965 464.00 492.70 21.54
7054 72.8057 498.00 493.14 22.32
7055 72.8149 465.00 493.42 21.56
7056 72.8241 489.00 493.52 22.11
7057 72.8333 458.00 493.53 21.40
7058 72.8425 443.00 493.60 21.05
7059 72.8517 527.00 493.79 22.96
7060 72.8609 486.00 494.57 22.05
7061 72.8701 532.00 496.05 23.07
7062 72.8793 466.00 498.49 21.59
7063 72.8885 516.00 502.15 22.72
7064 72.8977 498.00 507.32 22.32
7065 72.9069 536.00 514.22 23.15
7066 72.9161 533.00 523.28 23.09
7067 72.9253 527.00 534.66 22.96
7068 72.9345 529.00 548.41 23.00
7069 72.9437 534.00 564.45 23.11
7070 72.9529 600.00 582.36 24.49
7071 72.9621 579.00 601.38 24.06
7072 72.9713 622.00 620.40 24.94
7073 72.9805 591.00 637.99 24.31
7074 72.9897 635.00 652.68 25.20
7075 72.9989 702.00 663.23 26.50
7076 73.0081 666.00 669.07 25.81
7077 73.0173 665.00 670.46 25.79
7078 73.0265 674.00 668.54 25.96
7079 73.0357 686.00 665.18 26.19
7080 73.0449 604.00 662.57 24.58
7081 73.0541 622.00 662.97 24.94
7082 73.0633 679.00 668.37 26.06
7083 73.0725 659.00 680.41 25.67
7084 73.0817 687.00 700.29 26.21
7085 73.0909 688.00 728.64 26.23
7086 73.1001 786.00 765.52 28.04
7087 73.1093 812.00 810.12 28.50
7088 73.1185 890.00 861.28 29.83
7089 73.1277 967.00 916.53 31.10
7090 73.1369 1042.00 972.92 32.28
7091 73.1461 1156.00 1027.29 34.00
7092 73.1553 1183.00 1076.47 34.39
7093 73.1645 1159.00 1117.65 34.04
7094 73.1737 1194.00 1148.64 34.55
7095 73.1829 1237.00 1167.76 35.17
7096 73.1921 1175.00 1173.83 34.28
7097 73.2013 1212.00 1166.37 34.81
7098 73.2105 1150.00 1145.75 33.91
7099 73.2197 1081.00 1114.00 32.88
7100 73.2289 1058.00 1073.67 32.53
7101 73.2381 990.00 1028.34 31.46
7102 73.2473 987.00 981.26 31.42
7103 73.2565 946.00 935.55 30.76
7104 73.2657 906.00 893.09 30.10
7105 73.2749 825.00 855.35 28.72
7106 73.2841 762.00 822.89 27.60
7107 73.2933 739.00 795.72 27.18
7108 73.3025 738.00 773.30 27.17
7109 73.3117 746.00 754.74 27.31
7110 73.3209 757.00 738.90 27.51
7111 73.3301 698.00 724.60 26.42
7112 73.3393 695.00 710.76 26.36
7113 73.3485 730.00 696.45 27.02
7114 73.3577 711.00 681.10 26.66
7115 73.3669 611.00 664.45 24.72
7116 73.3761 683.00 646.69 26.13
7117 73.3853 592.00 628.16 24.33
7118 73.3945 592.00 609.53 24.33
7119 73.4037 592.00 591.45 24.33
7120 73.4129 521.00 574.56 22.83
7121 73.4221 563.00 559.31 23.73
7122 73.4313 572.00 546.00 23.92
7123 73.4405 502.00 534.74 22.41
7124 73.4497 503.00 525.49 22.43
7125 73.4589 500.00 518.11 22.36
7126 73.4681 488.00 512.43 22.09
7127 73.4773 501.00 508.22 22.38
7128 73.4865 516.00 505.29 22.72
7129 73.4957 486.00 503.47 22.05
7130 73.5049 498.00 502.67 22.32
7131 73.5141 480.00 502.67 21.91
7132 73.5233 474.00 503.44 21.77
7133 73.5325 443.00 504.92 21.05
7134 73.5417 494.00 507.08 22.23
7135 73.5509 478.00 509.92 21.86
7136 73.5601 453.00 513.52 21.28
7137 73.5693 532.00 517.96 23.07
7138 73.5785 510.00 523.35 22.58
7139 73.5877 494.00 530.09 22.23
7140 73.5969 512.00 538.45 22.63
7141 73.6061 548.00 548.86 23.41
7142 73.6153 523.00 561.95 22.87
7143 73.6245 627.00 578.54 25.04
7144 73.6337 568.00 599.68 23.83
7145 73.6429 630.00 626.58 25.10
7146 73.6521 675.00 661.25 25.98
7147 73.6613 677.00 703.74 26.02
7148 73.6705 719.00 755.75 26.81
7149 73.6797 715.00 817.69 26.74
7150 73.6889 879.00 889.14 29.65
7151 73.6981 1016.00 968.21 31.87
7152 73.7073 1103.00 1051.10 33.21
7153 73.7165 1217.00 1132.31 34.89
7154 73.7257 1293.00 1204.78 35.96
7155 73.7349 1463.00 1260.58 38.25
7156 73.7441 1521.00 1292.67 39.00
7157 73.7533 1527.00 1296.52 39.08
7158 73.7625 1438.00 1271.40 37.92
7159 73.7717 1302.00 1220.56 36.08
7160 73.7809 1257.00 1150.39 35.45
7161 73.7901 1110.00 1068.85 33.32
7162 73.7993 964.00 983.55 31.05
7163 73.8085 866.00 900.80 29.43
7164 73.8177 831.00 825.21 28.83
7165 73.8269 688.00 759.09 26.23
7166 73.8361 658.00 703.44 25.65
7167 73.8453 610.00 657.97 24.70
7168 73.8545 575.00 622.07 23.98
7169 73.8637 629.00 593.67 25.08
7170 73.8729 538.00 571.65 23.19
7171 73.8821 527.00 554.57 22.96
7172 73.8913 548.00 541.40 23.41
7173 73.9005 530.00 531.13 23.02
7174 73.9097 541.00 523.08 23.26
7175 73.9189 478.00 516.73 21.86
7176 73.9281 523.00 511.77 22.87
7177 73.9373 533.00 507.94 23.09
7178 73.9465 478.00 505.15 21.86
7179 73.9557 497.00 503.31 22.29
7180 73.9649 529.00 502.35 23.00
7181 73.9741 501.00 502.22 22.38
7182 73.9833 501.00 502.82 22.38
7183 73.9925 539.00 504.01 23.22
7184 74.0017 514.00 505.45 22.67
7185 74.0109 451.00 507.05 21.24
7186 74.0201 491.00 508.33 22.16
7187 74.0293 506.00 508.92 22.49
7188 74.0385 480.00 508.51 21.91
7189 74.0477 545.00 506.96 23.35
7190 74.0569 442.00 504.29 21.02
7191 74.0661 515.00 500.72 22.69
7192 74.0753 493.00 496.54 22.20
7193 74.0845 473.00 492.12 21.75
7194 74.0937 464.00 487.75 21.54
7195 74.1029 517.00 483.67 22.74
7196 74.1121 509.00 480.03 22.56
7197 74.1213 452.00 476.91 21.26
7198 74.1305 509.00 474.31 22.56
7199 74.1397 478.00 472.19 21.86
7200 74.1489 480.00 470.51 21.91
7201 74.1581 454.00 469.19 21.31
7202 74.1673 448.00 468.17 21.17
7203 74.1765 453.00 467.39 21.28
7204 74.1857 451.00 466.81 21.24
7205 74.1949 463.00 466.40 21.52
7206 74.2041 473.00 466.14 21.75
7207 74.2133 465.00 466.01 21.56
7208 74.2225 473.00 466.03 21.75
7209 74.2317 450.00 466.20 21.21
7210 74.2409 428.00 466.54 20.69
7211 74.2501 428.00 467.07 20.69
7212 74.2593 470.00 467.83 21.68
7213 74.2685 453.00 468.81 21.28
7214 74.2777 470.00 470.05 21.68
7215 74.2869 489.00 471.51 22.11
7216 74.2961 464.00 473.17 21.54
7217 74.3053 496.00 474.96 22.27
7218 74.3145 442.00 476.75 21.02
7219 74.3237 493.00 478.41 22.20
7220 74.3329 444.00 479.80 21.07
7221 74.3421 480.00 480.78 21.91
7222 74.3513 492.00 481.28 22.18
7223 74.3605 500.00 481.31 22.36
7224 74.3697 486.00 480.94 22.05
7225 74.3789 437.00 480.32 20.90
7226 74.3881 518.00 479.50 22.76
7227 74.3973 476.00 478.85 21.82
7228 74.4065 481.00 478.39 21.93
7229 74.4157 470.00 478.22 21.68
7230 74.4249 483.00 478.38 21.98
7231 74.4341 466.00 478.90 21.59
7232 74.4433 517.00 479.80 22.74
7233 74.4525 505.00 481.10 22.47
7234 74.4617 449.00 482.83 21.19
7235 74.4709 535.00 485.05 23.13
7236 74.4801 473.00 487.83 21.75
7237 74.4893 492.00 491.29 22.18
7238 74.4985 466.00 495.60 21.59
7239 74.5077 486.00 500.98 22.05
7240 74.5169 484.00 507.76 22.00
7241 74.5261 538.00 516.32 23.19
7242 74.5353 515.00 526.95 22.69
7243 74.5445 511.00 540.60 22.61
7244 74.5537 548.00 557.66 23.41
7245 74.5629 578.00 578.67 24.04
7246 74.5721 564.00 603.91 23.75
7247 74.5813 581.00 633.62 24.10
7248 74.5905 608.00 666.96 24.66
7249 74.5997 683.00 703.43 26.13
7250 74.6089 774.00 740.60 27.82
7251 74.6181 789.00 775.86 28.09
7252 74.6273 900.00 805.97 30.00
7253 74.6365 917.00 827.57 30.28
7254 74.6457 856.00 838.16 29.26
7255 74.6549 910.00 836.36 30.17
7256 74.6641 847.00 822.46 29.10
7257 74.6733 772.00 798.32 27.78
7258 74.6825 711.00 766.90 26.66
7259 74.6917 734.00 731.51 27.09
7260 74.7009 654.00 695.33 25.57
7261 74.7101 666.00 660.89 25.81
7262 74.7193 603.00 629.83 24.56
7263 74.7285 589.00 603.10 24.27
7264 74.7377 578.00 581.12 24.04
7265 74.7468 541.00 563.77 23.26
7266 74.7561 519.00 550.62 22.78
7267 74.7653 540.00 541.17 23.24
7268 74.7745 548.00 534.99 23.41
7269 74.7837 551.00 531.61 23.47
7270 74.7929 506.00 530.67 22.49
7271 74.8021 537.00 531.97 23.17
7272 74.8112 570.00 535.34 23.87
7273 74.8204 569.00 540.70 23.85
7274 74.8297 544.00 547.95 23.32
7275 74.8389 577.00 556.98 24.02
7276 74.8480 551.00 567.61 23.47
7277 74.8572 581.00 579.60 24.10
7278 74.8664 578.00 592.59 24.04
7279 74.8756 622.00 606.19 24.94
7280 74.8848 613.00 620.00 24.76
7281 74.8941 634.00 633.85 25.18
7282 74.9033 657.00 647.91 25.63
7283 74.9124 678.00 662.89 26.04
7284 74.9216 717.00 680.15 26.78
7285 74.9308 679.00 701.57 26.06
7286 74.9400 732.00 729.64 27.06
7287 74.9492 756.00 766.54 27.50
7288 74.9584 821.00 814.81 28.65
7289 74.9676 808.00 876.22 28.43
7290 74.9768 884.00 951.58 29.73
7291 74.9860 1011.00 1040.23 31.80
7292 74.9952 1128.00 1139.74 33.59
7293 75.0044 1221.00 1245.25 34.94
7294 75.0136 1291.00 1349.62 35.93
7295 75.0228 1450.00 1443.41 38.08
7296 75.0320 1577.00 1516.87 39.71
7297 75.0412 1627.00 1560.97 40.34
7298 75.0504 1584.00 1569.88 39.80
7299 75.0596 1625.00 1542.47 40.31
7300 75.0688 1528.00 1482.57 39.09
7301 75.0780 1534.00 1397.99 39.17
7302 75.0872 1336.00 1298.67 36.55
7303 75.0964 1204.00 1194.35 34.70
7304 75.1056 1066.00 1093.46 32.65
7305 75.1148 996.00 1002.17 31.56
7306 75.1240 897.00 924.47 29.95
7307 75.1332 806.00 862.25 28.39
7308 75.1424 758.00 816.32 27.53
7309 75.1516 739.00 785.75 27.18
7310 75.1608 783.00 770.89 27.98
7311 75.1700 843.00 770.02 29.03
7312 75.1792 774.00 781.82 27.82
7313 75.1884 786.00 804.67 28.04
7314 75.1976 876.00 836.61 29.60
7315 75.2068 841.00 874.97 29.00
7316 75.2160 901.00 916.29 30.02
7317 75.2252 909.00 956.26 30.15
7318 75.2344 958.00 990.09 30.95
7319 75.2436 1015.00 1012.97 31.86
7320 75.2528 981.00 1021.02 31.32
7321 75.2620 1013.00 1012.27 31.83
7322 75.2712 957.00 987.06 30.94
7323 75.2804 877.00 947.97 29.61
7324 75.2896 821.00 899.16 28.65
7325 75.2988 796.00 845.24 28.21
7326 75.3080 790.00 790.56 28.11
7327 75.3172 689.00 738.54 26.25
7328 75.3264 694.00 691.48 26.34
7329 75.3356 642.00 650.54 25.34
7330 75.3448 605.00 616.09 24.60
7331 75.3540 601.00 587.85 24.52
7332 75.3632 579.00 565.19 24.06
7333 75.3724 506.00 547.22 22.49
7334 75.3816 547.00 533.07 23.39
7335 75.3908 527.00 521.91 22.96
7336 75.4000 561.00 513.04 23.69
7337 75.4092 507.00 505.90 22.52
7338 75.4184 539.00 500.49 23.22
7339 75.4276 482.00 495.61 21.95
7340 75.4368 445.00 491.47 21.09
7341 75.4460 501.00 487.86 22.38
7342 75.4552 462.00 484.71 21.49
7343 75.4644 513.00 482.08 22.65
7344 75.4736 480.00 479.61 21.91
7345 75.4828 501.00 477.39 22.38
7346 75.4920 480.00 475.42 21.91
7347 75.5012 465.00 473.69 21.56
7348 75.5104 495.00 472.20 22.25
7349 75.5196 442.00 470.95 21.02
7350 75.5288 512.00 469.94 22.63
7351 75.5380 482.00 469.17 21.95
7352 75.5472 486.00 468.66 22.05
7353 75.5564 479.00 468.40 21.89
7354 75.5656 441.00 468.39 21.00
7355 75.5748 450.00 468.65 21.21
7356 75.5840 458.00 469.15 21.40
7357 75.5932 488.00 469.87 22.09
7358 75.6024 498.00 470.83 22.32
7359 75.6116 440.00 471.81 20.98
7360 75.6208 520.00 472.79 22.80
7361 75.6300 458.00 473.63 21.40
7362 75.6392 483.00 474.20 21.98
7363 75.6484 508.00 474.41 22.54
7364 75.6576 492.00 474.19 22.18
7365 75.6668 530.00 473.54 23.02
7366 75.6760 463.00 472.53 21.52
7367 75.6852 489.00 471.26 22.11
7368 75.6944 428.00 469.85 20.69
7369 75.7036 463.00 468.61 21.52
7370 75.7128 459.00 467.31 21.42
7371 75.7220 468.00 466.17 21.63
7372 75.7312 456.00 465.25 21.35
7373 75.7404 479.00 464.56 21.89
7374 75.7496 461.00 464.13 21.47
7375 75.7588 478.00 463.91 21.86
7376 75.7680 448.00 463.94 21.17
7377 75.7772 507.00 464.19 22.52
7378 75.7864 498.00 464.63 22.32
7379 75.7956 448.00 465.24 21.17
7380 75.8048 441.00 466.03 21.00
7381 75.8140 444.00 466.99 21.07
7382 75.8232 448.00 468.14 21.17
7383 75.8324 462.00 469.50 21.49
7384 75.8416 467.00 471.12 21.61
7385 75.8508 462.00 473.07 21.49
7386 75.8600 521.00 475.45 22.83
7387 75.8692 478.00 478.41 21.86
7388 75.8784 496.00 482.14 22.27
7389 75.8876 470.00 486.90 21.68
7390 75.8968 481.00 492.99 21.93
7391 75.9060 493.00 500.80 22.20
7392 75.9152 475.00 510.74 21.79
7393 75.9244 509.00 523.34 22.56
7394 75.9336 486.00 538.68 22.05
7395 75.9428 537.00 557.07 23.17
7396 75.9520 583.00 578.43 24.15
7397 75.9612 563.00 602.31 23.73
7398 75.9704 588.00 627.75 24.25
7399 75.9796 604.00 653.26 24.58
7400 75.9888 688.00 676.94 26.23
7401 75.9980 686.00 696.53 26.19
7402 76.0072 706.00 709.88 26.57
7403 76.0164 748.00 715.34 27.35
7404 76.0256 720.00 712.32 26.83
7405 76.0348 719.00 701.08 26.81
7406 76.0440 702.00 683.14 26.50
7407 76.0532 693.00 660.54 26.32
7408 76.0624 634.00 635.38 25.18
7409 76.0716 596.00 610.13 24.41
7410 76.0808 569.00 586.16 23.85
7411 76.0900 571.00 564.62 23.90
7412 76.0992 523.00 546.07 22.87
7413 76.1084 524.00 530.66 22.89
7414 76.1176 526.00 518.31 22.93
7415 76.1268 464.00 508.68 21.54
7416 76.1360 497.00 501.41 22.29
7417 76.1452 489.00 496.06 22.11
7418 76.1544 541.00 492.25 23.26
7419 76.1636 495.00 489.62 22.25
7420 76.1728 482.00 487.92 21.95
7421 76.1820 483.00 486.92 21.98
7422 76.1912 481.00 486.50 21.93
7423 76.2004 480.00 486.60 21.91
7424 76.2096 488.00 487.22 22.09
7425 76.2188 484.00 488.45 22.00
7426 76.2280 455.00 490.42 21.33
7427 76.2372 523.00 493.38 22.87
7428 76.2464 459.00 497.65 21.42
7429 76.2556 524.00 503.45 22.89
7430 76.2648 531.00 511.25 23.04
7431 76.2740 480.00 521.40 21.91
7432 76.2832 507.00 534.21 22.52
7433 76.2924 523.00 549.91 22.87
7434 76.3016 517.00 568.43 22.74
7435 76.3108 601.00 589.43 24.52
7436 76.3200 586.00 612.10 24.21
7437 76.3292 638.00 635.19 25.26
7438 76.3384 696.00 657.08 26.38
7439 76.3476 678.00 675.72 26.04
7440 76.3568 727.00 689.09 26.96
7441 76.3660 722.00 695.59 26.87
7442 76.3752 741.00 694.42 27.22
7443 76.3844 671.00 685.79 25.90
7444 76.3936 649.00 670.94 25.48
7445 76.4028 608.00 651.53 24.66
7446 76.4120 554.00 629.70 23.54
7447 76.4212 582.00 607.36 24.12
7448 76.4304 545.00 586.00 23.35
7449 76.4396 551.00 566.65 23.47
7450 76.4488 511.00 549.81 22.61
7451 76.4580 550.00 535.66 23.45
7452 76.4672 521.00 524.06 22.83
7453 76.4764 506.00 513.99 22.49
7454 76.4856 541.00 506.58 23.26
7455 76.4948 498.00 500.77 22.32
7456 76.5040 519.00 496.22 22.78
7457 76.5132 512.00 492.72 22.63
7458 76.5224 488.00 490.07 22.09
7459 76.5316 531.00 488.12 23.04
7460 76.5408 519.00 486.74 22.78
7461 76.5500 477.00 485.84 21.84
7462 76.5592 505.00 485.33 22.47
7463 76.5684 486.00 485.13 22.05
7464 76.5776 453.00 485.21 21.28
7465 76.5868 449.00 485.55 21.19
7466 76.5960 440.00 486.17 20.98
7467 76.6052 519.00 487.13 22.78
7468 76.6144 501.00 488.44 22.38
7469 76.6236 507.00 490.17 22.52
7470 76.6328 457.00 492.39 21.38
7471 76.6420 470.00 495.14 21.68
7472 76.6512 480.00 498.48 21.91
7473 76.6604 509.00 502.49 22.56
7474 76.6696 486.00 507.29 22.05
7475 76.6788 509.00 513.02 22.56
7476 76.6880 527.00 519.55 22.96
7477 76.6972 552.00 527.90 23.49
7478 76.7064 554.00 538.16 23.54
7479 76.7156 544.00 550.99 23.32
7480 76.7248 569.00 567.04 23.85
7481 76.7340 559.00 587.41 23.64
7482 76.7432 651.00 613.10 25.51
7483 76.7524 616.00 645.44 24.82
7484 76.7616 644.00 685.66 25.38
7485 76.7708 682.00 734.89 26.12
7486 76.7800 787.00 793.73 28.05
7487 76.7892 775.00 862.16 27.84
7488 76.7984 846.00 938.91 29.09
7489 76.8076 993.00 1021.70 31.51
7490 76.8168 1140.00 1106.60 33.76
7491 76.8260 1220.00 1188.33 34.93
7492 76.8352 1340.00 1260.77 36.61
7493 76.8444 1329.00 1318.07 36.46
7494 76.8536 1449.00 1355.44 38.07
7495 76.8628 1405.00 1370.60 37.48
7496 76.8720 1382.00 1363.11 37.18
7497 76.8812 1294.00 1335.43 35.97
7498 76.8904 1279.00 1291.18 35.76
7499 76.8996 1196.00 1234.64 34.58
7500 76.9088 1110.00 1169.86 33.32
7501 76.9180 1043.00 1100.75 32.30
7502 76.9272 1003.00 1030.97 31.67
7503 76.9364 955.00 963.78 30.90
7504 76.9456 884.00 901.89 29.73
7505 76.9548 818.00 847.44 28.60
7506 76.9640 756.00 801.77 27.50
7507 76.9732 733.00 765.44 27.07
7508 76.9824 739.00 738.26 27.18
7509 76.9916 694.00 719.57 26.34
7510 77.0008 764.00 708.25 27.64
7511 77.0100 718.00 702.91 26.80
7512 77.0192 766.00 702.00 27.68
7513 77.0284 750.00 703.97 27.39
7514 77.0376 722.00 707.53 26.87
7515 77.0468 773.00 711.78 27.80
7516 77.0560 764.00 716.38 27.64
7517 77.0652 723.00 721.53 26.89
7518 77.0743 705.00 727.80 26.55
7519 77.0835 765.00 735.83 27.66
7520 77.0928 726.00 746.00 26.94
7521 77.1020 771.00 758.14 27.77
7522 77.1111 775.00 771.36 27.84
7523 77.1204 802.00 784.12 28.32
7524 77.1296 785.00 794.33 28.02
7525 77.1387 855.00 799.88 29.24
7526 77.1479 790.00 799.11 28.11
7527 77.1572 808.00 791.22 28.43
7528 77.1664 781.00 776.52 27.95
7529 77.1755 740.00 756.29 27.20
7530 77.1847 728.00 732.34 26.98
7531 77.1939 718.00 706.82 26.80
7532 77.2031 709.00 681.32 26.63
7533 77.2123 673.00 657.33 25.94
7534 77.2215 617.00 635.76 24.84
7535 77.2308 625.00 617.22 25.00
7536 77.2400 645.00 602.10 25.40
7537 77.2491 606.00 590.63 24.62
7538 77.2583 612.00 582.98 24.74
7539 77.2675 576.00 579.31 24.00
7540 77.2767 595.00 579.75 24.39
7541 77.2859 602.00 584.35 24.54
7542 77.2951 625.00 593.08 25.00
7543 77.3043 606.00 605.72 24.62
7544 77.3135 626.00 621.79 25.02
7545 77.3227 676.00 640.52 26.00
7546 77.3319 654.00 660.72 25.57
7547 77.3411 703.00 680.84 26.51
7548 77.3503 716.00 699.10 26.76
7549 77.3595 750.00 713.80 27.39
7550 77.3687 751.00 723.55 27.40
7551 77.3779 731.00 727.67 27.04
7552 77.3871 709.00 726.37 26.63
7553 77.3963 800.00 720.64 28.28
7554 77.4055 699.00 712.04 26.44
7555 77.4147 694.00 702.27 26.34
7556 77.4239 648.00 692.78 25.46
7557 77.4331 692.00 684.52 26.31
7558 77.4423 689.00 677.81 26.25
7559 77.4515 648.00 672.34 25.46
7560 77.4607 658.00 667.22 25.65
7561 77.4699 674.00 661.66 25.96
7562 77.4791 586.00 654.73 24.21
7563 77.4883 630.00 645.85 25.10
7564 77.4975 616.00 634.90 24.82
7565 77.5067 646.00 622.29 25.42
7566 77.5159 614.00 608.76 24.78
7567 77.5251 578.00 594.68 24.04
7568 77.5343 627.00 580.90 25.04
7569 77.5435 563.00 567.94 23.73
7570 77.5527 557.00 556.18 23.60
7571 77.5619 558.00 545.86 23.62
7572 77.5711 500.00 537.43 22.36
7573 77.5803 546.00 530.62 23.37
7574 77.5895 570.00 525.77 23.87
7575 77.5987 543.00 522.98 23.30
7576 77.6079 516.00 522.32 22.72
7577 77.6171 540.00 523.78 23.24
7578 77.6263 543.00 527.27 23.30
7579 77.6355 514.00 532.62 22.67
7580 77.6447 532.00 539.47 23.07
7581 77.6539 524.00 547.33 22.89
7582 77.6631 524.00 555.55 22.89
7583 77.6723 586.00 563.36 24.21
7584 77.6815 582.00 569.94 24.12
7585 77.6907 614.00 574.59 24.78
7586 77.6999 555.00 577.01 23.56
7587 77.7091 576.00 576.99 24.00
7588 77.7183 578.00 575.02 24.04
7589 77.7275 593.00 571.88 24.35
7590 77.7367 566.00 568.50 23.79
7591 77.7459 573.00 565.86 23.94
7592 77.7551 605.00 564.81 24.60
7593 77.7643 571.00 565.96 23.90
7594 77.7735 532.00 569.66 23.07
7595 77.7827 550.00 575.93 23.45
7596 77.7919 547.00 584.55 23.39
7597 77.8011 595.00 594.99 24.39
7598 77.8103 619.00 606.50 24.88
7599 77.8195 685.00 618.00 26.17
7600 77.8287 663.00 628.76 25.75
7601 77.8379 690.00 637.53 26.27
7602 77.8471 714.00 643.32 26.72
7603 77.8563 678.00 645.39 26.04
7604 77.8655 641.00 643.36 25.32
7605 77.8747 658.00 637.31 25.65
7606 77.8839 649.00 627.73 25.48
7607 77.8931 662.00 615.42 25.73
7608 77.9023 549.00 601.30 23.43
7609 77.9115 592.00 586.36 24.33
7610 77.9207 588.00 571.48 24.25
7611 77.9299 532.00 557.43 23.07
7612 77.9391 531.00 544.78 23.04
7613 77.9483 560.00 533.95 23.66
7614 77.9575 506.00 525.16 22.49
7615 77.9667 554.00 518.51 23.54
7616 77.9759 538.00 513.97 23.19
7617 77.9851 463.00 511.43 21.52
7618 77.9943 531.00 510.77 23.04
7619 78.0035 494.00 511.83 22.23
7620 78.0127 526.00 514.40 22.93
7621 78.0219 480.00 518.28 21.91
7622 78.0311 471.00 523.25 21.70
7623 78.0403 495.00 529.08 22.25
7624 78.0495 557.00 535.65 23.60
7625 78.0587 513.00 542.61 22.65
7626 78.0679 572.00 550.02 23.92
7627 78.0771 557.00 558.03 23.60
7628 78.0863 586.00 566.97 24.21
7629 78.0955 585.00 577.35 24.19
7630 78.1047 592.00 589.70 24.33
7631 78.1139 612.00 604.54 24.74
7632 78.1231 587.00 622.09 24.23
7633 78.1323 602.00 642.35 24.54
7634 78.1415 620.00 664.63 24.90
7635 78.1507 721.00 688.01 26.85
7636 78.1599 695.00 711.07 26.36
7637 78.1691 761.00 732.15 27.59
7638 78.1783 759.00 749.67 27.55
7639 78.1875 810.00 762.44 28.46
7640 78.1967 779.00 770.00 27.91
7641 78.2059 816.00 772.83 28.57
7642 78.2151 774.00 772.33 27.82
7643 78.2243 748.00 770.61 27.35
7644 78.2335 798.00 770.07 28.25
7645 78.2427 778.00 772.98 27.89
7646 78.2519 753.00 781.11 27.44
7647 78.2611 711.00 795.44 26.66
7648 78.2703 747.00 815.93 27.33
7649 78.2795 823.00 841.58 28.69
7650 78.2887 820.00 870.27 28.64
7651 78.2979 907.00 899.05 30.12
7652 78.3071 966.00 924.36 31.08
7653 78.3163 921.00 942.13 30.35
7654 78.3255 954.00 950.55 30.89
7655 78.3347 977.00 946.89 31.26
7656 78.3439 953.00 931.23 30.87
7657 78.3531 920.00 904.98 30.33
7658 78.3623 921.00 870.74 30.35
7659 78.3715 864.00 831.47 29.39
7660 78.3807 837.00 790.49 28.93
7661 78.3899 711.00 750.14 26.66
7662 78.3991 713.00 712.23 26.70
7663 78.4083 654.00 677.94 25.57
7664 78.4175 656.00 647.85 25.61
7665 78.4267 564.00 622.04 23.75
7666 78.4359 552.00 600.34 23.49
7667 78.4451 547.00 582.38 23.39
7668 78.4543 556.00 567.56 23.58
7669 78.4635 525.00 555.33 22.91
7670 78.4727 532.00 545.15 23.07
7671 78.4819 501.00 536.62 22.38
7672 78.4911 487.00 529.47 22.07
7673 78.5003 505.00 523.55 22.47
7674 78.5095 495.00 518.76 22.25
7675 78.5187 492.00 515.31 22.18
7676 78.5279 533.00 513.28 23.09
7677 78.5371 548.00 512.72 23.41
7678 78.5463 491.00 513.84 22.16
7679 78.5555 517.00 516.92 22.74
7680 78.5647 469.00 522.18 21.66
7681 78.5739 527.00 529.85 22.96
7682 78.5831 531.00 540.09 23.04
7683 78.5923 534.00 552.95 23.11
7684 78.6015 569.00 568.36 23.85
7685 78.6107 552.00 585.72 23.49
7686 78.6199 622.00 604.20 24.94
7687 78.6291 639.00 623.09 25.28
7688 78.6383 658.00 640.81 25.65
7689 78.6475 698.00 655.79 26.42
7690 78.6567 717.00 666.55 26.78
7691 78.6659 695.00 671.91 26.36
7692 78.6751 749.00 671.34 27.37
7693 78.6843 685.00 665.03 26.17
7694 78.6935 642.00 653.83 25.34
7695 78.7027 655.00 639.16 25.59
7696 78.7119 631.00 622.51 25.12
7697 78.7211 609.00 605.34 24.68
7698 78.7303 568.00 588.76 23.83
7699 78.7395 557.00 573.56 23.60
7700 78.7487 547.00 560.19 23.39
7701 78.7579 546.00 548.80 23.37
7702 78.7671 538.00 539.41 23.19
7703 78.7763 509.00 531.93 22.56
7704 78.7855 470.00 526.24 21.68
7705 78.7947 525.00 522.20 22.91
7706 78.8039 498.00 519.70 22.32
7707 78.8131 509.00 518.72 22.56
7708 78.8223 518.00 519.12 22.76
7709 78.8315 543.00 520.96 23.30
7710 78.8407 524.00 524.17 22.89
7711 78.8499 595.00 529.20 24.39
7712 78.8591 510.00 536.19 22.58
7713 78.8683 573.00 545.54 23.94
7714 78.8775 526.00 557.81 22.93
7715 78.8867 547.00 573.62 23.39
7716 78.8959 567.00 593.72 23.81
7717 78.9051 575.00 618.83 23.98
7718 78.9143 629.00 649.53 25.08
7719 78.9235 699.00 686.16 26.44
7720 78.9327 709.00 728.76 26.63
7721 78.9419 757.00 776.74 27.51
7722 78.9511 776.00 828.81 27.86
7723 78.9603 876.00 883.19 29.60
7724 78.9695 938.00 937.31 30.63
7725 78.9787 983.00 988.20 31.35
7726 78.9879 1059.00 1032.97 32.54
7727 78.9971 1144.00 1069.39 33.82
7728 79.0063 1226.00 1095.93 35.01
7729 79.0155 1211.00 1112.09 34.80
7730 79.0247 1155.00 1118.04 33.99
7731 79.0339 1277.00 1114.46 35.74
7732 79.0431 1246.00 1101.29 35.30
7733 79.0523 1265.00 1079.19 35.57
7734 79.0615 1186.00 1048.88 34.44
7735 79.0707 1095.00 1011.61 33.09
7736 79.0799 1046.00 969.46 32.34
7737 79.0891 942.00 925.07 30.69
7738 79.0983 874.00 881.28 29.56
7739 79.1075 811.00 840.58 28.48
7740 79.1167 766.00 805.01 27.68
7741 79.1259 740.00 775.74 27.20
7742 79.1351 717.00 752.80 26.78
7743 79.1443 724.00 735.71 26.91
7744 79.1535 676.00 723.19 26.00
7745 79.1627 714.00 713.54 26.72
7746 79.1719 704.00 704.84 26.53
7747 79.1811 673.00 695.28 25.94
7748 79.1903 645.00 683.72 25.40
7749 79.1995 613.00 669.50 24.76
7750 79.2087 643.00 652.67 25.36
7751 79.2179 580.00 633.90 24.08
7752 79.2271 640.00 614.16 25.30
7753 79.2363 606.00 594.43 24.62
7754 79.2455 608.00 575.64 24.66
7755 79.2547 521.00 558.43 22.83
7756 79.2639 553.00 543.21 23.52
7757 79.2731 553.00 530.13 23.52
7758 79.2823 493.00 519.23 22.20
7759 79.2915 529.00 510.23 23.00
7760 79.3007 534.00 503.00 23.11
7761 79.3099 484.00 497.26 22.00
7762 79.3191 479.00 492.76 21.89
7763 79.3283 485.00 489.30 22.02
7764 79.3375 490.00 486.64 22.14
7765 79.3467 496.00 484.80 22.27
7766 79.3559 519.00 483.63 22.78
7767 79.3651 453.00 483.09 21.28
7768 79.3743 493.00 483.21 22.20
7769 79.3835 499.00 483.99 22.34
7770 79.3927 505.00 485.59 22.47
7771 79.4019 474.00 488.06 21.77
7772 79.4111 494.00 491.60 22.23
7773 79.4203 481.00 496.39 21.93
7774 79.4295 480.00 502.66 21.91
7775 79.4387 537.00 510.63 23.17
7776 79.4479 511.00 520.53 22.61
7777 79.4571 538.00 532.51 23.19
7778 79.4663 558.00 546.61 23.62
7779 79.4754 600.00 562.71 24.49
7780 79.4846 579.00 580.53 24.06
7781 79.4939 627.00 599.53 25.04
7782 79.5030 608.00 618.93 24.66
7783 79.5123 667.00 637.82 25.83
7784 79.5215 650.00 655.10 25.50
7785 79.5307 656.00 669.78 25.61
7786 79.5398 673.00 681.12 25.94
7787 79.5490 735.00 688.81 27.11
7788 79.5583 623.00 693.01 24.96
7789 79.5675 661.00 694.38 25.71
7790 79.5766 645.00 693.70 25.40
7791 79.5858 669.00 691.69 25.86
7792 79.5950 678.00 688.77 26.04
7793 79.6042 686.00 684.97 26.19
7794 79.6134 687.00 679.97 26.21
7795 79.6227 670.00 673.34 25.88
7796 79.6319 642.00 664.73 25.34
7797 79.6410 711.00 654.12 26.66
7798 79.6502 613.00 641.87 24.76
7799 79.6594 621.00 628.77 24.92
7800 79.6686 638.00 615.72 25.26
7801 79.6778 649.00 603.96 25.48
7802 79.6870 604.00 594.32 24.58
7803 79.6962 636.00 587.92 25.22
7804 79.7054 609.00 585.43 24.68
7805 79.7146 542.00 587.51 23.28
7806 79.7238 521.00 594.63 22.83
7807 79.7330 611.00 607.13 24.72
7808 79.7422 600.00 625.12 24.49
7809 79.7514 642.00 648.41 25.34
7810 79.7606 621.00 676.46 24.92
7811 79.7698 707.00 708.16 26.59
7812 79.7790 740.00 741.87 27.20
7813 79.7882 810.00 775.64 28.46
7814 79.7974 801.00 806.52 28.30
7815 79.8066 847.00 831.90 29.10
7816 79.8158 882.00 849.33 29.70
7817 79.8250 844.00 856.94 29.05
7818 79.8342 875.00 854.86 29.58
7819 79.8434 812.00 843.70 28.50
7820 79.8526 815.00 825.35 28.55
7821 79.8618 799.00 802.32 28.27
7822 79.8710 784.00 777.11 28.00
7823 79.8802 753.00 751.88 27.44
7824 79.8894 751.00 728.02 27.40
7825 79.8986 734.00 706.38 27.09
7826 79.9078 678.00 687.23 26.04
7827 79.9170 695.00 670.59 26.36
7828 79.9262 670.00 656.35 25.88
7829 79.9354 680.00 644.55 26.08
7830 79.9446 645.00 635.37 25.40
7831 79.9538 699.00 629.08 26.44
7832 79.9630 664.00 625.93 25.77
7833 79.9722 625.00 626.13 25.00
7834 79.9814 623.00 629.63 24.96
7835 79.9906 620.00 636.12 24.90
7836 79.9998 675.00 644.97 25.98
7837 80.0090 664.00 655.29 25.77
7838 80.0182 649.00 665.97 25.48
7839 80.0274 674.00 675.91 25.96
7840 80.0366 676.00 684.12 26.00
7841 80.0458 672.00 689.98 25.92
7842 80.0550 661.00 693.07 25.71
7843 80.0642 710.00 693.43 26.65
7844 80.0734 661.00 691.20 25.71
7845 80.0826 723.00 686.51 26.89
7846 80.0918 671.00 679.37 25.90
7847 80.1010 668.00 669.75 25.85
7848 80.1102 629.00 657.66 25.08
7849 80.1194 703.00 643.31 26.51
7850 80.1286 631.00 627.13 25.12
7851 80.1378 574.00 609.99 23.96
7852 80.1470 611.00 592.37 24.72
7853 80.1562 576.00 575.20 24.00
7854 80.1654 566.00 559.17 23.79
7855 80.1746 548.00 544.66 23.41
7856 80.1838 563.00 532.21 23.73
7857 80.1930 554.00 521.88 23.54
7858 80.2022 487.00 513.71 22.07
7859 80.2114 533.00 507.69 23.09
7860 80.2206 485.00 503.77 22.02
7861 80.2298 494.00 501.92 22.23
7862 80.2390 566.00 501.88 23.79
7863 80.2482 492.00 503.59 22.18
7864 80.2574 525.00 507.18 22.91
7865 80.2666 528.00 511.87 22.98
7866 80.2758 513.00 517.64 22.65
7867 80.2850 531.00 524.17 23.04
7868 80.2942 545.00 530.80 23.35
7869 80.3034 602.00 537.02 24.54
7870 80.3126 561.00 542.21 23.69
7871 80.3218 535.00 545.82 23.13
7872 80.3310 625.00 547.48 25.00
7873 80.3402 543.00 547.10 23.30
7874 80.3494 591.00 544.87 24.31
7875 80.3586 566.00 541.24 23.79
7876 80.3678 516.00 536.83 22.72
7877 80.3770 538.00 532.31 23.19
7878 80.3862 582.00 528.47 24.12
7879 80.3954 569.00 525.70 23.85
7880 80.4046 525.00 524.62 22.91
7881 80.4138 512.00 525.72 22.63
7882 80.4230 538.00 529.45 23.19
7883 80.4322 514.00 536.27 22.67
7884 80.4414 558.00 546.66 23.62
7885 80.4506 543.00 561.09 23.30
7886 80.4598 560.00 580.04 23.66
7887 80.4690 608.00 603.78 24.66
7888 80.4782 634.00 632.45 25.18
7889 80.4874 652.00 665.85 25.53
7890 80.4966 734.00 703.20 27.09
7891 80.5058 688.00 743.23 26.23
7892 80.5150 772.00 784.38 27.78
7893 80.5242 883.00 824.00 29.72
7894 80.5334 904.00 859.14 30.07
7895 80.5426 920.00 887.09 30.33
7896 80.5518 912.00 905.52 30.20
7897 80.5610 916.00 913.24 30.27
7898 80.5702 903.00 910.14 30.05
7899 80.5794 905.00 898.11 30.08
7900 80.5886 876.00 879.20 29.60
7901 80.5978 745.00 856.04 27.29
7902 80.6070 816.00 830.98 28.57
7903 80.6162 812.00 805.78 28.50
7904 80.6254 778.00 781.48 27.89
7905 80.6346 795.00 758.45 28.20
7906 80.6438 751.00 736.55 27.40
7907 80.6530 786.00 715.53 28.04
7908 80.6622 694.00 695.16 26.34
7909 80.6714 711.00 675.39 26.66
7910 80.6806 691.00 656.36 26.29
7911 80.6898 673.00 638.42 25.94
7912 80.6990 610.00 621.94 24.70
7913 80.7082 630.00 607.55 25.10
7914 80.7174 589.00 595.59 24.27
7915 80.7266 554.00 586.35 23.54
7916 80.7358 559.00 580.02 23.64
7917 80.7450 622.00 576.57 24.94
7918 80.7542 571.00 575.77 23.90
7919 80.7634 566.00 577.17 23.79
7920 80.7726 580.00 580.10 24.08
7921 80.7818 537.00 583.73 23.17
7922 80.7910 597.00 587.16 24.43
7923 80.8002 597.00 589.52 24.43
7924 80.8094 598.00 590.13 24.45
7925 80.8186 611.00 588.62 24.72
7926 80.8278 615.00 585.22 24.80
7927 80.8370 637.00 579.72 25.24
7928 80.8462 574.00 572.82 23.96
7929 80.8554 598.00 565.07 24.45
7930 80.8646 536.00 556.94 23.15
7931 80.8738 564.00 548.82 23.75
7932 80.8830 565.00 540.93 23.77
7933 80.8922 515.00 533.37 22.69
7934 80.9014 541.00 526.13 23.26
7935 80.9106 558.00 519.16 23.62
7936 80.9198 553.00 512.38 23.52
7937 80.9290 509.00 505.75 22.56
7938 80.9382 526.00 499.28 22.93
7939 80.9474 516.00 493.05 22.72
7940 80.9566 485.00 487.14 22.02
7941 80.9658 535.00 481.66 23.13
7942 80.9750 483.00 476.73 21.98
7943 80.9842 463.00 472.36 21.52
7944 80.9934 468.00 468.63 21.63
7945 81.0026 466.00 465.48 21.59
7946 81.0118 494.00 462.92 22.23
7947 81.0210 443.00 460.89 21.05
7948 81.0302 490.00 459.74 22.14
7949 81.0394 475.00 458.69 21.79
7950 81.0486 498.00 458.06 22.32
7951 81.0578 489.00 457.71 22.11
7952 81.0670 507.00 457.83 22.52
7953 81.0762 473.00 458.29 21.75
7954 81.0854 480.00 459.09 21.91
7955 81.0946 470.00 460.18 21.68
7956 81.1038 501.00 461.55 22.38
7957 81.1130 455.00 463.18 21.33
7958 81.1222 487.00 465.04 22.07
7959 81.1314 468.00 467.13 21.63
7960 81.1406 465.00 469.46 21.56
7961 81.1498 494.00 471.96 22.23
7962 81.1590 435.00 474.93 20.86
7963 81.1682 493.00 478.41 22.20
7964 81.1774 461.00 482.61 21.47
7965 81.1866 476.00 487.83 21.82
7966 81.1958 536.00 494.39 23.15
7967 81.2050 503.00 502.65 22.43
7968 81.2142 504.00 513.00 22.45
7969 81.2234 472.00 525.77 21.73
7970 81.2326 529.00 541.22 23.00
7971 81.2418 524.00 559.43 22.89
7972 81.2510 582.00 580.25 24.12
7973 81.2602 661.00 603.28 25.71
7974 81.2694 653.00 627.72 25.55
7975 81.2786 686.00 652.37 26.19
7976 81.2878 692.00 675.66 26.31
7977 81.2970 774.00 695.80 27.82
7978 81.3062 825.00 710.94 28.72
7979 81.3154 868.00 719.47 29.46
7980 81.3246 857.00 720.48 29.27
7981 81.3338 816.00 713.85 28.57
7982 81.3430 769.00 700.35 27.73
7983 81.3522 732.00 681.22 27.06
7984 81.3614 723.00 658.80 26.89
7985 81.3706 648.00 634.78 25.46
7986 81.3798 605.00 610.83 24.60
7987 81.3890 629.00 588.29 25.08
7988 81.3982 509.00 568.04 22.56
7989 81.4074 573.00 550.61 23.94
7990 81.4166 533.00 536.21 23.09
7991 81.4258 526.00 524.84 22.93
7992 81.4350 512.00 516.29 22.63
7993 81.4442 512.00 510.30 22.63
7994 81.4534 487.00 506.71 22.07
7995 81.4626 555.00 505.23 23.56
7996 81.4718 534.00 505.70 23.11
7997 81.4810 538.00 507.99 23.19
7998 81.4902 525.00 512.05 22.91
7999 81.4994 516.00 517.84 22.72
8000 81.5086 529.00 525.36 23.00
8001 81.5178 563.00 534.58 23.73
8002 81.5270 519.00 545.41 22.78
8003 81.5362 564.00 557.75 23.75
8004 81.5454 584.00 571.40 24.17
8005 81.5546 633.00 586.12 25.16
8006 81.5638 587.00 601.58 24.23
8007 81.5730 638.00 617.78 25.26
8008 81.5822 650.00 634.61 25.50
8009 81.5914 702.00 652.22 26.50
8010 81.6006 690.00 671.00 26.27
8011 81.6098 693.00 691.41 26.32
8012 81.6190 757.00 713.89 27.51
8013 81.6282 747.00 738.67 27.33
8014 81.6374 704.00 765.62 26.53
8015 81.6466 751.00 794.33 27.40
8016 81.6558 842.00 823.84 29.02
8017 81.6650 833.00 853.05 28.86
8018 81.6742 912.00 881.07 30.20
8019 81.6834 891.00 907.36 29.85
8020 81.6926 903.00 932.15 30.05
8021 81.7018 926.00 956.49 30.43
8022 81.7110 908.00 982.01 30.13
8023 81.7202 1005.00 1010.52 31.70
8024 81.7294 1039.00 1043.38 32.23
8025 81.7386 1096.00 1081.22 33.11
8026 81.7478 1092.00 1123.36 33.05
8027 81.7570 1106.00 1167.73 33.26
8028 81.7662 1216.00 1211.07 34.87
8029 81.7754 1258.00 1249.37 35.47
8030 81.7846 1231.00 1278.31 35.09
8031 81.7938 1277.00 1294.08 35.74
8032 81.8030 1304.00 1294.18 36.11
8033 81.8122 1311.00 1277.87 36.21
8034 81.8214 1207.00 1246.26 34.74
8035 81.8306 1202.00 1202.17 34.67
8036 81.8398 1206.00 1149.38 34.73
8037 81.8490 1113.00 1092.23 33.36
8038 81.8582 1017.00 1034.75 31.89
8039 81.8674 1005.00 980.45 31.70
8040 81.8766 932.00 931.76 30.53
8041 81.8858 927.00 890.00 30.45
8042 81.8950 889.00 855.45 29.82
8043 81.9042 863.00 827.48 29.38
8044 81.9134 892.00 804.76 29.87
8045 81.9226 830.00 785.67 28.81
8046 81.9317 878.00 768.63 29.63
8047 81.9409 829.00 752.32 28.79
8048 81.9502 769.00 735.94 27.73
8049 81.9594 794.00 719.15 28.18
8050 81.9686 783.00 702.01 27.98
8051 81.9778 738.00 684.67 27.17
8052 81.9870 739.00 667.33 27.18
8053 81.9962 672.00 650.12 25.92
8054 82.0053 634.00 633.08 25.18
8055 82.0145 638.00 616.21 25.26
8056 82.0238 645.00 599.60 25.40
8057 82.0330 575.00 583.41 23.98
8058 82.0421 556.00 567.90 23.58
8059 82.0513 566.00 553.30 23.79
8060 82.0606 612.00 539.88 24.74
8061 82.0697 520.00 527.84 22.80
8062 82.0789 521.00 517.25 22.83
8063 82.0882 579.00 508.17 24.06
8064 82.0974 483.00 500.28 21.98
8065 82.1065 491.00 494.07 22.16
8066 82.1157 514.00 489.12 22.67
8067 82.1249 493.00 485.33 22.20
8068 82.1341 480.00 482.57 21.91
8069 82.1433 484.00 480.97 22.00
8070 82.1525 509.00 479.91 22.56
8071 82.1617 530.00 479.59 23.02
8072 82.1710 468.00 479.93 21.63
8073 82.1801 478.00 480.86 21.86
8074 82.1893 502.00 482.38 22.41
8075 82.1985 501.00 484.39 22.38
8076 82.2077 528.00 487.11 22.98
8077 82.2169 546.00 490.53 23.37
8078 82.2261 535.00 494.78 23.13
8079 82.2353 525.00 500.07 22.91
8080 82.2445 514.00 506.64 22.67
8081 82.2537 572.00 514.92 23.92
8082 82.2629 575.00 525.36 23.98
8083 82.2721 551.00 538.49 23.47
8084 82.2813 569.00 554.89 23.85
8085 82.2905 599.00 575.17 24.47
8086 82.2997 612.00 599.80 24.74
8087 82.3089 636.00 629.03 25.22
8088 82.3181 657.00 662.91 25.63
8089 82.3273 690.00 700.92 26.27
8090 82.3365 685.00 742.09 26.17
8091 82.3457 765.00 784.74 27.66
8092 82.3549 826.00 826.59 28.74
8093 82.3641 815.00 864.94 28.55
8094 82.3733 922.00 896.68 30.36
8095 82.3825 917.00 919.03 30.28
8096 82.3917 909.00 930.04 30.15
8097 82.4009 907.00 928.97 30.12
8098 82.4101 893.00 916.62 29.88
8099 82.4193 854.00 895.05 29.22
8100 82.4285 808.00 867.29 28.43
8101 82.4377 818.00 836.78 28.60
8102 82.4469 820.00 806.91 28.64
8103 82.4561 807.00 780.66 28.41
8104 82.4653 751.00 760.47 27.40
8105 82.4745 758.00 748.32 27.53
8106 82.4837 709.00 745.54 26.63
8107 82.4929 758.00 752.95 27.53
8108 82.5021 834.00 770.80 28.88
8109 82.5113 785.00 798.79 28.02
8110 82.5205 830.00 835.86 28.81
8111 82.5297 799.00 880.32 28.27
8112 82.5389 911.00 929.60 30.18
8113 82.5481 932.00 980.26 30.53
8114 82.5573 1031.00 1028.26 32.11
8115 82.5665 1111.00 1069.06 33.33
8116 82.5757 1177.00 1098.23 34.31
8117 82.5849 1188.00 1112.20 34.47
8118 82.5941 1214.00 1108.92 34.84
8119 82.6033 1192.00 1088.46 34.53
8120 82.6125 1038.00 1052.30 32.22
8121 82.6217 1030.00 1004.07 32.09
8122 82.6309 1011.00 947.87 31.80
8123 82.6401 869.00 888.09 29.48
8124 82.6493 888.00 828.47 29.80
8125 82.6585 706.00 771.95 26.57
8126 82.6677 691.00 720.40 26.29
8127 82.6769 678.00 674.96 26.04
8128 82.6861 630.00 636.00 25.10
8129 82.6953 611.00 603.27 24.72
8130 82.7045 587.00 576.25 24.23
8131 82.7137 561.00 554.19 23.69
8132 82.7229 534.00 536.28 23.11
8133 82.7321 515.00 521.74 22.69
8134 82.7413 507.00 509.88 22.52
8135 82.7505 531.00 500.12 23.04
8136 82.7597 504.00 492.02 22.45
8137 82.7689 502.00 485.19 22.41
8138 82.7781 504.00 479.46 22.45
8139 82.7873 454.00 474.45 21.31
8140 82.7965 505.00 470.08 22.47
8141 82.8057 480.00 466.27 21.91
8142 82.8149 477.00 462.92 21.84
8143 82.8241 465.00 460.00 21.56
8144 82.8333 429.00 457.62 20.71
8145 82.8425 439.00 455.47 20.95
8146 82.8517 491.00 453.68 22.16
8147 82.8609 456.00 452.24 21.35
8148 82.8701 448.00 451.16 21.17
8149 82.8793 450.00 450.26 21.21
8150 82.8885 455.00 449.87 21.33
8151 82.8977 463.00 449.83 21.52
8152 82.9069 475.00 450.29 21.79
8153 82.9161 448.00 450.89 21.17
8154 82.9253 451.00 451.78 21.24
8155 82.9345 471.00 452.90 21.70
8156 82.9437 470.00 454.19 21.68
8157 82.9529 475.00 455.70 21.79
8158 82.9621 480.00 457.03 21.91
8159 82.9713 465.00 458.21 21.56
8160 82.9805 452.00 459.12 21.26
8161 82.9897 458.00 459.69 21.40
8162 82.9989 442.00 459.89 21.02
8163 83.0081 465.00 459.57 21.56
8164 83.0173 497.00 458.83 22.29
8165 83.0265 453.00 457.70 21.28
8166 83.0357 477.00 456.26 21.84
8167 83.0449 440.00 454.61 20.98
8168 83.0541 437.00 452.84 20.90
8169 83.0633 469.00 451.06 21.66
8170 83.0725 465.00 449.35 21.56
8171 83.0817 443.00 447.80 21.05
8172 83.0909 467.00 446.47 21.61
8173 83.1001 492.00 445.54 22.18
8174 83.1093 451.00 444.77 21.24
8175 83.1185 422.00 444.31 20.54
8176 83.1277 443.00 444.18 21.05
8177 83.1369 444.00 444.39 21.07
8178 83.1461 458.00 444.91 21.40
8179 83.1553 454.00 445.85 21.31
8180 83.1645 447.00 447.18 21.14
8181 83.1737 472.00 448.92 21.73
8182 83.1829 459.00 451.08 21.42
8183 83.1921 478.00 453.67 21.86
8184 83.2013 445.00 456.67 21.09
8185 83.2105 477.00 460.05 21.84
8186 83.2197 501.00 463.77 22.38
8187 83.2289 428.00 467.75 20.69
8188 83.2381 486.00 472.03 22.05
8189 83.2473 477.00 476.25 21.84
8190 83.2565 475.00 480.27 21.79
8191 83.2657 488.00 484.40 22.09
8192 83.2749 539.00 488.38 23.22
8193 83.2841 537.00 492.18 23.17
8194 83.2933 497.00 495.76 22.29
8195 83.3025 530.00 499.08 23.02
8196 83.3117 495.00 502.11 22.25
8197 83.3209 483.00 504.78 21.98
8198 83.3301 502.00 507.01 22.41
8199 83.3393 550.00 508.64 23.45
8200 83.3485 491.00 509.40 22.16
8201 83.3577 501.00 509.26 22.38
8202 83.3669 530.00 507.96 23.02
8203 83.3761 577.00 505.11 24.02
8204 83.3853 505.00 501.44 22.47
8205 83.3945 551.00 496.80 23.47
8206 83.4037 513.00 491.44 22.65
8207 83.4129 501.00 485.85 22.38
8208 83.4221 493.00 480.33 22.20
8209 83.4313 474.00 475.09 21.77
8210 83.4405 495.00 470.40 22.25
8211 83.4497 462.00 466.39 21.49
8212 83.4589 469.00 463.14 21.66
8213 83.4681 439.00 460.69 20.95
8214 83.4773 488.00 459.02 22.09
8215 83.4865 478.00 458.10 21.86
8216 83.4957 477.00 457.89 21.84
8217 83.5049 461.00 458.21 21.47
8218 83.5141 472.00 459.24 21.73
8219 83.5233 449.00 460.85 21.19
8220 83.5325 475.00 463.02 21.79
8221 83.5417 437.00 465.80 20.90
8222 83.5509 474.00 469.23 21.77
8223 83.5601 466.00 473.45 21.59
8224 83.5693 437.00 478.61 20.90
8225 83.5785 509.00 484.95 22.56
8226 83.5877 547.00 492.74 23.39
8227 83.5969 508.00 502.45 22.54
8228 83.6061 523.00 514.49 22.87
8229 83.6153 496.00 529.40 22.27
8230 83.6245 570.00 547.71 23.87
8231 83.6337 572.00 569.93 23.92
8232 83.6429 556.00 596.48 23.58
8233 83.6521 631.00 627.54 25.12
8234 83.6613 654.00 663.00 25.57
8235 83.6705 654.00 702.23 25.57
8236 83.6797 707.00 744.12 26.59
8237 83.6889 780.00 786.75 27.93
8238 83.6981 840.00 827.74 28.98
8239 83.7073 925.00 864.21 30.41
8240 83.7165 927.00 893.12 30.45
8241 83.7257 1004.00 911.94 31.69
8242 83.7349 993.00 918.59 31.51
8243 83.7441 1024.00 912.56 32.00
8244 83.7533 983.00 894.64 31.35
8245 83.7625 937.00 866.76 30.61
8246 83.7717 847.00 831.65 29.10
8247 83.7809 804.00 792.38 28.35
8248 83.7901 753.00 751.76 27.44
8249 83.7993 701.00 712.26 26.48
8250 83.8085 654.00 675.74 25.57
8251 83.8177 573.00 643.43 23.94
8252 83.8269 582.00 615.96 24.12
8253 83.8361 552.00 593.52 23.49
8254 83.8453 570.00 575.95 23.87
8255 83.8545 541.00 562.78 23.26
8256 83.8637 536.00 553.38 23.15
8257 83.8729 554.00 547.03 23.54
8258 83.8821 487.00 543.00 22.07
8259 83.8913 530.00 540.70 23.02
8260 83.9005 552.00 539.34 23.49
8261 83.9097 563.00 538.59 23.73
8262 83.9189 532.00 538.17 23.07
8263 83.9281 578.00 538.00 24.04
8264 83.9373 573.00 538.11 23.94
8265 83.9465 565.00 538.66 23.77
8266 83.9557 541.00 539.77 23.26
8267 83.9649 537.00 541.53 23.17
8268 83.9741 566.00 543.64 23.79
8269 83.9833 579.00 546.65 24.06
8270 83.9925 564.00 549.92 23.75
8271 84.0017 589.00 553.30 24.27
8272 84.0109 558.00 556.53 23.62
8273 84.0201 578.00 559.43 24.04
8274 84.0293 552.00 561.87 23.49
8275 84.0385 553.00 563.82 23.52
8276 84.0477 563.00 565.34 23.73
8277 84.0569 557.00 566.63 23.60
8278 84.0661 629.00 568.08 25.08
8279 84.0753 599.00 570.20 24.47
8280 84.0845 573.00 573.67 23.94
8281 84.0937 587.00 579.23 24.23
8282 84.1029 579.00 587.64 24.06
8283 84.1121 610.00 599.53 24.70
8284 84.1213 618.00 615.32 24.86
8285 84.1305 656.00 635.16 25.61
8286 84.1397 657.00 658.83 25.63
8287 84.1489 650.00 685.68 25.50
8288 84.1581 680.00 714.53 26.08
8289 84.1673 762.00 743.78 27.60
8290 84.1765 758.00 770.96 27.53
8291 84.1857 772.00 794.59 27.78
8292 84.1949 821.00 812.11 28.65
8293 84.2041 911.00 821.84 30.18
8294 84.2133 860.00 822.92 29.33
8295 84.2225 934.00 815.53 30.56
8296 84.2317 835.00 800.88 28.90
8297 84.2409 843.00 780.93 29.03
8298 84.2501 792.00 758.10 28.14
8299 84.2593 776.00 734.80 27.86
8300 84.2685 706.00 713.27 26.57
8301 84.2777 696.00 695.29 26.38
8302 84.2869 729.00 682.45 27.00
8303 84.2961 681.00 675.41 26.10
8304 84.3053 654.00 674.84 25.57
8305 84.3145 695.00 680.96 26.36
8306 84.3237 677.00 693.65 26.02
8307 84.3329 701.00 712.48 26.48
8308 84.3421 717.00 736.78 26.78
8309 84.3513 761.00 765.60 27.59
8310 84.3605 755.00 797.78 27.48
8311 84.3697 843.00 832.00 29.03
8312 84.3789 900.00 867.01 30.00
8313 84.3881 940.00 901.59 30.66
8314 84.3973 923.00 934.66 30.38
8315 84.4065 1001.00 965.53 31.64
8316 84.4157 986.00 993.63 31.40
8317 84.4249 981.00 1018.69 31.32
8318 84.4341 1013.00 1040.72 31.83
8319 84.4433 1007.00 1060.10 31.73
8320 84.4525 1068.00 1077.42 32.68
8321 84.4617 1078.00 1093.44 32.83
8322 84.4709 1079.00 1108.84 32.85
8323 84.4801 1090.00 1123.87 33.02
8324 84.4893 1082.00 1138.31 32.89
8325 84.4985 1111.00 1151.48 33.33
8326 84.5077 1139.00 1162.30 33.75
8327 84.5169 1210.00 1169.74 34.79
8328 84.5261 1218.00 1172.89 34.90
8329 84.5352 1257.00 1171.15 35.45
8330 84.5444 1200.00 1164.17 34.64
8331 84.5537 1237.00 1151.86 35.17
8332 84.5629 1166.00 1134.39 34.15
8333 84.5721 1113.00 1111.96 33.36
8334 84.5813 1068.00 1085.17 32.68
8335 84.5905 1080.00 1055.01 32.86
8336 84.5997 987.00 1022.42 31.42
8337 84.6088 954.00 988.86 30.89
8338 84.6180 920.00 955.67 30.33
8339 84.6273 842.00 924.38 29.02
8340 84.6365 836.00 896.22 28.91
8341 84.6456 816.00 872.15 28.57
8342 84.6548 771.00 852.61 27.77
8343 84.6641 793.00 837.50 28.16
8344 84.6732 812.00 826.17 28.50
8345 84.6824 754.00 817.44 27.46
8346 84.6917 860.00 809.89 29.33
8347 84.7009 820.00 802.08 28.64
8348 84.7100 803.00 792.85 28.34
8349 84.7192 805.00 781.60 28.37
8350 84.7284 772.00 768.42 27.78
8351 84.7376 742.00 753.99 27.24
8352 84.7468 719.00 739.47 26.81
8353 84.7560 743.00 726.16 27.26
8354 84.7653 737.00 715.30 27.15
8355 84.7744 707.00 707.82 26.59
8356 84.7836 660.00 704.20 25.69
8357 84.7928 660.00 704.44 25.69
8358 84.8020 739.00 707.98 27.18
8359 84.8112 696.00 713.75 26.38
8360 84.8204 700.00 720.29 26.46
8361 84.8296 734.00 725.87 27.09
8362 84.8388 787.00 728.76 28.05
8363 84.8480 778.00 727.54 27.89
8364 84.8572 814.00 721.29 28.53
8365 84.8664 828.00 709.87 28.77
8366 84.8756 720.00 693.78 26.83
8367 84.8848 729.00 674.10 27.00
8368 84.8940 651.00 652.18 25.51
8369 84.9032 686.00 629.46 26.19
8370 84.9124 621.00 607.28 24.92
8371 84.9216 587.00 586.63 24.23
8372 84.9308 575.00 568.29 23.98
8373 84.9400 525.00 552.70 22.91
8374 84.9492 545.00 540.11 23.35
8375 84.9584 540.00 530.49 23.24
8376 84.9676 545.00 523.69 23.35
8377 84.9768 531.00 519.36 23.04
8378 84.9860 525.00 517.20 22.91
8379 84.9952 517.00 516.69 22.74
8380 85.0044 525.00 517.31 22.91
8381 85.0136 531.00 518.49 23.04
8382 85.0228 485.00 519.70 22.02
8383 85.0320 519.00 520.42 22.78
8384 85.0412 534.00 520.25 23.11
8385 85.0504 484.00 518.96 22.00
8386 85.0596 513.00 516.54 22.65
8387 85.0688 531.00 513.02 23.04
8388 85.0780 496.00 508.73 22.27
8389 85.0872 518.00 504.08 22.76
8390 85.0964 532.00 499.46 23.07
8391 85.1056 489.00 495.25 22.11
8392 85.1148 499.00 491.80 22.34
8393 85.1240 505.00 489.37 22.47
8394 85.1332 466.00 488.20 21.59
8395 85.1424 488.00 488.37 22.09
8396 85.1516 449.00 490.08 21.19
8397 85.1608 441.00 493.29 21.00
8398 85.1700 483.00 498.11 21.98
8399 85.1792 477.00 504.59 21.84
8400 85.1884 522.00 512.75 22.85
8401 85.1976 489.00 522.63 22.11
8402 85.2068 504.00 534.26 22.45
8403 85.2160 499.00 547.46 22.34
8404 85.2252 546.00 562.26 23.37
8405 85.2344 558.00 578.66 23.62
8406 85.2436 595.00 596.48 24.39
8407 85.2528 597.00 615.66 24.43
8408 85.2620 595.00 635.96 24.39
8409 85.2712 612.00 657.09 24.74
8410 85.2804 636.00 678.46 25.22
8411 85.2896 666.00 699.30 25.81
8412 85.2988 655.00 718.70 25.59
8413 85.3080 677.00 735.63 26.02
8414 85.3172 770.00 749.12 27.75
8415 85.3264 766.00 758.26 27.68
8416 85.3356 768.00 762.43 27.71
8417 85.3448 814.00 760.99 28.53
8418 85.3540 799.00 754.48 28.27
8419 85.3632 825.00 743.02 28.72
8420 85.3724 760.00 727.37 27.57
8421 85.3816 692.00 708.71 26.31
8422 85.3908 743.00 688.52 27.26
8423 85.4000 640.00 668.26 25.30
8424 85.4092 648.00 649.35 25.46
8425 85.4184 615.00 633.00 24.80
8426 85.4276 574.00 620.09 23.96
8427 85.4368 615.00 611.15 24.80
8428 85.4460 569.00 606.44 23.85
8429 85.4552 605.00 605.80 24.60
8430 85.4644 568.00 608.83 23.83
8431 85.4736 608.00 614.86 24.66
8432 85.4828 632.00 622.95 25.14
8433 85.4920 589.00 632.02 24.27
8434 85.5012 650.00 640.91 25.50
8435 85.5104 716.00 648.57 26.76
8436 85.5196 701.00 654.15 26.48
8437 85.5288 692.00 657.16 26.31
8438 85.5380 639.00 657.61 25.28
8439 85.5472 657.00 655.82 25.63
8440 85.5564 619.00 652.37 24.88
8441 85.5656 661.00 647.92 25.71
8442 85.5748 643.00 642.96 25.36
8443 85.5840 653.00 637.77 25.55
8444 85.5932 611.00 632.32 24.72
8445 85.6024 615.00 626.37 24.80
8446 85.6116 647.00 619.48 25.44
8447 85.6208 585.00 611.28 24.19
8448 85.6300 586.00 601.54 24.21
8449 85.6392 645.00 590.30 25.40
8450 85.6484 585.00 577.80 24.19
8451 85.6576 583.00 564.65 24.15
8452 85.6668 559.00 551.12 23.64
8453 85.6760 533.00 537.86 23.09
8454 85.6852 513.00 525.42 22.65
8455 85.6944 530.00 514.15 23.02
8456 85.7036 511.00 504.30 22.61
8457 85.7128 519.00 495.98 22.78
8458 85.7220 501.00 489.26 22.38
8459 85.7312 476.00 484.12 21.82
8460 85.7404 486.00 480.54 22.05
8461 85.7496 494.00 478.44 22.23
8462 85.7588 477.00 477.82 21.84
8463 85.7680 537.00 478.68 23.17
8464 85.7772 502.00 481.09 22.41
8465 85.7864 486.00 485.17 22.05
8466 85.7956 479.00 491.07 21.89
8467 85.8048 535.00 499.00 23.13
8468 85.8140 460.00 509.16 21.45
8469 85.8232 528.00 521.77 22.98
8470 85.8324 539.00 536.68 23.22
8471 85.8416 522.00 554.36 22.85
8472 85.8508 523.00 574.44 22.87
8473 85.8600 612.00 596.52 24.74
8474 85.8692 608.00 619.96 24.66
8475 85.8784 668.00 643.84 25.85
8476 85.8876 658.00 667.02 25.65
8477 85.8968 669.00 688.15 25.86
8478 85.9060 712.00 705.76 26.68
8479 85.9152 693.00 718.53 26.32
8480 85.9244 773.00 725.31 27.80
8481 85.9336 736.00 725.49 27.13
8482 85.9428 713.00 719.01 26.70
8483 85.9520 686.00 706.48 26.19
8484 85.9612 630.00 689.09 25.10
8485 85.9704 637.00 668.38 25.24
8486 85.9796 582.00 646.03 24.12
8487 85.9888 601.00 623.56 24.52
8488 85.9980 545.00 602.32 23.35
8489 86.0072 595.00 583.32 24.39
8490 86.0164 570.00 567.09 23.87
8491 86.0256 571.00 554.25 23.90
8492 86.0348 522.00 544.83 22.85
8493 86.0440 568.00 538.72 23.83
8494 86.0532 525.00 535.70 22.91
8495 86.0624 525.00 535.43 22.91
8496 86.0716 521.00 537.33 22.83
8497 86.0808 538.00 541.30 23.19
8498 86.0900 574.00 546.74 23.96
8499 86.0992 572.00 553.28 23.92
8500 86.1084 607.00 560.63 24.64
8501 86.1176 537.00 568.65 23.17
8502 86.1268 572.00 577.40 23.92
8503 86.1360 609.00 586.98 24.68
8504 86.1452 561.00 597.40 23.69
8505 86.1544 608.00 609.22 24.66
8506 86.1636 674.00 622.18 25.96
8507 86.1728 579.00 636.01 24.06
8508 86.1820 658.00 650.10 25.65
8509 86.1912 695.00 663.68 26.36
8510 86.2004 672.00 675.27 25.92
8511 86.2096 704.00 684.09 26.53
8512 86.2188 719.00 688.89 26.81
8513 86.2280 723.00 688.90 26.89
8514 86.2372 735.00 683.64 27.11
8515 86.2464 703.00 673.23 26.51
8516 86.2556 625.00 658.43 25.00
8517 86.2648 660.00 640.11 25.69
8518 86.2740 622.00 619.51 24.94
8519 86.2832 610.00 597.81 24.70
8520 86.2924 560.00 576.13 23.66
8521 86.3016 539.00 555.37 23.22
8522 86.3108 517.00 536.19 22.74
8523 86.3200 489.00 519.02 22.11
8524 86.3292 504.00 504.01 22.45
8525 86.3384 457.00 491.19 21.38
8526 86.3476 452.00 480.46 21.26
8527 86.3568 464.00 471.60 21.54
8528 86.3660 454.00 464.36 21.31
8529 86.3752 469.00 458.50 21.66
8530 86.3844 453.00 453.79 21.28
8531 86.3936 443.00 450.00 21.05
8532 86.4028 404.00 446.94 20.10
8533 86.4120 479.00 444.47 21.89
8534 86.4212 478.00 442.48 21.86
8535 86.4304 433.00 440.86 20.81
8536 86.4396 471.00 439.56 21.70
8537 86.4488 465.00 438.53 21.56
8538 86.4580 459.00 437.75 21.42
8539 86.4672 438.00 437.19 20.93
8540 86.4764 495.00 436.86 22.25
8541 86.4856 452.00 436.74 21.26
8542 86.4948 462.00 436.68 21.49
8543 86.5040 454.00 437.00 21.31
8544 86.5132 415.00 437.55 20.37
8545 86.5224 468.00 438.35 21.63
8546 86.5316 440.00 439.43 20.98
8547 86.5408 475.00 440.98 21.79
8548 86.5500 472.00 442.72 21.73
8549 86.5592 438.00 444.88 20.93
8550 86.5684 476.00 447.55 21.82
8551 86.5776 448.00 450.84 21.17
8552 86.5868 477.00 454.87 21.84
8553 86.5960 429.00 459.78 20.71
8554 86.6052 447.00 465.74 21.14
8555 86.6144 484.00 472.90 22.00
8556 86.6236 496.00 481.44 22.27
8557 86.6328 452.00 491.49 21.26
8558 86.6420 498.00 503.15 22.32
8559 86.6512 476.00 516.45 21.82
8560 86.6604 521.00 531.34 22.83
8561 86.6696 548.00 547.68 23.41
8562 86.6788 550.00 565.22 23.45
8563 86.6880 560.00 583.62 23.66
8564 86.6972 567.00 602.41 23.81
8565 86.7064 615.00 621.33 24.80
8566 86.7156 626.00 639.98 25.02
8567 86.7248 681.00 658.22 26.10
8568 86.7340 614.00 676.11 24.78
8569 86.7432 671.00 693.91 25.90
8570 86.7524 711.00 711.93 26.66
8571 86.7616 664.00 730.55 25.77
8572 86.7708 702.00 749.68 26.50
8573 86.7800 712.00 769.25 26.68
8574 86.7892 782.00 788.77 27.96
8575 86.7984 820.00 807.56 28.64
8576 86.8076 889.00 824.94 29.82
8577 86.8168 871.00 839.91 29.51
8578 86.8260 861.00 851.83 29.34
8579 86.8352 939.00 860.15 30.64
8580 86.8444 871.00 864.37 29.51
8581 86.8536 884.00 864.10 29.73
8582 86.8628 893.00 859.06 29.88
8583 86.8720 869.00 849.10 29.48
8584 86.8812 846.00 834.35 29.09
8585 86.8904 824.00 815.20 28.71
8586 86.8996 874.00 792.45 29.56
8587 86.9088 772.00 767.01 27.78
8588 86.9180 721.00 740.01 26.85
8589 86.9272 730.00 712.53 27.02
8590 86.9364 674.00 685.67 25.96
8591 86.9456 647.00 660.15 25.44
8592 86.9548 661.00 636.54 25.71
8593 86.9640 616.00 615.05 24.82
8594 86.9732 617.00 595.94 24.84
8595 86.9824 588.00 579.01 24.25
8596 86.9916 598.00 564.12 24.45
8597 87.0008 551.00 551.11 23.47
8598 87.0100 533.00 539.73 23.09
8599 87.0192 556.00 530.15 23.58
8600 87.0284 503.00 522.19 22.43
8601 87.0376 521.00 515.81 22.83
8602 87.0468 579.00 510.94 24.06
8603 87.0560 540.00 507.46 23.24
8604 87.0652 488.00 505.20 22.09
8605 87.0744 520.00 504.05 22.80
8606 87.0836 525.00 503.45 22.91
8607 87.0928 491.00 503.23 22.16
8608 87.1020 507.00 503.04 22.52
8609 87.1112 539.00 502.62 23.22
8610 87.1204 519.00 501.82 22.78
8611 87.1296 549.00 500.49 23.43
8612 87.1388 492.00 498.75 22.18
8613 87.1480 495.00 496.83 22.25
8614 87.1572 526.00 495.01 22.93
8615 87.1664 497.00 493.66 22.29
8616 87.1756 509.00 493.14 22.56
8617 87.1848 459.00 493.81 21.42
8618 87.1940 491.00 496.06 22.16
8619 87.2032 483.00 500.18 21.98
8620 87.2124 486.00 506.44 22.05
8621 87.2216 536.00 515.09 23.15
8622 87.2308 525.00 526.26 22.91
8623 87.2400 533.00 540.18 23.09
8624 87.2492 530.00 556.47 23.02
8625 87.2584 546.00 575.07 23.37
8626 87.2676 615.00 595.54 24.80
8627 87.2767 568.00 617.34 23.83
8628 87.2859 663.00 639.45 25.75
8629 87.2952 661.00 661.04 25.71
8630 87.3044 685.00 680.90 26.17
8631 87.3136 725.00 697.51 26.93
8632 87.3228 793.00 709.68 28.16
8633 87.3320 802.00 716.23 28.32
8634 87.3412 826.00 716.43 28.74
8635 87.3503 788.00 710.13 28.07
8636 87.3596 758.00 697.77 27.53
8637 87.3688 706.00 680.34 26.57
8638 87.3779 690.00 659.25 26.27
8639 87.3871 682.00 635.94 26.12
8640 87.3963 613.00 611.84 24.76
8641 87.4056 538.00 588.16 23.19
8642 87.4147 468.00 565.83 21.63
8643 87.4240 549.00 545.42 23.43
8644 87.4332 479.00 527.34 21.89
8645 87.4424 495.00 511.68 22.25
8646 87.4515 443.00 498.43 21.05
8647 87.4607 458.00 487.44 21.40
8648 87.4699 467.00 478.52 21.61
8649 87.4791 454.00 471.46 21.31
8650 87.4883 481.00 465.95 21.93
8651 87.4975 462.00 461.81 21.49
8652 87.5068 483.00 458.84 21.98
8653 87.5159 458.00 456.88 21.40
8654 87.5251 458.00 455.81 21.40
8655 87.5343 411.00 455.51 20.27
8656 87.5435 481.00 455.89 21.93
8657 87.5527 435.00 456.88 20.86
8658 87.5619 451.00 458.37 21.24
8659 87.5711 436.00 460.31 20.88
8660 87.5803 474.00 462.60 21.77
8661 87.5895 417.00 465.12 20.42
8662 87.5987 467.00 467.62 21.61
8663 87.6079 432.00 470.34 20.78
8664 87.6171 456.00 473.06 21.35
8665 87.6263 481.00 475.77 21.93
8666 87.6355 511.00 478.52 22.61
8667 87.6447 486.00 481.38 22.05
8668 87.6539 470.00 484.44 21.68
8669 87.6631 504.00 487.75 22.45
8670 87.6723 475.00 491.33 21.79
8671 87.6815 521.00 495.13 22.83
8672 87.6907 498.00 499.01 22.32
8673 87.6999 506.00 502.83 22.49
8674 87.7091 512.00 506.39 22.63
8675 87.7183 531.00 509.55 23.04
8676 87.7275 545.00 512.29 23.35
8677 87.7367 528.00 514.69 22.98
8678 87.7459 579.00 517.01 24.06
8679 87.7551 562.00 519.61 23.71
8680 87.7643 533.00 522.99 23.09
8681 87.7735 525.00 527.70 22.91
8682 87.7827 554.00 534.13 23.54
8683 87.7919 540.00 542.68 23.24
8684 87.8011 505.00 553.72 22.47
8685 87.8103 540.00 567.31 23.24
8686 87.8195 566.00 583.30 23.79
8687 87.8287 567.00 601.34 23.81
8688 87.8379 550.00 620.84 23.45
8689 87.8471 606.00 640.97 24.62
8690 87.8563 596.00 660.71 24.41
8691 87.8655 662.00 679.00 25.73
8692 87.8747 689.00 694.84 26.25
8693 87.8839 680.00 707.47 26.08
8694 87.8931 710.00 716.40 26.65
8695 87.9023 688.00 721.88 26.23
8696 87.9115 711.00 724.34 26.66
8697 87.9207 728.00 724.54 26.98
8698 87.9299 700.00 723.77 26.46
8699 87.9391 724.00 723.07 26.91
8700 87.9483 658.00 723.49 25.65
8701 87.9575 663.00 725.87 25.75
8702 87.9667 692.00 730.71 26.31
8703 87.9759 670.00 738.15 25.88
8704 87.9851 708.00 747.87 26.61
8705 87.9943 739.00 759.15 27.18
8706 88.0035 774.00 770.86 27.82
8707 88.0127 829.00 781.54 28.79
8708 88.0219 867.00 789.59 29.44
8709 88.0311 889.00 793.54 29.82
8710 88.0403 899.00 792.15 29.98
8711 88.0495 919.00 784.95 30.32
8712 88.0587 879.00 772.12 29.65
8713 88.0679 833.00 754.58 28.86
8714 88.0771 777.00 733.70 27.87
8715 88.0863 757.00 711.21 27.51
8716 88.0955 690.00 688.85 26.27
8717 88.1047 654.00 668.20 25.57
8718 88.1139 598.00 650.62 24.45
8719 88.1231 584.00 637.32 24.17
8720 88.1323 597.00 628.76 24.43
8721 88.1415 570.00 625.60 23.87
8722 88.1507 590.00 627.78 24.29
8723 88.1599 588.00 635.20 24.25
8724 88.1691 606.00 647.35 24.62
8725 88.1783 578.00 663.44 24.04
8726 88.1875 666.00 682.32 25.81
8727 88.1967 660.00 702.54 25.69
8728 88.2059 717.00 722.38 26.78
8729 88.2151 756.00 740.02 27.50
8730 88.2243 734.00 753.64 27.09
8731 88.2335 790.00 761.69 28.11
8732 88.2427 774.00 763.16 27.82
8733 88.2519 791.00 757.74 28.12
8734 88.2611 773.00 745.87 27.80
8735 88.2703 767.00 728.63 27.69
8736 88.2795 763.00 707.52 27.62
8737 88.2887 700.00 684.22 26.46
8738 88.2979 713.00 660.36 26.70
8739 88.3071 692.00 637.41 26.31
8740 88.3163 628.00 616.47 25.06
8741 88.3255 616.00 598.46 24.82
8742 88.3347 601.00 583.99 24.52
8743 88.3439 570.00 573.47 23.87
8744 88.3531 543.00 567.12 23.30
8745 88.3623 528.00 565.08 22.98
8746 88.3715 554.00 567.50 23.54
8747 88.3807 584.00 574.03 24.17
8748 88.3899 598.00 584.69 24.45
8749 88.3991 592.00 599.22 24.33
8750 88.4083 595.00 617.18 24.39
8751 88.4175 647.00 638.23 25.44
8752 88.4267 702.00 661.56 26.50
8753 88.4359 683.00 686.23 26.13
8754 88.4451 668.00 711.07 25.85
8755 88.4543 741.00 734.79 27.22
8756 88.4635 825.00 756.17 28.72
8757 88.4727 779.00 773.46 27.91
8758 88.4819 818.00 785.69 28.60
8759 88.4911 780.00 791.93 27.93
8760 88.5003 821.00 791.78 28.65
8761 88.5095 770.00 785.03 27.75
8762 88.5187 774.00 772.22 27.82
8763 88.5279 710.00 754.06 26.65
8764 88.5371 704.00 731.70 26.53
8765 88.5463 721.00 706.52 26.85
8766 88.5555 679.00 679.91 26.06
8767 88.5647 661.00 653.18 25.71
8768 88.5739 596.00 627.65 24.41
8769 88.5831 608.00 604.17 24.66
8770 88.5923 613.00 583.23 24.76
8771 88.6015 563.00 565.36 23.73
8772 88.6107 561.00 550.66 23.69
8773 88.6199 597.00 539.16 24.43
8774 88.6291 569.00 530.81 23.85
8775 88.6383 589.00 525.53 24.27
8776 88.6475 545.00 523.23 23.35
8777 88.6567 523.00 523.87 22.87
8778 88.6659 506.00 527.46 22.49
8779 88.6751 543.00 534.06 23.30
8780 88.6843 546.00 543.75 23.37
8781 88.6935 584.00 556.70 24.17
8782 88.7027 554.00 572.97 23.54
8783 88.7119 604.00 592.54 24.58
8784 88.7211 608.00 615.33 24.66
8785 88.7303 656.00 641.05 25.61
8786 88.7395 623.00 669.16 24.96
8787 88.7487 664.00 698.89 25.77
8788 88.7579 748.00 729.28 27.35
8789 88.7671 834.00 759.16 28.88
8790 88.7763 787.00 787.32 28.05
8791 88.7855 839.00 812.49 28.97
8792 88.7947 857.00 834.03 29.27
8793 88.8039 847.00 851.41 29.10
8794 88.8131 835.00 864.74 28.90
8795 88.8223 886.00 874.62 29.77
8796 88.8315 812.00 881.89 28.50
8797 88.8407 836.00 887.64 28.91
8798 88.8499 865.00 893.02 29.41
8799 88.8591 864.00 899.12 29.39
8800 88.8683 833.00 906.90 28.86
8801 88.8775 882.00 916.98 29.70
8802 88.8867 953.00 929.72 30.87
8803 88.8959 910.00 945.22 30.17
8804 88.9051 955.00 963.16 30.90
8805 88.9143 1009.00 983.15 31.76
8806 88.9235 988.00 1004.09 31.43
8807 88.9327 1034.00 1025.06 32.16
8808 88.9419 1074.00 1044.74 32.77
8809 88.9511 1145.00 1061.62 33.84
8810 88.9603 1186.00 1074.24 34.44
8811 88.9695 1174.00 1081.26 34.26
8812 88.9787 1186.00 1081.73 34.44
8813 88.9879 1193.00 1075.13 34.54
8814 88.9971 1127.00 1061.45 33.57
8815 89.0063 1145.00 1041.05 33.84
8816 89.0155 1020.00 1014.67 31.94
8817 89.0247 999.00 983.17 31.61
8818 89.0339 1035.00 947.71 32.17
8819 89.0431 907.00 909.43 30.12
8820 89.0523 903.00 870.08 30.05
8821 89.0615 821.00 830.88 28.65
8822 89.0707 747.00 793.14 27.33
8823 89.0799 737.00 758.02 27.15
8824 89.0891 719.00 726.41 26.81
8825 89.0983 713.00 698.82 26.70
8826 89.1075 630.00 675.49 25.10
8827 89.1167 687.00 656.24 26.21
8828 89.1259 631.00 640.72 25.12
8829 89.1351 607.00 628.29 24.64
8830 89.1443 606.00 618.27 24.62
8831 89.1535 633.00 609.85 25.16
8832 89.1627 662.00 602.34 25.73
8833 89.1719 579.00 595.05 24.06
8834 89.1811 524.00 587.58 22.89
8835 89.1903 608.00 579.46 24.66
8836 89.1995 588.00 570.59 24.25
8837 89.2087 577.00 560.90 24.02
8838 89.2179 556.00 550.49 23.58
8839 89.2271 538.00 539.58 23.19
8840 89.2363 522.00 528.50 22.85
8841 89.2455 561.00 517.40 23.69
8842 89.2547 521.00 506.68 22.83
8843 89.2639 516.00 496.60 22.72
8844 89.2731 501.00 487.34 22.38
8845 89.2823 467.00 479.05 21.61
8846 89.2915 455.00 471.79 21.33
8847 89.3007 475.00 465.56 21.79
8848 89.3099 445.00 460.33 21.09
8849 89.3191 454.00 456.06 21.31
8850 89.3283 472.00 452.65 21.73
8851 89.3375 468.00 450.08 21.63
8852 89.3467 429.00 448.25 20.71
8853 89.3559 475.00 447.15 21.79
8854 89.3651 448.00 446.73 21.17
8855 89.3743 471.00 447.00 21.70
8856 89.3835 430.00 447.99 20.74
8857 89.3927 423.00 449.71 20.57
8858 89.4019 417.00 452.20 20.42
8859 89.4111 454.00 455.49 21.31
8860 89.4203 433.00 459.59 20.81
8861 89.4295 447.00 464.46 21.14
8862 89.4387 477.00 470.00 21.84
8863 89.4479 494.00 476.12 22.23
8864 89.4571 469.00 482.58 21.66
8865 89.4663 493.00 489.07 22.20
8866 89.4755 515.00 495.24 22.69
8867 89.4847 508.00 500.74 22.54
8868 89.4939 515.00 505.05 22.69
8869 89.5031 530.00 507.89 23.02
8870 89.5123 527.00 509.04 22.96
8871 89.5215 497.00 508.44 22.29
8872 89.5307 551.00 506.23 23.47
8873 89.5399 504.00 502.69 22.45
8874 89.5491 480.00 498.22 21.91
8875 89.5583 492.00 493.26 22.18
8876 89.5675 495.00 488.25 22.25
8877 89.5767 470.00 483.55 21.68
8878 89.5859 464.00 479.51 21.54
8879 89.5951 486.00 476.44 22.05
8880 89.6043 477.00 474.25 21.84
8881 89.6135 456.00 473.36 21.35
8882 89.6227 455.00 473.75 21.33
8883 89.6319 449.00 475.44 21.19
8884 89.6411 464.00 478.42 21.54
8885 89.6503 476.00 482.77 21.82
8886 89.6595 467.00 488.46 21.61
8887 89.6687 524.00 495.47 22.89
8888 89.6779 506.00 503.80 22.49
8889 89.6871 523.00 513.41 22.87
8890 89.6963 543.00 524.30 23.30
8891 89.7055 547.00 536.43 23.39
8892 89.7147 562.00 549.76 23.71
8893 89.7239 570.00 564.27 23.87
8894 89.7331 614.00 579.93 24.78
8895 89.7423 592.00 596.71 24.33
8896 89.7515 576.00 614.64 24.00
8897 89.7607 619.00 633.57 24.88
8898 89.7699 647.00 653.95 25.44
8899 89.7791 613.00 675.72 24.76
8900 89.7883 698.00 699.08 26.42
8901 89.7975 705.00 724.10 26.55
8902 89.8067 732.00 750.75 27.06
8903 89.8159 764.00 778.67 27.64
8904 89.8251 769.00 807.19 27.73
8905 89.8343 847.00 835.14 29.10
8906 89.8435 889.00 860.99 29.82
8907 89.8527 845.00 882.78 29.07
8908 89.8619 935.00 898.65 30.58
8909 89.8711 960.00 906.97 30.98
8910 89.8803 987.00 906.63 31.42
8911 89.8895 956.00 897.29 30.92
8912 89.8987 939.00 879.43 30.64
8913 89.9079 944.00 854.35 30.72
8914 89.9171 838.00 823.86 28.95
8915 89.9263 827.00 789.98 28.76
8916 89.9355 754.00 754.80 27.46
8917 89.9447 739.00 720.29 27.18
8918 89.9539 717.00 687.82 26.78
8919 89.9631 653.00 658.67 25.55
8920 89.9723 654.00 633.49 25.57
8921 89.9815 625.00 613.21 25.00
8922 89.9907 604.00 597.89 24.58
8923 89.9999 529.00 587.62 23.00
8924 90.0091 587.00 582.39 24.23
8925 90.0183 617.00 582.05 24.84
8926 90.0275 568.00 586.43 23.83
8927 90.0367 597.00 595.25 24.43
8928 90.0459 610.00 608.22 24.70
8929 90.0551 637.00 624.95 25.24
8930 90.0643 628.00 644.88 25.06
8931 90.0735 701.00 667.38 26.48
8932 90.0827 723.00 691.63 26.89
8933 90.0919 677.00 716.73 26.02
8934 90.1011 735.00 741.67 27.11
8935 90.1103 757.00 765.45 27.51
8936 90.1195 809.00 787.23 28.44
8937 90.1287 823.00 806.46 28.69
8938 90.1379 805.00 822.87 28.37
8939 90.1471 861.00 836.56 29.34
8940 90.1562 886.00 847.77 29.77
8941 90.1655 869.00 856.76 29.48
8942 90.1747 891.00 863.57 29.85
8943 90.1839 887.00 867.92 29.78
8944 90.1931 928.00 869.22 30.46
8945 90.2023 854.00 866.63 29.22
8946 90.2115 930.00 859.19 30.50
8947 90.2206 929.00 846.53 30.48
8948 90.2299 894.00 828.36 29.90
8949 90.2391 826.00 805.13 28.74
8950 90.2483 789.00 777.61 28.09
8951 90.2574 811.00 747.35 28.48
8952 90.2666 773.00 715.60 27.80
8953 90.2758 672.00 683.77 25.92
8954 90.2851 659.00 653.05 25.67
8955 90.2943 613.00 624.40 24.76
8956 90.3035 557.00 598.43 23.60
8957 90.3127 546.00 575.54 23.37
8958 90.3218 551.00 555.93 23.47
8959 90.3310 493.00 539.53 22.20
8960 90.3402 486.00 526.24 22.05
8961 90.3494 480.00 515.88 21.91
8962 90.3586 496.00 508.20 22.27
8963 90.3678 486.00 503.01 22.05
8964 90.3770 525.00 500.13 22.91
8965 90.3863 527.00 499.48 22.96
8966 90.3954 497.00 501.01 22.29
8967 90.4046 519.00 504.74 22.78
8968 90.4138 514.00 510.75 22.67
8969 90.4230 509.00 519.15 22.56
8970 90.4322 489.00 530.01 22.11
8971 90.4414 538.00 543.40 23.19
8972 90.4506 529.00 559.33 23.00
8973 90.4598 563.00 577.59 23.73
8974 90.4690 592.00 597.94 24.33
8975 90.4782 617.00 619.88 24.84
8976 90.4874 625.00 642.74 25.00
8977 90.4966 707.00 665.65 26.59
8978 90.5058 725.00 687.69 26.93
8979 90.5150 706.00 707.84 26.57
8980 90.5242 714.00 725.25 26.72
8981 90.5334 777.00 739.18 27.87
8982 90.5426 727.00 749.79 26.96
8983 90.5518 801.00 757.22 28.30
8984 90.5610 710.00 762.16 26.65
8985 90.5702 778.00 765.69 27.89
8986 90.5794 761.00 768.87 27.59
8987 90.5886 774.00 772.93 27.82
8988 90.5978 772.00 778.66 27.78
8989 90.6070 795.00 786.57 28.20
8990 90.6162 828.00 796.76 28.77
8991 90.6254 808.00 808.85 28.43
8992 90.6346 822.00 822.08 28.67
8993 90.6438 868.00 835.28 29.46
8994 90.6530 898.00 847.33 29.97
8995 90.6622 909.00 856.86 30.15
8996 90.6714 973.00 862.71 31.19
8997 90.6806 910.00 864.18 30.17
8998 90.6898 878.00 860.97 29.63
8999 90.6990 896.00 853.47 29.93
9000 90.7082 833.00 842.33 28.86
9001 90.7174 769.00 829.08 27.73
9002 90.7266 802.00 814.80 28.32
9003 90.7358 784.00 800.61 28.00
9004 90.7450 810.00 787.26 28.46
9005 90.7542 702.00 775.40 26.50
9006 90.7634 717.00 765.08 26.78
9007 90.7726 724.00 756.17 26.91
9008 90.7818 725.00 748.26 26.93
9009 90.7910 726.00 741.23 26.94
9010 90.8002 805.00 734.72 28.37
9011 90.8094 725.00 728.70 26.93
9012 90.8186 698.00 723.14 26.42
9013 90.8278 705.00 718.26 26.55
9014 90.8370 701.00 714.33 26.48
9015 90.8462 707.00 711.61 26.59
9016 90.8554 640.00 710.32 25.30
9017 90.8646 679.00 710.59 26.06
9018 90.8738 664.00 712.46 25.77
9019 90.8830 745.00 715.84 27.29
9020 90.8922 691.00 720.58 26.29
9021 90.9014 690.00 726.43 26.27
9022 90.9106 674.00 733.00 25.96
9023 90.9198 687.00 739.91 26.21
9024 90.9290 726.00 746.58 26.94
9025 90.9382 744.00 752.35 27.28
9026 90.9474 716.00 756.60 26.76
9027 90.9566 698.00 758.72 26.42
9028 90.9658 759.00 758.29 27.55
9029 90.9750 698.00 754.93 26.42
9030 90.9842 692.00 748.46 26.31
9031 90.9934 766.00 738.69 27.68
9032 91.0026 747.00 725.70 27.33
9033 91.0118 740.00 709.75 27.20
9034 91.0210 705.00 691.24 26.55
9035 91.0302 720.00 670.81 26.83
9036 91.0394 665.00 649.22 25.79
9037 91.0486 638.00 627.34 25.26
9038 91.0578 633.00 605.92 25.16
9039 91.0670 577.00 585.69 24.02
9040 91.0762 561.00 567.21 23.69
9041 91.0854 531.00 550.84 23.04
9042 91.0946 540.00 536.82 23.24
9043 91.1038 507.00 525.26 22.52
9044 91.1130 490.00 516.12 22.14
9045 91.1222 519.00 509.31 22.78
9046 91.1314 462.00 504.68 21.49
9047 91.1406 499.00 502.05 22.34
9048 91.1498 499.00 501.25 22.34
9049 91.1590 491.00 502.09 22.16
9050 91.1682 474.00 504.41 21.77
9051 91.1774 489.00 508.07 22.11
9052 91.1866 495.00 512.95 22.25
9053 91.1958 513.00 518.90 22.65
9054 91.2050 507.00 525.76 22.52
9055 91.2142 544.00 533.30 23.32
9056 91.2234 545.00 541.31 23.35
9057 91.2326 516.00 549.31 22.72
9058 91.2418 563.00 557.00 23.73
9059 91.2510 582.00 563.99 24.12
9060 91.2602 584.00 570.02 24.17
9061 91.2694 582.00 574.88 24.12
9062 91.2786 560.00 578.69 23.66
9063 91.2878 595.00 581.57 24.39
9064 91.2970 582.00 583.79 24.12
9065 91.3062 548.00 585.64 23.41
9066 91.3154 572.00 587.37 23.92
9067 91.3246 578.00 589.05 24.04
9068 91.3338 582.00 590.60 24.12
9069 91.3430 584.00 591.73 24.17
9070 91.3522 560.00 592.04 23.66
9071 91.3614 594.00 591.06 24.37
9072 91.3706 568.00 588.35 23.83
9073 91.3798 548.00 583.62 23.41
9074 91.3890 549.00 576.81 23.43
9075 91.3982 563.00 568.08 23.73
9076 91.4074 585.00 557.81 24.19
9077 91.4166 550.00 546.52 23.45
9078 91.4258 522.00 534.77 22.85
9079 91.4350 566.00 523.13 23.79
9080 91.4442 488.00 512.08 22.09
9081 91.4534 536.00 502.05 23.15
9082 91.4626 488.00 493.33 22.09
9083 91.4718 519.00 486.20 22.78
9084 91.4810 486.00 480.71 22.05
9085 91.4902 453.00 477.02 21.28
9086 91.4994 494.00 475.18 22.23
9087 91.5086 465.00 475.24 21.56
9088 91.5178 489.00 477.23 22.11
9089 91.5270 473.00 481.16 21.75
9090 91.5362 473.00 487.03 21.75
9091 91.5454 506.00 494.75 22.49
9092 91.5546 474.00 504.34 21.77
9093 91.5638 562.00 515.61 23.71
9094 91.5730 532.00 528.33 23.07
9095 91.5822 532.00 542.30 23.07
9096 91.5914 529.00 556.77 23.00
9097 91.6006 631.00 571.36 25.12
9098 91.6098 602.00 585.47 24.54
9099 91.6190 606.00 598.44 24.62
9100 91.6282 650.00 609.75 25.50
9101 91.6374 663.00 618.79 25.75
9102 91.6466 677.00 625.73 26.02
9103 91.6558 705.00 630.41 26.55
9104 91.6650 599.00 633.25 24.47
9105 91.6742 650.00 634.58 25.50
9106 91.6834 613.00 634.83 24.76
9107 91.6926 616.00 634.32 24.82
9108 91.7018 599.00 633.19 24.47
9109 91.7110 661.00 631.46 25.71
9110 91.7202 608.00 628.98 24.66
9111 91.7294 632.00 625.55 25.14
9112 91.7386 631.00 621.12 25.12
9113 91.7478 649.00 615.46 25.48
9114 91.7570 644.00 608.79 25.38
9115 91.7662 605.00 601.41 24.60
9116 91.7754 648.00 593.66 25.46
9117 91.7846 574.00 585.95 23.96
9118 91.7938 540.00 578.60 23.24
9119 91.8030 559.00 571.80 23.64
9120 91.8122 574.00 565.62 23.96
9121 91.8214 550.00 559.96 23.45
9122 91.8306 534.00 554.64 23.11
9123 91.8398 532.00 549.39 23.07
9124 91.8490 572.00 543.97 23.92
9125 91.8582 488.00 538.19 22.09
9126 91.8674 550.00 531.94 23.45
9127 91.8766 514.00 525.20 22.67
9128 91.8858 515.00 518.02 22.69
9129 91.8950 517.00 510.51 22.74
9130 91.9042 508.00 502.64 22.54
9131 91.9134 506.00 494.82 22.49
9132 91.9226 495.00 486.99 22.25
9133 91.9318 484.00 479.29 22.00
9134 91.9410 488.00 471.80 22.09
9135 91.9502 455.00 464.64 21.33
9136 91.9594 468.00 457.91 21.63
9137 91.9686 422.00 451.70 20.54
9138 91.9778 399.00 446.06 19.98
9139 91.9870 416.00 441.02 20.40
9140 91.9962 446.00 436.39 21.12
9141 92.0054 436.00 432.56 20.88
9142 92.0146 461.00 429.30 21.47
9143 92.0238 459.00 426.55 21.42
9144 92.0330 459.00 424.26 21.42
9145 92.0422 464.00 422.37 21.54
9146 92.0514 411.00 420.83 20.27
9147 92.0606 448.00 419.57 21.17
9148 92.0698 438.00 418.55 20.93
9149 92.0790 427.00 417.74 20.66
9150 92.0882 427.00 417.10 20.66
9151 92.0974 399.00 416.63 19.98
9152 92.1066 419.00 416.31 20.47
9153 92.1158 472.00 416.14 21.73
9154 92.1250 394.00 416.10 19.85
9155 92.1342 371.00 416.20 19.26
9156 92.1434 455.00 416.41 21.33
9157 92.1526 411.00 416.72 20.27
9158 92.1618 383.00 417.10 19.57
9159 92.1710 421.00 417.50 20.52
9160 92.1802 422.00 417.91 20.54
9161 92.1894 457.00 418.27 21.38
9162 92.1986 428.00 418.57 20.69
9163 92.2078 428.00 418.80 20.69
9164 92.2170 397.00 418.95 19.92
9165 92.2262 415.00 419.05 20.37
9166 92.2354 414.00 419.12 20.35
9167 92.2446 437.00 419.21 20.90
9168 92.2538 434.00 419.33 20.83
9169 92.2630 427.00 419.52 20.66
9170 92.2722 441.00 419.79 21.00
9171 92.2814 430.00 420.15 20.74
9172 92.2906 427.00 420.59 20.66
9173 92.2998 402.00 421.13 20.05
9174 92.3090 409.00 421.75 20.22
9175 92.3182 403.00 422.34 20.07
9176 92.3274 447.00 423.17 21.14
9177 92.3366 401.00 424.13 20.02
9178 92.3458 438.00 425.25 20.93
9179 92.3550 418.00 426.63 20.44
9180 92.3642 432.00 428.31 20.78
9181 92.3734 399.00 430.37 19.98
9182 92.3826 428.00 432.90 20.69
9183 92.3918 433.00 435.97 20.81
9184 92.4010 451.00 439.64 21.24
9185 92.4102 435.00 443.95 20.86
9186 92.4194 412.00 448.87 20.30
9187 92.4286 461.00 454.38 21.47
9188 92.4378 444.00 460.35 21.07
9189 92.4470 496.00 466.60 22.27
9190 92.4562 464.00 472.87 21.54
9191 92.4654 461.00 478.98 21.47
9192 92.4746 495.00 484.42 22.25
9193 92.4838 478.00 489.26 21.86
9194 92.4930 497.00 493.16 22.29
9195 92.5022 493.00 495.99 22.20
9196 92.5114 511.00 497.81 22.61
9197 92.5206 487.00 498.76 22.07
9198 92.5298 489.00 499.06 22.11
9199 92.5390 486.00 499.04 22.05
9200 92.5482 485.00 498.96 22.02
9201 92.5574 503.00 499.08 22.43
9202 92.5666 537.00 499.56 23.17
9203 92.5758 506.00 500.36 22.49
9204 92.5850 528.00 501.59 22.98
9205 92.5942 508.00 502.99 22.54
9206 92.6034 483.00 504.33 21.98
9207 92.6126 514.00 505.26 22.67
9208 92.6218 556.00 505.56 23.58
9209 92.6310 588.00 504.96 24.25
9210 92.6402 516.00 503.35 22.72
9211 92.6494 511.00 500.74 22.61
9212 92.6586 541.00 497.30 23.26
9213 92.6678 514.00 493.32 22.67
9214 92.6770 498.00 489.09 22.32
9215 92.6862 476.00 485.08 21.82
9216 92.6954 453.00 481.58 21.28
9217 92.7046 424.00 478.88 20.59
9218 92.7138 507.00 477.17 22.52
9219 92.7230 471.00 476.58 21.70
9220 92.7322 474.00 477.15 21.77
9221 92.7414 499.00 478.74 22.34
9222 92.7506 504.00 481.14 22.45
9223 92.7598 464.00 484.26 21.54
9224 92.7690 475.00 487.69 21.79
9225 92.7782 489.00 491.09 22.11
9226 92.7874 468.00 494.11 21.63
9227 92.7966 480.00 496.43 21.91
9228 92.8058 505.00 497.75 22.47
9229 92.8150 467.00 498.18 21.61
9230 92.8242 490.00 497.67 22.14
9231 92.8334 505.00 496.40 22.47
9232 92.8426 488.00 494.63 22.09
9233 92.8518 517.00 492.67 22.74
9234 92.8610 503.00 490.78 22.43
9235 92.8702 511.00 489.20 22.61
9236 92.8794 432.00 488.10 20.78
9237 92.8886 481.00 487.57 21.93
9238 92.8978 493.00 487.62 22.20
9239 92.9070 486.00 488.20 22.05
9240 92.9162 464.00 489.24 21.54
9241 92.9254 470.00 490.82 21.68
9242 92.9346 494.00 492.55 22.23
9243 92.9438 511.00 494.57 22.61
9244 92.9530 480.00 496.93 21.91
9245 92.9622 494.00 499.68 22.23
9246 92.9714 508.00 502.89 22.54
9247 92.9806 487.00 506.62 22.07
9248 92.9898 515.00 510.84 22.69
9249 92.9990 484.00 515.45 22.00
9250 93.0082 509.00 520.27 22.56
9251 93.0174 508.00 525.03 22.54
9252 93.0266 487.00 529.37 22.07
9253 93.0358 580.00 532.94 24.08
9254 93.0450 536.00 535.38 23.15
9255 93.0542 502.00 536.42 22.41
9256 93.0634 534.00 535.94 23.11
9257 93.0726 545.00 533.89 23.35
9258 93.0818 543.00 530.58 23.30
9259 93.0910 551.00 526.23 23.47
9260 93.1002 497.00 521.19 22.29
9261 93.1094 555.00 515.80 23.56
9262 93.1186 481.00 510.38 21.93
9263 93.1278 477.00 505.22 21.84
9264 93.1370 475.00 500.52 21.79
9265 93.1462 548.00 496.47 23.41
9266 93.1554 487.00 493.26 22.07
9267 93.1646 505.00 491.03 22.47
9268 93.1738 512.00 489.98 22.63
9269 93.1830 489.00 490.19 22.11
9270 93.1922 502.00 491.99 22.41
9271 93.2014 492.00 495.48 22.18
9272 93.2106 499.00 500.77 22.34
9273 93.2198 495.00 507.96 22.25
9274 93.2290 472.00 517.09 21.73
9275 93.2382 509.00 528.12 22.56
9276 93.2474 508.00 540.99 22.54
9277 93.2566 568.00 555.59 23.83
9278 93.2657 528.00 571.47 22.98
9279 93.2749 536.00 588.44 23.15
9280 93.2842 561.00 606.06 23.69
9281 93.2934 591.00 623.97 24.31
9282 93.3026 590.00 641.80 24.29
9283 93.3118 678.00 659.35 26.04
9284 93.3210 639.00 676.56 25.28
9285 93.3302 753.00 693.51 27.44
9286 93.3393 657.00 710.44 25.63
9287 93.3485 702.00 727.67 26.50
9288 93.3577 724.00 745.44 26.91
9289 93.3670 759.00 763.78 27.55
9290 93.3761 773.00 782.48 27.80
9291 93.3854 830.00 801.05 28.81
9292 93.3946 885.00 818.68 29.75
9293 93.4037 887.00 834.37 29.78
9294 93.4129 950.00 847.14 30.82
9295 93.4221 962.00 856.09 31.02
9296 93.4314 916.00 860.66 30.27
9297 93.4405 935.00 860.70 30.58
9298 93.4497 897.00 856.47 29.95
9299 93.4589 900.00 848.48 30.00
9300 93.4681 875.00 837.74 29.58
9301 93.4773 845.00 825.05 29.07
9302 93.4865 784.00 811.26 28.00
9303 93.4958 776.00 797.14 27.86
9304 93.5050 796.00 783.30 28.21
9305 93.5141 703.00 770.17 26.51
9306 93.5233 688.00 757.97 26.23
9307 93.5325 747.00 746.72 27.33
9308 93.5417 704.00 736.30 26.53
9309 93.5509 724.00 726.31 26.91
9310 93.5601 744.00 716.20 27.28
9311 93.5693 690.00 705.58 26.27
9312 93.5785 686.00 693.87 26.19
9313 93.5877 687.00 680.66 26.21
9314 93.5969 710.00 665.78 26.65
9315 93.6061 645.00 649.26 25.40
9316 93.6153 645.00 631.39 25.40
9317 93.6245 627.00 612.55 25.04
9318 93.6337 637.00 593.26 25.24
9319 93.6429 619.00 574.02 24.88
9320 93.6521 557.00 555.27 23.60
9321 93.6613 549.00 537.43 23.43
9322 93.6705 498.00 520.77 22.32
9323 93.6797 500.00 505.57 22.36
9324 93.6889 476.00 491.90 21.82
9325 93.6981 468.00 479.80 21.63
9326 93.7073 502.00 469.25 22.41
9327 93.7165 456.00 460.16 21.35
9328 93.7257 437.00 452.41 20.90
9329 93.7349 437.00 445.87 20.90
9330 93.7441 449.00 440.39 21.19
9331 93.7533 471.00 435.85 21.70
9332 93.7625 414.00 432.10 20.35
9333 93.7717 429.00 429.04 20.71
9334 93.7809 431.00 426.57 20.76
9335 93.7901 468.00 424.60 21.63
9336 93.7993 449.00 423.06 21.19
9337 93.8085 435.00 421.87 20.86
9338 93.8177 429.00 420.99 20.71
9339 93.8269 394.00 420.35 19.85
9340 93.8361 417.00 419.90 20.42
9341 93.8453 485.00 419.58 22.02
9342 93.8545 438.00 419.33 20.93
9343 93.8637 458.00 419.08 21.40
9344 93.8729 449.00 418.80 21.19
9345 93.8821 444.00 418.41 21.07
9346 93.8913 400.00 418.13 20.00
9347 93.9005 438.00 417.47 20.93
9348 93.9097 414.00 416.67 20.35
9349 93.9189 437.00 415.76 20.90
9350 93.9281 385.00 414.75 19.62
9351 93.9373 421.00 413.70 20.52
9352 93.9465 420.00 412.63 20.49
9353 93.9557 395.00 411.59 19.87
9354 93.9649 420.00 410.59 20.49
9355 93.9741 410.00 409.66 20.25
9356 93.9833 416.00 408.82 20.40
9357 93.9925 362.00 408.04 19.03
9358 94.0017 430.00 407.35 20.74
9359 94.0109 414.00 406.73 20.35
9360 94.0201 400.00 406.19 20.00
9361 94.0293 423.00 405.73 20.57
9362 94.0385 415.00 405.32 20.37
9363 94.0477 438.00 404.99 20.93
9364 94.0569 421.00 404.73 20.52
9365 94.0661 398.00 404.52 19.95
9366 94.0753 393.00 404.41 19.82
9367 94.0845 389.00 404.34 19.72
9368 94.0937 385.00 404.33 19.62
9369 94.1029 420.00 404.40 20.49
9370 94.1121 392.00 404.55 19.80
9371 94.1213 410.00 404.78 20.25
9372 94.1305 415.00 405.11 20.37
9373 94.1397 396.00 405.60 19.90
9374 94.1489 411.00 406.22 20.27
9375 94.1581 462.00 406.93 21.49
9376 94.1673 403.00 407.81 20.07
9377 94.1765 377.00 408.85 19.42
9378 94.1857 408.00 410.08 20.20
9379 94.1949 407.00 411.49 20.17
9380 94.2041 425.00 413.10 20.62
9381 94.2133 414.00 414.88 20.35
9382 94.2225 412.00 416.82 20.30
9383 94.2317 442.00 418.90 21.02
9384 94.2409 436.00 421.06 20.88
9385 94.2501 411.00 423.27 20.27
9386 94.2593 451.00 425.46 21.24
9387 94.2685 398.00 427.60 19.95
9388 94.2777 418.00 429.62 20.44
9389 94.2869 441.00 431.52 21.00
9390 94.2961 458.00 433.28 21.40
9391 94.3053 455.00 434.98 21.33
9392 94.3145 436.00 436.54 20.88
9393 94.3237 437.00 438.05 20.90
9394 94.3329 467.00 439.55 21.61
9395 94.3421 439.00 441.02 20.95
9396 94.3513 454.00 442.54 21.31
9397 94.3605 461.00 444.05 21.47
9398 94.3697 425.00 445.53 20.62
9399 94.3789 457.00 446.92 21.38
9400 94.3881 473.00 448.16 21.75
9401 94.3973 463.00 449.21 21.52
9402 94.4065 458.00 450.01 21.40
9403 94.4157 416.00 450.54 20.40
9404 94.4249 467.00 450.80 21.61
9405 94.4341 425.00 450.83 20.62
9406 94.4433 470.00 450.69 21.68
9407 94.4525 471.00 450.47 21.70
9408 94.4617 426.00 450.33 20.64
9409 94.4709 427.00 450.42 20.66
9410 94.4801 458.00 450.86 21.40
9411 94.4893 485.00 451.91 22.02
9412 94.4985 425.00 453.68 20.62
9413 94.5077 430.00 456.28 20.74
9414 94.5169 451.00 459.78 21.24
9415 94.5261 451.00 464.19 21.24
9416 94.5353 472.00 469.45 21.73
9417 94.5445 477.00 475.48 21.84
9418 94.5537 455.00 482.09 21.33
9419 94.5629 503.00 489.05 22.43
9420 94.5721 485.00 496.08 22.02
9421 94.5813 501.00 502.90 22.38
9422 94.5905 507.00 509.22 22.52
9423 94.5997 507.00 514.82 22.52
9424 94.6089 575.00 519.59 23.98
9425 94.6181 531.00 523.58 23.04
9426 94.6273 539.00 526.94 23.22
9427 94.6365 525.00 530.01 22.91
9428 94.6457 571.00 533.20 23.90
9429 94.6549 537.00 536.92 23.17
9430 94.6641 517.00 541.74 22.74
9431 94.6733 552.00 548.02 23.49
9432 94.6825 550.00 556.09 23.45
9433 94.6917 539.00 566.18 23.22
9434 94.7009 560.00 578.40 23.66
9435 94.7101 555.00 592.71 23.56
9436 94.7193 583.00 608.98 24.15
9437 94.7285 597.00 626.90 24.43
9438 94.7377 637.00 646.07 25.24
9439 94.7469 631.00 665.93 25.12
9440 94.7561 594.00 685.82 24.37
9441 94.7653 654.00 704.84 25.57
9442 94.7745 697.00 722.02 26.40
9443 94.7837 718.00 736.28 26.80
9444 94.7929 679.00 746.58 26.06
9445 94.8021 758.00 751.98 27.53
9446 94.8113 773.00 751.85 27.80
9447 94.8205 720.00 746.00 26.83
9448 94.8297 775.00 734.68 27.84
9449 94.8389 743.00 718.60 27.26
9450 94.8481 730.00 698.78 27.02
9451 94.8573 690.00 676.36 26.27
9452 94.8665 662.00 652.59 25.73
9453 94.8757 680.00 628.54 26.08
9454 94.8849 589.00 605.10 24.27
9455 94.8941 580.00 582.98 24.08
9456 94.9033 539.00 562.65 23.22
9457 94.9125 505.00 544.36 22.47
9458 94.9217 502.00 528.32 22.41
9459 94.9309 459.00 514.49 21.42
9460 94.9401 487.00 502.79 22.07
9461 94.9493 493.00 493.10 22.20
9462 94.9585 496.00 485.29 22.27
9463 94.9677 478.00 479.23 21.86
9464 94.9769 485.00 474.86 22.02
9465 94.9861 464.00 472.10 21.54
9466 94.9953 461.00 470.94 21.47
9467 95.0045 449.00 471.40 21.19
9468 95.0137 481.00 473.55 21.93
9469 95.0229 475.00 477.45 21.79
9470 95.0321 478.00 483.19 21.86
9471 95.0413 474.00 490.81 21.77
9472 95.0505 492.00 500.34 22.18
9473 95.0597 501.00 511.73 22.38
9474 95.0689 499.00 524.82 22.34
9475 95.0781 537.00 539.37 23.17
9476 95.0873 550.00 554.93 23.45
9477 95.0965 579.00 570.96 24.06
9478 95.1057 577.00 586.75 24.02
9479 95.1149 619.00 601.46 24.88
9480 95.1241 649.00 614.20 25.48
9481 95.1333 703.00 624.09 26.51
9482 95.1425 663.00 630.39 25.75
9483 95.1517 697.00 632.59 26.40
9484 95.1609 684.00 630.44 26.15
9485 95.1701 700.00 624.10 26.46
9486 95.1793 639.00 613.96 25.28
9487 95.1885 644.00 600.87 25.38
9488 95.1977 522.00 585.58 22.85
9489 95.2069 560.00 568.99 23.66
9490 95.2161 529.00 551.91 23.00
9491 95.2253 533.00 535.06 23.09
9492 95.2345 540.00 519.00 23.24
9493 95.2437 467.00 504.15 21.61
9494 95.2529 482.00 490.79 21.95
9495 95.2621 459.00 479.03 21.42
9496 95.2713 431.00 468.92 20.76
9497 95.2805 419.00 460.39 20.47
9498 95.2897 473.00 453.17 21.75
9499 95.2989 438.00 447.43 20.93
9500 95.3081 444.00 442.81 21.07
9501 95.3173 463.00 439.11 21.52
9502 95.3265 435.00 436.16 20.86
9503 95.3357 448.00 433.73 21.17
9504 95.3449 412.00 431.72 20.30
9505 95.3541 416.00 429.97 20.40
9506 95.3633 405.00 428.33 20.12
9507 95.3725 436.00 426.80 20.88
9508 95.3817 449.00 425.31 21.19
9509 95.3909 448.00 423.84 21.17
9510 95.4001 406.00 422.36 20.15
9511 95.4093 442.00 420.96 21.02
9512 95.4185 416.00 419.63 20.40
9513 95.4277 427.00 418.42 20.66
9514 95.4369 433.00 417.34 20.81
9515 95.4461 430.00 416.43 20.74
9516 95.4553 391.00 415.62 19.77
9517 95.4645 446.00 415.09 21.12
9518 95.4737 395.00 414.77 19.87
9519 95.4829 413.00 414.66 20.32
9520 95.4921 406.00 414.77 20.15
9521 95.5013 400.00 415.11 20.00
9522 95.5105 407.00 415.68 20.17
9523 95.5197 423.00 416.51 20.57
9524 95.5289 443.00 417.59 21.05
9525 95.5381 395.00 418.95 19.87
9526 95.5473 440.00 420.61 20.98
9527 95.5565 420.00 422.60 20.49
9528 95.5657 447.00 424.97 21.14
9529 95.5749 411.00 427.73 20.27
9530 95.5841 461.00 430.97 21.47
9531 95.5933 416.00 434.76 20.40
9532 95.6025 447.00 439.21 21.14
9533 95.6117 442.00 444.45 21.02
9534 95.6209 472.00 450.66 21.73
9535 95.6301 456.00 458.03 21.35
9536 95.6393 463.00 466.81 21.52
9537 95.6485 475.00 477.24 21.79
9538 95.6577 495.00 489.61 22.25
9539 95.6669 487.00 504.19 22.07
9540 95.6761 504.00 521.25 22.45
9541 95.6853 524.00 540.98 22.89
9542 95.6945 531.00 563.52 23.04
9543 95.7037 546.00 588.82 23.37
9544 95.7129 588.00 616.75 24.25
9545 95.7221 562.00 646.94 23.71
9546 95.7313 655.00 678.75 25.59
9547 95.7405 678.00 711.38 26.04
9548 95.7497 711.00 743.63 26.66
9549 95.7589 680.00 774.16 26.08
9550 95.7681 744.00 801.42 27.28
9551 95.7773 726.00 823.89 26.94
9552 95.7865 820.00 840.12 28.64
9553 95.7957 789.00 849.08 28.09
9554 95.8049 836.00 850.25 28.91
9555 95.8141 800.00 843.73 28.28
9556 95.8233 783.00 830.28 27.98
9557 95.8325 752.00 811.11 27.42
9558 95.8417 719.00 787.80 26.81
9559 95.8509 725.00 761.95 26.93
9560 95.8601 691.00 735.18 26.29
9561 95.8693 667.00 708.96 25.83
9562 95.8785 703.00 684.20 26.51
9563 95.8877 628.00 661.84 25.06
9564 95.8969 637.00 642.47 25.24
9565 95.9061 622.00 626.45 24.94
9566 95.9153 615.00 613.94 24.80
9567 95.9245 527.00 604.98 22.96
9568 95.9337 599.00 599.46 24.47
9569 95.9429 585.00 597.28 24.19
9570 95.9521 595.00 597.93 24.39
9571 95.9613 601.00 601.14 24.52
9572 95.9705 604.00 606.48 24.58
9573 95.9797 622.00 613.39 24.94
9574 95.9889 645.00 621.36 25.40
9575 95.9981 623.00 629.91 24.96
9576 96.0073 639.00 638.28 25.28
9577 96.0165 644.00 645.98 25.38
9578 96.0257 647.00 652.40 25.44
9579 96.0349 649.00 656.96 25.48
9580 96.0441 667.00 659.12 25.83
9581 96.0533 706.00 658.48 26.57
9582 96.0625 681.00 654.83 26.10
9583 96.0717 658.00 648.20 25.65
9584 96.0809 604.00 638.88 24.58
9585 96.0901 567.00 627.37 23.81
9586 96.0993 600.00 614.37 24.49
9587 96.1085 541.00 600.63 23.26
9588 96.1177 570.00 586.86 23.87
9589 96.1269 592.00 573.72 24.33
9590 96.1361 525.00 561.72 22.91
9591 96.1453 522.00 551.21 22.85
9592 96.1545 541.00 542.38 23.26
9593 96.1637 498.00 535.26 22.32
9594 96.1729 497.00 529.68 22.29
9595 96.1821 515.00 525.42 22.69
9596 96.1913 500.00 522.10 22.36
9597 96.2005 512.00 519.31 22.63
9598 96.2097 502.00 516.60 22.41
9599 96.2189 551.00 513.57 23.47
9600 96.2281 522.00 509.88 22.85
9601 96.2373 525.00 505.35 22.91
9602 96.2465 512.00 499.91 22.63
9603 96.2557 502.00 493.61 22.41
9604 96.2649 528.00 486.62 22.98
9605 96.2741 502.00 479.18 22.41
9606 96.2833 505.00 471.51 22.47
9607 96.2925 471.00 463.86 21.70
9608 96.3017 484.00 456.45 22.00
9609 96.3109 441.00 449.44 21.00
9610 96.3201 459.00 442.96 21.42
9611 96.3293 420.00 437.11 20.49
9612 96.3385 428.00 431.84 20.69
9613 96.3477 439.00 427.23 20.95
9614 96.3569 446.00 423.22 21.12
9615 96.3661 443.00 419.78 21.05
9616 96.3753 389.00 416.85 19.72
9617 96.3845 400.00 414.36 20.00
9618 96.3937 408.00 412.25 20.20
9619 96.4029 420.00 410.47 20.49
9620 96.4121 405.00 408.96 20.12
9621 96.4213 405.00 407.68 20.12
9622 96.4305 426.00 406.58 20.64
9623 96.4397 405.00 405.63 20.12
9624 96.4489 437.00 404.81 20.90
9625 96.4581 384.00 404.10 19.60
9626 96.4673 391.00 403.59 19.77
9627 96.4765 393.00 403.06 19.82
9628 96.4856 418.00 402.61 20.44
9629 96.4949 391.00 402.24 19.77
9630 96.5041 391.00 401.94 19.77
9631 96.5133 373.00 401.67 19.31
9632 96.5225 413.00 401.52 20.32
9633 96.5317 399.00 401.44 19.98
9634 96.5409 432.00 401.43 20.78
9635 96.5501 390.00 401.50 19.75
9636 96.5592 379.00 401.66 19.47
9637 96.5685 399.00 401.89 19.98
9638 96.5777 427.00 402.21 20.66
9639 96.5868 430.00 402.60 20.74
9640 96.5960 423.00 403.07 20.57
9641 96.6053 410.00 403.60 20.25
9642 96.6145 416.00 404.18 20.40
9643 96.6236 425.00 404.79 20.62
9644 96.6329 451.00 405.38 21.24
9645 96.6421 407.00 405.98 20.17
9646 96.6513 455.00 406.53 21.33
9647 96.6604 391.00 407.01 19.77
9648 96.6696 407.00 407.39 20.17
9649 96.6788 418.00 407.67 20.44
9650 96.6880 413.00 407.84 20.32
9651 96.6972 409.00 407.90 20.22
9652 96.7065 417.00 407.86 20.42
9653 96.7157 412.00 407.58 20.30
9654 96.7248 405.00 407.43 20.12
9655 96.7340 414.00 407.21 20.35
9656 96.7432 420.00 406.96 20.49
9657 96.7524 440.00 406.68 20.98
9658 96.7616 416.00 406.37 20.40
9659 96.7708 386.00 406.08 19.65
9660 96.7800 441.00 405.71 21.00
9661 96.7892 417.00 405.32 20.42
9662 96.7984 436.00 404.92 20.88
9663 96.8076 396.00 404.52 19.90
9664 96.8168 436.00 404.14 20.88
9665 96.8260 408.00 403.79 20.20
9666 96.8352 399.00 403.48 19.98
9667 96.8444 435.00 403.26 20.86
9668 96.8536 402.00 403.11 20.05
9669 96.8628 397.00 403.06 19.92
9670 96.8720 424.00 403.11 20.59
9671 96.8812 429.00 403.28 20.71
9672 96.8904 394.00 403.57 19.85
9673 96.8996 454.00 404.00 21.31
9674 96.9088 424.00 404.58 20.59
9675 96.9180 434.00 405.34 20.83
9676 96.9272 395.00 406.30 19.87
9677 96.9364 441.00 407.49 21.00
9678 96.9456 406.00 409.00 20.15
9679 96.9548 417.00 410.79 20.42
9680 96.9640 416.00 412.95 20.40
9681 96.9732 433.00 415.55 20.81
9682 96.9824 432.00 418.62 20.78
9683 96.9916 434.00 422.22 20.83
9684 97.0008 471.00 426.37 21.70
9685 97.0100 429.00 431.10 20.71
9686 97.0192 441.00 436.38 21.00
9687 97.0284 401.00 442.17 20.02
9688 97.0376 457.00 448.37 21.38
9689 97.0468 483.00 454.84 21.98
9690 97.0560 435.00 461.40 20.86
9691 97.0652 439.00 467.73 20.95
9692 97.0744 484.00 473.72 22.00
9693 97.0836 485.00 478.99 22.02
9694 97.0928 468.00 483.34 21.63
9695 97.1020 506.00 486.51 22.49
9696 97.1112 524.00 488.34 22.89
9697 97.1204 500.00 488.76 22.36
9698 97.1296 456.00 487.78 21.35
9699 97.1388 480.00 485.52 21.91
9700 97.1480 500.00 482.14 22.36
9701 97.1572 498.00 477.86 22.32
9702 97.1664 485.00 472.94 22.02
9703 97.1756 480.00 467.66 21.91
9704 97.1848 452.00 462.25 21.26
9705 97.1940 468.00 456.94 21.63
9706 97.2032 460.00 451.92 21.45
9707 97.2124 449.00 447.37 21.19
9708 97.2216 442.00 443.32 21.02
9709 97.2308 456.00 439.89 21.35
9710 97.2400 460.00 437.10 21.45
9711 97.2492 437.00 434.98 20.90
9712 97.2584 402.00 433.55 20.05
9713 97.2676 446.00 432.81 21.12
9714 97.2768 411.00 432.64 20.27
9715 97.2860 415.00 433.07 20.37
9716 97.2952 435.00 434.08 20.86
9717 97.3044 412.00 435.61 20.30
9718 97.3136 440.00 437.59 20.98
9719 97.3228 432.00 439.97 20.78
9720 97.3320 416.00 442.66 20.40
9721 97.3412 423.00 445.55 20.57
9722 97.3504 449.00 448.55 21.19
9723 97.3596 475.00 451.57 21.79
9724 97.3688 485.00 454.47 22.02
9725 97.3780 470.00 457.17 21.68
9726 97.3872 476.00 459.58 21.82
9727 97.3964 476.00 461.60 21.82
9728 97.4056 447.00 463.19 21.14
9729 97.4148 434.00 464.33 20.83
9730 97.4240 446.00 465.07 21.12
9731 97.4332 481.00 465.46 21.93
9732 97.4424 506.00 465.66 22.49
9733 97.4516 467.00 465.68 21.61
9734 97.4608 447.00 465.67 21.14
9735 97.4700 475.00 465.72 21.79
9736 97.4792 475.00 465.85 21.79
9737 97.4884 483.00 466.06 21.98
9738 97.4976 432.00 466.29 20.78
9739 97.5068 514.00 466.45 22.67
9740 97.5160 486.00 466.42 22.05
9741 97.5252 478.00 466.10 21.86
9742 97.5344 498.00 465.40 22.32
9743 97.5436 493.00 464.29 22.20
9744 97.5528 483.00 462.78 21.98
9745 97.5620 477.00 460.93 21.84
9746 97.5712 468.00 458.86 21.63
9747 97.5804 468.00 456.71 21.63
9748 97.5896 436.00 454.58 20.88
9749 97.5988 447.00 452.64 21.14
9750 97.6080 483.00 451.01 21.98
9751 97.6172 460.00 449.79 21.45
9752 97.6264 463.00 449.08 21.52
9753 97.6356 420.00 448.96 20.49
9754 97.6448 426.00 449.51 20.64
9755 97.6540 464.00 450.79 21.54
9756 97.6632 453.00 452.88 21.28
9757 97.6724 461.00 455.97 21.47
9758 97.6816 482.00 459.90 21.95
9759 97.6908 482.00 464.87 21.95
9760 97.7000 430.00 470.95 20.74
9761 97.7092 480.00 478.39 21.91
9762 97.7184 435.00 487.01 20.86
9763 97.7276 532.00 497.08 23.07
9764 97.7368 466.00 508.44 21.59
9765 97.7460 468.00 521.71 21.63
9766 97.7552 529.00 536.72 23.00
9767 97.7644 528.00 553.59 22.98
9768 97.7736 524.00 572.30 22.89
9769 97.7828 554.00 592.84 23.54
9770 97.7920 575.00 615.04 23.98
9771 97.8012 640.00 638.73 25.30
9772 97.8104 630.00 663.54 25.10
9773 97.8196 642.00 689.06 25.34
9774 97.8288 699.00 714.85 26.44
9775 97.8380 729.00 740.41 27.00
9776 97.8472 735.00 765.27 27.11
9777 97.8564 736.00 788.98 27.13
9778 97.8656 736.00 811.18 27.13
9779 97.8748 819.00 831.47 28.62
9780 97.8840 814.00 849.42 28.53
9781 97.8932 879.00 864.57 29.65
9782 97.9024 849.00 876.41 29.14
9783 97.9116 834.00 884.41 28.88
9784 97.9208 838.00 888.10 28.95
9785 97.9300 838.00 887.12 28.95
9786 97.9392 849.00 881.33 29.14
9787 97.9484 809.00 870.70 28.44
9788 97.9576 865.00 855.45 29.41
9789 97.9668 818.00 835.98 28.60
9790 97.9760 777.00 812.88 27.87
9791 97.9852 778.00 786.93 27.89
9792 97.9944 694.00 759.02 26.34
9793 98.0036 767.00 729.97 27.69
9794 98.0128 711.00 700.95 26.66
9795 98.0220 638.00 672.73 25.26
9796 98.0312 619.00 646.06 24.88
9797 98.0404 599.00 621.49 24.47
9798 98.0496 571.00 599.38 23.90
9799 98.0588 586.00 579.99 24.21
9800 98.0680 565.00 563.38 23.77
9801 98.0772 526.00 549.45 22.93
9802 98.0864 515.00 538.03 22.69
9803 98.0956 532.00 528.84 23.07
9804 98.1048 525.00 521.55 22.91
9805 98.1140 483.00 515.78 21.98
9806 98.1232 553.00 511.18 23.52
9807 98.1324 541.00 507.40 23.26
9808 98.1416 522.00 504.16 22.85
9809 98.1508 547.00 501.25 23.39
9810 98.1600 569.00 498.57 23.85
9811 98.1692 528.00 496.10 22.98
9812 98.1784 521.00 493.85 22.83
9813 98.1876 484.00 492.13 22.00
9814 98.1968 524.00 490.89 22.89
9815 98.2060 479.00 490.38 21.89
9816 98.2152 505.00 490.74 22.47
9817 98.2244 492.00 492.06 22.18
9818 98.2336 466.00 494.39 21.59
9819 98.2428 512.00 497.76 22.63
9820 98.2520 467.00 502.04 21.61
9821 98.2612 504.00 507.13 22.45
9822 98.2704 522.00 512.84 22.85
9823 98.2796 495.00 518.96 22.25
9824 98.2888 549.00 525.24 23.43
9825 98.2980 530.00 531.49 23.02
9826 98.3072 569.00 537.49 23.85
9827 98.3164 547.00 543.19 23.39
9828 98.3256 562.00 548.59 23.71
9829 98.3348 546.00 553.82 23.37
9830 98.3440 493.00 559.09 22.20
9831 98.3532 538.00 564.68 23.19
9832 98.3624 511.00 570.87 22.61
9833 98.3716 549.00 577.87 23.43
9834 98.3808 533.00 585.83 23.09
9835 98.3900 526.00 594.75 22.93
9836 98.3992 584.00 604.45 24.17
9837 98.4084 601.00 614.65 24.52
9838 98.4176 529.00 624.72 23.00
9839 98.4268 647.00 634.10 25.44
9840 98.4360 597.00 642.04 24.43
9841 98.4452 694.00 647.87 26.34
9842 98.4544 673.00 650.91 25.94
9843 98.4636 672.00 650.75 25.92
9844 98.4728 680.00 647.19 26.08
9845 98.4820 651.00 640.29 25.51
9846 98.4912 639.00 630.39 25.28
9847 98.5004 617.00 618.05 24.84
9848 98.5096 626.00 603.96 25.02
9849 98.5188 587.00 588.65 24.23
9850 98.5280 578.00 572.91 24.04
9851 98.5372 561.00 557.36 23.69
9852 98.5464 562.00 542.53 23.71
9853 98.5556 506.00 528.84 22.49
9854 98.5648 561.00 516.60 23.69
9855 98.5740 501.00 506.05 22.38
9856 98.5832 485.00 497.30 22.02
9857 98.5924 493.00 490.42 22.20
9858 98.6016 484.00 485.41 22.00
9859 98.6108 437.00 482.22 20.90
9860 98.6200 495.00 480.77 22.25
9861 98.6292 486.00 480.96 22.05
9862 98.6384 462.00 482.67 21.49
9863 98.6476 462.00 485.76 21.49
9864 98.6568 469.00 490.10 21.66
9865 98.6660 507.00 495.49 22.52
9866 98.6752 454.00 501.74 21.31
9867 98.6844 494.00 508.62 22.23
9868 98.6936 539.00 515.88 23.22
9869 98.7028 518.00 523.22 22.76
9870 98.7120 486.00 530.34 22.05
9871 98.7212 569.00 536.95 23.85
9872 98.7304 590.00 542.73 24.29
9873 98.7396 587.00 547.41 24.23
9874 98.7488 581.00 550.76 24.10
9875 98.7580 564.00 552.58 23.75
9876 98.7672 616.00 552.74 24.82
9877 98.7764 603.00 551.23 24.56
9878 98.7856 642.00 548.12 25.34
9879 98.7948 581.00 543.61 24.10
9880 98.8040 569.00 537.99 23.85
9881 98.8132 567.00 531.64 23.81
9882 98.8224 541.00 524.96 23.26
9883 98.8316 553.00 518.36 23.52
9884 98.8408 508.00 512.21 22.54
9885 98.8500 516.00 506.80 22.72
9886 98.8592 460.00 502.35 21.45
9887 98.8684 486.00 499.01 22.05
9888 98.8776 507.00 496.81 22.52
9889 98.8868 473.00 495.73 21.75
9890 98.8960 516.00 495.65 22.72
9891 98.9052 533.00 496.43 23.09
9892 98.9144 492.00 497.79 22.18
9893 98.9236 492.00 499.49 22.18
9894 98.9328 495.00 501.29 22.25
9895 98.9420 500.00 502.95 22.36
9896 98.9512 548.00 504.27 23.41
9897 98.9604 512.00 505.16 22.63
9898 98.9696 517.00 505.58 22.74
9899 98.9788 540.00 505.58 23.24
9900 98.9880 565.00 505.30 23.77
9901 98.9972 533.00 504.87 23.09
9902 99.0064 486.00 504.47 22.05
9903 99.0156 568.00 504.25 23.83
9904 99.0248 536.00 504.30 23.15
9905 99.0340 523.00 504.68 22.87
9906 99.0432 563.00 505.41 23.73
9907 99.0524 522.00 506.44 22.85
9908 99.0616 582.00 507.73 24.12
9909 99.0708 534.00 509.22 23.11
9910 99.0800 500.00 510.86 22.36
9911 99.0892 521.00 512.74 22.83
9912 99.0984 566.00 514.91 23.79
9913 99.1076 539.00 517.48 23.22
9914 99.1168 520.00 520.62 22.80
9915 99.1260 519.00 524.54 22.78
9916 99.1352 496.00 529.43 22.27
9917 99.1444 521.00 535.47 22.83
9918 99.1536 478.00 542.81 21.86
9919 99.1628 542.00 551.50 23.28
9920 99.1720 522.00 561.58 22.85
9921 99.1812 547.00 572.98 23.39
9922 99.1904 528.00 585.53 22.98
9923 99.1996 567.00 598.96 23.81
9924 99.2088 534.00 612.91 23.11
9925 99.2180 586.00 626.91 24.21
9926 99.2272 621.00 640.43 24.92
9927 99.2364 674.00 652.92 25.96
9928 99.2456 659.00 663.82 25.67
9929 99.2548 653.00 672.53 25.55
9930 99.2640 657.00 678.61 25.63
9931 99.2732 725.00 681.74 26.93
9932 99.2824 697.00 681.80 26.40
9933 99.2916 723.00 678.89 26.89
9934 99.3008 715.00 673.33 26.74
9935 99.3100 702.00 665.65 26.50
9936 99.3192 634.00 656.52 25.18
9937 99.3284 636.00 646.65 25.22
9938 99.3376 641.00 636.81 25.32
9939 99.3468 587.00 627.43 24.23
9940 99.3560 551.00 619.07 23.47
9941 99.3652 596.00 612.05 24.41
9942 99.3744 570.00 606.50 23.87
9943 99.3836 547.00 602.45 23.39
9944 99.3928 567.00 599.78 23.81
9945 99.4020 590.00 598.33 24.29
9946 99.4112 639.00 597.72 25.28
9947 99.4204 592.00 597.68 24.33
9948 99.4296 541.00 597.86 23.26
9949 99.4388 595.00 597.92 24.39
9950 99.4480 590.00 597.54 24.29
9951 99.4572 565.00 596.50 23.77
9952 99.4664 611.00 594.65 24.72
9953 99.4756 577.00 591.95 24.02
9954 99.4848 579.00 588.52 24.06
9955 99.4940 633.00 584.56 25.16
9956 99.5032 559.00 580.40 23.64
9957 99.5124 572.00 576.40 23.92
9958 99.5216 579.00 572.92 24.06
9959 99.5308 570.00 570.39 23.87
9960 99.5400 615.00 569.14 24.80
9961 99.5492 567.00 569.47 23.81
9962 99.5584 570.00 571.64 23.87
9963 99.5676 577.00 575.87 24.02
9964 99.5768 586.00 582.37 24.21
9965 99.5860 585.00 591.29 24.19
9966 99.5952 572.00 602.79 23.92
9967 99.6044 551.00 616.93 23.47
9968 99.6136 560.00 633.77 23.66
9969 99.6228 630.00 653.26 25.10
9970 99.6320 617.00 675.24 24.84
9971 99.6412 629.00 699.39 25.08
9972 99.6504 652.00 725.25 25.53
9973 99.6596 696.00 752.09 26.38
9974 99.6688 748.00 778.99 27.35
9975 99.6780 745.00 804.88 27.29
9976 99.6872 822.00 828.51 28.67
9977 99.6964 831.00 848.59 28.83
9978 99.7056 821.00 863.89 28.65
9979 99.7148 858.00 873.40 29.29
9980 99.7240 892.00 876.37 29.87
9981 99.7332 895.00 872.45 29.92
9982 99.7424 932.00 861.78 30.53
9983 99.7516 896.00 844.83 29.93
9984 99.7608 847.00 822.49 29.10
9985 99.7700 793.00 795.88 28.16
9986 99.7792 815.00 766.28 28.55
9987 99.7884 732.00 734.93 27.06
9988 99.7976 713.00 703.05 26.70
9989 99.8068 651.00 671.71 25.51
9990 99.8160 652.00 641.64 25.53
9991 99.8252 607.00 613.52 24.64
9992 99.8344 596.00 587.81 24.41
9993 99.8436 563.00 564.67 23.73
9994 99.8528 520.00 544.33 22.80
9995 99.8620 507.00 526.69 22.52
9996 99.8712 507.00 511.64 22.52
9997 99.8804 520.00 499.01 22.80
9998 99.8896 467.00 488.55 21.61
9999 99.8988 490.00 480.07 22.14
10000 99.9080 454.00 473.34 21.31
10001 99.9172 473.00 468.04 21.75
10002 99.9264 489.00 464.25 22.11
10003 99.9356 468.00 461.69 21.63
10004 99.9448 461.00 460.25 21.47
10005 99.9540 483.00 459.78 21.98
10006 99.9632 479.00 460.27 21.89
10007 99.9724 476.00 461.51 21.82
10008 99.9816 460.00 463.61 21.45
10009 99.9908 454.00 466.38 21.31
10010 100.0000 462.00 469.72 21.49
10011 100.0092 482.00 473.52 21.95
10012 100.0183 491.00 477.66 22.16
10013 100.0275 485.00 481.99 22.02
10014 100.0368 477.00 486.39 21.84
10015 100.0460 483.00 490.72 21.98
10016 100.0552 495.00 494.89 22.25
10017 100.0644 538.00 498.80 23.19
10018 100.0736 497.00 502.44 22.29
10019 100.0827 534.00 505.83 23.11
10020 100.0919 527.00 509.05 22.96
10021 100.1012 497.00 512.28 22.29
10022 100.1104 528.00 515.72 22.98
10023 100.1195 562.00 519.60 23.71
10024 100.1288 525.00 524.17 22.91
10025 100.1380 563.00 529.64 23.73
10026 100.1472 529.00 536.19 23.00
10027 100.1563 533.00 543.77 23.09
10028 100.1656 518.00 552.43 22.76
10029 100.1748 573.00 562.01 23.94
10030 100.1839 528.00 572.21 22.98
10031 100.1931 632.00 582.68 25.14
10032 100.2023 602.00 592.94 24.54
10033 100.2115 613.00 602.48 24.76
10034 100.2207 623.00 610.77 24.96
10035 100.2299 610.00 617.34 24.70
10036 100.2392 662.00 621.84 25.73
10037 100.2484 637.00 624.05 25.24
10038 100.2575 615.00 623.96 24.80
10039 100.2667 646.00 621.68 25.42
10040 100.2759 602.00 617.52 24.54
10041 100.2851 619.00 611.87 24.88
10042 100.2943 618.00 605.18 24.86
10043 100.3035 591.00 597.96 24.31
10044 100.3128 613.00 590.72 24.76
10045 100.3219 553.00 583.92 23.52
10046 100.3311 533.00 577.72 23.09
10047 100.3403 563.00 572.69 23.73
10048 100.3495 597.00 569.07 24.43
10049 100.3587 557.00 567.12 23.60
10050 100.3679 538.00 566.99 23.19
10051 100.3771 545.00 568.77 23.35
10052 100.3863 573.00 572.49 23.94
10053 100.3955 592.00 578.10 24.33
10054 100.4047 520.00 585.49 22.80
10055 100.4139 542.00 594.45 23.28
10056 100.4231 569.00 604.68 23.85
10057 100.4323 626.00 615.85 25.02
10058 100.4415 696.00 627.57 26.38
10059 100.4507 671.00 639.40 25.90
10060 100.4599 644.00 650.97 25.38
10061 100.4691 707.00 661.93 26.59
10062 100.4783 679.00 671.91 26.06
10063 100.4875 706.00 680.94 26.57
10064 100.4967 673.00 688.78 25.94
10065 100.5059 674.00 695.34 25.96
10066 100.5151 712.00 700.50 26.68
10067 100.5243 692.00 704.10 26.31
10068 100.5335 670.00 705.94 25.88
10069 100.5427 688.00 705.74 26.23
10070 100.5519 651.00 703.23 25.51
10071 100.5611 691.00 698.18 26.29
10072 100.5703 642.00 690.44 25.34
10073 100.5795 651.00 680.06 25.51
10074 100.5887 655.00 667.22 25.59
10075 100.5979 654.00 652.32 25.57
10076 100.6071 621.00 635.83 24.92
10077 100.6163 590.00 618.29 24.29
10078 100.6255 590.00 600.28 24.29
10079 100.6347 544.00 582.31 23.32
10080 100.6439 579.00 564.80 24.06
10081 100.6531 549.00 548.09 23.43
10082 100.6623 456.00 532.46 21.35
10083 100.6715 512.00 518.04 22.63
10084 100.6807 550.00 504.94 23.45
10085 100.6899 513.00 493.19 22.65
10086 100.6991 475.00 482.79 21.79
10087 100.7083 475.00 473.67 21.79
10088 100.7175 467.00 465.76 21.61
10089 100.7267 509.00 458.98 22.56
10090 100.7359 452.00 453.19 21.26
10091 100.7451 456.00 448.29 21.35
10092 100.7543 477.00 444.17 21.84
10093 100.7635 455.00 440.76 21.33
10094 100.7727 458.00 437.96 21.40
10095 100.7819 437.00 435.71 20.90
10096 100.7911 443.00 433.96 21.05
10097 100.8003 463.00 432.67 21.52
10098 100.8095 398.00 431.79 19.95
10099 100.8187 444.00 431.42 21.07
10100 100.8279 414.00 431.52 20.35
10101 100.8371 434.00 432.11 20.83
10102 100.8463 463.00 433.20 21.52
10103 100.8555 478.00 434.82 21.86
10104 100.8647 454.00 436.96 21.31
10105 100.8739 473.00 439.63 21.75
10106 100.8831 473.00 442.80 21.75
10107 100.8923 435.00 446.42 20.86
10108 100.9015 441.00 450.42 21.00
10109 100.9107 418.00 454.70 20.44
10110 100.9199 448.00 459.10 21.17
10111 100.9291 511.00 463.46 22.61
10112 100.9383 473.00 467.57 21.75
10113 100.9475 440.00 471.23 20.98
10114 100.9567 461.00 474.23 21.47
10115 100.9659 507.00 476.36 22.52
10116 100.9751 465.00 477.67 21.56
10117 100.9843 521.00 477.76 22.83
10118 100.9935 441.00 476.76 21.00
10119 101.0027 464.00 474.82 21.54
10120 101.0119 490.00 472.06 22.14
10121 101.0211 501.00 468.67 22.38
10122 101.0303 461.00 464.85 21.47
10123 101.0395 478.00 460.83 21.86
10124 101.0487 434.00 456.78 20.83
10125 101.0579 464.00 452.89 21.54
10126 101.0671 429.00 449.30 20.71
10127 101.0763 464.00 446.11 21.54
10128 101.0855 411.00 443.40 20.27
10129 101.0947 432.00 441.23 20.78
10130 101.1039 449.00 439.63 21.19
10131 101.1131 468.00 438.57 21.63
10132 101.1223 462.00 438.10 21.49
10133 101.1315 425.00 438.17 20.62
10134 101.1407 414.00 438.76 20.35
10135 101.1499 448.00 439.84 21.17
10136 101.1591 452.00 441.38 21.26
10137 101.1683 432.00 443.43 20.78
10138 101.1775 437.00 445.84 20.90
10139 101.1867 443.00 448.68 21.05
10140 101.1959 447.00 451.97 21.14
10141 101.2051 482.00 455.76 21.95
10142 101.2143 492.00 460.08 22.18
10143 101.2235 461.00 464.99 21.47
10144 101.2327 444.00 470.56 21.07
10145 101.2419 473.00 476.83 21.75
10146 101.2511 449.00 483.83 21.19
10147 101.2603 474.00 491.58 21.77
10148 101.2695 504.00 500.06 22.45
10149 101.2787 507.00 509.30 22.52
10150 101.2879 537.00 519.23 23.17
10151 101.2971 538.00 529.78 23.19
10152 101.3063 530.00 540.88 23.02
10153 101.3155 551.00 552.45 23.47
10154 101.3247 549.00 564.32 23.43
10155 101.3339 587.00 576.65 24.23
10156 101.3431 610.00 589.22 24.70
10157 101.3523 570.00 601.96 23.87
10158 101.3615 593.00 614.77 24.35
10159 101.3707 622.00 627.45 24.94
10160 101.3799 623.00 639.76 24.96
10161 101.3891 640.00 651.34 25.30
10162 101.3983 674.00 661.81 25.96
10163 101.4075 752.00 670.74 27.42
10164 101.4167 671.00 677.70 25.90
10165 101.4259 664.00 682.34 25.77
10166 101.4351 704.00 684.41 26.53
10167 101.4443 711.00 683.81 26.66
10168 101.4535 670.00 680.53 25.88
10169 101.4627 712.00 674.71 26.68
10170 101.4719 682.00 666.52 26.12
10171 101.4811 640.00 656.24 25.30
10172 101.4903 635.00 644.17 25.20
10173 101.4995 635.00 630.65 25.20
10174 101.5087 608.00 616.05 24.66
10175 101.5179 605.00 600.74 24.60
10176 101.5271 587.00 585.21 24.23
10177 101.5363 571.00 569.79 23.90
10178 101.5455 535.00 554.79 23.13
10179 101.5547 536.00 540.51 23.15
10180 101.5639 517.00 527.09 22.74
10181 101.5731 519.00 514.70 22.78
10182 101.5823 540.00 503.39 23.24
10183 101.5915 512.00 493.22 22.63
10184 101.6007 465.00 484.18 21.56
10185 101.6099 474.00 476.23 21.77
10186 101.6191 457.00 469.35 21.38
10187 101.6283 482.00 463.51 21.95
10188 101.6375 453.00 458.63 21.28
10189 101.6467 448.00 454.66 21.17
10190 101.6559 452.00 451.57 21.26
10191 101.6651 468.00 449.20 21.63
10192 101.6743 422.00 447.62 20.54
10193 101.6835 486.00 446.57 22.05
10194 101.6927 459.00 446.04 21.42
10195 101.7019 445.00 445.93 21.09
10196 101.7111 493.00 446.16 22.20
10197 101.7203 455.00 446.61 21.33
10198 101.7295 526.00 447.21 22.93
10199 101.7387 457.00 447.88 21.38
10200 101.7479 496.00 448.56 22.27
10201 101.7571 473.00 449.23 21.75
10202 101.7663 482.00 449.77 21.95
10203 101.7755 473.00 450.47 21.75
10204 101.7847 489.00 451.26 22.11
10205 101.7939 448.00 452.21 21.17
10206 101.8031 498.00 453.25 22.32
10207 101.8123 432.00 454.73 20.78
10208 101.8215 473.00 456.54 21.75
10209 101.8307 478.00 458.69 21.86
10210 101.8399 479.00 461.16 21.89
10211 101.8491 455.00 463.88 21.33
10212 101.8583 499.00 466.73 22.34
10213 101.8675 524.00 469.58 22.89
10214 101.8767 477.00 472.25 21.84
10215 101.8859 492.00 474.55 22.18
10216 101.8951 512.00 476.31 22.63
10217 101.9043 507.00 477.38 22.52
10218 101.9135 500.00 477.67 22.36
10219 101.9227 498.00 477.08 22.32
10220 101.9319 522.00 475.66 22.85
10221 101.9411 497.00 473.48 22.29
10222 101.9503 487.00 470.66 22.07
10223 101.9595 492.00 467.36 22.18
10224 101.9687 473.00 463.80 21.75
10225 101.9779 451.00 460.01 21.24
10226 101.9871 493.00 456.17 22.20
10227 101.9963 442.00 452.41 21.02
10228 102.0055 475.00 448.83 21.79
10229 102.0147 438.00 445.59 20.93
10230 102.0239 488.00 442.56 22.09
10231 102.0331 493.00 439.92 22.20
10232 102.0423 421.00 437.63 20.52
10233 102.0515 441.00 435.74 21.00
10234 102.0607 466.00 434.30 21.59
10235 102.0699 451.00 433.31 21.24
10236 102.0791 455.00 432.80 21.33
10237 102.0883 449.00 432.79 21.19
10238 102.0975 458.00 433.29 21.40
10239 102.1067 415.00 434.35 20.37
10240 102.1159 437.00 435.99 20.90
10241 102.1251 442.00 438.24 21.02
10242 102.1343 459.00 441.13 21.42
10243 102.1435 443.00 444.69 21.05
10244 102.1527 460.00 448.89 21.45
10245 102.1619 481.00 453.80 21.93
10246 102.1711 483.00 459.37 21.98
10247 102.1803 450.00 465.57 21.21
10248 102.1895 483.00 472.33 21.98
10249 102.1987 471.00 479.58 21.70
10250 102.2079 480.00 487.22 21.91
10251 102.2171 523.00 495.11 22.87
10252 102.2263 479.00 503.14 21.89
10253 102.2355 499.00 511.23 22.34
10254 102.2447 500.00 519.31 22.36
10255 102.2539 536.00 527.39 23.15
10256 102.2631 555.00 535.57 23.56
10257 102.2723 501.00 544.02 22.38
10258 102.2815 570.00 553.06 23.87
10259 102.2907 543.00 563.00 23.30
10260 102.2999 579.00 574.26 24.06
10261 102.3091 605.00 587.14 24.60
10262 102.3183 552.00 602.20 23.49
10263 102.3275 600.00 619.62 24.49
10264 102.3367 624.00 639.56 24.98
10265 102.3459 626.00 662.01 25.02
10266 102.3551 617.00 686.82 24.84
10267 102.3643 655.00 713.54 25.59
10268 102.3735 686.00 741.49 26.19
10269 102.3827 719.00 769.89 26.81
10270 102.3919 827.00 797.62 28.76
10271 102.4011 801.00 823.44 28.30
10272 102.4103 883.00 845.99 29.72
10273 102.4195 966.00 864.01 31.08
10274 102.4287 950.00 876.28 30.82
10275 102.4379 906.00 881.95 30.10
10276 102.4471 961.00 880.53 31.00
10277 102.4563 932.00 871.99 30.53
10278 102.4655 811.00 856.79 28.48
10279 102.4747 885.00 835.78 29.75
10280 102.4839 842.00 810.12 29.02
10281 102.4931 735.00 781.06 27.11
10282 102.5023 759.00 749.92 27.55
10283 102.5115 708.00 717.99 26.61
10284 102.5207 615.00 686.23 24.80
10285 102.5299 628.00 655.59 25.06
10286 102.5391 601.00 626.75 24.52
10287 102.5483 594.00 600.11 24.37
10288 102.5575 579.00 576.09 24.06
10289 102.5667 542.00 554.78 23.28
10290 102.5759 521.00 536.15 22.83
10291 102.5851 527.00 520.16 22.96
10292 102.5943 462.00 506.58 21.49
10293 102.6035 474.00 495.23 21.77
10294 102.6127 486.00 485.86 22.05
10295 102.6219 486.00 478.22 22.05
10296 102.6311 489.00 472.07 22.11
10297 102.6403 443.00 467.20 21.05
10298 102.6495 459.00 463.38 21.42
10299 102.6587 434.00 460.42 20.83
10300 102.6679 521.00 458.32 22.83
10301 102.6771 484.00 456.89 22.00
10302 102.6863 452.00 456.03 21.26
10303 102.6955 476.00 455.67 21.82
10304 102.7047 427.00 455.79 20.66
10305 102.7139 438.00 456.25 20.93
10306 102.7231 457.00 457.06 21.38
10307 102.7323 470.00 458.19 21.68
10308 102.7415 500.00 459.61 22.36
10309 102.7507 506.00 461.33 22.49
10310 102.7599 499.00 463.38 22.34
10311 102.7691 511.00 465.73 22.61
10312 102.7783 513.00 468.42 22.65
10313 102.7875 515.00 471.43 22.69
10314 102.7967 494.00 474.76 22.23
10315 102.8059 506.00 478.36 22.49
10316 102.8151 514.00 482.17 22.67
10317 102.8243 481.00 486.07 21.93
10318 102.8335 487.00 489.93 22.07
10319 102.8427 485.00 493.60 22.02
10320 102.8519 503.00 496.92 22.43
10321 102.8611 508.00 499.74 22.54
10322 102.8703 539.00 501.95 23.22
10323 102.8795 515.00 503.48 22.69
10324 102.8887 499.00 504.35 22.34
10325 102.8979 505.00 504.60 22.47
10326 102.9071 515.00 504.40 22.69
10327 102.9163 502.00 503.92 22.41
10328 102.9255 485.00 503.40 22.02
10329 102.9347 483.00 503.11 21.98
10330 102.9439 510.00 503.34 22.58
10331 102.9531 487.00 504.36 22.07
10332 102.9623 530.00 506.45 23.02
10333 102.9715 485.00 509.89 22.02
10334 102.9807 516.00 514.87 22.72
10335 102.9899 502.00 521.61 22.41
10336 102.9991 546.00 530.28 23.37
10337 103.0083 537.00 540.94 23.17
10338 103.0175 511.00 553.63 22.61
10339 103.0267 561.00 568.26 23.69
10340 103.0359 615.00 584.67 24.80
10341 103.0451 552.00 602.56 23.49
10342 103.0543 578.00 621.51 24.04
10343 103.0635 662.00 640.95 25.73
10344 103.0727 661.00 660.23 25.71
10345 103.0819 669.00 678.52 25.86
10346 103.0911 747.00 695.06 27.33
10347 103.1003 765.00 708.97 27.66
10348 103.1095 745.00 719.51 27.29
10349 103.1187 816.00 726.09 28.57
10350 103.1279 832.00 728.45 28.84
10351 103.1371 794.00 726.38 28.18
10352 103.1463 798.00 720.25 28.25
10353 103.1555 785.00 710.60 28.02
10354 103.1647 721.00 698.22 26.85
10355 103.1739 693.00 683.95 26.32
10356 103.1831 623.00 668.71 24.96
10357 103.1923 650.00 653.37 25.50
10358 103.2015 559.00 638.68 23.64
10359 103.2107 616.00 625.25 24.82
10360 103.2199 593.00 613.54 24.35
10361 103.2291 560.00 603.82 23.66
10362 103.2383 574.00 596.26 23.96
10363 103.2475 530.00 590.78 23.02
10364 103.2567 574.00 587.21 23.96
10365 103.2659 541.00 585.24 23.26
10366 103.2751 573.00 584.48 23.94
10367 103.2843 612.00 584.43 24.74
10368 103.2935 572.00 584.62 23.92
10369 103.3027 594.00 584.50 24.37
10370 103.3119 638.00 583.67 25.26
10371 103.3211 591.00 581.79 24.31
10372 103.3303 594.00 578.68 24.37
10373 103.3395 600.00 574.30 24.49
10374 103.3487 596.00 568.75 24.41
10375 103.3579 592.00 562.27 24.33
10376 103.3671 567.00 555.17 23.81
10377 103.3763 549.00 547.77 23.43
10378 103.3855 487.00 540.41 22.07
10379 103.3947 541.00 533.38 23.26
10380 103.4039 521.00 526.94 22.83
10381 103.4131 451.00 521.19 21.24
10382 103.4223 510.00 516.24 22.58
10383 103.4315 544.00 512.13 23.32
10384 103.4407 502.00 508.70 22.41
10385 103.4499 517.00 505.90 22.74
10386 103.4591 513.00 503.53 22.65
10387 103.4683 502.00 501.39 22.41
10388 103.4775 459.00 499.26 21.42
10389 103.4867 517.00 496.95 22.74
10390 103.4959 480.00 494.33 21.91
10391 103.5051 541.00 491.28 23.26
10392 103.5143 472.00 487.78 21.73
10393 103.5235 484.00 483.87 22.00
10394 103.5327 503.00 479.62 22.43
10395 103.5419 484.00 475.07 22.00
10396 103.5511 499.00 470.53 22.34
10397 103.5603 485.00 466.05 22.02
10398 103.5695 493.00 461.77 22.20
10399 103.5787 447.00 457.80 21.14
10400 103.5879 493.00 454.25 22.20
10401 103.5971 467.00 451.19 21.61
10402 103.6063 470.00 448.64 21.68
10403 103.6155 432.00 446.75 20.78
10404 103.6247 469.00 445.51 21.66
10405 103.6339 475.00 444.96 21.79
10406 103.6431 467.00 445.11 21.61
10407 103.6523 445.00 446.00 21.09
10408 103.6615 465.00 447.69 21.56
10409 103.6707 481.00 450.23 21.93
10410 103.6799 442.00 453.67 21.02
10411 103.6891 459.00 458.10 21.42
10412 103.6983 454.00 463.58 21.31
10413 103.7075 481.00 470.20 21.93
10414 103.7167 461.00 478.00 21.47
10415 103.7259 503.00 487.03 22.43
10416 103.7351 506.00 497.29 22.49
10417 103.7443 519.00 508.73 22.78
10418 103.7535 535.00 521.26 23.13
10419 103.7627 526.00 534.70 22.93
10420 103.7719 568.00 548.79 23.83
10421 103.7811 525.00 563.19 22.91
10422 103.7903 556.00 577.52 23.58
10423 103.7995 576.00 591.26 24.00
10424 103.8087 604.00 603.88 24.58
10425 103.8178 631.00 614.83 25.12
10426 103.8271 608.00 623.60 24.66
10427 103.8363 646.00 629.76 25.42
10428 103.8455 672.00 633.01 25.92
10429 103.8547 682.00 633.22 26.12
10430 103.8639 650.00 630.48 25.50
10431 103.8731 740.00 625.04 27.20
10432 103.8822 612.00 617.32 24.74
10433 103.8914 653.00 607.89 25.55
10434 103.9007 649.00 597.33 25.48
10435 103.9099 554.00 586.25 23.54
10436 103.9191 582.00 575.25 24.12
10437 103.9283 589.00 564.82 24.27
10438 103.9375 537.00 555.42 23.17
10439 103.9467 519.00 547.41 22.78
10440 103.9558 505.00 541.10 22.47
10441 103.9650 533.00 536.73 23.09
10442 103.9743 536.00 534.36 23.15
10443 103.9834 521.00 534.14 22.83
10444 103.9926 555.00 536.10 23.56
10445 104.0018 496.00 540.26 22.27
10446 104.0111 583.00 546.57 24.15
10447 104.0202 485.00 554.98 22.02
10448 104.0294 558.00 565.41 23.62
10449 104.0387 558.00 577.74 23.62
10450 104.0479 564.00 591.83 23.75
10451 104.0570 583.00 607.55 24.15
10452 104.0662 602.00 624.70 24.54
10453 104.0754 640.00 643.04 25.30
10454 104.0846 634.00 662.30 25.18
10455 104.0938 634.00 682.14 25.18
10456 104.1031 672.00 702.25 25.92
10457 104.1123 667.00 722.22 25.83
10458 104.1214 654.00 741.56 25.57
10459 104.1306 773.00 759.82 27.80
10460 104.1398 793.00 776.49 28.16
10461 104.1490 780.00 791.04 27.93
10462 104.1582 771.00 802.97 27.77
10463 104.1674 835.00 811.82 28.90
10464 104.1766 895.00 817.18 29.92
10465 104.1858 838.00 818.71 28.95
10466 104.1950 906.00 816.21 30.10
10467 104.2042 879.00 809.62 29.65
10468 104.2134 883.00 799.05 29.72
10469 104.2226 803.00 784.83 28.34
10470 104.2318 851.00 767.41 29.17
10471 104.2410 825.00 747.47 28.72
10472 104.2502 778.00 725.74 27.89
10473 104.2594 690.00 703.02 26.27
10474 104.2686 671.00 680.02 25.90
10475 104.2778 637.00 657.45 25.24
10476 104.2870 650.00 635.89 25.50
10477 104.2962 573.00 615.82 23.94
10478 104.3054 561.00 597.55 23.69
10479 104.3146 548.00 581.31 23.41
10480 104.3238 527.00 567.16 22.96
10481 104.3330 547.00 555.13 23.39
10482 104.3422 555.00 545.07 23.56
10483 104.3514 510.00 536.85 22.58
10484 104.3606 555.00 530.23 23.56
10485 104.3698 514.00 524.96 22.67
10486 104.3790 482.00 520.75 21.95
10487 104.3882 531.00 517.36 23.04
10488 104.3974 512.00 514.49 22.63
10489 104.4066 518.00 511.91 22.76
10490 104.4158 559.00 509.54 23.64
10491 104.4250 536.00 507.21 23.15
10492 104.4342 510.00 504.85 22.58
10493 104.4434 526.00 502.42 22.93
10494 104.4526 492.00 499.90 22.18
10495 104.4618 504.00 497.38 22.45
10496 104.4710 490.00 494.70 22.14
10497 104.4802 543.00 491.95 23.30
10498 104.4894 479.00 489.17 21.89
10499 104.4986 502.00 486.38 22.41
10500 104.5078 504.00 483.62 22.45
10501 104.5170 497.00 480.93 22.29
10502 104.5262 464.00 478.36 21.54
10503 104.5354 447.00 475.93 21.14
10504 104.5446 464.00 473.68 21.54
10505 104.5538 491.00 471.64 22.16
10506 104.5630 444.00 469.84 21.07
10507 104.5722 498.00 468.29 22.32
10508 104.5814 492.00 467.07 22.18
10509 104.5906 479.00 466.13 21.89
10510 104.5998 452.00 465.52 21.26
10511 104.6090 498.00 465.50 22.32
10512 104.6182 470.00 465.94 21.68
10513 104.6274 513.00 466.83 22.65
10514 104.6366 473.00 468.17 21.75
10515 104.6458 444.00 469.93 21.07
10516 104.6550 436.00 472.05 20.88
10517 104.6642 473.00 474.45 21.75
10518 104.6734 460.00 477.04 21.45
10519 104.6826 462.00 479.70 21.49
10520 104.6918 492.00 482.32 22.18
10521 104.7010 514.00 484.79 22.67
10522 104.7102 471.00 486.97 21.70
10523 104.7194 503.00 488.81 22.43
10524 104.7286 511.00 490.25 22.61
10525 104.7378 501.00 491.30 22.38
10526 104.7470 553.00 491.99 23.52
10527 104.7562 490.00 492.39 22.14
10528 104.7654 472.00 492.61 21.73
10529 104.7746 477.00 492.75 21.84
10530 104.7838 461.00 492.94 21.47
10531 104.7930 478.00 493.29 21.86
10532 104.8022 489.00 493.91 22.11
10533 104.8114 471.00 494.91 21.70
10534 104.8206 502.00 496.36 22.41
10535 104.8298 512.00 498.32 22.63
10536 104.8390 488.00 500.81 22.09
10537 104.8482 501.00 503.83 22.38
10538 104.8574 474.00 507.31 21.77
10539 104.8666 517.00 511.16 22.74
10540 104.8758 487.00 515.20 22.07
10541 104.8850 532.00 519.27 23.07
10542 104.8942 511.00 523.14 22.61
10543 104.9034 477.00 526.59 21.84
10544 104.9126 530.00 529.41 23.02
10545 104.9218 518.00 531.44 22.76
10546 104.9310 531.00 532.53 23.04
10547 104.9402 485.00 532.59 22.02
10548 104.9494 497.00 531.61 22.29
10549 104.9586 502.00 529.62 22.41
10550 104.9678 511.00 526.68 22.61
10551 104.9770 512.00 522.96 22.63
10552 104.9862 564.00 518.49 23.75
10553 104.9954 518.00 513.49 22.76
10554 105.0046 532.00 508.13 23.07
10555 105.0138 490.00 502.62 22.14
10556 105.0230 499.00 497.13 22.34
10557 105.0322 531.00 491.83 23.04
10558 105.0414 472.00 486.91 21.73
10559 105.0506 459.00 482.52 21.42
10560 105.0598 472.00 478.74 21.73
10561 105.0690 437.00 475.66 20.90
10562 105.0782 507.00 473.34 22.52
10563 105.0874 463.00 471.79 21.52
10564 105.0966 464.00 471.03 21.54
10565 105.1058 496.00 471.02 22.27
10566 105.1150 463.00 471.74 21.52
10567 105.1242 434.00 473.14 20.83
10568 105.1334 410.00 475.14 20.25
10569 105.1426 481.00 477.70 21.93
10570 105.1518 486.00 480.72 22.05
10571 105.1610 477.00 484.15 21.84
10572 105.1702 506.00 487.92 22.49
10573 105.1794 495.00 491.98 22.25
10574 105.1886 528.00 496.32 22.98
10575 105.1978 516.00 500.95 22.72
10576 105.2070 535.00 505.93 23.13
10577 105.2162 512.00 511.32 22.63
10578 105.2254 535.00 517.25 23.13
10579 105.2346 528.00 523.81 22.98
10580 105.2438 548.00 531.11 23.41
10581 105.2530 471.00 539.24 21.70
10582 105.2622 582.00 548.22 24.12
10583 105.2714 574.00 558.01 23.96
10584 105.2806 566.00 568.49 23.79
10585 105.2898 576.00 579.47 24.00
10586 105.2990 532.00 590.49 23.07
10587 105.3082 627.00 601.52 25.04
10588 105.3174 595.00 611.93 24.39
10589 105.3266 629.00 621.27 25.08
10590 105.3358 686.00 629.06 26.19
10591 105.3450 679.00 634.86 26.06
10592 105.3542 689.00 638.37 26.25
10593 105.3634 726.00 639.40 26.94
10594 105.3726 720.00 637.94 26.83
10595 105.3818 715.00 634.18 26.74
10596 105.3910 695.00 628.43 26.36
10597 105.4002 643.00 621.12 25.36
10598 105.4094 632.00 612.74 25.14
10599 105.4186 603.00 603.81 24.56
10600 105.4278 616.00 594.79 24.82
10601 105.4370 587.00 586.07 24.23
10602 105.4462 600.00 578.03 24.49
10603 105.4554 524.00 570.83 22.89
10604 105.4646 524.00 564.63 22.89
10605 105.4738 564.00 559.50 23.75
10606 105.4830 567.00 555.39 23.81
10607 105.4922 535.00 552.24 23.13
10608 105.5014 527.00 549.83 22.96
10609 105.5106 522.00 548.17 22.85
10610 105.5198 516.00 547.04 22.72
10611 105.5290 564.00 546.33 23.75
10612 105.5382 544.00 545.95 23.32
10613 105.5474 560.00 545.84 23.66
10614 105.5566 514.00 545.98 22.67
10615 105.5658 536.00 546.40 23.15
10616 105.5750 530.00 547.09 23.02
10617 105.5842 538.00 548.05 23.19
10618 105.5934 537.00 549.23 23.17
10619 105.6026 550.00 550.57 23.45
10620 105.6118 537.00 551.93 23.17
10621 105.6210 566.00 553.26 23.79
10622 105.6302 564.00 554.14 23.75
10623 105.6394 563.00 554.47 23.73
10624 105.6486 534.00 554.06 23.11
10625 105.6578 570.00 552.74 23.87
10626 105.6670 557.00 550.39 23.60
10627 105.6762 583.00 546.98 24.15
10628 105.6854 564.00 542.51 23.75
10629 105.6946 565.00 537.15 23.77
10630 105.7038 542.00 531.05 23.28
10631 105.7130 560.00 524.41 23.66
10632 105.7222 537.00 517.47 23.17
10633 105.7314 516.00 510.49 22.72
10634 105.7406 501.00 503.68 22.38
10635 105.7498 524.00 497.24 22.89
10636 105.7590 472.00 491.34 21.73
10637 105.7682 490.00 486.11 22.14
10638 105.7774 467.00 481.63 21.61
10639 105.7866 466.00 477.88 21.59
10640 105.7958 459.00 474.89 21.42
10641 105.8050 468.00 472.58 21.63
10642 105.8142 467.00 470.87 21.61
10643 105.8234 476.00 469.65 21.82
10644 105.8326 478.00 468.79 21.86
10645 105.8418 458.00 468.13 21.40
10646 105.8510 483.00 467.54 21.98
10647 105.8602 476.00 466.88 21.82
10648 105.8694 493.00 466.04 22.20
10649 105.8786 467.00 464.93 21.61
10650 105.8878 517.00 463.53 22.74
10651 105.8970 448.00 461.82 21.17
10652 105.9062 469.00 459.83 21.66
10653 105.9154 442.00 457.63 21.02
10654 105.9246 444.00 455.28 21.07
10655 105.9338 488.00 452.86 22.09
10656 105.9430 446.00 450.45 21.12
10657 105.9522 478.00 448.11 21.86
10658 105.9614 461.00 445.92 21.47
10659 105.9706 473.00 443.90 21.75
10660 105.9798 452.00 442.09 21.26
10661 105.9890 428.00 440.51 20.69
10662 105.9982 441.00 439.19 21.00
10663 106.0074 450.00 438.14 21.21
10664 106.0166 435.00 437.38 20.86
10665 106.0258 449.00 436.89 21.19
10666 106.0350 427.00 436.77 20.66
10667 106.0442 461.00 437.02 21.47
10668 106.0534 458.00 437.58 21.40
10669 106.0626 458.00 438.67 21.40
10670 106.0718 423.00 440.24 20.57
10671 106.0810 452.00 442.33 21.26
10672 106.0902 444.00 444.97 21.07
10673 106.0994 463.00 448.18 21.52
10674 106.1086 459.00 451.95 21.42
10675 106.1178 442.00 456.27 21.02
10676 106.1270 448.00 461.10 21.17
10677 106.1362 457.00 466.37 21.38
10678 106.1454 461.00 471.98 21.47
10679 106.1546 495.00 477.78 22.25
10680 106.1638 512.00 483.62 22.63
10681 106.1730 480.00 489.29 21.91
10682 106.1822 506.00 494.55 22.49
10683 106.1914 535.00 499.19 23.13
10684 106.2006 538.00 502.98 23.19
10685 106.2098 538.00 505.70 23.19
10686 106.2190 563.00 507.22 23.73
10687 106.2282 500.00 507.44 22.36
10688 106.2374 531.00 506.35 23.04
10689 106.2466 511.00 504.03 22.61
10690 106.2558 541.00 500.62 23.26
10691 106.2650 517.00 496.31 22.74
10692 106.2742 531.00 491.33 23.04
10693 106.2834 490.00 485.92 22.14
10694 106.2926 483.00 480.30 21.98
10695 106.3018 464.00 474.65 21.54
10696 106.3110 457.00 469.22 21.38
10697 106.3202 475.00 464.13 21.79
10698 106.3294 452.00 459.49 21.26
10699 106.3386 451.00 455.43 21.24
10700 106.3478 451.00 451.93 21.24
10701 106.3570 466.00 448.97 21.59
10702 106.3662 477.00 446.73 21.84
10703 106.3754 435.00 445.10 20.86
10704 106.3846 460.00 444.08 21.45
10705 106.3938 444.00 443.62 21.07
10706 106.4030 441.00 443.70 21.00
10707 106.4122 486.00 444.15 22.05
10708 106.4214 487.00 445.15 22.07
10709 106.4306 469.00 446.52 21.66
10710 106.4398 452.00 448.28 21.26
10711 106.4490 468.00 450.37 21.63
10712 106.4582 485.00 452.76 22.02
10713 106.4674 445.00 455.44 21.09
10714 106.4766 462.00 458.40 21.49
10715 106.4858 428.00 461.64 20.69
10716 106.4950 449.00 465.20 21.19
10717 106.5042 476.00 469.09 21.82
10718 106.5134 478.00 473.35 21.86
10719 106.5226 469.00 478.00 21.66
10720 106.5318 453.00 483.10 21.28
10721 106.5410 458.00 488.62 21.40
10722 106.5502 483.00 494.59 21.98
10723 106.5594 529.00 500.99 23.00
10724 106.5686 477.00 507.84 21.84
10725 106.5778 507.00 515.12 22.52
10726 106.5870 519.00 522.80 22.78
10727 106.5962 498.00 530.88 22.32
10728 106.6054 508.00 539.34 22.54
10729 106.6146 489.00 548.15 22.11
10730 106.6238 571.00 557.26 23.90
10731 106.6330 522.00 566.66 22.85
10732 106.6422 535.00 576.25 23.13
10733 106.6514 552.00 585.93 23.49
10734 106.6606 509.00 595.53 22.56
10735 106.6698 593.00 604.91 24.35
10736 106.6790 544.00 613.85 23.32
10737 106.6882 598.00 622.13 24.45
10738 106.6974 646.00 629.50 25.42
10739 106.7066 598.00 635.65 24.45
10740 106.7158 633.00 640.31 25.16
10741 106.7250 606.00 643.20 24.62
10742 106.7342 606.00 644.07 24.62
10743 106.7434 675.00 642.78 25.98
10744 106.7526 657.00 639.26 25.63
10745 106.7618 657.00 633.63 25.63
10746 106.7710 642.00 626.07 25.34
10747 106.7802 650.00 616.90 25.50
10748 106.7894 658.00 606.52 25.65
10749 106.7986 610.00 595.37 24.70
10750 106.8078 597.00 583.86 24.43
10751 106.8170 611.00 572.39 24.72
10752 106.8262 604.00 561.31 24.58
10753 106.8354 551.00 550.89 23.47
10754 106.8446 539.00 541.33 23.22
10755 106.8538 565.00 532.76 23.77
10756 106.8630 507.00 525.27 22.52
10757 106.8722 501.00 518.82 22.38
10758 106.8814 534.00 513.40 23.11
10759 106.8906 505.00 508.91 22.47
10760 106.8998 505.00 505.24 22.47
10761 106.9090 498.00 502.25 22.32
10762 106.9182 500.00 499.82 22.36
10763 106.9274 527.00 497.84 22.96
10764 106.9366 481.00 496.16 21.93
10765 106.9458 502.00 494.65 22.41
10766 106.9550 570.00 493.31 23.87
10767 106.9642 519.00 491.97 22.78
10768 106.9734 507.00 490.57 22.52
10769 106.9826 514.00 489.12 22.67
10770 106.9918 515.00 487.56 22.69
10771 107.0010 517.00 485.90 22.74
10772 107.0102 485.00 484.20 22.02
10773 107.0194 506.00 482.52 22.49
10774 107.0286 501.00 480.92 22.38
10775 107.0378 461.00 479.51 21.47
10776 107.0470 477.00 478.38 21.84
10777 107.0562 482.00 477.58 21.95
10778 107.0654 471.00 477.18 21.70
10779 107.0746 479.00 477.22 21.89
10780 107.0838 454.00 477.73 21.31
10781 107.0930 447.00 478.72 21.14
10782 107.1022 484.00 480.16 22.00
10783 107.1114 488.00 482.03 22.09
10784 107.1206 489.00 484.28 22.11
10785 107.1298 458.00 486.86 21.40
10786 107.1390 468.00 489.70 21.63
10787 107.1482 494.00 492.75 22.23
10788 107.1574 538.00 495.90 23.19
10789 107.1666 524.00 499.19 22.89
10790 107.1758 515.00 502.54 22.69
10791 107.1850 487.00 505.91 22.07
10792 107.1942 445.00 509.32 21.09
10793 107.2034 513.00 512.64 22.65
10794 107.2126 474.00 515.84 21.77
10795 107.2218 485.00 518.88 22.02
10796 107.2310 533.00 521.60 23.09
10797 107.2402 521.00 523.91 22.83
10798 107.2494 547.00 525.64 23.39
10799 107.2586 579.00 526.62 24.06
10800 107.2678 557.00 526.71 23.60
10801 107.2770 556.00 525.79 23.58
10802 107.2862 547.00 523.81 23.39
10803 107.2954 546.00 520.75 23.37
10804 107.3046 523.00 516.68 22.87
10805 107.3138 563.00 511.71 23.73
10806 107.3230 485.00 506.01 22.02
10807 107.3322 517.00 499.78 22.74
10808 107.3414 535.00 493.22 23.13
10809 107.3506 507.00 486.52 22.52
10810 107.3598 446.00 479.85 21.12
10811 107.3690 480.00 473.38 21.91
10812 107.3782 465.00 467.23 21.56
10813 107.3874 443.00 461.50 21.05
10814 107.3966 503.00 456.27 22.43
10815 107.4058 472.00 451.55 21.73
10816 107.4150 448.00 447.45 21.17
10817 107.4242 438.00 443.82 20.93
10818 107.4334 456.00 440.74 21.35
10819 107.4426 406.00 438.16 20.15
10820 107.4518 462.00 436.08 21.49
10821 107.4610 452.00 434.44 21.26
10822 107.4702 461.00 433.19 21.47
10823 107.4794 431.00 432.31 20.76
10824 107.4886 399.00 431.74 19.98
10825 107.4978 440.00 431.45 20.98
10826 107.5070 456.00 431.39 21.35
10827 107.5162 400.00 431.52 20.00
10828 107.5254 477.00 431.82 21.84
10829 107.5346 417.00 432.25 20.42
10830 107.5438 430.00 432.79 20.74
10831 107.5530 480.00 433.41 21.91
10832 107.5622 445.00 434.12 21.09
10833 107.5714 466.00 434.89 21.59
10834 107.5806 449.00 435.74 21.19
10835 107.5898 417.00 436.68 20.42
10836 107.5990 423.00 437.76 20.57
10837 107.6082 444.00 438.90 21.07
10838 107.6174 431.00 440.36 20.76
10839 107.6266 472.00 442.07 21.73
10840 107.6358 496.00 444.09 22.27
10841 107.6450 433.00 446.45 20.81
10842 107.6542 483.00 449.18 21.98
10843 107.6634 470.00 452.30 21.68
10844 107.6726 461.00 455.81 21.47
10845 107.6818 467.00 459.69 21.61
10846 107.6910 475.00 463.93 21.79
10847 107.7002 417.00 468.46 20.42
10848 107.7094 499.00 473.24 22.34
10849 107.7186 469.00 478.18 21.66
10850 107.7278 503.00 483.22 22.43
10851 107.7370 497.00 488.27 22.29
10852 107.7462 544.00 493.28 23.32
10853 107.7554 521.00 498.19 22.83
10854 107.7646 518.00 503.00 22.76
10855 107.7738 504.00 507.76 22.45
10856 107.7830 472.00 512.52 21.73
10857 107.7922 530.00 517.39 23.02
10858 107.8014 499.00 522.58 22.34
10859 107.8106 492.00 528.21 22.18
10860 107.8198 574.00 534.46 23.96
10861 107.8290 534.00 541.46 23.11
10862 107.8382 508.00 549.30 22.54
10863 107.8474 531.00 558.02 23.04
10864 107.8566 560.00 567.58 23.66
10865 107.8658 556.00 577.90 23.58
10866 107.8750 509.00 588.76 22.56
10867 107.8842 592.00 599.90 24.33
10868 107.8934 595.00 610.98 24.39
10869 107.9026 649.00 621.60 25.48
10870 107.9118 646.00 631.32 25.42
10871 107.9210 668.00 639.74 25.85
10872 107.9302 698.00 646.45 26.42
10873 107.9394 692.00 651.11 26.31
10874 107.9486 721.00 653.60 26.85
10875 107.9577 698.00 653.82 26.42
10876 107.9669 734.00 651.92 27.09
10877 107.9762 650.00 648.14 25.50
10878 107.9854 715.00 642.83 26.74
10879 107.9946 647.00 636.44 25.44
10880 108.0038 650.00 629.39 25.50
10881 108.0130 592.00 622.12 24.33
10882 108.0222 610.00 615.01 24.70
10883 108.0313 533.00 608.29 23.09
10884 108.0406 567.00 602.18 23.81
10885 108.0498 536.00 596.78 23.15
10886 108.0589 548.00 592.07 23.41
10887 108.0682 539.00 587.95 23.22
10888 108.0774 529.00 584.28 23.00
10889 108.0866 563.00 580.82 23.73
10890 108.0957 580.00 577.35 24.08
10891 108.1049 552.00 573.61 23.49
10892 108.1142 625.00 569.41 25.00
10893 108.1234 527.00 564.59 22.96
10894 108.1325 548.00 559.09 23.41
10895 108.1417 483.00 552.85 21.98
10896 108.1509 537.00 545.94 23.17
10897 108.1601 530.00 538.50 23.02
10898 108.1693 502.00 530.65 22.41
10899 108.1786 528.00 522.55 22.98
10900 108.1878 535.00 514.35 23.13
10901 108.1969 504.00 506.24 22.45
10902 108.2061 506.00 498.32 22.49
10903 108.2153 483.00 490.70 21.98
10904 108.2245 474.00 483.47 21.77
10905 108.2337 489.00 476.70 22.11
10906 108.2430 480.00 470.42 21.91
10907 108.2522 478.00 464.77 21.86
10908 108.2614 469.00 459.54 21.66
10909 108.2705 440.00 454.83 20.98
10910 108.2797 440.00 450.64 20.98
10911 108.2889 473.00 446.93 21.75
10912 108.2981 464.00 443.70 21.54
10913 108.3073 399.00 440.90 19.98
10914 108.3165 462.00 438.51 21.49
10915 108.3257 425.00 436.51 20.62
10916 108.3349 459.00 434.87 21.42
10917 108.3441 453.00 433.57 21.28
10918 108.3533 439.00 432.59 20.95
10919 108.3625 461.00 431.91 21.47
10920 108.3717 419.00 431.52 20.47
10921 108.3809 427.00 431.40 20.66
10922 108.3901 450.00 431.54 21.21
10923 108.3993 415.00 431.93 20.37
10924 108.4085 440.00 432.55 20.98
10925 108.4177 448.00 433.38 21.17
10926 108.4269 421.00 434.39 20.52
10927 108.4361 456.00 435.57 21.35
10928 108.4453 450.00 436.89 21.21
10929 108.4545 413.00 438.30 20.32
10930 108.4637 454.00 439.80 21.31
10931 108.4729 436.00 441.34 20.88
10932 108.4821 451.00 442.89 21.24
10933 108.4913 430.00 444.44 20.74
10934 108.5005 433.00 445.98 20.81
10935 108.5097 450.00 447.45 21.21
10936 108.5189 491.00 448.99 22.16
10937 108.5281 437.00 450.58 20.90
10938 108.5373 450.00 452.27 21.21
10939 108.5465 506.00 454.10 22.49
10940 108.5557 483.00 456.14 21.98
10941 108.5649 444.00 458.44 21.07
10942 108.5741 440.00 461.05 20.98
10943 108.5833 452.00 463.99 21.26
10944 108.5925 487.00 467.28 22.07
10945 108.6017 478.00 470.90 21.86
10946 108.6109 474.00 474.80 21.77
10947 108.6201 510.00 478.92 22.58
10948 108.6293 463.00 483.17 21.52
10949 108.6385 504.00 487.42 22.45
10950 108.6477 464.00 491.52 21.54
10951 108.6569 543.00 495.32 23.30
10952 108.6661 470.00 498.66 21.68
10953 108.6753 533.00 501.37 23.09
10954 108.6845 522.00 503.33 22.85
10955 108.6937 520.00 504.43 22.80
10956 108.7029 562.00 504.62 23.71
10957 108.7121 514.00 503.92 22.67
10958 108.7213 503.00 502.37 22.43
10959 108.7305 479.00 500.08 21.89
10960 108.7397 533.00 497.21 23.09
10961 108.7489 494.00 493.95 22.23
10962 108.7581 462.00 490.46 21.49
10963 108.7673 540.00 486.91 23.24
10964 108.7765 494.00 483.49 22.23
10965 108.7857 441.00 480.31 21.00
10966 108.7949 422.00 477.48 20.54
10967 108.8041 438.00 475.07 20.93
10968 108.8133 460.00 473.12 21.45
10969 108.8225 440.00 471.64 20.98
10970 108.8317 454.00 470.59 21.31
10971 108.8409 468.00 469.94 21.63
10972 108.8501 514.00 469.61 22.67
10973 108.8593 443.00 469.51 21.05
10974 108.8685 457.00 469.55 21.38
10975 108.8777 484.00 469.62 22.00
10976 108.8869 494.00 469.62 22.23
10977 108.8961 472.00 469.49 21.73
10978 108.9053 470.00 469.26 21.68
10979 108.9145 476.00 468.69 21.82
10980 108.9237 480.00 467.87 21.91
10981 108.9329 480.00 466.81 21.91
10982 108.9421 453.00 465.52 21.28
10983 108.9513 475.00 464.11 21.79
10984 108.9605 469.00 462.50 21.66
10985 108.9697 472.00 460.85 21.73
10986 108.9789 469.00 459.18 21.66
10987 108.9881 441.00 457.56 21.00
10988 108.9973 459.00 456.02 21.42
10989 109.0065 444.00 454.59 21.07
10990 109.0157 473.00 453.30 21.75
10991 109.0249 449.00 452.16 21.19
10992 109.0341 424.00 451.19 20.59
10993 109.0433 484.00 450.39 22.00
10994 109.0525 472.00 449.65 21.73
10995 109.0617 458.00 449.20 21.40
10996 109.0709 448.00 448.91 21.17
10997 109.0801 446.00 448.82 21.12
10998 109.0893 468.00 448.94 21.63
10999 109.0985 485.00 449.30 22.02
11000 109.1077 467.00 449.92 21.61
11001 109.1169 459.00 450.84 21.42
11002 109.1261 448.00 452.11 21.17
11003 109.1353 425.00 453.75 20.62
11004 109.1445 466.00 455.82 21.59
11005 109.1537 469.00 458.35 21.66
11006 109.1629 480.00 461.39 21.91
11007 109.1721 485.00 464.97 22.02
11008 109.1813 440.00 469.14 20.98
11009 109.1905 460.00 473.90 21.45
11010 109.1997 468.00 479.31 21.63
11011 109.2089 463.00 485.36 21.52
11012 109.2181 478.00 492.05 21.86
11013 109.2273 469.00 499.39 21.66
11014 109.2365 461.00 507.31 21.47
11015 109.2457 510.00 515.76 22.58
11016 109.2549 507.00 524.63 22.52
11017 109.2641 511.00 533.80 22.61
11018 109.2733 538.00 543.11 23.19
11019 109.2825 517.00 552.39 22.74
11020 109.2917 539.00 561.39 23.22
11021 109.3009 574.00 569.94 23.96
11022 109.3101 585.00 577.78 24.19
11023 109.3193 559.00 584.74 23.64
11024 109.3285 631.00 590.66 25.12
11025 109.3377 615.00 595.39 24.80
11026 109.3469 580.00 598.88 24.08
11027 109.3561 628.00 601.15 25.06
11028 109.3653 634.00 602.21 25.18
11029 109.3745 597.00 602.18 24.43
11030 109.3837 571.00 601.18 23.90
11031 109.3929 633.00 599.40 25.16
11032 109.4021 558.00 597.00 23.62
11033 109.4113 614.00 594.15 24.78
11034 109.4205 583.00 591.03 24.15
11035 109.4297 526.00 587.81 22.93
11036 109.4389 569.00 584.63 23.85
11037 109.4481 591.00 581.61 24.31
11038 109.4573 551.00 578.89 23.47
11039 109.4665 533.00 576.53 23.09
11040 109.4757 586.00 574.62 24.21
11041 109.4849 554.00 573.15 23.54
11042 109.4941 569.00 572.21 23.85
11043 109.5033 531.00 571.67 23.04
11044 109.5125 577.00 571.49 24.02
11045 109.5217 586.00 571.64 24.21
11046 109.5309 553.00 571.90 23.52
11047 109.5401 586.00 572.18 24.21
11048 109.5493 566.00 572.34 23.79
11049 109.5585 573.00 572.24 23.94
11050 109.5677 603.00 571.78 24.56
11051 109.5769 588.00 570.84 24.25
11052 109.5861 522.00 569.39 22.85
11053 109.5953 544.00 567.41 23.32
11054 109.6045 585.00 564.92 24.19
11055 109.6137 577.00 562.12 24.02
11056 109.6229 504.00 559.12 22.45
11057 109.6321 558.00 556.10 23.62
11058 109.6413 544.00 553.29 23.32
11059 109.6505 553.00 550.90 23.52
11060 109.6597 541.00 549.14 23.26
11061 109.6689 532.00 548.19 23.07
11062 109.6781 513.00 548.23 22.65
11063 109.6873 516.00 549.37 22.72
11064 109.6965 535.00 551.68 23.13
11065 109.7057 511.00 555.19 22.61
11066 109.7149 508.00 559.85 22.54
11067 109.7241 576.00 565.57 24.00
11068 109.7333 546.00 572.19 23.37
11069 109.7425 559.00 579.45 23.64
11070 109.7517 553.00 587.09 23.52
11071 109.7609 583.00 594.77 24.15
11072 109.7701 557.00 602.10 23.60
11073 109.7793 590.00 608.72 24.29
11074 109.7885 585.00 614.23 24.19
11075 109.7977 612.00 618.30 24.74
11076 109.8069 596.00 620.66 24.41
11077 109.8161 658.00 621.12 25.65
11078 109.8253 662.00 619.63 25.73
11079 109.8345 599.00 616.23 24.47
11080 109.8437 591.00 611.08 24.31
11081 109.8529 595.00 604.43 24.39
11082 109.8621 576.00 596.54 24.00
11083 109.8713 595.00 587.73 24.39
11084 109.8805 552.00 578.34 23.49
11085 109.8897 604.00 568.64 24.58
11086 109.8989 536.00 558.89 23.15
11087 109.9081 551.00 549.31 23.47
11088 109.9173 543.00 540.04 23.30
11089 109.9265 510.00 531.21 22.58
11090 109.9357 558.00 522.88 23.62
11091 109.9449 512.00 515.08 22.63
11092 109.9541 500.00 507.79 22.36
11093 109.9633 505.00 501.01 22.47
11094 109.9725 496.00 494.70 22.27
11095 109.9817 466.00 488.82 21.59
11096 109.9909 454.00 483.33 21.31
11097 110.0001 476.00 478.22 21.82
11098 110.0093 492.00 473.46 22.18
11099 110.0185 436.00 469.02 20.88
11100 110.0277 447.00 464.90 21.14
11101 110.0369 505.00 461.08 22.47
11102 110.0461 483.00 457.56 21.98
11103 110.0553 405.00 454.33 20.12
11104 110.0645 469.00 451.37 21.66
11105 110.0737 473.00 448.67 21.75
11106 110.0829 478.00 446.21 21.86
11107 110.0921 438.00 443.99 20.93
11108 110.1013 440.00 441.99 20.98
11109 110.1105 486.00 440.17 22.05
11110 110.1197 427.00 438.57 20.66
11111 110.1289 425.00 437.17 20.62
11112 110.1381 471.00 435.93 21.70
11113 110.1473 418.00 434.85 20.44
11114 110.1565 453.00 433.94 21.28
11115 110.1657 441.00 433.18 21.00
11116 110.1749 411.00 432.57 20.27
11117 110.1841 423.00 432.12 20.57
11118 110.1933 424.00 431.82 20.59
11119 110.2025 404.00 431.67 20.10
11120 110.2117 457.00 431.67 21.38
11121 110.2209 443.00 431.83 21.05
11122 110.2301 410.00 432.16 20.25
11123 110.2393 445.00 432.67 21.09
11124 110.2485 476.00 433.38 21.82
11125 110.2577 392.00 434.30 19.80
11126 110.2669 446.00 435.44 21.12
11127 110.2761 430.00 436.84 20.74
11128 110.2853 453.00 438.50 21.28
11129 110.2945 449.00 440.33 21.19
11130 110.3037 422.00 442.59 20.54
11131 110.3129 454.00 445.17 21.31
11132 110.3221 472.00 448.08 21.73
11133 110.3313 456.00 451.33 21.35
11134 110.3405 449.00 454.90 21.19
11135 110.3497 449.00 458.78 21.19
11136 110.3589 464.00 462.94 21.54
11137 110.3681 450.00 467.33 21.21
11138 110.3773 466.00 471.91 21.59
11139 110.3865 498.00 476.58 22.32
11140 110.3957 508.00 481.29 22.54
11141 110.4049 481.00 485.94 21.93
11142 110.4141 503.00 490.43 22.43
11143 110.4233 483.00 494.67 21.98
11144 110.4325 489.00 498.60 22.11
11145 110.4417 514.00 502.17 22.67
11146 110.4509 489.00 505.35 22.11
11147 110.4601 533.00 508.17 23.09
11148 110.4693 529.00 510.65 23.00
11149 110.4785 516.00 512.98 22.72
11150 110.4877 567.00 515.22 23.81
11151 110.4969 492.00 517.58 22.18
11152 110.5061 533.00 520.17 23.09
11153 110.5153 547.00 523.16 23.39
11154 110.5245 512.00 526.69 22.63
11155 110.5337 525.00 530.90 22.91
11156 110.5429 548.00 535.89 23.41
11157 110.5521 539.00 541.71 23.22
11158 110.5613 538.00 548.40 23.19
11159 110.5705 539.00 555.97 23.22
11160 110.5797 531.00 564.36 23.04
11161 110.5889 571.00 573.49 23.90
11162 110.5981 532.00 583.20 23.07
11163 110.6073 551.00 593.33 23.47
11164 110.6165 584.00 603.61 24.17
11165 110.6257 579.00 613.74 24.06
11166 110.6349 589.00 623.39 24.27
11167 110.6441 644.00 632.16 25.38
11168 110.6533 666.00 639.65 25.81
11169 110.6625 674.00 645.47 25.96
11170 110.6717 694.00 649.29 26.34
11171 110.6809 671.00 650.82 25.90
11172 110.6901 689.00 649.93 26.25
11173 110.6993 660.00 646.56 25.69
11174 110.7085 637.00 640.83 25.24
11175 110.7177 626.00 632.94 25.02
11176 110.7269 665.00 623.21 25.79
11177 110.7361 569.00 612.04 23.85
11178 110.7453 608.00 599.80 24.66
11179 110.7545 542.00 586.91 23.28
11180 110.7637 559.00 573.76 23.64
11181 110.7729 528.00 560.70 22.98
11182 110.7821 511.00 547.97 22.61
11183 110.7913 511.00 535.84 22.61
11184 110.8005 554.00 524.50 23.54
11185 110.8097 505.00 514.06 22.47
11186 110.8189 514.00 504.63 22.67
11187 110.8281 512.00 496.23 22.63
11188 110.8373 494.00 488.89 22.23
11189 110.8465 503.00 482.56 22.43
11190 110.8557 463.00 477.28 21.52
11191 110.8649 472.00 472.86 21.73
11192 110.8741 442.00 469.30 21.02
11193 110.8833 466.00 466.49 21.59
11194 110.8925 466.00 464.39 21.59
11195 110.9017 502.00 462.90 22.41
11196 110.9109 460.00 461.95 21.45
11197 110.9201 445.00 461.44 21.09
11198 110.9293 501.00 461.31 22.38
11199 110.9385 509.00 461.49 22.56
11200 110.9477 499.00 461.90 22.34
11201 110.9569 445.00 462.48 21.09
11202 110.9661 491.00 463.18 22.16
11203 110.9753 477.00 463.94 21.84
11204 110.9845 475.00 464.72 21.79
11205 110.9937 446.00 465.50 21.12
11206 111.0029 467.00 466.26 21.61
11207 111.0121 513.00 467.02 22.65
11208 111.0213 474.00 467.78 21.77
11209 111.0305 529.00 468.57 23.00
11210 111.0397 477.00 469.45 21.84
11211 111.0489 498.00 470.41 22.32
11212 111.0581 462.00 471.49 21.49
11213 111.0673 444.00 472.74 21.07
11214 111.0765 441.00 474.10 21.00
11215 111.0857 485.00 475.68 22.02
11216 111.0949 495.00 477.44 22.25
11217 111.1041 516.00 479.38 22.72
11218 111.1133 476.00 481.47 21.82
11219 111.1225 465.00 483.71 21.56
11220 111.1317 501.00 486.08 22.38
11221 111.1409 518.00 488.56 22.76
11222 111.1501 533.00 491.15 23.09
11223 111.1593 510.00 493.88 22.58
11224 111.1685 512.00 496.77 22.63
11225 111.1777 539.00 499.91 23.22
11226 111.1869 512.00 503.35 22.63
11227 111.1961 524.00 507.23 22.89
11228 111.2053 506.00 511.67 22.49
11229 111.2145 493.00 516.82 22.20
11230 111.2237 517.00 522.83 22.74
11231 111.2329 554.00 529.83 23.54
11232 111.2421 500.00 537.94 22.36
11233 111.2513 572.00 547.23 23.92
11234 111.2605 538.00 557.76 23.19
11235 111.2697 533.00 569.51 23.09
11236 111.2789 527.00 582.42 22.96
11237 111.2881 581.00 596.38 24.10
11238 111.2973 613.00 611.19 24.76
11239 111.3065 552.00 626.57 23.49
11240 111.3157 584.00 642.18 24.17
11241 111.3249 621.00 657.65 24.92
11242 111.3341 610.00 672.48 24.70
11243 111.3433 672.00 686.23 25.92
11244 111.3525 672.00 698.37 25.92
11245 111.3617 700.00 708.46 26.46
11246 111.3709 721.00 716.10 26.85
11247 111.3801 715.00 720.98 26.74
11248 111.3893 743.00 722.92 27.26
11249 111.3985 753.00 721.87 27.44
11250 111.4077 722.00 717.92 26.87
11251 111.4169 728.00 711.29 26.98
11252 111.4261 717.00 702.28 26.78
11253 111.4353 702.00 691.29 26.50
11254 111.4445 666.00 678.76 25.81
11255 111.4537 671.00 665.17 25.90
11256 111.4629 680.00 650.94 26.08
11257 111.4721 617.00 636.50 24.84
11258 111.4813 617.00 622.22 24.84
11259 111.4905 626.00 608.44 25.02
11260 111.4997 544.00 595.37 23.32
11261 111.5089 506.00 583.23 22.49
11262 111.5181 588.00 572.18 24.25
11263 111.5273 525.00 562.26 22.91
11264 111.5365 552.00 553.54 23.49
11265 111.5457 551.00 546.03 23.47
11266 111.5549 547.00 539.74 23.39
11267 111.5641 557.00 534.62 23.60
11268 111.5733 503.00 530.66 22.43
11269 111.5825 510.00 527.81 22.58
11270 111.5917 531.00 526.06 23.04
11271 111.6009 515.00 525.29 22.69
11272 111.6101 523.00 525.48 22.87
11273 111.6193 566.00 526.58 23.79
11274 111.6285 543.00 528.54 23.30
11275 111.6377 510.00 531.28 22.58
11276 111.6469 512.00 534.77 22.63
11277 111.6561 525.00 538.92 22.91
11278 111.6653 514.00 543.68 22.67
11279 111.6745 531.00 548.98 23.04
11280 111.6837 532.00 554.72 23.07
11281 111.6929 568.00 560.81 23.83
11282 111.7021 583.00 567.16 24.15
11283 111.7113 552.00 573.66 23.49
11284 111.7205 586.00 580.22 24.21
11285 111.7297 547.00 586.70 23.39
11286 111.7389 592.00 592.99 24.33
11287 111.7481 604.00 598.93 24.58
11288 111.7573 586.00 604.45 24.21
11289 111.7665 572.00 609.39 23.92
11290 111.7757 593.00 613.63 24.35
11291 111.7849 614.00 617.10 24.78
11292 111.7941 605.00 619.71 24.60
11293 111.8033 634.00 621.42 25.18
11294 111.8125 626.00 622.24 25.02
11295 111.8217 669.00 622.22 25.86
11296 111.8309 650.00 621.45 25.50
11297 111.8401 628.00 620.03 25.06
11298 111.8493 621.00 618.18 24.92
11299 111.8585 619.00 616.06 24.88
11300 111.8677 646.00 613.85 25.42
11301 111.8769 644.00 611.75 25.38
11302 111.8861 606.00 609.93 24.62
11303 111.8953 605.00 608.53 24.60
11304 111.9045 564.00 607.65 23.75
11305 111.9137 627.00 607.40 25.04
11306 111.9229 593.00 607.64 24.35
11307 111.9321 604.00 608.37 24.58
11308 111.9413 569.00 609.47 23.85
11309 111.9505 594.00 610.75 24.37
11310 111.9597 548.00 612.01 23.41
11311 111.9689 597.00 613.00 24.43
11312 111.9781 572.00 613.49 23.92
11313 111.9873 628.00 613.25 25.06
11314 111.9965 642.00 612.10 25.34
11315 112.0057 627.00 609.86 25.04
11316 112.0149 638.00 606.54 25.26
11317 112.0241 596.00 602.11 24.41
11318 112.0333 642.00 596.63 25.34
11319 112.0425 598.00 590.22 24.45
11320 112.0517 668.00 583.05 25.85
11321 112.0609 590.00 575.33 24.29
11322 112.0701 543.00 567.27 23.30
11323 112.0793 506.00 559.06 22.49
11324 112.0885 532.00 550.89 23.07
11325 112.0977 504.00 542.91 22.45
11326 112.1069 488.00 535.27 22.09
11327 112.1161 520.00 528.04 22.80
11328 112.1253 505.00 521.29 22.47
11329 112.1345 497.00 515.09 22.29
11330 112.1437 525.00 509.43 22.91
11331 112.1529 488.00 504.33 22.09
11332 112.1621 494.00 499.79 22.23
11333 112.1713 511.00 495.82 22.61
11334 112.1805 450.00 492.40 21.21
11335 112.1897 498.00 489.54 22.32
11336 112.1989 499.00 487.24 22.34
11337 112.2081 484.00 485.51 22.00
11338 112.2173 517.00 484.35 22.74
11339 112.2265 508.00 483.73 22.54
11340 112.2357 469.00 483.69 21.66
11341 112.2449 455.00 484.13 21.33
11342 112.2541 446.00 485.17 21.12
11343 112.2633 482.00 486.70 21.95
11344 112.2725 482.00 488.67 21.95
11345 112.2817 461.00 491.00 21.47
11346 112.2909 477.00 493.63 21.84
11347 112.3001 536.00 496.45 23.15
11348 112.3093 454.00 499.35 21.31
11349 112.3185 496.00 502.24 22.27
11350 112.3277 547.00 504.90 23.39
11351 112.3369 544.00 507.24 23.32
11352 112.3461 517.00 509.15 22.74
11353 112.3553 537.00 510.50 23.17
11354 112.3645 505.00 511.23 22.47
11355 112.3737 522.00 511.29 22.85
11356 112.3829 527.00 510.67 22.96
11357 112.3921 536.00 509.42 23.15
11358 112.4013 474.00 507.59 21.77
11359 112.4105 454.00 505.29 21.31
11360 112.4197 546.00 502.61 23.37
11361 112.4289 519.00 499.67 22.78
11362 112.4381 513.00 496.59 22.65
11363 112.4473 500.00 493.45 22.36
11364 112.4565 517.00 490.36 22.74
11365 112.4657 466.00 487.40 21.59
11366 112.4749 464.00 484.63 21.54
11367 112.4841 476.00 482.12 21.82
11368 112.4933 450.00 479.90 21.21
11369 112.5025 500.00 478.03 22.36
11370 112.5117 532.00 476.54 23.07
11371 112.5209 460.00 475.44 21.45
11372 112.5301 479.00 474.76 21.89
11373 112.5393 448.00 474.51 21.17
11374 112.5485 464.00 474.67 21.54
11375 112.5577 435.00 475.24 20.86
11376 112.5669 461.00 476.19 21.47
11377 112.5761 456.00 477.47 21.35
11378 112.5853 461.00 479.04 21.47
11379 112.5945 473.00 480.83 21.75
11380 112.6037 484.00 482.83 22.00
11381 112.6128 483.00 484.84 21.98
11382 112.6220 509.00 486.83 22.56
11383 112.6313 460.00 488.71 21.45
11384 112.6405 522.00 490.41 22.85
11385 112.6497 518.00 491.83 22.76
11386 112.6589 457.00 492.94 21.38
11387 112.6681 512.00 493.66 22.63
11388 112.6773 518.00 493.98 22.76
11389 112.6864 558.00 493.88 23.62
11390 112.6956 497.00 493.36 22.29
11391 112.7048 524.00 492.45 22.89
11392 112.7141 512.00 491.18 22.63
11393 112.7233 535.00 489.60 23.13
11394 112.7325 518.00 487.76 22.76
11395 112.7417 499.00 485.72 22.34
11396 112.7508 524.00 483.55 22.89
11397 112.7600 526.00 481.31 22.93
11398 112.7692 503.00 479.08 22.43
11399 112.7785 482.00 476.91 21.95
11400 112.7876 451.00 474.86 21.24
11401 112.7969 455.00 472.99 21.33
11402 112.8061 462.00 471.33 21.49
11403 112.8153 451.00 469.92 21.24
11404 112.8244 427.00 468.79 20.66
11405 112.8336 458.00 467.95 21.40
11406 112.8428 487.00 467.44 22.07
11407 112.8520 487.00 467.24 22.07
11408 112.8612 460.00 467.36 21.45
11409 112.8704 473.00 467.80 21.75
11410 112.8796 465.00 468.66 21.56
11411 112.8888 481.00 469.68 21.93
11412 112.8980 470.00 470.96 21.68
11413 112.9072 478.00 472.44 21.86
11414 112.9165 490.00 474.08 22.14
11415 112.9256 502.00 475.83 22.41
11416 112.9348 456.00 477.62 21.35
11417 112.9440 518.00 479.40 22.76
11418 112.9532 512.00 481.11 22.63
11419 112.9624 486.00 482.68 22.05
11420 112.9716 521.00 484.07 22.83
11421 112.9809 484.00 485.31 22.00
11422 112.9900 511.00 486.25 22.61
11423 112.9992 522.00 486.94 22.85
11424 113.0084 505.00 487.40 22.47
11425 113.0176 490.00 487.65 22.14
11426 113.0268 526.00 487.71 22.93
11427 113.0360 493.00 487.67 22.20
11428 113.0452 484.00 487.55 22.00
11429 113.0544 514.00 487.44 22.67
11430 113.0636 537.00 487.39 23.17
11431 113.0728 519.00 487.49 22.78
11432 113.0820 519.00 487.79 22.78
11433 113.0912 485.00 488.36 22.02
11434 113.1004 505.00 489.25 22.47
11435 113.1096 514.00 490.50 22.67
11436 113.1188 478.00 492.16 21.86
11437 113.1280 457.00 494.23 21.38
11438 113.1372 508.00 496.74 22.54
11439 113.1464 542.00 499.64 23.28
11440 113.1556 510.00 503.00 22.58
11441 113.1648 523.00 506.77 22.87
11442 113.1740 531.00 510.95 23.04
11443 113.1832 515.00 515.50 22.69
11444 113.1924 578.00 520.43 24.04
11445 113.2016 539.00 525.72 23.22
11446 113.2108 495.00 531.36 22.25
11447 113.2200 545.00 537.34 23.35
11448 113.2292 577.00 543.66 24.02
11449 113.2384 556.00 550.29 23.58
11450 113.2476 521.00 557.20 22.83
11451 113.2568 585.00 564.34 24.19
11452 113.2660 580.00 571.64 24.08
11453 113.2752 590.00 579.03 24.29
11454 113.2844 586.00 586.41 24.21
11455 113.2936 579.00 593.69 24.06
11456 113.3028 585.00 600.74 24.19
11457 113.3120 614.00 607.46 24.78
11458 113.3212 636.00 613.74 25.22
11459 113.3304 620.00 619.49 24.90
11460 113.3396 635.00 624.60 25.20
11461 113.3488 591.00 629.03 24.31
11462 113.3580 594.00 632.64 24.37
11463 113.3672 610.00 635.37 24.70
11464 113.3764 618.00 637.16 24.86
11465 113.3856 644.00 637.94 25.38
11466 113.3948 642.00 637.64 25.34
11467 113.4040 603.00 636.24 24.56
11468 113.4132 601.00 633.75 24.52
11469 113.4224 553.00 630.21 23.52
11470 113.4316 600.00 625.72 24.49
11471 113.4408 568.00 620.45 23.83
11472 113.4500 608.00 614.61 24.66
11473 113.4592 609.00 608.37 24.68
11474 113.4684 548.00 601.99 23.41
11475 113.4776 543.00 595.75 23.30
11476 113.4868 612.00 589.79 24.74
11477 113.4960 570.00 584.34 23.87
11478 113.5052 554.00 579.53 23.54
11479 113.5144 587.00 575.45 24.23
11480 113.5236 519.00 572.16 22.78
11481 113.5328 579.00 569.66 24.06
11482 113.5420 550.00 567.92 23.45
11483 113.5512 532.00 566.84 23.07
11484 113.5604 549.00 566.32 23.43
11485 113.5696 565.00 566.18 23.77
11486 113.5788 600.00 566.28 24.49
11487 113.5880 588.00 566.43 24.25
11488 113.5972 564.00 566.47 23.75
11489 113.6064 543.00 566.23 23.30
11490 113.6156 563.00 565.61 23.73
11491 113.6248 568.00 564.52 23.83
11492 113.6340 581.00 562.93 24.10
11493 113.6432 570.00 560.83 23.87
11494 113.6524 549.00 558.26 23.43
11495 113.6616 514.00 555.32 22.67
11496 113.6708 517.00 552.12 22.74
11497 113.6800 583.00 548.72 24.15
11498 113.6892 553.00 545.22 23.52
11499 113.6984 584.00 541.72 24.17
11500 113.7076 542.00 538.29 23.28
11501 113.7168 531.00 534.99 23.04
11502 113.7260 518.00 531.84 22.76
11503 113.7352 535.00 528.84 23.13
11504 113.7444 525.00 526.01 22.91
11505 113.7536 570.00 523.29 23.87
11506 113.7628 528.00 520.68 22.98
11507 113.7720 506.00 518.11 22.49
11508 113.7812 504.00 515.56 22.45
11509 113.7904 513.00 512.99 22.65
11510 113.7996 492.00 510.36 22.18
11511 113.8088 487.00 507.63 22.07
11512 113.8180 533.00 504.80 23.09
11513 113.8272 494.00 501.87 22.23
11514 113.8364 470.00 498.84 21.68
11515 113.8456 506.00 495.75 22.49
11516 113.8548 524.00 492.62 22.89
11517 113.8640 514.00 489.39 22.67
11518 113.8732 483.00 486.32 21.98
11519 113.8824 453.00 483.37 21.28
11520 113.8916 438.00 480.61 20.93
11521 113.9008 468.00 478.04 21.63
11522 113.9100 485.00 475.69 22.02
11523 113.9192 494.00 473.70 22.23
11524 113.9284 494.00 472.06 22.23
11525 113.9376 488.00 470.81 22.09
11526 113.9468 426.00 469.97 20.64
11527 113.9560 453.00 469.64 21.28
11528 113.9652 459.00 469.71 21.42
11529 113.9744 481.00 470.26 21.93
11530 113.9836 462.00 471.30 21.49
11531 113.9928 452.00 472.84 21.26
11532 114.0020 521.00 474.89 22.83
11533 114.0112 512.00 477.41 22.63
11534 114.0204 493.00 480.42 22.20
11535 114.0296 460.00 483.88 21.45
11536 114.0388 457.00 487.77 21.38
11537 114.0480 471.00 492.06 21.70
11538 114.0572 480.00 496.69 21.91
11539 114.0664 448.00 501.60 21.17
11540 114.0756 514.00 506.71 22.67
11541 114.0848 505.00 511.95 22.47
11542 114.0940 488.00 517.23 22.09
11543 114.1032 487.00 522.45 22.07
11544 114.1124 516.00 527.52 22.72
11545 114.1216 531.00 532.34 23.04
11546 114.1308 516.00 536.81 22.72
11547 114.1400 514.00 540.84 22.67
11548 114.1492 512.00 544.34 22.63
11549 114.1584 568.00 547.23 23.83
11550 114.1676 505.00 549.44 22.47
11551 114.1768 527.00 550.92 22.96
11552 114.1860 523.00 551.64 22.87
11553 114.1952 525.00 551.60 22.91
11554 114.2044 517.00 550.83 22.74
11555 114.2136 545.00 549.43 23.35
11556 114.2228 521.00 547.41 22.83
11557 114.2320 513.00 544.92 22.65
11558 114.2412 517.00 542.07 22.74
11559 114.2504 508.00 538.96 22.54
11560 114.2596 509.00 535.74 22.56
11561 114.2688 482.00 532.47 21.95
11562 114.2780 531.00 529.26 23.04
11563 114.2872 561.00 526.24 23.69
11564 114.2964 512.00 523.47 22.63
11565 114.3056 538.00 521.08 23.19
11566 114.3148 506.00 519.14 22.49
11567 114.3240 550.00 517.71 23.45
11568 114.3332 526.00 516.83 22.93
11569 114.3424 540.00 516.60 23.24
11570 114.3516 516.00 517.04 22.72
11571 114.3608 528.00 518.17 22.98
11572 114.3700 469.00 520.03 21.66
11573 114.3792 500.00 522.64 22.36
11574 114.3884 554.00 525.98 23.54
11575 114.3976 547.00 530.04 23.39
11576 114.4068 547.00 534.80 23.39
11577 114.4160 546.00 540.21 23.37
11578 114.4252 535.00 546.21 23.13
11579 114.4344 595.00 552.71 24.39
11580 114.4436 557.00 559.59 23.60
11581 114.4528 576.00 566.70 24.00
11582 114.4620 544.00 573.87 23.32
11583 114.4712 578.00 580.91 24.04
11584 114.4804 568.00 587.58 23.83
11585 114.4896 632.00 593.66 25.14
11586 114.4988 602.00 598.91 24.54
11587 114.5080 525.00 603.08 22.91
11588 114.5172 625.00 606.08 25.00
11589 114.5264 603.00 607.72 24.56
11590 114.5356 613.00 607.88 24.76
11591 114.5448 602.00 606.67 24.54
11592 114.5540 591.00 604.03 24.31
11593 114.5632 599.00 600.11 24.47
11594 114.5724 597.00 595.04 24.43
11595 114.5816 614.00 589.00 24.78
11596 114.5908 556.00 582.22 23.58
11597 114.6000 552.00 574.89 23.49
11598 114.6092 510.00 567.21 22.58
11599 114.6184 534.00 559.42 23.11
11600 114.6276 518.00 551.66 22.76
11601 114.6368 561.00 544.12 23.69
11602 114.6460 534.00 536.90 23.11
11603 114.6552 513.00 530.11 22.65
11604 114.6644 541.00 523.82 23.26
11605 114.6736 529.00 518.08 23.00
11606 114.6828 512.00 512.90 22.63
11607 114.6920 500.00 508.30 22.36
11608 114.7012 501.00 504.29 22.38
11609 114.7104 493.00 500.83 22.20
11610 114.7196 547.00 497.93 23.39
11611 114.7288 509.00 495.56 22.56
11612 114.7380 483.00 493.71 21.98
11613 114.7472 483.00 492.38 21.98
11614 114.7564 489.00 491.56 22.11
11615 114.7656 479.00 491.24 21.89
11616 114.7748 505.00 491.42 22.47
11617 114.7840 478.00 492.11 21.86
11618 114.7932 495.00 493.32 22.25
11619 114.8024 486.00 495.03 22.05
11620 114.8116 489.00 497.25 22.11
11621 114.8208 530.00 499.95 23.02
11622 114.8300 482.00 503.14 21.95
11623 114.8392 507.00 506.77 22.52
11624 114.8484 492.00 510.78 22.18
11625 114.8576 485.00 515.14 22.02
11626 114.8668 480.00 519.74 21.91
11627 114.8760 522.00 524.48 22.85
11628 114.8852 534.00 529.25 23.11
11629 114.8944 517.00 533.92 22.74
11630 114.9036 528.00 538.29 22.98
11631 114.9128 576.00 542.28 24.00
11632 114.9220 508.00 545.73 22.54
11633 114.9312 550.00 548.48 23.45
11634 114.9404 560.00 550.43 23.66
11635 114.9496 531.00 551.51 23.04
11636 114.9588 568.00 551.67 23.83
11637 114.9680 582.00 550.94 24.12
11638 114.9772 560.00 549.38 23.66
11639 114.9864 547.00 547.06 23.39
11640 114.9956 562.00 544.14 23.71
11641 115.0048 544.00 540.73 23.32
11642 115.0140 568.00 537.02 23.83
11643 115.0232 574.00 533.14 23.96
11644 115.0324 555.00 529.27 23.56
11645 115.0416 545.00 525.56 23.35
11646 115.0508 523.00 522.14 22.87
11647 115.0600 488.00 519.15 22.09
11648 115.0692 527.00 516.67 22.96
11649 115.0784 569.00 514.80 23.85
11650 115.0876 525.00 513.61 22.91
11651 115.0968 506.00 513.18 22.49
11652 115.1060 502.00 513.52 22.41
11653 115.1152 519.00 514.67 22.78
11654 115.1244 495.00 516.60 22.25
11655 115.1336 532.00 519.29 23.07
11656 115.1428 557.00 522.70 23.60
11657 115.1520 573.00 526.75 23.94
11658 115.1612 509.00 531.35 22.56
11659 115.1704 519.00 536.40 22.78
11660 115.1796 556.00 541.76 23.58
11661 115.1888 549.00 547.28 23.43
11662 115.1980 556.00 552.80 23.58
11663 115.2072 562.00 558.18 23.71
11664 115.2164 581.00 563.21 24.10
11665 115.2256 559.00 567.75 23.64
11666 115.2348 541.00 571.66 23.26
11667 115.2440 592.00 574.83 24.33
11668 115.2532 563.00 577.19 23.73
11669 115.2624 563.00 578.73 23.73
11670 115.2716 587.00 579.50 24.23
11671 115.2808 564.00 579.57 23.75
11672 115.2900 586.00 579.11 24.21
11673 115.2992 618.00 578.28 24.86
11674 115.3084 542.00 577.28 23.28
11675 115.3176 568.00 576.35 23.83
11676 115.3268 568.00 575.71 23.83
11677 115.3360 539.00 575.59 23.22
11678 115.3452 544.00 576.24 23.32
11679 115.3544 571.00 577.84 23.90
11680 115.3636 578.00 580.61 24.04
11681 115.3728 586.00 584.73 24.21
11682 115.3820 566.00 590.34 23.79
11683 115.3912 624.00 597.54 24.98
11684 115.4004 587.00 606.44 24.23
11685 115.4096 599.00 617.05 24.47
11686 115.4188 598.00 629.34 24.45
11687 115.4280 600.00 643.26 24.49
11688 115.4372 630.00 658.72 25.10
11689 115.4464 608.00 675.48 24.66
11690 115.4556 651.00 693.35 25.51
11691 115.4648 679.00 712.03 26.06
11692 115.4740 696.00 731.14 26.38
11693 115.4832 704.00 750.30 26.53
11694 115.4924 757.00 769.05 27.51
11695 115.5016 837.00 786.89 28.93
11696 115.5108 820.00 803.41 28.64
11697 115.5200 862.00 818.13 29.36
11698 115.5292 844.00 830.62 29.05
11699 115.5384 830.00 840.60 28.81
11700 115.5476 877.00 847.89 29.61
11701 115.5568 844.00 852.35 29.05
11702 115.5660 858.00 854.03 29.29
11703 115.5752 808.00 853.08 28.43
11704 115.5844 880.00 849.61 29.66
11705 115.5936 879.00 843.92 29.65
11706 115.6028 898.00 836.28 29.97
11707 115.6120 807.00 827.03 28.41
11708 115.6212 814.00 816.46 28.53
11709 115.6304 850.00 804.91 29.15
11710 115.6396 837.00 792.64 28.93
11711 115.6488 794.00 779.99 28.18
11712 115.6580 809.00 767.24 28.44
11713 115.6672 774.00 754.70 27.82
11714 115.6764 744.00 742.64 27.28
11715 115.6856 707.00 731.28 26.59
11716 115.6948 701.00 720.87 26.48
11717 115.7040 765.00 711.54 27.66
11718 115.7132 684.00 703.39 26.15
11719 115.7224 692.00 696.48 26.31
11720 115.7316 624.00 690.77 24.98
11721 115.7408 670.00 686.17 25.88
11722 115.7500 642.00 682.56 25.34
11723 115.7592 637.00 679.71 25.24
11724 115.7684 649.00 677.43 25.48
11725 115.7776 698.00 675.44 26.42
11726 115.7868 684.00 673.46 26.15
11727 115.7960 684.00 671.26 26.15
11728 115.8052 696.00 668.53 26.38
11729 115.8144 721.00 665.13 26.85
11730 115.8236 706.00 660.90 26.57
11731 115.8328 677.00 655.86 26.02
11732 115.8420 673.00 649.89 25.94
11733 115.8512 693.00 643.14 26.32
11734 115.8604 692.00 635.73 26.31
11735 115.8696 667.00 627.90 25.83
11736 115.8788 612.00 619.82 24.74
11737 115.8880 634.00 611.72 25.18
11738 115.8972 639.00 603.82 25.28
11739 115.9064 563.00 596.27 23.73
11740 115.9156 575.00 589.32 23.98
11741 115.9248 534.00 583.10 23.11
11742 115.9340 566.00 577.71 23.79
11743 115.9432 574.00 573.24 23.96
11744 115.9524 545.00 569.75 23.35
11745 115.9616 537.00 567.25 23.17
11746 115.9708 602.00 565.75 24.54
11747 115.9800 528.00 565.21 22.98
11748 115.9892 577.00 565.57 24.02
11749 115.9984 585.00 566.71 24.19
11750 116.0076 587.00 568.66 24.23
11751 116.0168 560.00 571.26 23.66
11752 116.0260 561.00 574.41 23.69
11753 116.0352 540.00 578.00 23.24
11754 116.0444 607.00 581.93 24.64
11755 116.0536 592.00 586.10 24.33
11756 116.0628 535.00 590.41 23.13
11757 116.0720 613.00 594.73 24.76
11758 116.0812 586.00 598.99 24.21
11759 116.0904 605.00 603.05 24.60
11760 116.0996 634.00 606.79 25.18
11761 116.1088 620.00 610.10 24.90
11762 116.1180 650.00 612.87 25.50
11763 116.1272 681.00 614.98 26.10
11764 116.1364 703.00 616.35 26.51
11765 116.1456 625.00 616.94 25.00
11766 116.1548 676.00 616.71 26.00
11767 116.1640 586.00 615.69 24.21
11768 116.1732 576.00 613.95 24.00
11769 116.1824 604.00 611.58 24.58
11770 116.1916 626.00 608.73 25.02
11771 116.2008 624.00 605.53 24.98
11772 116.2100 609.00 602.20 24.68
11773 116.2192 619.00 598.88 24.88
11774 116.2284 584.00 595.72 24.17
11775 116.2376 580.00 592.89 24.08
11776 116.2468 577.00 590.50 24.02
11777 116.2560 555.00 588.66 23.56
11778 116.2652 563.00 587.36 23.73
11779 116.2744 579.00 586.65 24.06
11780 116.2836 565.00 586.51 23.77
11781 116.2928 537.00 586.89 23.17
11782 116.3020 560.00 587.73 23.66
11783 116.3112 586.00 588.91 24.21
11784 116.3204 593.00 590.33 24.35
11785 116.3296 572.00 591.84 23.92
11786 116.3388 635.00 593.31 25.20
11787 116.3480 596.00 594.61 24.41
11788 116.3572 622.00 595.63 24.94
11789 116.3664 618.00 596.29 24.86
11790 116.3756 608.00 596.53 24.66
11791 116.3848 575.00 596.33 23.98
11792 116.3940 613.00 595.72 24.76
11793 116.4032 603.00 594.78 24.56
11794 116.4124 594.00 593.60 24.37
11795 116.4216 601.00 592.29 24.52
11796 116.4308 625.00 591.02 25.00
11797 116.4400 572.00 589.94 23.92
11798 116.4492 573.00 589.13 23.94
11799 116.4584 589.00 588.74 24.27
11800 116.4676 555.00 588.88 23.56
11801 116.4768 541.00 589.64 23.26
11802 116.4860 545.00 591.08 23.35
11803 116.4952 615.00 593.25 24.80
11804 116.5044 539.00 596.17 23.22
11805 116.5136 529.00 599.86 23.00
11806 116.5228 570.00 604.26 23.87
11807 116.5320 517.00 609.35 22.74
11808 116.5412 595.00 615.04 24.39
11809 116.5504 597.00 621.22 24.43
11810 116.5596 631.00 627.76 25.12
11811 116.5688 558.00 634.52 23.62
11812 116.5780 647.00 641.30 25.44
11813 116.5872 589.00 647.92 24.27
11814 116.5964 647.00 654.18 25.44
11815 116.6056 666.00 659.88 25.81
11816 116.6148 645.00 664.81 25.40
11817 116.6240 684.00 668.80 26.15
11818 116.6332 721.00 671.69 26.85
11819 116.6424 703.00 673.33 26.51
11820 116.6516 755.00 673.62 27.48
11821 116.6608 721.00 672.50 26.85
11822 116.6700 726.00 669.98 26.94
11823 116.6792 734.00 666.07 27.09
11824 116.6884 736.00 660.84 27.13
11825 116.6976 717.00 654.45 26.78
11826 116.7068 750.00 647.05 27.39
11827 116.7160 681.00 638.87 26.10
11828 116.7252 676.00 630.11 26.00
11829 116.7344 631.00 621.01 25.12
11830 116.7436 628.00 611.89 25.06
11831 116.7528 606.00 602.78 24.62
11832 116.7620 598.00 593.99 24.45
11833 116.7712 549.00 585.67 23.43
11834 116.7804 593.00 578.00 24.35
11835 116.7896 555.00 571.10 23.56
11836 116.7988 583.00 565.06 24.15
11837 116.8080 560.00 559.92 23.66
11838 116.8172 534.00 555.80 23.11
11839 116.8264 551.00 552.66 23.47
11840 116.8356 519.00 550.49 22.78
11841 116.8448 545.00 549.26 23.35
11842 116.8540 566.00 548.90 23.79
11843 116.8632 521.00 549.33 22.83
11844 116.8724 534.00 550.45 23.11
11845 116.8816 523.00 552.14 22.87
11846 116.8908 566.00 554.27 23.79
11847 116.9000 551.00 556.72 23.47
11848 116.9092 561.00 559.34 23.69
11849 116.9184 552.00 562.00 23.49
11850 116.9276 540.00 564.55 23.24
11851 116.9368 585.00 566.88 24.19
11852 116.9460 562.00 568.86 23.71
11853 116.9552 588.00 570.42 24.25
11854 116.9644 562.00 571.46 23.71
11855 116.9736 581.00 571.93 24.10
11856 116.9828 606.00 571.78 24.62
11857 116.9920 581.00 571.01 24.10
11858 117.0012 629.00 569.60 25.08
11859 117.0104 603.00 567.57 24.56
11860 117.0196 581.00 564.97 24.10
11861 117.0288 522.00 561.87 22.85
11862 117.0380 528.00 558.31 22.98
11863 117.0472 551.00 554.39 23.47
11864 117.0564 530.00 550.21 23.02
11865 117.0656 535.00 545.86 23.13
11866 117.0748 506.00 541.42 22.49
11867 117.0840 546.00 537.03 23.37
11868 117.0932 497.00 532.76 22.29
11869 117.1024 521.00 528.71 22.83
11870 117.1116 506.00 524.96 22.49
11871 117.1208 483.00 521.59 21.98
11872 117.1300 494.00 518.63 22.23
11873 117.1392 476.00 516.15 21.82
11874 117.1484 495.00 514.16 22.25
11875 117.1576 478.00 512.62 21.86
11876 117.1668 477.00 511.64 21.84
11877 117.1760 497.00 511.15 22.29
11878 117.1852 510.00 511.12 22.58
11879 117.1944 485.00 511.49 22.02
11880 117.2036 534.00 512.19 23.11
11881 117.2128 498.00 513.19 22.32
11882 117.2220 536.00 514.41 23.15
11883 117.2312 516.00 515.73 22.72
11884 117.2404 528.00 517.09 22.98
11885 117.2496 525.00 518.39 22.91
11886 117.2588 502.00 519.53 22.41
11887 117.2680 516.00 520.44 22.72
11888 117.2772 530.00 521.02 23.02
11889 117.2864 502.00 521.22 22.41
11890 117.2956 502.00 520.99 22.41
11891 117.3048 500.00 520.31 22.36
11892 117.3140 480.00 519.16 21.91
11893 117.3232 540.00 517.59 23.24
11894 117.3324 531.00 515.62 23.04
11895 117.3416 493.00 513.31 22.20
11896 117.3508 483.00 510.75 21.98
11897 117.3600 481.00 507.99 21.93
11898 117.3692 536.00 505.13 23.15
11899 117.3784 535.00 502.23 23.13
11900 117.3876 474.00 499.36 21.77
11901 117.3968 500.00 496.57 22.36
11902 117.4060 487.00 493.92 22.07
11903 117.4152 482.00 491.44 21.95
11904 117.4244 491.00 489.14 22.16
11905 117.4336 519.00 487.05 22.78
11906 117.4428 478.00 485.17 21.86
11907 117.4520 495.00 483.49 22.25
11908 117.4612 503.00 482.00 22.43
11909 117.4704 466.00 480.68 21.59
11910 117.4796 482.00 479.54 21.95
11911 117.4888 489.00 478.52 22.11
11912 117.4980 487.00 477.62 22.07
11913 117.5072 477.00 476.84 21.84
11914 117.5164 494.00 476.17 22.23
11915 117.5256 468.00 475.62 21.63
11916 117.5348 463.00 475.19 21.52
11917 117.5440 485.00 474.90 22.02
11918 117.5532 487.00 474.78 22.07
11919 117.5624 479.00 474.82 21.89
11920 117.5716 462.00 475.05 21.49
11921 117.5808 489.00 475.49 22.11
11922 117.5900 495.00 476.18 22.25
11923 117.5992 493.00 477.08 22.20
11924 117.6084 478.00 478.30 21.86
11925 117.6176 513.00 479.81 22.65
11926 117.6268 515.00 481.62 22.69
11927 117.6360 483.00 483.73 21.98
11928 117.6451 503.00 486.15 22.43
11929 117.6544 433.00 488.88 20.81
11930 117.6636 469.00 491.90 21.66
11931 117.6728 492.00 495.20 22.18
11932 117.6820 498.00 498.75 22.32
11933 117.6912 464.00 502.54 21.54
11934 117.7004 503.00 506.58 22.43
11935 117.7096 524.00 510.74 22.89
11936 117.7188 493.00 515.03 22.20
11937 117.7280 473.00 519.41 21.75
11938 117.7372 510.00 523.81 22.58
11939 117.7464 530.00 528.19 23.02
11940 117.7556 508.00 532.48 22.54
11941 117.7648 530.00 536.63 23.02
11942 117.7740 492.00 540.55 22.18
11943 117.7831 603.00 544.20 24.56
11944 117.7924 540.00 547.47 23.24
11945 117.8016 583.00 550.28 24.15
11946 117.8108 579.00 552.57 24.06
11947 117.8199 589.00 554.27 24.27
11948 117.8292 580.00 555.34 24.08
11949 117.8384 551.00 555.74 23.47
11950 117.8476 556.00 555.44 23.58
11951 117.8568 564.00 554.46 23.75
11952 117.8660 564.00 552.82 23.75
11953 117.8752 581.00 550.54 24.10
11954 117.8844 584.00 547.72 24.17
11955 117.8935 608.00 544.40 24.66
11956 117.9027 554.00 540.67 23.54
11957 117.9120 583.00 536.64 24.15
11958 117.9212 540.00 532.34 23.24
11959 117.9304 526.00 527.97 22.93
11960 117.9396 463.00 523.60 21.52
11961 117.9488 525.00 519.29 22.91
11962 117.9579 516.00 515.16 22.72
11963 117.9671 507.00 511.27 22.52
11964 117.9763 519.00 507.66 22.78
11965 117.9855 473.00 504.41 21.75
11966 117.9948 523.00 501.56 22.87
11967 118.0040 535.00 499.14 23.13
11968 118.0132 516.00 497.16 22.72
11969 118.0223 508.00 495.65 22.54
11970 118.0315 484.00 494.61 22.00
11971 118.0407 479.00 494.03 21.89
11972 118.0499 456.00 493.90 21.35
11973 118.0591 507.00 494.22 22.52
11974 118.0683 480.00 494.97 21.91
11975 118.0776 510.00 496.13 22.58
11976 118.0868 523.00 497.67 22.87
11977 118.0959 559.00 499.59 23.64
11978 118.1051 487.00 501.90 22.07
11979 118.1143 497.00 504.50 22.29
11980 118.1236 472.00 507.43 21.73
11981 118.1327 533.00 510.67 23.09
11982 118.1419 524.00 514.22 22.89
11983 118.1511 516.00 518.09 22.72
11984 118.1603 560.00 522.26 23.66
11985 118.1695 529.00 526.75 23.00
11986 118.1787 534.00 531.57 23.11
11987 118.1880 481.00 536.71 21.93
11988 118.1971 569.00 542.18 23.85
11989 118.2063 558.00 547.96 23.62
11990 118.2155 498.00 553.92 22.32
11991 118.2247 559.00 560.26 23.64
11992 118.2339 582.00 566.81 24.12
11993 118.2431 584.00 573.49 24.17
11994 118.2523 624.00 580.28 24.98
11995 118.2615 640.00 587.05 25.30
11996 118.2707 616.00 593.72 24.82
11997 118.2799 600.00 600.16 24.49
11998 118.2891 607.00 606.25 24.64
11999 118.2983 681.00 611.89 26.10
12000 118.3075 653.00 616.98 25.55
12001 118.3167 640.00 621.40 25.30
12002 118.3259 647.00 625.00 25.44
12003 118.3351 612.00 627.83 24.74
12004 118.3443 671.00 629.79 25.90
12005 118.3535 629.00 630.83 25.08
12006 118.3627 591.00 630.95 24.31
12007 118.3719 664.00 630.18 25.77
12008 118.3811 631.00 628.60 25.12
12009 118.3903 614.00 626.30 24.78
12010 118.3995 612.00 623.42 24.74
12011 118.4087 616.00 620.14 24.82
12012 118.4179 568.00 616.70 23.83
12013 118.4271 633.00 613.17 25.16
12014 118.4363 586.00 609.80 24.21
12015 118.4455 595.00 606.79 24.39
12016 118.4547 556.00 604.32 23.58
12017 118.4639 535.00 602.52 23.13
12018 118.4731 551.00 601.51 23.47
12019 118.4823 575.00 601.40 23.98
12020 118.4915 546.00 602.21 23.37
12021 118.5007 575.00 603.97 23.98
12022 118.5099 586.00 606.58 24.21
12023 118.5191 580.00 610.14 24.08
12024 118.5283 622.00 614.47 24.94
12025 118.5375 601.00 619.44 24.52
12026 118.5467 589.00 624.89 24.27
12027 118.5559 616.00 630.63 24.82
12028 118.5651 599.00 636.44 24.47
12029 118.5743 637.00 642.09 25.24
12030 118.5835 678.00 647.35 26.04
12031 118.5927 654.00 651.97 25.57
12032 118.6019 684.00 655.82 26.15
12033 118.6111 687.00 658.53 26.21
12034 118.6203 710.00 660.01 26.65
12035 118.6295 755.00 660.13 27.48
12036 118.6387 728.00 658.80 26.98
12037 118.6479 745.00 656.01 27.29
12038 118.6571 703.00 651.78 26.51
12039 118.6663 725.00 646.27 26.93
12040 118.6755 689.00 639.50 26.25
12041 118.6847 668.00 631.70 25.85
12042 118.6939 655.00 623.05 25.59
12043 118.7031 605.00 613.80 24.60
12044 118.7123 583.00 604.15 24.15
12045 118.7215 596.00 594.29 24.41
12046 118.7307 593.00 584.44 24.35
12047 118.7399 570.00 574.76 23.87
12048 118.7491 549.00 565.42 23.43
12049 118.7583 533.00 556.51 23.09
12050 118.7675 554.00 548.17 23.54
12051 118.7767 498.00 540.47 22.32
12052 118.7859 487.00 533.41 22.07
12053 118.7951 501.00 527.08 22.38
12054 118.8043 489.00 521.46 22.11
12055 118.8135 508.00 516.58 22.54
12056 118.8227 527.00 512.43 22.96
12057 118.8319 493.00 508.97 22.20
12058 118.8411 492.00 506.22 22.18
12059 118.8503 495.00 504.08 22.25
12060 118.8595 521.00 502.60 22.83
12061 118.8687 524.00 501.71 22.89
12062 118.8779 521.00 501.37 22.83
12063 118.8871 511.00 501.62 22.61
12064 118.8963 506.00 502.40 22.49
12065 118.9055 514.00 503.68 22.67
12066 118.9147 474.00 505.45 21.77
12067 118.9239 510.00 507.68 22.58
12068 118.9331 503.00 510.35 22.43
12069 118.9423 523.00 513.42 22.87
12070 118.9515 584.00 516.86 24.17
12071 118.9607 548.00 520.63 23.41
12072 118.9699 491.00 524.66 22.16
12073 118.9791 572.00 528.91 23.92
12074 118.9883 523.00 533.28 22.87
12075 118.9975 533.00 537.71 23.09
12076 119.0067 575.00 542.10 23.98
12077 119.0159 514.00 546.35 22.67
12078 119.0251 521.00 550.38 22.83
12079 119.0343 530.00 554.13 23.02
12080 119.0435 572.00 557.44 23.92
12081 119.0527 563.00 560.27 23.73
12082 119.0619 557.00 562.55 23.60
12083 119.0711 616.00 564.27 24.82
12084 119.0803 578.00 565.38 24.04
12085 119.0895 571.00 565.86 23.90
12086 119.0987 588.00 565.81 24.25
12087 119.1079 604.00 565.29 24.58
12088 119.1171 586.00 564.34 24.21
12089 119.1263 572.00 563.06 23.92
12090 119.1355 570.00 561.56 23.87
12091 119.1447 574.00 559.94 23.96
12092 119.1539 563.00 558.33 23.73
12093 119.1631 540.00 556.81 23.24
12094 119.1723 519.00 555.48 22.78
12095 119.1815 531.00 554.40 23.04
12096 119.1907 595.00 553.64 24.39
12097 119.1999 546.00 553.23 23.37
12098 119.2091 505.00 553.17 22.47
12099 119.2183 554.00 553.47 23.54
12100 119.2275 523.00 554.11 22.87
12101 119.2367 527.00 555.06 22.96
12102 119.2459 516.00 556.26 22.72
12103 119.2551 577.00 557.67 24.02
12104 119.2643 549.00 559.22 23.43
12105 119.2735 531.00 560.86 23.04
12106 119.2827 568.00 562.54 23.83
12107 119.2919 650.00 564.24 25.50
12108 119.3011 595.00 565.93 24.39
12109 119.3103 498.00 567.61 22.32
12110 119.3195 578.00 569.30 24.04
12111 119.3287 634.00 571.02 25.18
12112 119.3379 571.00 572.80 23.90
12113 119.3471 589.00 574.75 24.27
12114 119.3563 561.00 576.92 23.69
12115 119.3655 612.00 579.33 24.74
12116 119.3747 608.00 582.08 24.66
12117 119.3839 546.00 585.23 23.37
12118 119.3931 550.00 588.84 23.45
12119 119.4023 534.00 592.92 23.11
12120 119.4115 600.00 597.65 24.49
12121 119.4207 583.00 603.00 24.15
12122 119.4299 610.00 609.02 24.70
12123 119.4391 621.00 615.74 24.92
12124 119.4483 640.00 623.16 25.30
12125 119.4575 616.00 631.28 24.82
12126 119.4667 596.00 640.04 24.41
12127 119.4759 627.00 649.42 25.04
12128 119.4851 611.00 659.32 24.72
12129 119.4943 669.00 669.59 25.86
12130 119.5035 634.00 680.14 25.18
12131 119.5127 687.00 690.73 26.21
12132 119.5219 679.00 701.19 26.06
12133 119.5311 692.00 711.33 26.31
12134 119.5403 732.00 720.82 27.06
12135 119.5495 729.00 729.48 27.00
12136 119.5587 717.00 737.06 26.78
12137 119.5679 767.00 743.32 27.69
12138 119.5771 741.00 748.05 27.22
12139 119.5863 736.00 751.05 27.13
12140 119.5955 739.00 752.17 27.18
12141 119.6047 721.00 751.30 26.85
12142 119.6139 720.00 748.41 26.83
12143 119.6231 678.00 743.52 26.04
12144 119.6323 693.00 736.72 26.32
12145 119.6415 728.00 728.16 26.98
12146 119.6507 704.00 718.05 26.53
12147 119.6599 680.00 706.63 26.08
12148 119.6691 638.00 694.18 25.26
12149 119.6783 643.00 680.97 25.36
12150 119.6875 616.00 667.22 24.82
12151 119.6967 653.00 653.26 25.55
12152 119.7059 630.00 639.28 25.10
12153 119.7151 619.00 625.48 24.88
12154 119.7243 555.00 612.05 23.56
12155 119.7335 579.00 599.16 24.06
12156 119.7427 567.00 586.91 23.81
12157 119.7519 567.00 575.33 23.81
12158 119.7611 514.00 564.58 22.67
12159 119.7703 616.00 554.64 24.82
12160 119.7795 550.00 545.52 23.45
12161 119.7887 539.00 537.25 23.22
12162 119.7979 535.00 529.83 23.13
12163 119.8071 522.00 523.13 22.85
12164 119.8163 564.00 517.19 23.75
12165 119.8255 537.00 511.91 23.17
12166 119.8347 524.00 507.28 22.89
12167 119.8439 516.00 503.24 22.72
12168 119.8531 524.00 499.73 22.89
12169 119.8623 532.00 496.71 23.07
12170 119.8715 516.00 494.13 22.72
12171 119.8807 524.00 491.93 22.89
12172 119.8899 505.00 490.07 22.47
12173 119.8991 499.00 488.51 22.34
12174 119.9083 473.00 487.22 21.75
12175 119.9175 512.00 486.14 22.63
12176 119.9267 526.00 485.26 22.93
12177 119.9359 490.00 484.54 22.14
12178 119.9451 544.00 483.97 23.32
12179 119.9543 562.00 483.51 23.71
12180 119.9635 517.00 483.17 22.74
12181 119.9727 517.00 482.91 22.74
12182 119.9819 466.00 482.74 21.59
12183 119.9911 480.00 482.65 21.91
12184 120.0003 507.00 482.64 22.52
12185 120.0095 495.00 482.69 22.25
12186 120.0187 433.00 482.79 20.81
12187 120.0279 452.00 482.95 21.26
12188 120.0371 481.00 483.15 21.93
12189 120.0463 512.00 483.37 22.63
12190 120.0555 507.00 483.59 22.52
12191 120.0647 504.00 483.83 22.45
12192 120.0739 499.00 484.05 22.34
12193 120.0831 522.00 484.23 22.85
12194 120.0923 496.00 484.38 22.27
12195 120.1015 494.00 484.49 22.23
12196 120.1107 461.00 484.53 21.47
12197 120.1199 499.00 484.53 22.34
12198 120.1291 495.00 484.47 22.25
12199 120.1383 511.00 484.39 22.61
12200 120.1475 489.00 484.28 22.11
12201 120.1567 499.00 484.18 22.34
12202 120.1659 548.00 484.10 23.41
12203 120.1751 492.00 484.09 22.18
12204 120.1843 440.00 484.17 20.98
12205 120.1935 434.00 484.36 20.83
12206 120.2027 506.00 484.70 22.49
12207 120.2119 501.00 485.21 22.38
12208 120.2211 475.00 485.92 21.79
12209 120.2303 509.00 486.86 22.56
12210 120.2395 459.00 488.03 21.42
12211 120.2487 478.00 489.45 21.86
12212 120.2579 493.00 491.14 22.20
12213 120.2671 510.00 493.10 22.58
12214 120.2763 512.00 495.32 22.63
12215 120.2855 518.00 497.81 22.76
12216 120.2947 525.00 500.55 22.91
12217 120.3039 534.00 503.53 23.11
12218 120.3131 487.00 506.71 22.07
12219 120.3223 522.00 510.07 22.85
12220 120.3315 507.00 513.56 22.52
12221 120.3407 536.00 517.15 23.15
12222 120.3499 524.00 520.79 22.89
12223 120.3591 546.00 524.42 23.37
12224 120.3683 493.00 528.01 22.20
12225 120.3775 484.00 531.50 22.00
12226 120.3867 558.00 534.84 23.62
12227 120.3959 536.00 538.00 23.15
12228 120.4051 517.00 540.95 22.74
12229 120.4143 534.00 543.65 23.11
12230 120.4235 540.00 546.11 23.24
12231 120.4327 533.00 548.32 23.09
12232 120.4419 565.00 550.28 23.77
12233 120.4511 571.00 552.00 23.90
12234 120.4603 558.00 553.52 23.62
12235 120.4695 568.00 554.85 23.83
12236 120.4787 567.00 556.06 23.81
12237 120.4879 552.00 557.18 23.49
12238 120.4971 553.00 558.26 23.52
12239 120.5063 515.00 559.36 22.69
12240 120.5155 561.00 560.52 23.69
12241 120.5247 577.00 561.78 24.02
12242 120.5339 541.00 563.18 23.26
12243 120.5431 591.00 564.71 24.31
12244 120.5523 576.00 566.38 24.00
12245 120.5615 535.00 568.18 23.13
12246 120.5707 555.00 570.07 23.56
12247 120.5799 576.00 572.00 24.00
12248 120.5891 531.00 573.92 23.04
12249 120.5983 617.00 575.75 24.84
12250 120.6075 587.00 577.43 24.23
12251 120.6167 581.00 578.89 24.10
12252 120.6259 605.00 580.03 24.60
12253 120.6351 594.00 580.85 24.37
12254 120.6443 588.00 581.30 24.25
12255 120.6535 591.00 581.35 24.31
12256 120.6627 625.00 580.98 25.00
12257 120.6719 620.00 580.19 24.90
12258 120.6811 582.00 579.00 24.12
12259 120.6903 580.00 577.42 24.08
12260 120.6995 617.00 575.56 24.84
12261 120.7087 546.00 573.36 23.37
12262 120.7179 571.00 570.90 23.90
12263 120.7271 615.00 568.26 24.80
12264 120.7363 574.00 565.50 23.96
12265 120.7455 576.00 562.69 24.00
12266 120.7547 573.00 559.91 23.94
12267 120.7639 596.00 557.22 24.41
12268 120.7731 531.00 554.70 23.04
12269 120.7823 556.00 552.41 23.58
12270 120.7915 519.00 550.41 22.78
12271 120.8007 525.00 548.74 22.91
12272 120.8099 563.00 547.44 23.73
12273 120.8191 538.00 546.59 23.19
12274 120.8283 537.00 546.09 23.17
12275 120.8375 562.00 546.00 23.71
12276 120.8467 567.00 546.30 23.81
12277 120.8559 540.00 547.00 23.24
12278 120.8651 537.00 548.05 23.17
12279 120.8743 539.00 549.44 23.22
12280 120.8835 593.00 551.14 24.35
12281 120.8927 557.00 553.10 23.60
12282 120.9019 543.00 555.29 23.30
12283 120.9111 548.00 557.70 23.41
12284 120.9203 567.00 560.29 23.81
12285 120.9295 623.00 563.03 24.96
12286 120.9387 574.00 565.91 23.96
12287 120.9479 623.00 568.88 24.96
12288 120.9571 580.00 571.93 24.08
12289 120.9663 577.00 575.02 24.02
12290 120.9755 550.00 578.12 23.45
12291 120.9847 560.00 581.16 23.66
12292 120.9939 574.00 584.09 23.96
12293 121.0031 553.00 586.82 23.52
12294 121.0123 668.00 589.30 25.85
12295 121.0215 632.00 591.43 25.14
12296 121.0307 607.00 593.14 24.64
12297 121.0399 602.00 594.36 24.54
12298 121.0491 581.00 595.04 24.10
12299 121.0583 607.00 595.16 24.64
12300 121.0675 616.00 594.70 24.82
12301 121.0767 636.00 593.67 25.22
12302 121.0859 637.00 592.14 25.24
12303 121.0951 591.00 590.16 24.31
12304 121.1043 638.00 587.81 25.26
12305 121.1135 595.00 585.23 24.39
12306 121.1227 625.00 582.53 25.00
12307 121.1319 637.00 579.81 25.24
12308 121.1411 587.00 577.20 24.23
12309 121.1503 566.00 574.84 23.79
12310 121.1595 601.00 572.83 24.52
12311 121.1687 594.00 571.28 24.37
12312 121.1779 562.00 570.29 23.71
12313 121.1871 607.00 569.95 24.64
12314 121.1963 557.00 570.28 23.60
12315 121.2055 568.00 571.45 23.83
12316 121.2147 592.00 573.43 24.33
12317 121.2239 548.00 576.29 23.41
12318 121.2331 526.00 580.03 22.93
12319 121.2423 614.00 584.65 24.78
12320 121.2515 562.00 590.14 23.71
12321 121.2607 599.00 596.47 24.47
12322 121.2699 609.00 603.58 24.68
12323 121.2791 630.00 611.40 25.10
12324 121.2883 619.00 619.86 24.88
12325 121.2975 655.00 628.82 25.59
12326 121.3067 644.00 638.19 25.38
12327 121.3159 655.00 647.80 25.59
12328 121.3251 644.00 657.53 25.38
12329 121.3343 668.00 667.22 25.85
12330 121.3435 652.00 676.69 25.53
12331 121.3527 647.00 685.83 25.44
12332 121.3619 686.00 694.51 26.19
12333 121.3711 680.00 702.62 26.08
12334 121.3803 672.00 710.10 25.92
12335 121.3895 706.00 716.92 26.57
12336 121.3987 707.00 723.11 26.59
12337 121.4079 695.00 728.74 26.36
12338 121.4171 712.00 733.91 26.68
12339 121.4263 688.00 738.74 26.23
12340 121.4355 700.00 743.43 26.46
12341 121.4447 676.00 748.01 26.00
12342 121.4539 730.00 752.72 27.02
12343 121.4631 717.00 757.67 26.78
12344 121.4723 746.00 762.96 27.31
12345 121.4815 727.00 768.58 26.96
12346 121.4907 729.00 774.70 27.00
12347 121.4999 729.00 781.21 27.00
12348 121.5091 739.00 788.08 27.18
12349 121.5183 691.00 795.16 26.29
12350 121.5275 745.00 802.33 27.29
12351 121.5367 751.00 809.41 27.40
12352 121.5459 807.00 816.17 28.41
12353 121.5551 764.00 822.42 27.64
12354 121.5643 763.00 827.94 27.62
12355 121.5735 778.00 832.52 27.89
12356 121.5827 814.00 835.97 28.53
12357 121.5919 917.00 838.17 30.28
12358 121.6011 811.00 838.99 28.48
12359 121.6103 812.00 838.37 28.50
12360 121.6195 898.00 836.28 29.97
12361 121.6287 871.00 832.73 29.51
12362 121.6379 849.00 827.78 29.14
12363 121.6471 842.00 821.50 29.02
12364 121.6563 851.00 814.05 29.17
12365 121.6655 845.00 805.66 29.07
12366 121.6747 788.00 796.32 28.07
12367 121.6839 788.00 786.26 28.07
12368 121.6931 794.00 775.72 28.18
12369 121.7023 778.00 764.88 27.89
12370 121.7115 791.00 753.88 28.12
12371 121.7207 780.00 742.92 27.93
12372 121.7299 703.00 732.09 26.51
12373 121.7391 726.00 721.51 26.94
12374 121.7483 696.00 711.30 26.38
12375 121.7575 720.00 701.45 26.83
12376 121.7667 669.00 692.00 25.86
12377 121.7759 672.00 683.02 25.92
12378 121.7851 668.00 674.48 25.85
12379 121.7943 632.00 666.41 25.14
12380 121.8035 630.00 658.77 25.10
12381 121.8127 588.00 651.57 24.25
12382 121.8219 611.00 644.80 24.72
12383 121.8311 595.00 638.45 24.39
12384 121.8403 640.00 632.48 25.30
12385 121.8495 652.00 626.90 25.53
12386 121.8587 611.00 621.73 24.72
12387 121.8679 584.00 616.97 24.17
12388 121.8771 609.00 612.60 24.68
12389 121.8863 599.00 608.67 24.47
12390 121.8955 647.00 605.16 25.44
12391 121.9047 601.00 602.09 24.52
12392 121.9139 614.00 599.48 24.78
12393 121.9231 573.00 597.32 23.94
12394 121.9323 600.00 595.61 24.49
12395 121.9415 599.00 594.32 24.47
12396 121.9507 625.00 593.40 25.00
12397 121.9599 565.00 592.87 23.77
12398 121.9691 626.00 592.65 25.02
12399 121.9783 628.00 592.67 25.06
12400 121.9875 629.00 592.87 25.08
12401 121.9967 643.00 593.16 25.36
12402 122.0059 632.00 593.46 25.14
12403 122.0151 647.00 593.67 25.44
12404 122.0243 609.00 593.73 24.68
12405 122.0335 614.00 593.55 24.78
12406 122.0427 628.00 593.08 25.06
12407 122.0519 647.00 592.28 25.44
12408 122.0611 617.00 591.11 24.84
12409 122.0703 658.00 589.65 25.65
12410 122.0795 594.00 587.78 24.37
12411 122.0887 600.00 585.59 24.49
12412 122.0979 591.00 583.14 24.31
12413 122.1071 591.00 580.47 24.31
12414 122.1163 542.00 577.68 23.28
12415 122.1255 575.00 574.82 23.98
12416 122.1347 611.00 571.97 24.72
12417 122.1439 605.00 569.23 24.60
12418 122.1531 575.00 566.68 23.98
12419 122.1623 596.00 564.38 24.41
12420 122.1715 540.00 562.46 23.24
12421 122.1807 575.00 560.97 23.98
12422 122.1899 533.00 559.99 23.09
12423 122.1991 547.00 559.59 23.39
12424 122.2083 530.00 559.80 23.02
12425 122.2175 554.00 560.69 23.54
12426 122.2267 565.00 562.28 23.77
12427 122.2359 583.00 564.60 24.15
12428 122.2451 539.00 567.66 23.22
12429 122.2543 578.00 571.45 24.04
12430 122.2635 523.00 575.96 22.87
12431 122.2727 487.00 581.15 22.07
12432 122.2819 558.00 586.99 23.62
12433 122.2911 578.00 593.42 24.04
12434 122.3003 608.00 600.38 24.66
12435 122.3095 621.00 607.75 24.92
12436 122.3187 600.00 615.46 24.49
12437 122.3279 646.00 623.42 25.42
12438 122.3371 633.00 631.48 25.16
12439 122.3463 620.00 639.55 24.90
12440 122.3555 688.00 647.53 26.23
12441 122.3647 658.00 655.29 25.65
12442 122.3739 701.00 662.73 26.48
12443 122.3831 701.00 669.78 26.48
12444 122.3923 702.00 676.39 26.50
12445 122.4015 726.00 682.49 26.94
12446 122.4107 664.00 688.07 25.77
12447 122.4199 676.00 693.10 26.00
12448 122.4291 700.00 697.60 26.46
12449 122.4383 660.00 701.62 25.69
12450 122.4475 691.00 705.15 26.29
12451 122.4567 727.00 708.21 26.96
12452 122.4659 735.00 710.84 27.11
12453 122.4751 687.00 713.04 26.21
12454 122.4843 706.00 714.81 26.57
12455 122.4935 684.00 716.14 26.15
12456 122.5027 721.00 716.91 26.85
12457 122.5119 696.00 717.28 26.38
12458 122.5211 733.00 717.09 27.07
12459 122.5303 705.00 716.29 26.55
12460 122.5395 731.00 714.83 27.04
12461 122.5487 793.00 712.67 28.16
12462 122.5579 815.00 709.77 28.55
12463 122.5671 737.00 706.15 27.15
12464 122.5763 722.00 701.84 26.87
12465 122.5855 720.00 696.89 26.83
12466 122.5947 744.00 691.41 27.28
12467 122.6039 752.00 685.53 27.42
12468 122.6131 752.00 679.40 27.42
12469 122.6223 720.00 673.15 26.83
12470 122.6315 687.00 666.96 26.21
12471 122.6407 640.00 660.99 25.30
12472 122.6499 571.00 655.41 23.90
12473 122.6591 648.00 650.34 25.46
12474 122.6683 656.00 645.91 25.61
12475 122.6775 610.00 642.26 24.70
12476 122.6867 650.00 639.40 25.50
12477 122.6959 659.00 637.41 25.67
12478 122.7051 595.00 636.33 24.39
12479 122.7143 606.00 636.17 24.62
12480 122.7235 641.00 636.90 25.32
12481 122.7327 568.00 638.48 23.83
12482 122.7419 551.00 640.85 23.47
12483 122.7511 592.00 643.90 24.33
12484 122.7603 611.00 647.60 24.72
12485 122.7695 613.00 651.66 24.76
12486 122.7787 621.00 655.99 24.92
12487 122.7879 646.00 660.41 25.42
12488 122.7971 574.00 664.75 23.96
12489 122.8063 639.00 668.79 25.28
12490 122.8155 660.00 672.33 25.69
12491 122.8247 705.00 675.20 26.55
12492 122.8339 702.00 677.20 26.50
12493 122.8431 707.00 678.20 26.59
12494 122.8523 660.00 678.08 25.69
12495 122.8615 703.00 676.77 26.51
12496 122.8707 727.00 674.24 26.96
12497 122.8799 649.00 670.52 25.48
12498 122.8891 796.00 665.67 28.21
12499 122.8983 717.00 659.78 26.78
12500 122.9075 675.00 652.98 25.98
12501 122.9167 663.00 645.44 25.75
12502 122.9259 683.00 637.30 26.13
12503 122.9351 629.00 628.71 25.08
12504 122.9443 579.00 619.85 24.06
12505 122.9535 637.00 610.85 25.24
12506 122.9627 607.00 601.82 24.64
12507 122.9719 613.00 592.91 24.76
12508 122.9811 590.00 584.19 24.29
12509 122.9903 577.00 575.76 24.02
12510 122.9995 553.00 567.68 23.52
12511 123.0087 558.00 559.98 23.62
12512 123.0179 567.00 552.70 23.81
12513 123.0271 569.00 545.88 23.85
12514 123.0363 543.00 539.53 23.30
12515 123.0455 549.00 533.62 23.43
12516 123.0547 532.00 528.19 23.07
12517 123.0639 551.00 523.20 23.47
12518 123.0731 496.00 518.63 22.27
12519 123.0823 519.00 514.47 22.78
12520 123.0915 546.00 510.71 23.37
12521 123.1007 519.00 507.31 22.78
12522 123.1099 528.00 504.25 22.98
12523 123.1191 529.00 501.50 23.00
12524 123.1283 499.00 499.04 22.34
12525 123.1375 514.00 496.85 22.67
12526 123.1467 501.00 494.91 22.38
12527 123.1559 493.00 493.20 22.20
12528 123.1651 523.00 491.68 22.87
12529 123.1743 525.00 490.36 22.91
12530 123.1835 495.00 489.20 22.25
12531 123.1927 467.00 488.21 21.61
12532 123.2019 473.00 487.35 21.75
12533 123.2111 525.00 486.61 22.91
12534 123.2203 463.00 485.97 21.52
12535 123.2295 502.00 485.44 22.41
12536 123.2387 536.00 484.99 23.15
12537 123.2479 466.00 484.62 21.59
12538 123.2571 525.00 484.32 22.91
12539 123.2663 486.00 484.08 22.05
12540 123.2755 511.00 483.89 22.61
12541 123.2847 474.00 483.80 21.77
12542 123.2939 474.00 483.73 21.77
12543 123.3031 495.00 483.67 22.25
12544 123.3123 482.00 483.63 21.95
12545 123.3215 503.00 483.60 22.43
12546 123.3307 481.00 483.62 21.93
12547 123.3399 507.00 483.67 22.52
12548 123.3491 472.00 483.75 21.73
12549 123.3583 492.00 483.86 22.18
12550 123.3675 523.00 484.00 22.87
12551 123.3767 458.00 484.18 21.40
12552 123.3859 503.00 484.40 22.43
12553 123.3951 501.00 484.68 22.38
12554 123.4043 473.00 484.99 21.75
12555 123.4135 490.00 485.38 22.14
12556 123.4227 498.00 485.85 22.32
12557 123.4319 519.00 486.42 22.78
12558 123.4411 540.00 487.05 23.24
12559 123.4503 510.00 487.77 22.58
12560 123.4595 498.00 488.60 22.32
12561 123.4687 499.00 489.53 22.34
12562 123.4779 519.00 490.59 22.78
12563 123.4871 551.00 491.77 23.47
12564 123.4963 466.00 493.08 21.59
12565 123.5055 491.00 494.53 22.16
12566 123.5147 515.00 496.12 22.69
12567 123.5239 546.00 497.88 23.37
12568 123.5331 491.00 499.79 22.16
12569 123.5423 456.00 501.89 21.35
12570 123.5515 510.00 504.14 22.58
12571 123.5607 509.00 506.57 22.56
12572 123.5699 524.00 509.18 22.89
12573 123.5791 520.00 511.94 22.80
12574 123.5883 481.00 514.93 21.93
12575 123.5975 568.00 518.12 23.83
12576 123.6067 544.00 521.52 23.32
12577 123.6159 562.00 525.12 23.71
12578 123.6251 536.00 528.95 23.15
12579 123.6343 531.00 533.01 23.04
12580 123.6435 563.00 537.32 23.73
12581 123.6527 508.00 541.88 22.54
12582 123.6619 533.00 546.69 23.09
12583 123.6711 551.00 551.81 23.47
12584 123.6803 568.00 557.22 23.83
12585 123.6895 512.00 562.92 22.63
12586 123.6987 540.00 568.92 23.24
12587 123.7079 542.00 575.19 23.28
12588 123.7171 558.00 581.72 23.62
12589 123.7263 552.00 588.49 23.49
12590 123.7355 539.00 595.43 23.22
12591 123.7447 578.00 602.50 24.04
12592 123.7539 543.00 609.63 23.30
12593 123.7631 598.00 616.75 24.45
12594 123.7723 617.00 623.77 24.84
12595 123.7814 619.00 630.58 24.88
12596 123.7907 605.00 637.12 24.60
12597 123.7999 615.00 643.29 24.80
12598 123.8091 654.00 649.01 25.57
12599 123.8183 677.00 654.23 26.02
12600 123.8275 636.00 658.88 25.22
12601 123.8367 632.00 662.94 25.14
12602 123.8458 643.00 666.36 25.36
12603 123.8550 657.00 669.13 25.63
12604 123.8643 658.00 671.32 25.65
12605 123.8735 642.00 672.73 25.34
12606 123.8827 677.00 673.49 26.02
12607 123.8919 647.00 673.55 25.44
12608 123.9011 654.00 672.91 25.57
12609 123.9103 682.00 671.55 26.12
12610 123.9194 660.00 669.50 25.69
12611 123.9286 704.00 666.73 26.53
12612 123.9379 685.00 663.30 26.17
12613 123.9471 702.00 659.23 26.50
12614 123.9563 663.00 654.58 25.75
12615 123.9655 628.00 649.44 25.06
12616 123.9747 641.00 643.89 25.32
12617 123.9838 652.00 638.04 25.53
12618 123.9930 681.00 631.99 26.10
12619 124.0023 674.00 625.85 25.96
12620 124.0115 680.00 619.71 26.08
12621 124.0206 625.00 613.65 25.00
12622 124.0299 625.00 607.81 25.00
12623 124.0391 575.00 602.23 23.98
12624 124.0482 600.00 596.97 24.49
12625 124.0574 625.00 592.07 25.00
12626 124.0667 572.00 587.53 23.92
12627 124.0759 625.00 583.41 25.00
12628 124.0850 597.00 579.69 24.43
12629 124.0942 539.00 576.36 23.22
12630 124.1034 573.00 573.43 23.94
12631 124.1127 580.00 570.86 24.08
12632 124.1218 583.00 568.62 24.15
12633 124.1311 578.00 566.70 24.04
12634 124.1403 571.00 565.07 23.90
12635 124.1495 608.00 563.72 24.66
12636 124.1586 612.00 562.64 24.74
12637 124.1678 561.00 561.80 23.69
12638 124.1770 547.00 561.21 23.39
12639 124.1862 536.00 560.86 23.15
12640 124.1954 583.00 560.76 24.15
12641 124.2047 550.00 560.90 23.45
12642 124.2139 545.00 561.27 23.35
12643 124.2230 540.00 561.89 23.24
12644 124.2322 619.00 562.74 24.88
12645 124.2414 537.00 563.81 23.17
12646 124.2506 605.00 565.10 24.60
12647 124.2598 584.00 566.58 24.17
12648 124.2690 578.00 568.24 24.04
12649 124.2783 576.00 570.05 24.00
12650 124.2875 628.00 571.97 25.06
12651 124.2966 601.00 573.96 24.52
12652 124.3058 575.00 575.99 23.98
12653 124.3150 520.00 578.03 22.80
12654 124.3242 626.00 580.05 25.02
12655 124.3334 584.00 581.93 24.17
12656 124.3426 662.00 583.70 25.73
12657 124.3518 579.00 585.34 24.06
12658 124.3610 619.00 586.80 24.88
12659 124.3702 616.00 588.08 24.82
12660 124.3794 657.00 589.13 25.63
12661 124.3886 586.00 590.12 24.21
12662 124.3978 629.00 591.01 25.08
12663 124.4070 572.00 591.84 23.92
12664 124.4162 599.00 592.67 24.47
12665 124.4254 612.00 593.56 24.74
12666 124.4346 614.00 594.56 24.78
12667 124.4438 613.00 595.72 24.76
12668 124.4530 600.00 597.15 24.49
12669 124.4622 592.00 598.80 24.33
12670 124.4714 564.00 600.75 23.75
12671 124.4806 621.00 603.01 24.92
12672 124.4898 584.00 605.58 24.17
12673 124.4990 612.00 608.47 24.74
12674 124.5082 626.00 611.64 25.02
12675 124.5174 638.00 615.07 25.26
12676 124.5266 637.00 618.71 25.24
12677 124.5358 644.00 622.50 25.38
12678 124.5450 612.00 626.40 24.74
12679 124.5542 656.00 630.34 25.61
12680 124.5634 621.00 634.28 24.92
12681 124.5726 671.00 638.07 25.90
12682 124.5818 616.00 641.85 24.82
12683 124.5910 629.00 645.54 25.08
12684 124.6002 631.00 649.14 25.12
12685 124.6094 651.00 652.69 25.51
12686 124.6186 592.00 656.24 24.33
12687 124.6278 625.00 659.88 25.00
12688 124.6370 648.00 663.71 25.46
12689 124.6462 658.00 667.84 25.65
12690 124.6554 626.00 672.33 25.02
12691 124.6646 694.00 677.42 26.34
12692 124.6738 622.00 683.19 24.94
12693 124.6830 694.00 689.70 26.34
12694 124.6922 665.00 697.07 25.79
12695 124.7014 686.00 705.34 26.19
12696 124.7106 719.00 714.53 26.81
12697 124.7198 733.00 724.68 27.07
12698 124.7290 685.00 735.72 26.17
12699 124.7382 712.00 747.60 26.68
12700 124.7474 682.00 760.21 26.12
12701 124.7566 677.00 773.38 26.02
12702 124.7658 767.00 786.96 27.69
12703 124.7750 740.00 800.67 27.20
12704 124.7842 774.00 814.36 27.82
12705 124.7934 798.00 827.67 28.25
12706 124.8026 844.00 840.35 29.05
12707 124.8118 801.00 852.12 28.30
12708 124.8210 886.00 862.65 29.77
12709 124.8302 873.00 871.72 29.55
12710 124.8394 866.00 879.06 29.43
12711 124.8486 937.00 884.50 30.61
12712 124.8578 902.00 887.98 30.03
12713 124.8670 960.00 889.42 30.98
12714 124.8762 963.00 888.74 31.03
12715 124.8854 943.00 886.05 30.71
12716 124.8946 891.00 881.45 29.85
12717 124.9038 941.00 875.10 30.68
12718 124.9130 927.00 867.18 30.45
12719 124.9222 864.00 857.86 29.39
12720 124.9314 896.00 847.40 29.93
12721 124.9406 834.00 836.00 28.88
12722 124.9498 928.00 823.83 30.46
12723 124.9590 822.00 811.15 28.67
12724 124.9682 797.00 798.13 28.23
12725 124.9774 758.00 784.98 27.53
12726 124.9866 722.00 771.85 26.87
12727 124.9958 784.00 758.90 28.00
12728 125.0050 779.00 746.26 27.91
12729 125.0142 731.00 734.08 27.04
12730 125.0234 702.00 722.46 26.50
12731 125.0326 705.00 711.47 26.55
12732 125.0418 693.00 701.23 26.32
12733 125.0510 712.00 691.81 26.68
12734 125.0602 691.00 683.23 26.29
12735 125.0694 678.00 675.54 26.04
12736 125.0786 627.00 668.84 25.04
12737 125.0878 638.00 663.11 25.26
12738 125.0970 626.00 658.38 25.02
12739 125.1062 615.00 654.62 24.80
12740 125.1154 623.00 651.84 24.96
12741 125.1246 654.00 649.99 25.57
12742 125.1338 635.00 649.03 25.20
12743 125.1430 656.00 648.90 25.61
12744 125.1522 697.00 649.51 26.40
12745 125.1614 647.00 650.79 25.44
12746 125.1706 652.00 652.66 25.53
12747 125.1798 619.00 654.98 24.88
12748 125.1890 614.00 657.64 24.78
12749 125.1982 661.00 660.52 25.71
12750 125.2074 629.00 663.47 25.08
12751 125.2166 678.00 666.40 26.04
12752 125.2258 657.00 669.08 25.63
12753 125.2350 685.00 671.39 26.17
12754 125.2442 683.00 673.20 26.13
12755 125.2534 726.00 674.38 26.94
12756 125.2626 647.00 674.81 25.44
12757 125.2718 688.00 674.40 26.23
12758 125.2810 667.00 673.09 25.83
12759 125.2902 639.00 670.84 25.28
12760 125.2994 721.00 667.67 26.85
12761 125.3086 710.00 663.59 26.65
12762 125.3178 652.00 658.66 25.53
12763 125.3270 634.00 652.98 25.18
12764 125.3362 614.00 646.63 24.78
12765 125.3454 625.00 639.73 25.00
12766 125.3546 652.00 632.41 25.53
12767 125.3638 593.00 624.79 24.35
12768 125.3730 589.00 616.96 24.27
12769 125.3822 607.00 609.06 24.64
12770 125.3914 582.00 601.19 24.12
12771 125.4006 602.00 593.43 24.54
12772 125.4098 565.00 585.87 23.77
12773 125.4190 581.00 578.58 24.10
12774 125.4282 597.00 571.58 24.43
12775 125.4374 603.00 564.98 24.56
12776 125.4466 573.00 558.78 23.94
12777 125.4558 558.00 553.04 23.62
12778 125.4650 534.00 547.69 23.11
12779 125.4742 572.00 542.79 23.92
12780 125.4834 532.00 538.31 23.07
12781 125.4926 561.00 534.27 23.69
12782 125.5018 566.00 530.66 23.79
12783 125.5110 560.00 527.44 23.66
12784 125.5202 561.00 524.61 23.69
12785 125.5294 505.00 522.15 22.47
12786 125.5386 526.00 520.03 22.93
12787 125.5478 524.00 518.24 22.89
12788 125.5570 520.00 516.76 22.80
12789 125.5662 502.00 515.58 22.41
12790 125.5754 502.00 514.68 22.41
12791 125.5846 529.00 514.06 23.00
12792 125.5938 530.00 513.68 23.02
12793 125.6030 523.00 513.56 22.87
12794 125.6122 486.00 513.71 22.05
12795 125.6214 547.00 514.11 23.39
12796 125.6306 506.00 514.72 22.49
12797 125.6398 491.00 515.67 22.16
12798 125.6490 497.00 516.88 22.29
12799 125.6582 538.00 518.37 23.19
12800 125.6674 562.00 520.17 23.71
12801 125.6766 548.00 522.29 23.41
12802 125.6858 503.00 524.76 22.43
12803 125.6950 512.00 527.59 22.63
12804 125.7042 555.00 530.80 23.56
12805 125.7134 513.00 534.43 22.65
12806 125.7226 533.00 538.49 23.09
12807 125.7318 543.00 543.01 23.30
12808 125.7410 559.00 548.02 23.64
12809 125.7502 539.00 553.53 23.22
12810 125.7594 530.00 559.58 23.02
12811 125.7686 578.00 566.14 24.04
12812 125.7778 511.00 573.26 22.61
12813 125.7870 565.00 580.90 23.77
12814 125.7962 598.00 589.08 24.45
12815 125.8054 607.00 597.79 24.64
12816 125.8146 582.00 606.98 24.12
12817 125.8238 616.00 616.63 24.82
12818 125.8330 636.00 626.67 25.22
12819 125.8422 593.00 637.04 24.35
12820 125.8514 602.00 647.68 24.54
12821 125.8606 644.00 658.45 25.38
12822 125.8698 669.00 669.27 25.86
12823 125.8790 656.00 680.03 25.61
12824 125.8882 717.00 690.57 26.78
12825 125.8974 708.00 700.74 26.61
12826 125.9066 688.00 710.42 26.23
12827 125.9158 732.00 719.48 27.06
12828 125.9250 706.00 727.68 26.57
12829 125.9342 731.00 735.04 27.04
12830 125.9434 761.00 741.39 27.59
12831 125.9526 772.00 746.59 27.78
12832 125.9618 765.00 750.61 27.66
12833 125.9710 767.00 753.33 27.69
12834 125.9802 776.00 754.73 27.86
12835 125.9894 765.00 754.75 27.66
12836 125.9986 819.00 753.40 28.62
12837 126.0078 760.00 750.68 27.57
12838 126.0170 761.00 746.63 27.59
12839 126.0262 742.00 741.33 27.24
12840 126.0354 738.00 734.87 27.17
12841 126.0446 747.00 727.36 27.33
12842 126.0538 738.00 718.94 27.17
12843 126.0630 674.00 709.78 25.96
12844 126.0722 693.00 700.03 26.32
12845 126.0814 728.00 689.84 26.98
12846 126.0906 645.00 679.41 25.40
12847 126.0998 650.00 668.84 25.50
12848 126.1090 642.00 658.33 25.34
12849 126.1182 674.00 647.97 25.96
12850 126.1274 636.00 637.90 25.22
12851 126.1366 625.00 628.21 25.00
12852 126.1458 623.00 618.99 24.96
12853 126.1550 612.00 610.32 24.74
12854 126.1642 584.00 602.23 24.17
12855 126.1734 596.00 594.80 24.41
12856 126.1826 586.00 588.03 24.21
12857 126.1918 610.00 581.95 24.70
12858 126.2010 574.00 576.59 23.96
12859 126.2102 589.00 571.93 24.27
12860 126.2194 594.00 567.98 24.37
12861 126.2286 589.00 564.73 24.27
12862 126.2378 576.00 562.18 24.00
12863 126.2470 567.00 560.30 23.81
12864 126.2562 580.00 559.09 24.08
12865 126.2654 566.00 558.53 23.79
12866 126.2746 563.00 558.60 23.73
12867 126.2838 587.00 559.29 24.23
12868 126.2930 558.00 560.58 23.62
12869 126.3022 597.00 562.47 24.43
12870 126.3114 602.00 564.94 24.54
12871 126.3206 582.00 567.99 24.12
12872 126.3298 610.00 571.60 24.70
12873 126.3390 573.00 575.76 23.94
12874 126.3482 563.00 580.48 23.73
12875 126.3574 566.00 585.73 23.79
12876 126.3666 607.00 591.54 24.64
12877 126.3758 610.00 597.87 24.70
12878 126.3850 600.00 604.72 24.49
12879 126.3942 580.00 612.09 24.08
12880 126.4034 606.00 619.94 24.62
12881 126.4126 635.00 628.27 25.20
12882 126.4218 616.00 637.07 24.82
12883 126.4310 619.00 646.25 24.88
12884 126.4402 659.00 655.76 25.67
12885 126.4494 651.00 665.54 25.51
12886 126.4586 669.00 675.56 25.86
12887 126.4678 698.00 685.68 26.42
12888 126.4770 669.00 695.84 25.86
12889 126.4862 691.00 705.91 26.29
12890 126.4954 713.00 715.78 26.70
12891 126.5046 730.00 725.34 27.02
12892 126.5138 740.00 734.45 27.20
12893 126.5230 786.00 742.98 28.04
12894 126.5322 737.00 750.82 27.15
12895 126.5414 758.00 757.82 27.53
12896 126.5506 804.00 763.85 28.35
12897 126.5598 774.00 768.83 27.82
12898 126.5690 809.00 772.67 28.44
12899 126.5782 805.00 775.33 28.37
12900 126.5874 821.00 776.76 28.65
12901 126.5966 792.00 776.95 28.14
12902 126.6058 887.00 775.95 29.78
12903 126.6150 845.00 773.83 29.07
12904 126.6242 821.00 770.70 28.65
12905 126.6334 834.00 766.67 28.88
12906 126.6426 833.00 761.87 28.86
12907 126.6518 801.00 756.44 28.30
12908 126.6610 773.00 750.55 27.80
12909 126.6702 744.00 744.24 27.28
12910 126.6794 726.00 737.66 26.94
12911 126.6886 759.00 730.92 27.55
12912 126.6978 749.00 724.23 27.37
12913 126.7070 709.00 717.41 26.63
12914 126.7162 692.00 710.70 26.31
12915 126.7254 694.00 704.04 26.34
12916 126.7346 688.00 697.49 26.23
12917 126.7438 710.00 691.11 26.65
12918 126.7530 695.00 684.90 26.36
12919 126.7622 678.00 678.88 26.04
12920 126.7714 704.00 673.07 26.53
12921 126.7806 686.00 667.48 26.19
12922 126.7898 639.00 662.09 25.28
12923 126.7990 646.00 656.91 25.42
12924 126.8082 637.00 651.95 25.24
12925 126.8174 622.00 647.17 24.94
12926 126.8266 657.00 642.60 25.63
12927 126.8358 642.00 638.20 25.34
12928 126.8450 626.00 633.97 25.02
12929 126.8542 674.00 629.97 25.96
12930 126.8634 660.00 626.09 25.69
12931 126.8726 593.00 622.40 24.35
12932 126.8818 655.00 618.92 25.59
12933 126.8910 588.00 615.68 24.25
12934 126.9002 651.00 612.71 25.51
12935 126.9094 593.00 610.04 24.35
12936 126.9186 675.00 607.73 25.98
12937 126.9278 616.00 605.80 24.82
12938 126.9370 610.00 604.31 24.70
12939 126.9462 598.00 603.25 24.45
12940 126.9554 634.00 602.76 25.18
12941 126.9646 610.00 602.83 24.70
12942 126.9738 613.00 603.48 24.76
12943 126.9830 564.00 604.74 23.75
12944 126.9922 592.00 606.63 24.33
12945 127.0014 620.00 609.15 24.90
12946 127.0106 633.00 612.31 25.16
12947 127.0198 564.00 616.09 23.75
12948 127.0290 583.00 620.47 24.15
12949 127.0382 609.00 625.42 24.68
12950 127.0474 630.00 630.91 25.10
12951 127.0566 616.00 636.86 24.82
12952 127.0658 649.00 643.22 25.48
12953 127.0750 606.00 649.86 24.62
12954 127.0842 608.00 656.80 24.66
12955 127.0934 652.00 663.91 25.53
12956 127.1026 689.00 671.07 26.25
12957 127.1118 663.00 678.18 25.75
12958 127.1210 630.00 685.10 25.10
12959 127.1302 668.00 691.74 25.85
12960 127.1394 692.00 697.97 26.31
12961 127.1486 744.00 703.64 27.28
12962 127.1578 740.00 708.66 27.20
12963 127.1670 719.00 712.88 26.81
12964 127.1762 762.00 716.23 27.60
12965 127.1854 698.00 718.60 26.42
12966 127.1946 742.00 719.95 27.24
12967 127.2038 750.00 720.24 27.39
12968 127.2130 729.00 719.46 27.00
12969 127.2222 742.00 717.64 27.24
12970 127.2314 790.00 714.90 28.11
12971 127.2406 724.00 711.23 26.91
12972 127.2498 731.00 706.79 27.04
12973 127.2590 699.00 701.72 26.44
12974 127.2682 696.00 696.13 26.38
12975 127.2774 693.00 690.16 26.32
12976 127.2866 649.00 683.96 25.48
12977 127.2958 666.00 677.65 25.81
12978 127.3050 733.00 671.36 27.07
12979 127.3142 692.00 665.18 26.31
12980 127.3234 667.00 659.25 25.83
12981 127.3326 646.00 653.57 25.42
12982 127.3418 634.00 648.25 25.18
12983 127.3510 651.00 643.32 25.51
12984 127.3602 638.00 638.82 25.26
12985 127.3694 614.00 634.78 24.78
12986 127.3786 625.00 631.20 25.00
12987 127.3878 631.00 628.07 25.12
12988 127.3970 646.00 625.40 25.42
12989 127.4062 602.00 623.15 24.54
12990 127.4154 639.00 621.32 25.28
12991 127.4246 607.00 619.86 24.64
12992 127.4338 648.00 618.77 25.46
12993 127.4430 595.00 618.00 24.39
12994 127.4522 622.00 617.55 24.94
12995 127.4614 632.00 617.40 25.14
12996 127.4706 597.00 617.54 24.43
12997 127.4798 596.00 617.97 24.41
12998 127.4890 580.00 618.70 24.08
12999 127.4982 598.00 619.75 24.45
13000 127.5074 605.00 621.13 24.60
13001 127.5166 622.00 622.89 24.94
13002 127.5258 605.00 625.02 24.60
13003 127.5350 636.00 627.59 25.22
13004 127.5442 597.00 630.59 24.43
13005 127.5534 636.00 634.01 25.22
13006 127.5626 603.00 637.92 24.56
13007 127.5718 640.00 642.28 25.30
13008 127.5810 652.00 647.07 25.53
13009 127.5902 636.00 652.28 25.22
13010 127.5994 664.00 657.84 25.77
13011 127.6086 649.00 663.74 25.48
13012 127.6178 639.00 669.87 25.28
13013 127.6270 646.00 676.18 25.42
13014 127.6362 682.00 682.59 26.12
13015 127.6454 670.00 688.98 25.88
13016 127.6546 640.00 695.27 25.30
13017 127.6638 639.00 701.35 25.28
13018 127.6730 749.00 707.13 27.37
13019 127.6822 693.00 712.51 26.32
13020 127.6914 685.00 717.40 26.17
13021 127.7006 709.00 721.74 26.63
13022 127.7098 772.00 725.45 27.78
13023 127.7190 732.00 728.51 27.06
13024 127.7282 764.00 730.89 27.64
13025 127.7374 710.00 732.58 26.65
13026 127.7466 748.00 733.58 27.35
13027 127.7558 730.00 733.92 27.02
13028 127.7650 707.00 733.60 26.59
13029 127.7742 728.00 732.65 26.98
13030 127.7834 736.00 731.05 27.13
13031 127.7926 759.00 728.93 27.55
13032 127.8018 782.00 726.28 27.96
13033 127.8110 762.00 723.11 27.60
13034 127.8202 772.00 719.48 27.78
13035 127.8294 681.00 715.43 26.10
13036 127.8386 707.00 710.98 26.59
13037 127.8478 727.00 706.21 26.96
13038 127.8570 727.00 701.17 26.96
13039 127.8662 679.00 695.95 26.06
13040 127.8754 721.00 690.64 26.85
13041 127.8846 703.00 685.32 26.51
13042 127.8938 679.00 680.09 26.06
13043 127.9030 652.00 675.02 25.53
13044 127.9122 669.00 670.23 25.86
13045 127.9214 672.00 665.79 25.92
13046 127.9306 600.00 661.77 24.49
13047 127.9398 614.00 658.26 24.78
13048 127.9490 612.00 655.31 24.74
13049 127.9582 655.00 652.96 25.59
13050 127.9674 597.00 651.27 24.43
13051 127.9766 631.00 650.27 25.12
13052 127.9858 618.00 649.97 24.86
13053 127.9950 616.00 650.38 24.82
13054 128.0042 618.00 651.53 24.86
13055 128.0134 640.00 653.36 25.30
13056 128.0226 637.00 655.88 25.24
13057 128.0318 693.00 659.03 26.32
13058 128.0410 636.00 662.79 25.22
13059 128.0502 662.00 666.93 25.73
13060 128.0594 651.00 671.76 25.51
13061 128.0686 612.00 676.95 24.74
13062 128.0778 657.00 682.50 25.63
13063 128.0870 646.00 688.28 25.42
13064 128.0962 684.00 694.26 26.15
13065 128.1054 726.00 700.34 26.94
13066 128.1146 698.00 706.43 26.42
13067 128.1238 671.00 712.48 25.90
13068 128.1330 712.00 718.39 26.68
13069 128.1422 679.00 724.18 26.06
13070 128.1514 719.00 729.76 26.81
13071 128.1606 765.00 735.11 27.66
13072 128.1698 705.00 740.18 26.55
13073 128.1790 690.00 744.94 26.27
13074 128.1882 739.00 749.37 27.18
13075 128.1974 711.00 753.42 26.66
13076 128.2066 713.00 757.07 26.70
13077 128.2158 767.00 760.25 27.69
13078 128.2250 717.00 762.92 26.78
13079 128.2342 734.00 765.04 27.09
13080 128.2434 770.00 766.56 27.75
13081 128.2526 722.00 767.41 26.87
13082 128.2618 801.00 767.55 28.30
13083 128.2710 822.00 766.93 28.67
13084 128.2802 785.00 765.53 28.02
13085 128.2894 769.00 763.36 27.73
13086 128.2986 817.00 760.40 28.58
13087 128.3078 809.00 756.71 28.44
13088 128.3170 829.00 752.33 28.79
13089 128.3262 779.00 747.32 27.91
13090 128.3354 824.00 741.77 28.71
13091 128.3446 758.00 735.76 27.53
13092 128.3538 729.00 729.41 27.00
13093 128.3630 770.00 722.77 27.75
13094 128.3722 695.00 715.97 26.36
13095 128.3814 683.00 709.09 26.13
13096 128.3906 714.00 702.24 26.72
13097 128.3998 744.00 695.48 27.28
13098 128.4090 705.00 688.91 26.55
13099 128.4182 723.00 682.60 26.89
13100 128.4274 685.00 676.59 26.17
13101 128.4366 704.00 670.94 26.53
13102 128.4458 675.00 665.67 25.98
13103 128.4550 665.00 660.84 25.79
13104 128.4642 654.00 656.45 25.57
13105 128.4734 648.00 652.52 25.46
13106 128.4826 649.00 649.06 25.48
13107 128.4918 587.00 646.06 24.23
13108 128.5010 595.00 643.46 24.39
13109 128.5102 651.00 641.38 25.51
13110 128.5194 611.00 639.73 24.72
13111 128.5286 620.00 638.51 24.90
13112 128.5378 625.00 637.68 25.00
13113 128.5470 650.00 637.21 25.50
13114 128.5562 627.00 637.06 25.04
13115 128.5654 617.00 637.20 24.84
13116 128.5746 644.00 637.56 25.38
13117 128.5838 652.00 638.09 25.53
13118 128.5930 606.00 638.72 24.62
13119 128.6022 632.00 639.40 25.14
13120 128.6114 660.00 640.04 25.69
13121 128.6206 661.00 640.59 25.71
13122 128.6298 654.00 640.97 25.57
13123 128.6390 686.00 641.13 26.19
13124 128.6482 708.00 641.02 26.61
13125 128.6574 682.00 640.60 26.12
13126 128.6666 671.00 639.84 25.90
13127 128.6758 668.00 638.74 25.85
13128 128.6850 658.00 637.29 25.65
13129 128.6942 682.00 635.55 26.12
13130 128.7034 650.00 633.50 25.50
13131 128.7126 717.00 631.22 26.78
13132 128.7218 660.00 628.75 25.69
13133 128.7310 663.00 626.15 25.75
13134 128.7402 682.00 623.47 26.12
13135 128.7494 648.00 620.77 25.46
13136 128.7586 581.00 618.11 24.10
13137 128.7678 634.00 615.53 25.18
13138 128.7770 584.00 613.06 24.17
13139 128.7862 563.00 610.75 23.73
13140 128.7954 610.00 608.63 24.70
13141 128.8046 629.00 606.70 25.08
13142 128.8138 592.00 605.00 24.33
13143 128.8230 582.00 603.51 24.12
13144 128.8322 568.00 602.24 23.83
13145 128.8414 582.00 601.18 24.12
13146 128.8506 631.00 600.32 25.12
13147 128.8598 594.00 599.62 24.37
13148 128.8690 623.00 599.09 24.96
13149 128.8782 569.00 598.68 23.85
13150 128.8874 614.00 598.38 24.78
13151 128.8966 584.00 598.16 24.17
13152 128.9058 605.00 598.01 24.60
13153 128.9150 601.00 597.89 24.52
13154 128.9242 604.00 597.81 24.58
13155 128.9334 657.00 597.76 25.63
13156 128.9426 605.00 597.72 24.60
13157 128.9518 577.00 597.72 24.02
13158 128.9610 579.00 597.75 24.06
13159 128.9702 644.00 597.83 25.38
13160 128.9794 571.00 597.95 23.90
13161 128.9886 617.00 598.14 24.84
13162 128.9978 612.00 598.39 24.74
13163 129.0070 597.00 598.71 24.43
13164 129.0162 583.00 599.10 24.15
13165 129.0254 595.00 599.53 24.39
13166 129.0346 591.00 600.02 24.31
13167 129.0438 620.00 600.52 24.90
13168 129.0530 606.00 601.03 24.62
13169 129.0622 635.00 601.51 25.20
13170 129.0714 573.00 601.92 23.94
13171 129.0806 643.00 602.25 25.36
13172 129.0898 618.00 602.45 24.86
13173 129.0990 577.00 602.49 24.02
13174 129.1082 614.00 602.36 24.78
13175 129.1174 598.00 602.02 24.45
13176 129.1266 629.00 601.46 25.08
13177 129.1358 626.00 600.68 25.02
13178 129.1450 578.00 599.67 24.04
13179 129.1542 567.00 598.47 23.81
13180 129.1634 604.00 597.02 24.58
13181 129.1726 598.00 595.39 24.45
13182 129.1818 602.00 593.55 24.54
13183 129.1910 534.00 591.53 23.11
13184 129.2002 567.00 589.32 23.81
13185 129.2094 641.00 587.02 25.32
13186 129.2186 613.00 584.60 24.76
13187 129.2278 606.00 582.08 24.62
13188 129.2370 588.00 579.48 24.25
13189 129.2462 598.00 576.87 24.45
13190 129.2554 622.00 574.15 24.94
13191 129.2646 616.00 571.40 24.82
13192 129.2738 575.00 568.63 23.98
13193 129.2830 580.00 565.87 24.08
13194 129.2922 586.00 563.06 24.21
13195 129.3014 595.00 560.38 24.39
13196 129.3106 585.00 557.78 24.19
13197 129.3198 581.00 555.23 24.10
13198 129.3290 627.00 552.78 25.04
13199 129.3382 594.00 550.44 24.37
13200 129.3474 544.00 548.21 23.32
13201 129.3566 538.00 546.11 23.19
13202 129.3658 576.00 544.15 24.00
13203 129.3750 551.00 542.32 23.47
13204 129.3842 573.00 540.64 23.94
13205 129.3934 493.00 539.10 22.20
13206 129.4026 547.00 537.70 23.39
13207 129.4118 570.00 536.44 23.87
13208 129.4210 576.00 535.32 24.00
13209 129.4302 566.00 534.34 23.79
13210 129.4394 569.00 533.49 23.85
13211 129.4486 536.00 532.76 23.15
13212 129.4578 593.00 532.16 24.35
13213 129.4670 569.00 531.66 23.85
13214 129.4762 551.00 531.28 23.47
13215 129.4854 553.00 531.00 23.52
13216 129.4946 543.00 530.81 23.30
13217 129.5038 519.00 530.71 22.78
13218 129.5130 576.00 530.69 24.00
13219 129.5222 525.00 530.75 22.91
13220 129.5314 563.00 530.88 23.73
13221 129.5406 538.00 531.08 23.19
13222 129.5498 534.00 531.34 23.11
13223 129.5590 538.00 531.65 23.19
13224 129.5682 543.00 532.01 23.30
13225 129.5774 561.00 532.43 23.69
13226 129.5866 560.00 532.89 23.66
13227 129.5958 585.00 533.42 24.19
13228 129.6050 535.00 533.99 23.13
13229 129.6142 565.00 534.61 23.77
13230 129.6234 545.00 535.28 23.35
13231 129.6326 571.00 536.02 23.90
13232 129.6418 572.00 536.83 23.92
13233 129.6510 548.00 537.72 23.41
13234 129.6602 571.00 538.70 23.90
13235 129.6694 558.00 539.81 23.62
13236 129.6786 554.00 541.00 23.54
13237 129.6878 606.00 542.32 24.62
13238 129.6970 586.00 543.77 24.21
13239 129.7062 573.00 545.38 23.94
13240 129.7154 539.00 547.15 23.22
13241 129.7246 564.00 549.11 23.75
13242 129.7338 594.00 551.26 24.37
13243 129.7430 574.00 553.63 23.96
13244 129.7522 566.00 556.22 23.79
13245 129.7614 608.00 559.04 24.66
13246 129.7706 621.00 562.12 24.92
13247 129.7798 576.00 565.45 24.00
13248 129.7890 548.00 569.05 23.41
13249 129.7982 579.00 572.94 24.06
13250 129.8074 588.00 577.12 24.25
13251 129.8166 599.00 581.60 24.47
13252 129.8258 610.00 586.39 24.70
13253 129.8350 580.00 591.49 24.08
13254 129.8442 620.00 596.91 24.90
13255 129.8534 602.00 602.63 24.54
13256 129.8626 611.00 608.69 24.72
13257 129.8718 592.00 615.07 24.33
13258 129.8810 632.00 621.76 25.14
13259 129.8902 671.00 628.72 25.90
13260 129.8994 694.00 636.05 26.34
13261 129.9086 647.00 643.69 25.44
13262 129.9178 620.00 651.68 24.90
13263 129.9270 745.00 660.03 27.29
13264 129.9362 703.00 668.73 26.51
13265 129.9454 711.00 677.82 26.66
13266 129.9546 731.00 687.30 27.04
13267 129.9638 716.00 697.21 26.76
13268 129.9730 762.00 707.61 27.60
13269 129.9822 702.00 718.51 26.50
13270 129.9914 754.00 729.99 27.46
13271 130.0006 718.00 742.09 26.80
13272 130.0098 690.00 754.87 26.27
13273 130.0190 748.00 768.36 27.35
13274 130.0282 771.00 782.64 27.77
13275 130.0374 728.00 797.67 26.98
13276 130.0466 762.00 813.56 27.60
13277 130.0558 803.00 830.23 28.34
13278 130.0650 833.00 847.60 28.86
13279 130.0742 830.00 865.79 28.81
13280 130.0834 812.00 884.62 28.50
13281 130.0926 814.00 904.07 28.53
13282 130.1018 852.00 923.96 29.19
13283 130.1110 861.00 944.22 29.34
13284 130.1202 908.00 964.66 30.13
13285 130.1294 897.00 985.12 29.95
13286 130.1386 877.00 1005.45 29.61
13287 130.1478 963.00 1025.45 31.03
13288 130.1570 921.00 1044.88 30.35
13289 130.1662 1023.00 1063.58 31.98
13290 130.1754 986.00 1081.28 31.40
13291 130.1846 1063.00 1097.74 32.60
13292 130.1938 1114.00 1112.75 33.38
13293 130.2030 1085.00 1126.08 32.94
13294 130.2122 1123.00 1137.55 33.51
13295 130.2214 1180.00 1146.91 34.35
13296 130.2306 1166.00 1154.01 34.15
13297 130.2398 1212.00 1158.68 34.81
13298 130.2490 1212.00 1160.83 34.81
13299 130.2582 1190.00 1160.40 34.50
13300 130.2674 1269.00 1157.38 35.62
13301 130.2766 1200.00 1151.81 34.64
13302 130.2858 1189.00 1143.78 34.48
13303 130.2950 1221.00 1133.44 34.94
13304 130.3042 1108.00 1121.01 33.29
13305 130.3134 1151.00 1106.66 33.93
13306 130.3226 1068.00 1090.68 32.68
13307 130.3318 1088.00 1073.32 32.98
13308 130.3410 1092.00 1054.82 33.05
13309 130.3502 1056.00 1035.41 32.50
13310 130.3594 979.00 1015.39 31.29
13311 130.3686 959.00 994.92 30.97
13312 130.3778 946.00 974.26 30.76
13313 130.3870 945.00 953.50 30.74
13314 130.3962 878.00 932.84 29.63
13315 130.4053 865.00 912.44 29.41
13316 130.4146 815.00 892.30 28.55
13317 130.4238 800.00 872.59 28.28
13318 130.4330 804.00 853.32 28.35
13319 130.4422 787.00 834.59 28.05
13320 130.4514 772.00 816.42 27.78
13321 130.4606 740.00 798.90 27.20
13322 130.4698 787.00 782.04 28.05
13323 130.4790 745.00 765.88 27.29
13324 130.4882 733.00 750.42 27.07
13325 130.4974 731.00 735.73 27.04
13326 130.5066 753.00 721.80 27.44
13327 130.5158 718.00 708.66 26.80
13328 130.5250 708.00 696.36 26.61
13329 130.5342 669.00 684.84 25.86
13330 130.5434 711.00 674.17 26.66
13331 130.5526 697.00 664.30 26.40
13332 130.5618 646.00 655.18 25.42
13333 130.5710 683.00 646.94 26.13
13334 130.5802 658.00 639.51 25.65
13335 130.5894 640.00 632.87 25.30
13336 130.5986 634.00 627.04 25.18
13337 130.6078 668.00 621.96 25.85
13338 130.6170 607.00 617.62 24.64
13339 130.6262 650.00 614.00 25.50
13340 130.6354 654.00 611.09 25.57
13341 130.6446 597.00 608.87 24.43
13342 130.6538 604.00 607.31 24.58
13343 130.6630 644.00 606.40 25.38
13344 130.6722 614.00 606.09 24.78
13345 130.6814 639.00 606.36 25.28
13346 130.6906 653.00 607.19 25.55
13347 130.6998 603.00 608.54 24.56
13348 130.7090 619.00 610.36 24.88
13349 130.7182 599.00 612.63 24.47
13350 130.7274 617.00 615.30 24.84
13351 130.7366 634.00 618.31 25.18
13352 130.7458 627.00 621.62 25.04
13353 130.7550 611.00 625.18 24.72
13354 130.7642 617.00 628.93 24.84
13355 130.7734 649.00 632.81 25.48
13356 130.7826 632.00 636.75 25.14
13357 130.7918 639.00 640.69 25.28
13358 130.8010 648.00 644.57 25.46
13359 130.8102 640.00 648.32 25.30
13360 130.8194 684.00 651.88 26.15
13361 130.8286 726.00 655.21 26.94
13362 130.8378 690.00 658.23 26.27
13363 130.8470 687.00 660.92 26.21
13364 130.8562 653.00 663.26 25.55
13365 130.8654 685.00 665.19 26.17
13366 130.8746 682.00 666.74 26.12
13367 130.8837 689.00 667.82 26.25
13368 130.8930 681.00 668.46 26.10
13369 130.9022 654.00 668.67 25.57
13370 130.9114 663.00 668.44 25.75
13371 130.9206 664.00 667.79 25.77
13372 130.9298 692.00 666.73 26.31
13373 130.9390 673.00 665.28 25.94
13374 130.9482 687.00 663.47 26.21
13375 130.9574 625.00 661.33 25.00
13376 130.9666 635.00 658.89 25.20
13377 130.9758 655.00 656.19 25.59
13378 130.9850 672.00 653.27 25.92
13379 130.9942 634.00 650.18 25.18
13380 131.0034 631.00 646.96 25.12
13381 131.0126 610.00 643.64 24.70
13382 131.0217 645.00 640.28 25.40
13383 131.0309 620.00 636.90 24.90
13384 131.0401 640.00 633.53 25.30
13385 131.0493 643.00 630.22 25.36
13386 131.0586 647.00 626.98 25.44
13387 131.0678 615.00 623.84 24.80
13388 131.0770 637.00 620.80 25.24
13389 131.0862 634.00 617.90 25.18
13390 131.0954 611.00 615.08 24.72
13391 131.1046 607.00 612.47 24.64
13392 131.1138 588.00 610.01 24.25
13393 131.1230 634.00 607.72 25.18
13394 131.1322 645.00 605.61 25.40
13395 131.1414 614.00 603.69 24.78
13396 131.1506 653.00 601.96 25.55
13397 131.1597 634.00 600.42 25.18
13398 131.1689 602.00 599.08 24.54
13399 131.1781 594.00 597.94 24.37
13400 131.1873 608.00 597.01 24.66
13401 131.1965 616.00 596.28 24.82
13402 131.2057 573.00 595.75 23.94
13403 131.2150 605.00 595.42 24.60
13404 131.2242 558.00 595.29 23.62
13405 131.2334 587.00 595.36 24.23
13406 131.2426 592.00 595.61 24.33
13407 131.2518 587.00 596.06 24.23
13408 131.2610 605.00 596.69 24.60
13409 131.2702 612.00 597.49 24.74
13410 131.2794 595.00 598.47 24.39
13411 131.2886 578.00 599.59 24.04
13412 131.2977 663.00 600.84 25.75
13413 131.3069 650.00 602.22 25.50
13414 131.3161 632.00 603.71 25.14
13415 131.3253 595.00 605.27 24.39
13416 131.3345 575.00 606.91 23.98
13417 131.3438 648.00 608.58 25.46
13418 131.3530 665.00 610.28 25.79
13419 131.3621 618.00 611.98 24.86
13420 131.3714 629.00 613.67 25.08
13421 131.3806 616.00 615.33 24.82
13422 131.3898 612.00 616.95 24.74
13423 131.3990 562.00 618.52 23.71
13424 131.4082 608.00 620.03 24.66
13425 131.4174 595.00 621.48 24.39
13426 131.4266 593.00 622.87 24.35
13427 131.4357 673.00 624.21 25.94
13428 131.4449 635.00 625.51 25.20
13429 131.4541 590.00 626.78 24.29
13430 131.4633 681.00 628.06 26.10
13431 131.4725 594.00 629.35 24.37
13432 131.4818 612.00 630.69 24.74
13433 131.4910 635.00 632.10 25.20
13434 131.5001 590.00 633.62 24.29
13435 131.5093 619.00 635.27 24.88
13436 131.5185 638.00 637.09 25.26
13437 131.5278 598.00 639.08 24.45
13438 131.5370 658.00 641.31 25.65
13439 131.5462 606.00 643.78 24.62
13440 131.5554 607.00 646.50 24.64
13441 131.5645 586.00 649.49 24.21
13442 131.5737 658.00 652.73 25.65
13443 131.5829 613.00 656.27 24.76
13444 131.5921 617.00 660.06 24.84
13445 131.6013 619.00 664.07 24.88
13446 131.6105 690.00 668.29 26.27
13447 131.6198 664.00 672.66 25.77
13448 131.6290 646.00 677.13 25.42
13449 131.6381 659.00 681.64 25.67
13450 131.6473 680.00 686.12 26.08
13451 131.6565 642.00 690.56 25.34
13452 131.6657 712.00 694.80 26.68
13453 131.6749 682.00 698.77 26.12
13454 131.6842 696.00 702.42 26.38
13455 131.6934 708.00 705.66 26.61
13456 131.7025 597.00 708.42 24.43
13457 131.7117 726.00 710.63 26.94
13458 131.7209 785.00 712.21 28.02
13459 131.7301 747.00 713.20 27.33
13460 131.7393 709.00 713.51 26.63
13461 131.7486 725.00 713.14 26.93
13462 131.7578 733.00 712.06 27.07
13463 131.7670 718.00 710.30 26.80
13464 131.7761 755.00 707.89 27.48
13465 131.7853 747.00 704.85 27.33
13466 131.7945 725.00 701.23 26.93
13467 131.8037 715.00 697.09 26.74
13468 131.8129 714.00 692.51 26.72
13469 131.8221 703.00 687.56 26.51
13470 131.8313 701.00 682.28 26.48
13471 131.8405 690.00 676.76 26.27
13472 131.8497 675.00 671.06 25.98
13473 131.8589 690.00 665.25 26.27
13474 131.8681 680.00 659.38 26.08
13475 131.8773 647.00 653.50 25.44
13476 131.8866 630.00 647.68 25.10
13477 131.8958 662.00 641.94 25.73
13478 131.9050 664.00 636.34 25.77
13479 131.9141 591.00 630.92 24.31
13480 131.9233 597.00 625.70 24.43
13481 131.9325 602.00 620.69 24.54
13482 131.9417 607.00 615.96 24.64
13483 131.9509 617.00 611.50 24.84
13484 131.9601 616.00 607.32 24.82
13485 131.9693 608.00 603.45 24.66
13486 131.9785 626.00 599.92 25.02
13487 131.9877 563.00 596.66 23.73
13488 131.9969 598.00 593.70 24.45
13489 132.0061 577.00 591.04 24.02
13490 132.0154 586.00 588.67 24.21
13491 132.0246 693.00 586.58 26.32
13492 132.0338 591.00 584.75 24.31
13493 132.0430 569.00 583.17 23.85
13494 132.0521 602.00 581.83 24.54
13495 132.0613 610.00 580.67 24.70
13496 132.0705 545.00 579.70 23.35
13497 132.0797 593.00 578.88 24.35
13498 132.0889 569.00 578.20 23.85
13499 132.0981 571.00 577.63 23.90
13500 132.1073 565.00 577.15 23.77
13501 132.1165 550.00 576.73 23.45
13502 132.1257 569.00 576.33 23.85
13503 132.1349 586.00 576.00 24.21
13504 132.1441 576.00 575.69 24.00
13505 132.1533 554.00 575.38 23.54
13506 132.1626 555.00 575.08 23.56
13507 132.1718 571.00 574.77 23.90
13508 132.1809 605.00 574.44 24.60
13509 132.1901 565.00 574.11 23.77
13510 132.1993 562.00 573.77 23.71
13511 132.2085 578.00 573.42 24.04
13512 132.2177 564.00 573.08 23.75
13513 132.2269 534.00 572.79 23.11
13514 132.2361 584.00 572.46 24.17
13515 132.2453 597.00 572.14 24.43
13516 132.2545 584.00 571.83 24.17
13517 132.2637 631.00 571.55 25.12
13518 132.2729 511.00 571.28 22.61
13519 132.2821 568.00 571.04 23.83
13520 132.2913 582.00 570.83 24.12
13521 132.3005 567.00 570.70 23.81
13522 132.3097 553.00 570.53 23.52
13523 132.3189 568.00 570.37 23.83
13524 132.3281 587.00 570.23 24.23
13525 132.3373 559.00 570.09 23.64
13526 132.3465 525.00 569.96 22.91
13527 132.3557 570.00 569.82 23.87
13528 132.3649 562.00 569.68 23.71
13529 132.3741 547.00 569.53 23.39
13530 132.3833 602.00 569.36 24.54
13531 132.3925 624.00 569.17 24.98
13532 132.4017 578.00 568.93 24.04
13533 132.4109 568.00 568.68 23.83
13534 132.4201 546.00 568.42 23.37
13535 132.4293 562.00 568.12 23.71
13536 132.4385 595.00 567.81 24.39
13537 132.4477 575.00 567.47 23.98
13538 132.4569 558.00 567.12 23.62
13539 132.4661 534.00 566.77 23.11
13540 132.4753 601.00 566.42 24.52
13541 132.4845 555.00 566.09 23.56
13542 132.4937 526.00 565.78 22.93
13543 132.5029 573.00 565.51 23.94
13544 132.5121 525.00 565.29 22.91
13545 132.5213 546.00 565.14 23.37
13546 132.5305 543.00 565.09 23.30
13547 132.5397 604.00 565.12 24.58
13548 132.5489 576.00 565.27 24.00
13549 132.5581 548.00 565.55 23.41
13550 132.5673 627.00 565.98 25.04
13551 132.5765 571.00 566.58 23.90
13552 132.5857 612.00 567.36 24.74
13553 132.5949 567.00 568.33 23.81
13554 132.6041 609.00 569.52 24.68
13555 132.6133 583.00 570.92 24.15
13556 132.6225 593.00 572.61 24.35
13557 132.6317 585.00 574.55 24.19
13558 132.6409 623.00 576.79 24.96
13559 132.6501 601.00 579.33 24.52
13560 132.6593 582.00 582.18 24.12
13561 132.6685 595.00 585.36 24.39
13562 132.6777 620.00 588.90 24.90
13563 132.6869 609.00 592.80 24.68
13564 132.6961 622.00 597.09 24.94
13565 132.7053 596.00 601.78 24.41
13566 132.7145 558.00 606.86 23.62
13567 132.7237 649.00 612.36 25.48
13568 132.7329 571.00 618.26 23.90
13569 132.7421 574.00 624.59 23.96
13570 132.7513 604.00 631.32 24.58
13571 132.7605 599.00 638.48 24.47
13572 132.7697 645.00 646.04 25.40
13573 132.7789 611.00 653.99 24.72
13574 132.7881 673.00 662.29 25.94
13575 132.7973 639.00 670.94 25.28
13576 132.8065 643.00 679.90 25.36
13577 132.8157 661.00 689.16 25.71
13578 132.8249 650.00 698.65 25.50
13579 132.8341 672.00 708.33 25.92
13580 132.8433 707.00 718.16 26.59
13581 132.8525 667.00 728.08 25.83
13582 132.8617 760.00 738.03 27.57
13583 132.8709 693.00 747.91 26.32
13584 132.8801 700.00 757.72 26.46
13585 132.8893 740.00 767.33 27.20
13586 132.8985 737.00 776.68 27.15
13587 132.9077 746.00 785.68 27.31
13588 132.9169 794.00 794.26 28.18
13589 132.9261 748.00 802.34 27.35
13590 132.9353 772.00 809.78 27.78
13591 132.9445 807.00 816.58 28.41
13592 132.9537 818.00 822.63 28.60
13593 132.9629 827.00 827.88 28.76
13594 132.9721 812.00 832.26 28.50
13595 132.9813 818.00 835.74 28.60
13596 132.9905 832.00 838.26 28.84
13597 132.9997 867.00 839.81 29.44
13598 133.0089 821.00 840.36 28.65
13599 133.0181 859.00 839.92 29.31
13600 133.0273 834.00 838.45 28.88
13601 133.0365 858.00 835.99 29.29
13602 133.0457 870.00 832.56 29.50
13603 133.0549 807.00 828.20 28.41
13604 133.0641 858.00 822.96 29.29
13605 133.0733 818.00 816.93 28.60
13606 133.0825 845.00 810.14 29.07
13607 133.0917 847.00 802.70 29.10
13608 133.1009 818.00 794.69 28.60
13609 133.1101 798.00 786.26 28.25
13610 133.1193 799.00 777.44 28.27
13611 133.1285 808.00 768.38 28.43
13612 133.1377 809.00 759.17 28.44
13613 133.1469 757.00 749.95 27.51
13614 133.1561 736.00 740.77 27.13
13615 133.1653 753.00 731.75 27.44
13616 133.1745 743.00 722.99 27.26
13617 133.1837 725.00 714.56 26.93
13618 133.1929 762.00 706.54 27.60
13619 133.2021 756.00 698.99 27.50
13620 133.2113 723.00 691.98 26.89
13621 133.2205 667.00 685.54 25.83
13622 133.2297 657.00 679.72 25.63
13623 133.2389 694.00 674.54 26.34
13624 133.2481 677.00 670.04 26.02
13625 133.2573 673.00 666.21 25.94
13626 133.2665 654.00 663.07 25.57
13627 133.2757 672.00 660.61 25.92
13628 133.2849 637.00 658.82 25.24
13629 133.2941 621.00 657.68 24.92
13630 133.3033 642.00 657.16 25.34
13631 133.3125 618.00 657.24 24.86
13632 133.3217 648.00 657.89 25.46
13633 133.3309 622.00 659.02 24.94
13634 133.3401 654.00 660.62 25.57
13635 133.3493 667.00 662.61 25.83
13636 133.3585 656.00 664.96 25.61
13637 133.3677 667.00 667.59 25.83
13638 133.3769 670.00 670.44 25.88
13639 133.3861 652.00 673.46 25.53
13640 133.3953 643.00 676.56 25.36
13641 133.4045 681.00 679.67 26.10
13642 133.4137 649.00 682.73 25.48
13643 133.4229 642.00 685.70 25.34
13644 133.4321 715.00 688.48 26.74
13645 133.4413 667.00 691.04 25.83
13646 133.4505 716.00 693.32 26.76
13647 133.4597 717.00 695.26 26.78
13648 133.4689 721.00 696.84 26.85
13649 133.4781 693.00 698.02 26.32
13650 133.4873 684.00 698.78 26.15
13651 133.4965 673.00 699.09 25.94
13652 133.5057 730.00 698.97 27.02
13653 133.5149 756.00 698.42 27.50
13654 133.5241 653.00 697.43 25.55
13655 133.5333 692.00 696.06 26.31
13656 133.5425 738.00 694.35 27.17
13657 133.5517 686.00 692.33 26.19
13658 133.5609 675.00 690.04 25.98
13659 133.5701 713.00 687.54 26.70
13660 133.5793 703.00 684.88 26.51
13661 133.5885 720.00 682.11 26.83
13662 133.5977 706.00 679.28 26.57
13663 133.6069 698.00 676.45 26.42
13664 133.6161 688.00 673.65 26.23
13665 133.6253 668.00 670.94 25.85
13666 133.6345 707.00 668.33 26.59
13667 133.6437 696.00 665.86 26.38
13668 133.6529 643.00 663.57 25.36
13669 133.6621 704.00 661.47 26.53
13670 133.6713 637.00 659.57 25.24
13671 133.6805 665.00 657.89 25.79
13672 133.6897 604.00 656.44 24.58
13673 133.6989 611.00 655.22 24.72
13674 133.7081 627.00 654.20 25.04
13675 133.7173 660.00 653.40 25.69
13676 133.7265 627.00 652.86 25.04
13677 133.7357 621.00 652.52 24.92
13678 133.7449 699.00 652.38 26.44
13679 133.7541 672.00 652.41 25.92
13680 133.7633 673.00 652.62 25.94
13681 133.7725 634.00 652.97 25.18
13682 133.7817 649.00 653.44 25.48
13683 133.7909 661.00 654.02 25.71
13684 133.8001 678.00 654.70 26.04
13685 133.8093 676.00 655.36 26.00
13686 133.8185 662.00 656.11 25.73
13687 133.8277 638.00 656.87 25.26
13688 133.8369 686.00 657.63 26.19
13689 133.8461 599.00 658.21 24.47
13690 133.8553 638.00 658.86 25.26
13691 133.8645 693.00 659.42 26.32
13692 133.8737 700.00 659.79 26.46
13693 133.8829 668.00 660.08 25.85
13694 133.8921 680.00 660.19 26.08
13695 133.9013 638.00 660.10 25.26
13696 133.9105 693.00 659.80 26.32
13697 133.9197 663.00 659.25 25.75
13698 133.9289 698.00 658.45 26.42
13699 133.9381 719.00 657.38 26.81
13700 133.9473 716.00 656.07 26.76
13701 133.9565 673.00 654.48 25.94
13702 133.9657 672.00 652.65 25.92
13703 133.9749 698.00 650.57 26.42
13704 133.9841 647.00 648.28 25.44
13705 133.9933 632.00 645.80 25.14
13706 134.0025 672.00 643.14 25.92
13707 134.0117 657.00 640.34 25.63
13708 134.0209 678.00 637.42 26.04
13709 134.0301 608.00 634.38 24.66
13710 134.0393 621.00 631.31 24.92
13711 134.0485 604.00 628.23 24.58
13712 134.0577 596.00 625.13 24.41
13713 134.0669 608.00 622.05 24.66
13714 134.0761 630.00 619.02 25.10
13715 134.0853 639.00 616.05 25.28
13716 134.0945 598.00 613.17 24.45
13717 134.1037 619.00 610.40 24.88
13718 134.1129 595.00 607.76 24.39
13719 134.1221 627.00 605.25 25.04
13720 134.1313 599.00 602.90 24.47
13721 134.1405 620.00 600.72 24.90
13722 134.1497 601.00 598.71 24.52
13723 134.1589 588.00 596.90 24.25
13724 134.1681 606.00 595.28 24.62
13725 134.1773 580.00 593.86 24.08
13726 134.1865 578.00 592.66 24.04
13727 134.1957 576.00 591.66 24.00
13728 134.2049 585.00 590.89 24.19
13729 134.2141 598.00 590.33 24.45
13730 134.2233 571.00 590.00 23.90
13731 134.2325 590.00 589.90 24.29
13732 134.2417 505.00 590.02 22.47
13733 134.2509 589.00 590.38 24.27
13734 134.2601 605.00 590.97 24.60
13735 134.2693 638.00 591.79 25.26
13736 134.2785 590.00 592.86 24.29
13737 134.2877 575.00 594.15 23.98
13738 134.2969 589.00 595.68 24.27
13739 134.3061 592.00 597.43 24.33
13740 134.3153 598.00 599.40 24.45
13741 134.3245 605.00 601.60 24.60
13742 134.3337 588.00 604.00 24.25
13743 134.3429 585.00 606.61 24.19
13744 134.3521 606.00 609.40 24.62
13745 134.3613 611.00 612.37 24.72
13746 134.3705 584.00 615.48 24.17
13747 134.3797 620.00 618.72 24.90
13748 134.3889 579.00 622.08 24.06
13749 134.3981 649.00 625.50 25.48
13750 134.4073 626.00 628.99 25.02
13751 134.4165 603.00 632.48 24.56
13752 134.4257 641.00 635.97 25.32
13753 134.4349 636.00 639.39 25.22
13754 134.4441 618.00 642.73 24.86
13755 134.4533 606.00 645.94 24.62
13756 134.4625 642.00 649.00 25.34
13757 134.4717 652.00 651.81 25.53
13758 134.4809 657.00 654.44 25.63
13759 134.4901 676.00 656.80 26.00
13760 134.4993 708.00 658.88 26.61
13761 134.5085 625.00 660.64 25.00
13762 134.5177 676.00 662.09 26.00
13763 134.5269 720.00 663.20 26.83
13764 134.5361 677.00 663.99 26.02
13765 134.5453 696.00 664.46 26.38
13766 134.5545 711.00 664.63 26.66
13767 134.5637 734.00 664.51 27.09
13768 134.5729 685.00 664.15 26.17
13769 134.5821 689.00 663.55 26.25
13770 134.5913 692.00 662.80 26.31
13771 134.6005 671.00 661.92 25.90
13772 134.6097 619.00 660.95 24.88
13773 134.6189 677.00 659.94 26.02
13774 134.6281 680.00 658.92 26.08
13775 134.6373 706.00 658.02 26.57
13776 134.6465 612.00 657.11 24.74
13777 134.6557 630.00 656.30 25.10
13778 134.6649 611.00 655.62 24.72
13779 134.6741 614.00 655.09 24.78
13780 134.6833 645.00 654.70 25.40
13781 134.6925 592.00 654.46 24.33
13782 134.7017 651.00 654.39 25.51
13783 134.7109 659.00 654.47 25.67
13784 134.7201 619.00 654.68 24.88
13785 134.7293 637.00 655.01 25.24
13786 134.7385 635.00 655.43 25.20
13787 134.7477 612.00 655.91 24.74
13788 134.7569 641.00 656.42 25.32
13789 134.7661 659.00 656.93 25.67
13790 134.7753 623.00 657.39 24.96
13791 134.7845 696.00 657.76 26.38
13792 134.7937 674.00 658.01 25.96
13793 134.8029 662.00 658.10 25.73
13794 134.8121 646.00 657.99 25.42
13795 134.8213 689.00 657.67 26.25
13796 134.8305 715.00 657.11 26.74
13797 134.8397 685.00 656.32 26.17
13798 134.8489 701.00 655.26 26.48
13799 134.8581 664.00 653.95 25.77
13800 134.8673 688.00 652.39 26.23
13801 134.8765 658.00 650.62 25.65
13802 134.8857 658.00 648.66 25.65
13803 134.8949 656.00 646.53 25.61
13804 134.9041 698.00 644.27 26.42
13805 134.9133 648.00 641.92 25.46
13806 134.9225 651.00 639.52 25.51
13807 134.9317 648.00 637.10 25.46
13808 134.9409 638.00 634.70 25.26
13809 134.9501 587.00 632.35 24.23
13810 134.9593 637.00 630.10 25.24
13811 134.9685 633.00 627.97 25.16
13812 134.9777 635.00 625.99 25.20
13813 134.9869 609.00 624.18 24.68
13814 134.9961 589.00 622.57 24.27
13815 135.0053 583.00 621.17 24.15
13816 135.0145 608.00 620.00 24.66
13817 135.0237 616.00 619.08 24.82
13818 135.0329 617.00 618.39 24.84
13819 135.0421 617.00 617.95 24.84
13820 135.0513 643.00 617.75 25.36
13821 135.0605 606.00 617.79 24.62
13822 135.0697 611.00 618.07 24.72
13823 135.0789 592.00 618.57 24.33
13824 135.0881 582.00 619.29 24.12
13825 135.0973 580.00 620.17 24.08
13826 135.1065 621.00 621.24 24.92
13827 135.1157 639.00 622.46 25.28
13828 135.1249 653.00 623.80 25.55
13829 135.1341 635.00 625.23 25.20
13830 135.1433 626.00 626.75 25.02
13831 135.1525 616.00 628.29 24.82
13832 135.1617 600.00 629.85 24.49
13833 135.1709 628.00 631.38 25.06
13834 135.1801 629.00 632.84 25.08
13835 135.1893 667.00 634.24 25.83
13836 135.1985 658.00 635.51 25.65
13837 135.2077 629.00 636.64 25.08
13838 135.2169 656.00 637.60 25.61
13839 135.2261 659.00 638.38 25.67
13840 135.2353 599.00 638.94 24.47
13841 135.2445 615.00 639.29 24.80
13842 135.2537 696.00 639.41 26.38
13843 135.2629 661.00 639.30 25.71
13844 135.2721 640.00 638.98 25.30
13845 135.2813 676.00 638.45 26.00
13846 135.2905 664.00 637.73 25.77
13847 135.2997 678.00 636.85 26.04
13848 135.3089 622.00 635.83 24.94
13849 135.3181 651.00 634.69 25.51
13850 135.3273 695.00 633.50 26.36
13851 135.3365 665.00 632.23 25.79
13852 135.3457 692.00 630.96 26.31
13853 135.3549 636.00 629.75 25.22
13854 135.3641 618.00 628.54 24.86
13855 135.3733 596.00 627.43 24.41
13856 135.3825 659.00 626.41 25.67
13857 135.3917 662.00 625.57 25.73
13858 135.4009 631.00 624.90 25.12
13859 135.4101 650.00 624.44 25.50
13860 135.4193 640.00 624.22 25.30
13861 135.4285 577.00 624.25 24.02
13862 135.4377 563.00 624.56 23.73
13863 135.4469 651.00 625.14 25.51
13864 135.4561 615.00 626.06 24.80
13865 135.4653 633.00 627.31 25.16
13866 135.4745 623.00 628.87 24.96
13867 135.4837 638.00 630.80 25.26
13868 135.4929 602.00 633.07 24.54
13869 135.5021 662.00 635.68 25.73
13870 135.5113 630.00 638.63 25.10
13871 135.5205 660.00 641.91 25.69
13872 135.5297 667.00 645.51 25.83
13873 135.5389 656.00 649.39 25.61
13874 135.5481 653.00 653.57 25.55
13875 135.5573 638.00 658.00 25.26
13876 135.5665 650.00 662.66 25.50
13877 135.5757 665.00 667.52 25.79
13878 135.5849 654.00 672.53 25.57
13879 135.5941 683.00 677.67 26.13
13880 135.6033 666.00 682.88 25.81
13881 135.6125 623.00 688.11 24.96
13882 135.6217 679.00 693.33 26.06
13883 135.6309 690.00 698.50 26.27
13884 135.6401 715.00 703.55 26.74
13885 135.6493 698.00 708.45 26.42
13886 135.6585 753.00 713.13 27.44
13887 135.6677 678.00 717.57 26.04
13888 135.6769 732.00 721.72 27.06
13889 135.6861 690.00 725.56 26.27
13890 135.6953 691.00 729.07 26.29
13891 135.7045 775.00 732.23 27.84
13892 135.7137 745.00 735.04 27.29
13893 135.7229 753.00 737.52 27.44
13894 135.7321 775.00 739.66 27.84
13895 135.7413 737.00 741.48 27.15
13896 135.7505 808.00 743.02 28.43
13897 135.7597 725.00 744.31 26.93
13898 135.7689 801.00 745.39 28.30
13899 135.7781 752.00 746.34 27.42
13900 135.7873 796.00 747.10 28.21
13901 135.7965 799.00 747.75 28.27
13902 135.8057 724.00 748.33 26.91
13903 135.8149 798.00 748.85 28.25
13904 135.8241 741.00 749.34 27.22
13905 135.8333 714.00 749.82 26.72
13906 135.8425 772.00 750.30 27.78
13907 135.8517 797.00 750.79 28.23
13908 135.8609 730.00 751.29 27.02
13909 135.8701 745.00 751.82 27.29
13910 135.8793 774.00 752.37 27.82
13911 135.8885 737.00 752.95 27.15
13912 135.8977 752.00 753.54 27.42
13913 135.9069 757.00 754.17 27.51
13914 135.9161 765.00 754.84 27.66
13915 135.9253 758.00 755.54 27.53
13916 135.9345 757.00 756.28 27.51
13917 135.9437 774.00 757.06 27.82
13918 135.9529 768.00 757.90 27.71
13919 135.9621 754.00 758.79 27.46
13920 135.9713 765.00 759.76 27.66
13921 135.9805 795.00 760.78 28.20
13922 135.9897 744.00 761.89 27.28
13923 135.9989 784.00 763.06 28.00
13924 136.0081 772.00 764.31 27.78
13925 136.0173 778.00 765.63 27.89
13926 136.0265 859.00 767.02 29.31
13927 136.0357 779.00 768.48 27.91
13928 136.0449 801.00 769.99 28.30
13929 136.0541 747.00 771.58 27.33
13930 136.0633 763.00 773.22 27.62
13931 136.0725 712.00 774.94 26.68
13932 136.0817 814.00 776.72 28.53
13933 136.0909 807.00 778.59 28.41
13934 136.1001 802.00 780.56 28.32
13935 136.1093 768.00 782.63 27.71
13936 136.1185 719.00 784.83 26.81
13937 136.1277 776.00 787.17 27.86
13938 136.1369 787.00 789.68 28.05
13939 136.1461 799.00 792.36 28.27
13940 136.1553 750.00 795.25 27.39
13941 136.1645 744.00 798.35 27.28
13942 136.1737 804.00 801.70 28.35
13943 136.1829 770.00 805.29 27.75
13944 136.1921 752.00 809.14 27.42
13945 136.2013 754.00 813.23 27.46
13946 136.2105 770.00 817.60 27.75
13947 136.2197 721.00 822.19 26.85
13948 136.2289 780.00 827.01 27.93
13949 136.2381 730.00 832.01 27.02
13950 136.2473 778.00 837.18 27.89
13951 136.2565 797.00 842.44 28.23
13952 136.2657 796.00 847.74 28.21
13953 136.2749 789.00 853.02 28.09
13954 136.2841 844.00 858.21 29.05
13955 136.2933 804.00 863.22 28.35
13956 136.3025 814.00 867.97 28.53
13957 136.3117 844.00 872.39 29.05
13958 136.3209 831.00 876.39 28.83
13959 136.3301 844.00 879.88 29.05
13960 136.3393 820.00 882.80 28.64
13961 136.3485 832.00 885.09 28.84
13962 136.3577 819.00 886.67 28.62
13963 136.3669 925.00 887.49 30.41
13964 136.3761 829.00 887.53 28.79
13965 136.3853 856.00 886.76 29.26
13966 136.3945 885.00 885.16 29.75
13967 136.4037 933.00 882.74 30.55
13968 136.4129 862.00 879.50 29.36
13969 136.4221 892.00 875.49 29.87
13970 136.4313 898.00 870.73 29.97
13971 136.4405 900.00 865.27 30.00
13972 136.4497 906.00 859.17 30.10
13973 136.4589 805.00 852.49 28.37
13974 136.4681 780.00 845.33 27.93
13975 136.4773 876.00 837.74 29.60
13976 136.4865 833.00 829.84 28.86
13977 136.4957 770.00 821.68 27.75
13978 136.5049 784.00 813.37 28.00
13979 136.5141 836.00 804.97 28.91
13980 136.5233 797.00 796.58 28.23
13981 136.5325 776.00 788.27 27.86
13982 136.5417 785.00 780.12 28.02
13983 136.5509 747.00 772.17 27.33
13984 136.5601 764.00 764.50 27.64
13985 136.5693 747.00 757.19 27.33
13986 136.5785 735.00 750.22 27.11
13987 136.5877 700.00 743.66 26.46
13988 136.5969 712.00 737.52 26.68
13989 136.6061 704.00 731.84 26.53
13990 136.6153 716.00 726.61 26.76
13991 136.6245 746.00 721.85 27.31
13992 136.6337 694.00 717.53 26.34
13993 136.6429 772.00 713.66 27.78
13994 136.6521 685.00 710.22 26.17
13995 136.6613 709.00 707.18 26.63
13996 136.6705 697.00 704.51 26.40
13997 136.6797 709.00 702.18 26.63
13998 136.6889 722.00 700.16 26.87
13999 136.6981 689.00 698.40 26.25
14000 136.7073 707.00 696.86 26.59
14001 136.7165 729.00 695.50 27.00
14002 136.7257 732.00 694.28 27.06
14003 136.7349 703.00 693.15 26.51
14004 136.7441 678.00 692.04 26.04
14005 136.7533 687.00 691.05 26.21
14006 136.7625 656.00 689.98 25.61
14007 136.7717 670.00 688.84 25.88
14008 136.7809 697.00 687.67 26.40
14009 136.7901 694.00 686.40 26.34
14010 136.7993 646.00 685.04 25.42
14011 136.8085 704.00 683.59 26.53
14012 136.8177 689.00 682.04 26.25
14013 136.8269 697.00 680.42 26.40
14014 136.8361 750.00 678.72 27.39
14015 136.8453 663.00 676.97 25.75
14016 136.8545 690.00 675.19 26.27
14017 136.8637 666.00 673.34 25.81
14018 136.8729 681.00 671.59 26.10
14019 136.8821 664.00 669.89 25.77
14020 136.8913 699.00 668.27 26.44
14021 136.9005 679.00 666.76 26.06
14022 136.9097 635.00 665.38 25.20
14023 136.9189 664.00 664.16 25.77
14024 136.9281 669.00 663.12 25.86
14025 136.9373 650.00 662.26 25.50
14026 136.9465 641.00 661.64 25.32
14027 136.9557 671.00 661.24 25.90
14028 136.9649 653.00 661.07 25.55
14029 136.9741 647.00 661.15 25.44
14030 136.9833 666.00 661.47 25.81
14031 136.9925 596.00 662.03 24.41
14032 137.0017 659.00 662.83 25.67
14033 137.0109 679.00 663.85 26.06
14034 137.0201 608.00 665.10 24.66
14035 137.0293 676.00 666.55 26.00
14036 137.0385 640.00 668.18 25.30
14037 137.0477 677.00 669.97 26.02
14038 137.0569 682.00 671.91 26.12
14039 137.0661 682.00 673.97 26.12
14040 137.0753 635.00 676.12 25.20
14041 137.0845 653.00 678.34 25.55
14042 137.0937 696.00 680.61 26.38
14043 137.1029 717.00 682.89 26.78
14044 137.1121 667.00 685.17 25.83
14045 137.1213 681.00 687.41 26.10
14046 137.1305 684.00 689.61 26.15
14047 137.1397 696.00 691.75 26.38
14048 137.1489 653.00 693.79 25.55
14049 137.1581 712.00 695.74 26.68
14050 137.1673 716.00 697.56 26.76
14051 137.1765 721.00 699.27 26.85
14052 137.1857 728.00 700.83 26.98
14053 137.1949 692.00 702.25 26.31
14054 137.2041 691.00 703.52 26.29
14055 137.2133 738.00 704.64 27.17
14056 137.2225 704.00 705.60 26.53
14057 137.2317 673.00 706.41 25.94
14058 137.2409 706.00 707.07 26.57
14059 137.2501 677.00 707.58 26.02
14060 137.2593 688.00 707.97 26.23
14061 137.2685 740.00 708.20 27.20
14062 137.2777 719.00 708.32 26.81
14063 137.2869 719.00 708.33 26.81
14064 137.2961 717.00 708.26 26.78
14065 137.3053 712.00 708.11 26.68
14066 137.3145 722.00 707.90 26.87
14067 137.3237 689.00 707.66 26.25
14068 137.3329 726.00 707.39 26.94
14069 137.3421 680.00 707.13 26.08
14070 137.3513 700.00 706.88 26.46
14071 137.3605 706.00 706.63 26.57
14072 137.3697 654.00 706.48 25.57
14073 137.3789 689.00 706.39 26.25
14074 137.3881 697.00 706.39 26.40
14075 137.3973 699.00 706.47 26.44
14076 137.4065 675.00 706.69 25.98
14077 137.4157 678.00 706.96 26.04
14078 137.4249 705.00 707.31 26.55
14079 137.4341 642.00 707.75 25.34
14080 137.4433 696.00 708.25 26.38
14081 137.4525 657.00 708.83 25.63
14082 137.4617 675.00 709.41 25.98
14083 137.4709 721.00 709.99 26.85
14084 137.4801 698.00 710.54 26.42
14085 137.4893 690.00 711.04 26.27
14086 137.4985 721.00 711.50 26.85
14087 137.5077 703.00 711.79 26.51
14088 137.5169 710.00 711.94 26.65
14089 137.5261 754.00 711.93 27.46
14090 137.5353 719.00 711.71 26.81
14091 137.5445 732.00 711.26 27.06
14092 137.5537 723.00 710.57 26.89
14093 137.5629 694.00 709.62 26.34
14094 137.5721 713.00 708.41 26.70
14095 137.5813 669.00 706.94 25.86
14096 137.5905 733.00 705.21 27.07
14097 137.5997 720.00 703.25 26.83
14098 137.6089 718.00 701.03 26.80
14099 137.6181 691.00 698.59 26.29
14100 137.6273 734.00 695.96 27.09
14101 137.6365 726.00 693.15 26.94
14102 137.6457 699.00 690.20 26.44
14103 137.6549 691.00 687.13 26.29
14104 137.6641 679.00 683.98 26.06
14105 137.6733 677.00 680.75 26.02
14106 137.6825 668.00 677.51 25.85
14107 137.6917 706.00 674.28 26.57
14108 137.7009 662.00 671.07 25.73
14109 137.7101 676.00 667.94 26.00
14110 137.7193 675.00 664.89 25.98
14111 137.7285 697.00 661.97 26.40
14112 137.7377 637.00 659.17 25.24
14113 137.7469 659.00 656.54 25.67
14114 137.7561 662.00 654.08 25.73
14115 137.7653 625.00 651.81 25.00
14116 137.7745 707.00 649.76 26.59
14117 137.7837 689.00 647.92 26.25
14118 137.7929 628.00 646.33 25.06
14119 137.8021 597.00 644.97 24.43
14120 137.8113 697.00 643.85 26.40
14121 137.8205 673.00 642.96 25.94
14122 137.8297 672.00 642.35 25.92
14123 137.8389 612.00 641.99 24.74
14124 137.8481 693.00 641.89 26.32
14125 137.8573 630.00 642.03 25.10
14126 137.8665 610.00 642.41 24.70
14127 137.8757 656.00 643.03 25.61
14128 137.8849 621.00 643.87 24.92
14129 137.8941 635.00 644.93 25.20
14130 137.9033 619.00 646.18 24.88
14131 137.9125 629.00 647.63 25.08
14132 137.9217 634.00 649.24 25.18
14133 137.9309 648.00 651.01 25.46
14134 137.9401 642.00 652.91 25.34
14135 137.9493 598.00 654.92 24.45
14136 137.9585 664.00 657.03 25.77
14137 137.9677 646.00 659.20 25.42
14138 137.9769 714.00 661.42 26.72
14139 137.9861 680.00 663.65 26.08
14140 137.9953 676.00 665.89 26.00
14141 138.0045 672.00 668.08 25.92
14142 138.0137 684.00 670.25 26.15
14143 138.0229 692.00 672.31 26.31
14144 138.0321 662.00 674.27 25.73
14145 138.0413 691.00 676.10 26.29
14146 138.0505 701.00 677.78 26.48
14147 138.0597 702.00 679.30 26.50
14148 138.0689 745.00 680.64 27.29
14149 138.0781 717.00 681.78 26.78
14150 138.0873 690.00 682.73 26.27
14151 138.0965 696.00 683.47 26.38
14152 138.1057 704.00 684.01 26.53
14153 138.1149 668.00 684.35 25.85
14154 138.1241 670.00 684.50 25.88
14155 138.1333 681.00 684.47 26.10
14156 138.1425 653.00 684.30 25.55
14157 138.1517 626.00 683.95 25.02
14158 138.1609 744.00 683.47 27.28
14159 138.1701 761.00 682.87 27.59
14160 138.1793 653.00 682.17 25.55
14161 138.1885 680.00 681.40 26.08
14162 138.1977 719.00 680.55 26.81
14163 138.2069 699.00 679.66 26.44
14164 138.2161 661.00 678.72 25.71
14165 138.2253 699.00 677.76 26.44
14166 138.2345 677.00 676.78 26.02
14167 138.2437 667.00 675.78 25.83
14168 138.2529 720.00 674.79 26.83
14169 138.2621 695.00 673.79 26.36
14170 138.2713 679.00 672.80 26.06
14171 138.2805 659.00 671.81 25.67
14172 138.2897 665.00 670.84 25.79
14173 138.2989 657.00 669.87 25.63
14174 138.3081 684.00 668.91 26.15
14175 138.3173 625.00 667.95 25.00
14176 138.3265 707.00 667.00 26.59
14177 138.3357 632.00 666.06 25.14
14178 138.3449 658.00 665.12 25.65
14179 138.3541 689.00 664.19 26.25
14180 138.3633 696.00 663.26 26.38
14181 138.3725 649.00 662.33 25.48
14182 138.3817 703.00 661.40 26.51
14183 138.3909 730.00 660.48 27.02
14184 138.4001 631.00 659.57 25.12
14185 138.4093 724.00 658.67 26.91
14186 138.4185 679.00 657.80 26.06
14187 138.4277 669.00 656.95 25.86
14188 138.4369 746.00 656.12 27.31
14189 138.4461 660.00 655.33 25.69
14190 138.4553 661.00 654.58 25.71
14191 138.4645 647.00 653.88 25.44
14192 138.4737 649.00 653.19 25.48
14193 138.4829 678.00 652.59 26.04
14194 138.4921 620.00 652.04 24.90
14195 138.5013 659.00 651.55 25.67
14196 138.5105 646.00 651.10 25.42
14197 138.5197 647.00 650.72 25.44
14198 138.5289 666.00 650.40 25.81
14199 138.5381 640.00 650.13 25.30
14200 138.5473 612.00 649.92 24.74
14201 138.5565 657.00 649.76 25.63
14202 138.5657 678.00 649.69 26.04
14203 138.5749 677.00 649.63 26.02
14204 138.5841 657.00 649.61 25.63
14205 138.5933 666.00 649.63 25.81
14206 138.6025 650.00 649.69 25.50
14207 138.6117 666.00 649.80 25.81
14208 138.6209 646.00 649.96 25.42
14209 138.6301 643.00 650.16 25.36
14210 138.6393 655.00 650.43 25.59
14211 138.6485 707.00 650.77 26.59
14212 138.6577 629.00 651.23 25.08
14213 138.6669 674.00 651.74 25.96
14214 138.6761 700.00 652.36 26.46
14215 138.6853 677.00 653.11 26.02
14216 138.6945 717.00 654.01 26.78
14217 138.7037 729.00 655.08 27.00
14218 138.7129 679.00 656.34 26.06
14219 138.7221 660.00 657.81 25.69
14220 138.7313 678.00 659.52 26.04
14221 138.7405 637.00 661.49 25.24
14222 138.7497 692.00 663.74 26.31
14223 138.7589 630.00 666.28 25.10
14224 138.7681 714.00 669.13 26.72
14225 138.7773 645.00 672.32 25.40
14226 138.7865 704.00 675.85 26.53
14227 138.7957 679.00 679.72 26.06
14228 138.8049 633.00 683.95 25.16
14229 138.8141 720.00 688.50 26.83
14230 138.8233 706.00 693.44 26.57
14231 138.8325 652.00 698.74 25.53
14232 138.8417 713.00 704.38 26.70
14233 138.8509 694.00 710.33 26.34
14234 138.8601 663.00 716.60 25.75
14235 138.8693 705.00 723.15 26.55
14236 138.8785 729.00 729.94 27.00
14237 138.8877 726.00 736.95 26.94
14238 138.8969 715.00 744.12 26.74
14239 138.9061 683.00 751.44 26.13
14240 138.9153 709.00 758.81 26.63
14241 138.9245 748.00 766.21 27.35
14242 138.9337 682.00 773.56 26.12
14243 138.9429 738.00 780.82 27.17
14244 138.9521 763.00 787.90 27.62
14245 138.9613 732.00 794.74 27.06
14246 138.9705 759.00 801.27 27.55
14247 138.9797 750.00 807.45 27.39
14248 138.9889 818.00 813.18 28.60
14249 138.9981 783.00 818.43 27.98
14250 139.0073 807.00 823.13 28.41
14251 139.0165 814.00 827.22 28.53
14252 139.0257 799.00 830.70 28.27
14253 139.0349 792.00 833.51 28.14
14254 139.0441 757.00 835.66 27.51
14255 139.0533 803.00 837.14 28.34
14256 139.0625 800.00 837.95 28.28
14257 139.0717 835.00 838.12 28.90
14258 139.0809 831.00 837.68 28.83
14259 139.0901 853.00 836.66 29.21
14260 139.0993 842.00 835.11 29.02
14261 139.1085 874.00 833.08 29.56
14262 139.1177 841.00 830.62 29.00
14263 139.1269 849.00 827.82 29.14
14264 139.1361 803.00 824.67 28.34
14265 139.1453 865.00 821.25 29.41
14266 139.1545 826.00 817.63 28.74
14267 139.1637 764.00 813.83 27.64
14268 139.1729 833.00 809.93 28.86
14269 139.1821 828.00 805.92 28.77
14270 139.1913 795.00 801.87 28.20
14271 139.2005 786.00 797.79 28.04
14272 139.2097 750.00 793.71 27.39
14273 139.2189 812.00 789.65 28.50
14274 139.2281 781.00 785.62 27.95
14275 139.2373 779.00 781.65 27.91
14276 139.2465 804.00 777.72 28.35
14277 139.2557 753.00 773.87 27.44
14278 139.2649 782.00 770.05 27.96
14279 139.2741 768.00 766.34 27.71
14280 139.2833 768.00 762.72 27.71
14281 139.2925 737.00 759.19 27.15
14282 139.3017 767.00 755.76 27.69
14283 139.3109 779.00 752.45 27.91
14284 139.3201 744.00 749.24 27.28
14285 139.3293 778.00 746.17 27.89
14286 139.3385 732.00 743.23 27.06
14287 139.3477 737.00 740.44 27.15
14288 139.3569 723.00 737.80 26.89
14289 139.3661 744.00 735.31 27.28
14290 139.3753 718.00 732.99 26.80
14291 139.3845 742.00 730.83 27.24
14292 139.3937 740.00 728.84 27.20
14293 139.4029 727.00 727.02 26.96
14294 139.4121 731.00 725.37 27.04
14295 139.4213 717.00 723.88 26.78
14296 139.4305 767.00 722.56 27.69
14297 139.4397 727.00 721.41 26.96
14298 139.4489 710.00 720.42 26.65
14299 139.4581 737.00 719.58 27.15
14300 139.4673 691.00 718.91 26.29
14301 139.4765 739.00 718.39 27.18
14302 139.4857 731.00 718.04 27.04
14303 139.4949 720.00 717.86 26.83
14304 139.5041 674.00 717.84 25.96
14305 139.5133 754.00 717.98 27.46
14306 139.5225 715.00 718.31 26.74
14307 139.5317 752.00 718.82 27.42
14308 139.5409 766.00 719.52 27.68
14309 139.5501 717.00 720.43 26.78
14310 139.5593 768.00 721.55 27.71
14311 139.5685 759.00 722.89 27.55
14312 139.5777 726.00 724.46 26.94
14313 139.5869 729.00 726.26 27.00
14314 139.5961 759.00 728.31 27.55
14315 139.6053 723.00 730.61 26.89
14316 139.6145 709.00 733.15 26.63
14317 139.6237 703.00 735.95 26.51
14318 139.6329 770.00 738.98 27.75
14319 139.6421 686.00 742.27 26.19
14320 139.6513 736.00 745.77 27.13
14321 139.6605 721.00 749.49 26.85
14322 139.6697 720.00 753.42 26.83
14323 139.6789 741.00 757.51 27.22
14324 139.6881 759.00 761.76 27.55
14325 139.6973 752.00 766.13 27.42
14326 139.7065 750.00 770.59 27.39
14327 139.7157 731.00 775.08 27.04
14328 139.7249 736.00 779.59 27.13
14329 139.7341 729.00 784.04 27.00
14330 139.7433 806.00 788.42 28.39
14331 139.7525 799.00 792.65 28.27
14332 139.7617 807.00 796.65 28.41
14333 139.7709 828.00 800.42 28.77
14334 139.7801 779.00 803.91 27.91
14335 139.7893 760.00 807.05 27.57
14336 139.7985 778.00 809.80 27.89
14337 139.8077 820.00 812.12 28.64
14338 139.8169 809.00 813.96 28.44
14339 139.8261 785.00 815.30 28.02
14340 139.8353 793.00 816.12 28.16
14341 139.8445 842.00 816.42 29.02
14342 139.8537 844.00 816.18 29.05
14343 139.8629 803.00 815.43 28.34
14344 139.8721 785.00 814.17 28.02
14345 139.8813 815.00 812.43 28.55
14346 139.8905 859.00 810.24 29.31
14347 139.8997 819.00 807.72 28.62
14348 139.9089 767.00 804.77 27.69
14349 139.9181 819.00 801.51 28.62
14350 139.9273 793.00 797.98 28.16
14351 139.9365 765.00 794.25 27.66
14352 139.9457 773.00 790.35 27.80
14353 139.9549 758.00 786.35 27.53
14354 139.9641 776.00 782.29 27.86
14355 139.9733 761.00 778.21 27.59
14356 139.9825 751.00 774.19 27.40
14357 139.9917 684.00 770.27 26.15
14358 140.0009 770.00 766.53 27.75
14359 140.0101 757.00 762.91 27.51
14360 140.0193 727.00 759.50 26.96
14361 140.0285 710.00 756.35 26.65
14362 140.0377 713.00 753.47 26.70
14363 140.0469 725.00 750.91 26.93
14364 140.0560 772.00 748.68 27.78
14365 140.0652 730.00 746.79 27.02
14366 140.0745 760.00 745.28 27.57
14367 140.0837 709.00 744.14 26.63
14368 140.0929 751.00 743.39 27.40
14369 140.1021 730.00 743.02 27.02
14370 140.1113 686.00 743.02 26.19
14371 140.1205 713.00 743.40 26.70
14372 140.1297 737.00 744.13 27.15
14373 140.1389 741.00 745.19 27.22
14374 140.1481 670.00 746.59 25.88
14375 140.1573 682.00 748.22 26.12
14376 140.1665 720.00 750.12 26.83
14377 140.1757 721.00 752.24 26.85
14378 140.1849 754.00 754.53 27.46
14379 140.1940 784.00 756.94 28.00
14380 140.2032 761.00 759.43 27.59
14381 140.2124 729.00 761.96 27.00
14382 140.2216 769.00 764.47 27.73
14383 140.2309 734.00 766.94 27.09
14384 140.2401 730.00 769.25 27.02
14385 140.2493 758.00 771.41 27.53
14386 140.2585 768.00 773.36 27.71
14387 140.2677 720.00 775.06 26.83
14388 140.2769 788.00 776.46 28.07
14389 140.2861 783.00 777.54 27.98
14390 140.2953 770.00 778.27 27.75
14391 140.3045 827.00 778.61 28.76
14392 140.3137 800.00 778.55 28.28
14393 140.3229 788.00 778.09 28.07
14394 140.3320 757.00 777.21 27.51
14395 140.3412 821.00 775.92 28.65
14396 140.3504 828.00 774.23 28.77
14397 140.3596 844.00 772.15 29.05
14398 140.3689 810.00 769.70 28.46
14399 140.3781 756.00 766.92 27.50
14400 140.3873 778.00 763.81 27.89
14401 140.3965 816.00 760.42 28.57
14402 140.4057 772.00 756.78 27.78
14403 140.4149 765.00 752.91 27.66
14404 140.4241 826.00 748.86 28.74
14405 140.4333 771.00 744.64 27.77
14406 140.4425 769.00 740.31 27.73
14407 140.4517 735.00 735.88 27.11
14408 140.4609 756.00 731.39 27.50
14409 140.4700 728.00 726.80 26.98
14410 140.4792 756.00 722.27 27.50
14411 140.4884 713.00 717.74 26.70
14412 140.4977 725.00 713.26 26.93
14413 140.5069 770.00 708.83 27.75
14414 140.5161 691.00 704.49 26.29
14415 140.5253 715.00 700.25 26.74
14416 140.5345 744.00 696.11 27.28
14417 140.5437 723.00 692.11 26.89
14418 140.5529 717.00 688.17 26.78
14419 140.5621 665.00 684.46 25.79
14420 140.5713 713.00 680.90 26.70
14421 140.5805 651.00 677.51 25.51
14422 140.5897 677.00 674.28 26.02
14423 140.5989 646.00 671.24 25.42
14424 140.6080 659.00 668.38 25.67
14425 140.6172 681.00 665.69 26.10
14426 140.6264 644.00 663.19 25.38
14427 140.6357 696.00 660.87 26.38
14428 140.6449 676.00 658.71 26.00
14429 140.6541 682.00 656.73 26.12
14430 140.6633 640.00 654.93 25.30
14431 140.6724 661.00 653.29 25.71
14432 140.6816 679.00 651.81 26.06
14433 140.6909 691.00 650.48 26.29
14434 140.7001 649.00 649.31 25.48
14435 140.7093 629.00 648.27 25.08
14436 140.7185 694.00 647.37 26.34
14437 140.7277 614.00 646.60 24.78
14438 140.7369 649.00 645.96 25.48
14439 140.7460 666.00 645.44 25.81
14440 140.7552 645.00 645.03 25.40
14441 140.7645 648.00 644.72 25.46
14442 140.7737 662.00 644.52 25.73
14443 140.7829 625.00 644.41 25.00
14444 140.7921 646.00 644.40 25.42
14445 140.8013 677.00 644.47 26.02
14446 140.8104 681.00 644.62 26.10
14447 140.8196 634.00 644.85 25.18
14448 140.8288 637.00 645.15 25.24
14449 140.8381 642.00 645.51 25.34
14450 140.8473 661.00 645.94 25.71
14451 140.8565 635.00 646.42 25.20
14452 140.8657 633.00 646.96 25.16
14453 140.8749 653.00 647.53 25.55
14454 140.8840 705.00 648.15 26.55
14455 140.8932 637.00 648.80 25.24
14456 140.9025 652.00 649.48 25.53
14457 140.9117 688.00 650.20 26.23
14458 140.9209 619.00 650.93 24.88
14459 140.9301 657.00 651.68 25.63
14460 140.9393 610.00 652.45 24.70
14461 140.9484 633.00 653.22 25.16
14462 140.9576 656.00 654.02 25.61
14463 140.9668 660.00 654.84 25.69
14464 140.9760 671.00 655.66 25.90
14465 140.9852 720.00 656.52 26.83
14466 140.9945 678.00 657.40 26.04
14467 141.0037 656.00 658.32 25.61
14468 141.0129 716.00 659.27 26.76
14469 141.0220 684.00 660.27 26.15
14470 141.0312 694.00 661.32 26.34
14471 141.0405 696.00 662.44 26.38
14472 141.0497 680.00 663.63 26.08
14473 141.0589 647.00 664.91 25.44
14474 141.0681 652.00 666.29 25.53
14475 141.0773 651.00 667.79 25.51
14476 141.0864 699.00 669.39 26.44
14477 141.0956 672.00 671.14 25.92
14478 141.1048 688.00 673.03 26.23
14479 141.1140 664.00 675.09 25.77
14480 141.1232 678.00 677.30 26.04
14481 141.1324 665.00 679.67 25.79
14482 141.1416 676.00 682.23 26.00
14483 141.1509 668.00 684.97 25.85
14484 141.1600 710.00 687.89 26.65
14485 141.1693 696.00 691.00 26.38
14486 141.1785 655.00 694.31 25.59
14487 141.1877 696.00 697.81 26.38
14488 141.1969 639.00 701.51 25.28
14489 141.2061 668.00 705.38 25.85
14490 141.2153 703.00 709.44 26.51
14491 141.2244 717.00 713.67 26.78
14492 141.2336 686.00 718.06 26.19
14493 141.2428 682.00 722.59 26.12
14494 141.2520 678.00 727.27 26.04
14495 141.2612 713.00 732.05 26.70
14496 141.2704 673.00 736.94 25.94
14497 141.2796 684.00 741.90 26.15
14498 141.2888 670.00 746.92 25.88
14499 141.2980 737.00 751.96 27.15
14500 141.3073 727.00 757.01 26.96
14501 141.3165 747.00 762.01 27.33
14502 141.3257 755.00 766.95 27.48
14503 141.3349 743.00 771.79 27.26
14504 141.3441 831.00 776.49 28.83
14505 141.3533 712.00 781.01 26.68
14506 141.3624 751.00 785.29 27.40
14507 141.3716 779.00 789.32 27.91
14508 141.3808 780.00 793.03 27.93
14509 141.3900 741.00 796.41 27.22
14510 141.3992 810.00 799.39 28.46
14511 141.4084 777.00 801.96 27.87
14512 141.4176 787.00 804.08 28.05
14513 141.4268 875.00 805.71 29.58
14514 141.4360 839.00 806.87 28.97
14515 141.4452 799.00 807.52 28.27
14516 141.4545 855.00 807.66 29.24
14517 141.4637 803.00 807.30 28.34
14518 141.4729 875.00 806.45 29.58
14519 141.4821 781.00 805.11 27.95
14520 141.4913 856.00 803.33 29.26
14521 141.5004 798.00 801.12 28.25
14522 141.5096 818.00 798.51 28.60
14523 141.5188 824.00 795.56 28.71
14524 141.5280 798.00 792.29 28.25
14525 141.5372 822.00 788.75 28.67
14526 141.5464 821.00 784.96 28.65
14527 141.5556 762.00 781.00 27.60
14528 141.5648 769.00 776.89 27.73
14529 141.5740 810.00 772.66 28.46
14530 141.5832 721.00 768.37 26.85
14531 141.5924 767.00 764.03 27.69
14532 141.6017 730.00 759.68 27.02
14533 141.6109 818.00 755.36 28.60
14534 141.6201 760.00 751.09 27.57
14535 141.6293 757.00 746.90 27.51
14536 141.6384 752.00 742.83 27.42
14537 141.6476 731.00 738.86 27.04
14538 141.6568 705.00 735.05 26.55
14539 141.6660 742.00 731.41 27.24
14540 141.6752 725.00 727.94 26.93
14541 141.6844 711.00 724.68 26.66
14542 141.6936 702.00 721.64 26.50
14543 141.7028 697.00 718.84 26.40
14544 141.7120 641.00 716.28 25.32
14545 141.7212 729.00 713.98 27.00
14546 141.7304 696.00 711.96 26.38
14547 141.7396 720.00 710.22 26.83
14548 141.7488 714.00 708.78 26.72
14549 141.7581 703.00 707.65 26.51
14550 141.7673 756.00 706.83 27.50
14551 141.7764 703.00 706.34 26.51
14552 141.7856 790.00 706.19 28.11
14553 141.7948 752.00 706.38 27.42
14554 141.8040 716.00 706.89 26.76
14555 141.8132 699.00 707.79 26.44
14556 141.8224 714.00 709.05 26.72
14557 141.8316 746.00 710.67 27.31
14558 141.8408 724.00 712.67 26.91
14559 141.8500 714.00 715.05 26.72
14560 141.8592 727.00 717.80 26.96
14561 141.8684 728.00 720.94 26.98
14562 141.8776 685.00 724.46 26.17
14563 141.8868 762.00 728.35 27.60
14564 141.8960 715.00 732.63 26.74
14565 141.9052 750.00 737.29 27.39
14566 141.9144 754.00 742.34 27.46
14567 141.9236 710.00 747.75 26.65
14568 141.9328 730.00 753.54 27.02
14569 141.9420 746.00 759.68 27.31
14570 141.9512 758.00 766.18 27.53
14571 141.9604 698.00 773.01 26.42
14572 141.9697 769.00 780.16 27.73
14573 141.9788 740.00 787.61 27.20
14574 141.9880 739.00 795.36 27.18
14575 141.9972 785.00 803.39 28.02
14576 142.0064 793.00 811.66 28.16
14577 142.0156 708.00 820.18 26.61
14578 142.0248 775.00 828.89 27.84
14579 142.0340 764.00 837.78 27.64
14580 142.0432 783.00 846.81 27.98
14581 142.0524 805.00 855.97 28.37
14582 142.0616 785.00 865.22 28.02
14583 142.0708 801.00 874.54 28.30
14584 142.0800 836.00 883.88 28.91
14585 142.0892 834.00 893.17 28.88
14586 142.0984 822.00 902.40 28.67
14587 142.1077 860.00 911.51 29.33
14588 142.1168 865.00 920.45 29.41
14589 142.1260 887.00 929.18 29.78
14590 142.1352 915.00 937.64 30.25
14591 142.1444 945.00 945.77 30.74
14592 142.1536 913.00 953.51 30.22
14593 142.1628 982.00 960.80 31.34
14594 142.1720 940.00 967.60 30.66
14595 142.1812 955.00 973.82 30.90
14596 142.1904 1007.00 979.46 31.73
14597 142.1996 959.00 984.43 30.97
14598 142.2088 948.00 988.69 30.79
14599 142.2180 1002.00 992.22 31.65
14600 142.2272 1028.00 994.96 32.06
14601 142.2365 1083.00 996.91 32.91
14602 142.2457 1072.00 998.03 32.74
14603 142.2548 1069.00 998.33 32.70
14604 142.2640 1010.00 997.79 31.78
14605 142.2732 1096.00 996.43 33.11
14606 142.2824 1067.00 994.25 32.67
14607 142.2916 1090.00 991.26 33.02
14608 142.3008 1061.00 987.51 32.57
14609 142.3100 1071.00 983.02 32.73
14610 142.3192 1000.00 977.83 31.62
14611 142.3284 1036.00 971.98 32.19
14612 142.3376 1082.00 965.51 32.89
14613 142.3468 1044.00 958.50 32.31
14614 142.3560 970.00 950.96 31.14
14615 142.3652 979.00 942.99 31.29
14616 142.3745 972.00 934.61 31.18
14617 142.3837 990.00 925.90 31.46
14618 142.3928 938.00 916.91 30.63
14619 142.4020 890.00 907.67 29.83
14620 142.4112 852.00 898.27 29.19
14621 142.4204 866.00 888.76 29.43
14622 142.4296 928.00 879.20 30.46
14623 142.4388 864.00 869.61 29.39
14624 142.4480 838.00 860.07 28.95
14625 142.4572 851.00 850.61 29.17
14626 142.4664 873.00 841.27 29.55
14627 142.4756 846.00 832.08 29.09
14628 142.4848 828.00 823.11 28.77
14629 142.4940 803.00 814.35 28.34
14630 142.5032 780.00 805.86 27.93
14631 142.5124 805.00 797.66 28.37
14632 142.5216 798.00 789.78 28.25
14633 142.5308 714.00 782.21 26.72
14634 142.5400 774.00 775.00 27.82
14635 142.5492 791.00 768.15 28.12
14636 142.5584 758.00 761.67 27.53
14637 142.5676 767.00 755.57 27.69
14638 142.5768 779.00 749.91 27.91
14639 142.5860 750.00 744.57 27.39
14640 142.5952 794.00 739.64 28.18
14641 142.6044 747.00 735.09 27.33
14642 142.6136 746.00 730.92 27.31
14643 142.6228 758.00 727.14 27.53
14644 142.6320 723.00 723.72 26.89
14645 142.6412 722.00 720.67 26.87
14646 142.6504 729.00 717.99 27.00
14647 142.6596 723.00 715.65 26.89
14648 142.6688 743.00 713.65 27.26
14649 142.6780 711.00 711.96 26.66
14650 142.6872 742.00 710.59 27.24
14651 142.6964 686.00 709.52 26.19
14652 142.7056 695.00 708.72 26.36
14653 142.7148 714.00 708.18 26.72
14654 142.7240 703.00 707.90 26.51
14655 142.7332 740.00 707.85 27.20
14656 142.7424 699.00 708.02 26.44
14657 142.7516 682.00 708.38 26.12
14658 142.7608 684.00 708.92 26.15
14659 142.7700 739.00 709.62 27.18
14660 142.7792 689.00 710.46 26.25
14661 142.7884 714.00 711.41 26.72
14662 142.7976 726.00 712.46 26.94
14663 142.8068 700.00 713.59 26.46
14664 142.8160 694.00 714.79 26.34
14665 142.8252 725.00 716.01 26.93
14666 142.8344 698.00 717.26 26.42
14667 142.8436 734.00 718.51 27.09
14668 142.8528 702.00 719.74 26.50
14669 142.8620 695.00 720.94 26.36
14670 142.8712 725.00 722.08 26.93
14671 142.8804 703.00 723.15 26.51
14672 142.8896 721.00 724.15 26.85
14673 142.8988 743.00 725.05 27.26
14674 142.9080 744.00 725.85 27.28
14675 142.9172 704.00 726.53 26.53
14676 142.9264 772.00 727.09 27.78
14677 142.9356 723.00 727.53 26.89
14678 142.9448 729.00 727.83 27.00
14679 142.9540 743.00 728.00 27.26
14680 142.9632 710.00 728.06 26.65
14681 142.9724 710.00 727.95 26.65
14682 142.9816 768.00 727.71 27.71
14683 142.9908 741.00 727.34 27.22
14684 143.0000 706.00 726.83 26.57
14685 143.0092 735.00 726.20 27.11
14686 143.0184 772.00 725.45 27.78
14687 143.0276 768.00 724.59 27.71
14688 143.0368 787.00 723.62 28.05
14689 143.0460 734.00 722.56 27.09
14690 143.0552 775.00 721.42 27.84
14691 143.0644 744.00 720.20 27.28
14692 143.0736 794.00 718.93 28.18
14693 143.0828 753.00 717.61 27.44
14694 143.0920 730.00 716.28 27.02
14695 143.1012 733.00 714.93 27.07
14696 143.1104 742.00 713.60 27.24
14697 143.1196 742.00 712.29 27.24
14698 143.1288 736.00 711.04 27.13
14699 143.1380 742.00 709.87 27.24
14700 143.1472 717.00 708.78 26.78
14701 143.1564 738.00 707.80 27.17
14702 143.1656 762.00 706.95 27.60
14703 143.1748 691.00 706.26 26.29
14704 143.1840 719.00 705.73 26.81
14705 143.1932 654.00 705.39 25.57
14706 143.2024 736.00 705.30 27.13
14707 143.2116 759.00 705.39 27.55
14708 143.2208 682.00 705.71 26.12
14709 143.2300 709.00 706.27 26.63
14710 143.2392 720.00 707.11 26.83
14711 143.2484 688.00 708.21 26.23
14712 143.2576 734.00 709.60 27.09
14713 143.2668 695.00 711.29 26.36
14714 143.2760 724.00 713.28 26.91
14715 143.2852 712.00 715.57 26.68
14716 143.2944 719.00 718.18 26.81
14717 143.3036 742.00 721.11 27.24
14718 143.3128 720.00 724.34 26.83
14719 143.3220 708.00 727.90 26.61
14720 143.3312 707.00 731.76 26.59
14721 143.3404 694.00 735.92 26.34
14722 143.3496 751.00 740.37 27.40
14723 143.3588 706.00 745.13 26.57
14724 143.3680 714.00 750.14 26.72
14725 143.3772 770.00 755.41 27.75
14726 143.3864 792.00 760.90 28.14
14727 143.3956 705.00 766.62 26.55
14728 143.4048 736.00 772.53 27.13
14729 143.4140 780.00 778.58 27.93
14730 143.4232 750.00 784.78 27.39
14731 143.4324 756.00 791.07 27.50
14732 143.4416 733.00 797.44 27.07
14733 143.4508 770.00 803.74 27.75
14734 143.4600 753.00 810.14 27.44
14735 143.4692 855.00 816.47 29.24
14736 143.4784 792.00 822.73 28.14
14737 143.4876 807.00 828.84 28.41
14738 143.4968 829.00 834.78 28.79
14739 143.5060 818.00 840.53 28.60
14740 143.5152 834.00 846.03 28.88
14741 143.5244 869.00 851.26 29.48
14742 143.5336 848.00 856.16 29.12
14743 143.5428 921.00 860.72 30.35
14744 143.5520 909.00 864.91 30.15
14745 143.5612 937.00 868.69 30.61
14746 143.5704 938.00 872.04 30.63
14747 143.5796 860.00 874.95 29.33
14748 143.5888 935.00 877.41 30.58
14749 143.5980 856.00 879.40 29.26
14750 143.6072 953.00 880.92 30.87
14751 143.6164 908.00 881.97 30.13
14752 143.6256 982.00 882.55 31.34
14753 143.6348 966.00 882.67 31.08
14754 143.6440 940.00 882.34 30.66
14755 143.6532 916.00 881.56 30.27
14756 143.6624 905.00 880.36 30.08
14757 143.6716 895.00 878.76 29.92
14758 143.6808 884.00 876.78 29.73
14759 143.6900 853.00 874.45 29.21
14760 143.6992 900.00 871.80 30.00
14761 143.7084 876.00 868.83 29.60
14762 143.7176 869.00 865.61 29.48
14763 143.7268 879.00 862.18 29.65
14764 143.7360 888.00 858.57 29.80
14765 143.7452 878.00 854.78 29.63
14766 143.7544 783.00 850.92 27.98
14767 143.7636 803.00 846.93 28.34
14768 143.7728 842.00 842.89 29.02
14769 143.7820 849.00 838.81 29.14
14770 143.7912 829.00 834.75 28.79
14771 143.8004 832.00 830.71 28.84
14772 143.8096 856.00 826.73 29.26
14773 143.8188 754.00 822.83 27.46
14774 143.8280 793.00 819.03 28.16
14775 143.8372 828.00 815.38 28.77
14776 143.8464 824.00 811.82 28.71
14777 143.8556 804.00 808.41 28.35
14778 143.8648 842.00 805.15 29.02
14779 143.8740 813.00 802.06 28.51
14780 143.8832 710.00 799.13 26.65
14781 143.8924 762.00 796.38 27.60
14782 143.9016 766.00 793.78 27.68
14783 143.9108 812.00 791.39 28.50
14784 143.9200 746.00 789.14 27.31
14785 143.9292 844.00 787.05 29.05
14786 143.9384 786.00 785.13 28.04
14787 143.9476 821.00 783.34 28.65
14788 143.9568 771.00 781.73 27.77
14789 143.9660 760.00 780.27 27.57
14790 143.9752 783.00 778.94 27.98
14791 143.9844 799.00 777.76 28.27
14792 143.9936 773.00 776.70 27.80
14793 144.0028 737.00 775.76 27.15
14794 144.0120 818.00 774.95 28.60
14795 144.0212 810.00 774.23 28.46
14796 144.0304 774.00 773.63 27.82
14797 144.0396 798.00 773.11 28.25
14798 144.0488 816.00 772.68 28.57
14799 144.0580 774.00 772.32 27.82
14800 144.0672 788.00 772.02 28.07
14801 144.0764 789.00 771.76 28.09
14802 144.0856 757.00 771.54 27.51
14803 144.0948 777.00 771.34 27.87
14804 144.1040 791.00 771.16 28.12
14805 144.1132 786.00 770.97 28.04
14806 144.1224 773.00 770.75 27.80
14807 144.1316 808.00 770.49 28.43
14808 144.1408 769.00 770.18 27.73
14809 144.1500 789.00 769.81 28.09
14810 144.1592 743.00 769.36 27.26
14811 144.1684 740.00 768.83 27.20
14812 144.1776 765.00 768.20 27.66
14813 144.1868 743.00 767.48 27.26
14814 144.1960 759.00 766.65 27.55
14815 144.2052 783.00 765.71 27.98
14816 144.2144 766.00 764.67 27.68
14817 144.2236 791.00 763.52 28.12
14818 144.2328 749.00 762.28 27.37
14819 144.2420 745.00 760.96 27.29
14820 144.2512 788.00 759.54 28.07
14821 144.2604 768.00 758.05 27.71
14822 144.2696 789.00 756.51 28.09
14823 144.2788 797.00 754.92 28.23
14824 144.2880 715.00 753.29 26.74
14825 144.2972 756.00 751.65 27.50
14826 144.3064 773.00 749.99 27.80
14827 144.3156 732.00 748.34 27.06
14828 144.3248 705.00 746.68 26.55
14829 144.3340 726.00 745.08 26.94
14830 144.3432 707.00 743.51 26.59
14831 144.3524 744.00 741.94 27.28
14832 144.3616 728.00 740.47 26.98
14833 144.3708 755.00 739.07 27.48
14834 144.3800 721.00 737.73 26.85
14835 144.3892 725.00 736.47 26.93
14836 144.3984 767.00 735.28 27.69
14837 144.4076 739.00 734.17 27.18
14838 144.4168 725.00 733.15 26.93
14839 144.4260 696.00 732.20 26.38
14840 144.4352 768.00 731.33 27.71
14841 144.4444 739.00 730.55 27.18
14842 144.4536 741.00 729.84 27.22
14843 144.4628 721.00 729.21 26.85
14844 144.4720 769.00 728.65 27.73
14845 144.4812 701.00 728.16 26.48
14846 144.4904 750.00 727.74 27.39
14847 144.4996 708.00 727.37 26.61
14848 144.5088 704.00 727.07 26.53
14849 144.5180 755.00 726.81 27.48
14850 144.5272 709.00 726.59 26.63
14851 144.5364 697.00 726.41 26.40
14852 144.5456 774.00 726.28 27.82
14853 144.5548 777.00 726.18 27.87
14854 144.5640 730.00 726.10 27.02
14855 144.5732 739.00 726.05 27.18
14856 144.5824 756.00 726.02 27.50
14857 144.5916 722.00 726.00 26.87
14858 144.6008 780.00 726.00 27.93
14859 144.6100 742.00 726.02 27.24
14860 144.6192 727.00 726.05 26.96
14861 144.6284 693.00 726.10 26.32
14862 144.6376 756.00 726.18 27.50
14863 144.6468 718.00 726.29 26.80
14864 144.6560 739.00 726.44 27.18
14865 144.6652 679.00 726.64 26.06
14866 144.6744 714.00 726.89 26.72
14867 144.6836 740.00 727.22 27.20
14868 144.6928 712.00 727.63 26.68
14869 144.7020 750.00 728.14 27.39
14870 144.7112 738.00 728.77 27.17
14871 144.7204 736.00 729.53 27.13
14872 144.7296 742.00 730.45 27.24
14873 144.7388 712.00 731.52 26.68
14874 144.7480 736.00 732.79 27.13
14875 144.7572 732.00 734.26 27.06
14876 144.7664 737.00 735.94 27.15
14877 144.7756 704.00 737.86 26.53
14878 144.7848 763.00 740.05 27.62
14879 144.7940 707.00 742.49 26.59
14880 144.8032 757.00 745.22 27.51
14881 144.8124 718.00 748.24 26.80
14882 144.8216 759.00 751.58 27.55
14883 144.8308 743.00 755.21 27.26
14884 144.8400 743.00 759.18 27.26
14885 144.8492 767.00 763.49 27.69
14886 144.8584 739.00 768.12 27.18
14887 144.8676 747.00 773.11 27.33
14888 144.8768 713.00 778.43 26.70
14889 144.8860 825.00 784.10 28.72
14890 144.8952 734.00 790.04 27.09
14891 144.9044 733.00 796.37 27.07
14892 144.9136 734.00 802.99 27.09
14893 144.9228 736.00 809.92 27.13
14894 144.9320 793.00 817.13 28.16
14895 144.9412 794.00 824.61 28.18
14896 144.9504 849.00 832.33 29.14
14897 144.9596 759.00 840.25 27.55
14898 144.9688 746.00 848.36 27.31
14899 144.9780 832.00 856.62 28.84
14900 144.9872 815.00 864.98 28.55
14901 144.9964 843.00 873.42 29.03
14902 145.0056 811.00 881.91 28.48
14903 145.0148 835.00 890.38 28.90
14904 145.0240 842.00 898.83 29.02
14905 145.0332 803.00 907.14 28.34
14906 145.0424 858.00 915.32 29.29
14907 145.0516 924.00 923.31 30.40
14908 145.0608 867.00 931.04 29.44
14909 145.0700 948.00 938.51 30.79
14910 145.0792 934.00 945.62 30.56
14911 145.0884 976.00 952.39 31.24
14912 145.0976 986.00 958.74 31.40
14913 145.1068 959.00 964.65 30.97
14914 145.1160 933.00 970.08 30.55
14915 145.1252 986.00 975.00 31.40
14916 145.1344 936.00 979.39 30.59
14917 145.1436 992.00 983.24 31.50
14918 145.1528 1029.00 986.53 32.08
14919 145.1620 1029.00 989.24 32.08
14920 145.1712 1051.00 991.38 32.42
14921 145.1804 987.00 992.93 31.42
14922 145.1896 1009.00 993.91 31.76
14923 145.1988 1028.00 994.32 32.06
14924 145.2080 1049.00 994.17 32.39
14925 145.2172 1038.00 993.47 32.22
14926 145.2264 1010.00 992.25 31.78
14927 145.2356 992.00 990.52 31.50
14928 145.2448 992.00 988.32 31.50
14929 145.2540 981.00 985.66 31.32
14930 145.2632 952.00 982.58 30.85
14931 145.2724 1000.00 979.13 31.62
14932 145.2816 1029.00 975.31 32.08
14933 145.2908 1009.00 971.16 31.76
14934 145.3000 920.00 966.74 30.33
14935 145.3092 939.00 962.05 30.64
14936 145.3184 946.00 957.16 30.76
14937 145.3276 953.00 952.07 30.87
14938 145.3368 971.00 946.84 31.16
14939 145.3460 966.00 941.47 31.08
14940 145.3552 931.00 936.00 30.51
14941 145.3644 944.00 930.44 30.72
14942 145.3736 986.00 924.83 31.40
14943 145.3828 923.00 919.16 30.38
14944 145.3920 947.00 913.47 30.77
14945 145.4012 903.00 907.79 30.05
14946 145.4104 928.00 902.09 30.46
14947 145.4196 900.00 896.42 30.00
14948 145.4288 941.00 890.75 30.68
14949 145.4380 932.00 885.12 30.53
14950 145.4472 927.00 879.51 30.45
14951 145.4564 995.00 873.96 31.54
14952 145.4656 908.00 868.45 30.13
14953 145.4748 886.00 863.02 29.77
14954 145.4840 876.00 857.64 29.60
14955 145.4932 919.00 852.33 30.32
14956 145.5024 890.00 847.10 29.83
14957 145.5116 961.00 841.95 31.00
14958 145.5208 892.00 836.91 29.87
14959 145.5300 871.00 832.01 29.51
14960 145.5392 882.00 827.20 29.70
14961 145.5484 846.00 822.49 29.09
14962 145.5576 878.00 817.92 29.63
14963 145.5668 822.00 813.48 28.67
14964 145.5760 824.00 809.21 28.71
14965 145.5852 892.00 805.08 29.87
14966 145.5944 801.00 801.12 28.30
14967 145.6036 834.00 797.35 28.88
14968 145.6128 814.00 793.75 28.53
14969 145.6220 802.00 790.34 28.32
14970 145.6312 820.00 787.11 28.64
14971 145.6404 828.00 784.09 28.77
14972 145.6496 777.00 781.26 27.87
14973 145.6588 834.00 778.63 28.88
14974 145.6680 837.00 776.19 28.93
14975 145.6772 801.00 773.96 28.30
14976 145.6864 792.00 771.90 28.14
14977 145.6956 788.00 770.04 28.07
14978 145.7048 766.00 768.35 27.68
14979 145.7140 763.00 766.83 27.62
14980 145.7232 783.00 765.47 27.98
14981 145.7324 755.00 764.26 27.48
14982 145.7416 758.00 763.19 27.53
14983 145.7508 724.00 762.24 26.91
14984 145.7600 821.00 761.39 28.65
14985 145.7692 792.00 760.68 28.14
14986 145.7784 783.00 760.01 27.98
14987 145.7876 723.00 759.40 26.89
14988 145.7968 757.00 758.84 27.51
14989 145.8060 802.00 758.30 28.32
14990 145.8152 799.00 757.78 28.27
14991 145.8244 744.00 757.26 27.28
14992 145.8336 761.00 756.71 27.59
14993 145.8428 764.00 756.14 27.64
14994 145.8520 781.00 755.52 27.95
14995 145.8612 769.00 754.85 27.73
14996 145.8704 759.00 754.11 27.55
14997 145.8796 759.00 753.30 27.55
14998 145.8888 764.00 752.41 27.64
14999 145.8980 750.00 751.45 27.39
15000 145.9072 801.00 750.40 28.30
15001 145.9164 779.00 749.27 27.91
15002 145.9256 734.00 748.06 27.09
15003 145.9348 794.00 746.78 28.18
15004 145.9440 797.00 745.44 28.23
15005 145.9532 727.00 744.03 26.96
15006 145.9624 742.00 742.58 27.24
15007 145.9716 732.00 741.08 27.06
15008 145.9808 769.00 739.54 27.73
15009 145.9900 710.00 737.98 26.65
15010 145.9992 738.00 736.41 27.17
15011 146.0084 752.00 734.84 27.42
15012 146.0176 745.00 733.28 27.29
15013 146.0268 712.00 731.73 26.68
15014 146.0360 765.00 730.21 27.66
15015 146.0452 697.00 728.73 26.40
15016 146.0544 691.00 727.29 26.29
15017 146.0636 762.00 725.91 27.60
15018 146.0728 729.00 724.59 27.00
15019 146.0820 680.00 723.35 26.08
15020 146.0912 711.00 722.17 26.66
15021 146.1004 717.00 721.09 26.78
15022 146.1096 753.00 720.08 27.44
15023 146.1188 729.00 719.17 27.00
15024 146.1280 717.00 718.36 26.78
15025 146.1372 702.00 717.64 26.50
15026 146.1464 704.00 717.03 26.53
15027 146.1556 630.00 716.47 25.10
15028 146.1648 694.00 716.07 26.34
15029 146.1740 683.00 715.78 26.13
15030 146.1832 697.00 715.61 26.40
15031 146.1924 722.00 715.55 26.87
15032 146.2016 686.00 715.60 26.19
15033 146.2108 702.00 715.76 26.50
15034 146.2200 741.00 716.03 27.22
15035 146.2292 696.00 716.42 26.38
15036 146.2384 705.00 716.92 26.55
15037 146.2476 743.00 717.53 27.26
15038 146.2568 747.00 718.25 27.33
15039 146.2660 708.00 719.09 26.61
15040 146.2752 736.00 720.03 27.13
15041 146.2844 738.00 721.08 27.17
15042 146.2936 760.00 722.24 27.57
15043 146.3028 747.00 723.50 27.33
15044 146.3120 703.00 724.87 26.51
15045 146.3212 731.00 726.34 27.04
15046 146.3304 715.00 727.91 26.74
15047 146.3396 741.00 729.58 27.22
15048 146.3488 691.00 731.34 26.29
15049 146.3580 730.00 733.19 27.02
15050 146.3672 732.00 735.12 27.06
15051 146.3764 752.00 737.13 27.42
15052 146.3856 726.00 739.21 26.94
15053 146.3948 708.00 741.36 26.61
15054 146.4040 745.00 743.54 27.29
15055 146.4132 738.00 745.79 27.17
15056 146.4224 697.00 748.07 26.40
15057 146.4316 771.00 750.38 27.77
15058 146.4408 752.00 752.71 27.42
15059 146.4500 727.00 755.03 26.96
15060 146.4592 734.00 757.35 27.09
15061 146.4684 744.00 759.64 27.28
15062 146.4776 732.00 761.90 27.06
15063 146.4868 758.00 764.10 27.53
15064 146.4960 817.00 766.23 28.58
15065 146.5052 772.00 768.29 27.78
15066 146.5144 780.00 770.25 27.93
15067 146.5236 750.00 772.10 27.39
15068 146.5328 728.00 773.83 26.98
15069 146.5420 757.00 775.42 27.51
15070 146.5512 771.00 776.87 27.77
15071 146.5604 773.00 778.16 27.80
15072 146.5696 801.00 779.28 28.30
15073 146.5788 818.00 780.23 28.60
15074 146.5880 757.00 781.00 27.51
15075 146.5972 762.00 781.58 27.60
15076 146.6064 804.00 781.97 28.35
15077 146.6156 788.00 782.17 28.07
15078 146.6248 771.00 782.17 27.77
15079 146.6340 817.00 781.98 28.58
15080 146.6432 795.00 781.60 28.20
15081 146.6524 776.00 781.03 27.86
15082 146.6616 807.00 780.27 28.41
15083 146.6708 755.00 779.32 27.48
15084 146.6800 761.00 778.21 27.59
15085 146.6892 772.00 776.92 27.78
15086 146.6984 823.00 775.47 28.69
15087 146.7076 821.00 773.86 28.65
15088 146.7168 790.00 772.12 28.11
15089 146.7260 735.00 770.24 27.11
15090 146.7352 772.00 768.24 27.78
15091 146.7444 762.00 766.13 27.60
15092 146.7536 769.00 763.92 27.73
15093 146.7628 798.00 761.63 28.25
15094 146.7720 780.00 759.27 27.93
15095 146.7812 775.00 756.85 27.84
15096 146.7904 795.00 754.38 28.20
15097 146.7996 781.00 751.87 27.95
15098 146.8088 773.00 749.32 27.80
15099 146.8180 711.00 746.79 26.66
15100 146.8272 721.00 744.26 26.85
15101 146.8364 734.00 741.74 27.09
15102 146.8456 789.00 739.25 28.09
15103 146.8548 745.00 736.78 27.29
15104 146.8640 758.00 734.36 27.53
15105 146.8732 758.00 731.99 27.53
15106 146.8824 807.00 729.69 28.41
15107 146.8916 736.00 727.44 27.13
15108 146.9008 703.00 725.27 26.51
15109 146.9100 713.00 723.18 26.70
15110 146.9192 760.00 721.17 27.57
15111 146.9284 726.00 719.24 26.94
15112 146.9376 746.00 717.40 27.31
15113 146.9468 700.00 715.66 26.46
15114 146.9560 735.00 714.01 27.11
15115 146.9652 716.00 712.46 26.76
15116 146.9744 729.00 711.01 27.00
15117 146.9836 699.00 709.65 26.44
15118 146.9928 725.00 708.38 26.93
15119 147.0020 673.00 707.16 25.94
15120 147.0112 710.00 706.09 26.65
15121 147.0204 696.00 705.12 26.38
15122 147.0296 665.00 704.23 25.79
15123 147.0388 750.00 703.43 27.39
15124 147.0480 722.00 702.72 26.87
15125 147.0572 740.00 702.10 27.20
15126 147.0664 737.00 701.51 27.15
15127 147.0756 723.00 701.04 26.89
15128 147.0848 704.00 700.65 26.53
15129 147.0940 714.00 700.32 26.72
15130 147.1032 721.00 700.06 26.85
15131 147.1124 681.00 699.87 26.10
15132 147.1216 693.00 699.69 26.32
15133 147.1308 700.00 699.60 26.46
15134 147.1400 735.00 699.57 27.11
15135 147.1492 679.00 699.57 26.06
15136 147.1584 721.00 699.61 26.85
15137 147.1676 724.00 699.69 26.91
15138 147.1768 665.00 699.81 25.79
15139 147.1860 698.00 699.95 26.42
15140 147.1952 704.00 700.11 26.53
15141 147.2044 704.00 700.30 26.53
15142 147.2136 735.00 700.50 27.11
15143 147.2228 693.00 700.71 26.32
15144 147.2320 716.00 700.93 26.76
15145 147.2412 721.00 701.16 26.85
15146 147.2504 715.00 701.39 26.74
15147 147.2596 691.00 701.61 26.29
15148 147.2688 673.00 701.84 25.94
15149 147.2780 652.00 702.08 25.53
15150 147.2872 741.00 702.31 27.22
15151 147.2964 706.00 702.54 26.57
15152 147.3056 707.00 702.76 26.59
15153 147.3148 714.00 702.99 26.72
15154 147.3240 735.00 703.21 27.11
15155 147.3332 749.00 703.44 27.37
15156 147.3424 670.00 703.67 25.88
15157 147.3516 692.00 703.90 26.31
15158 147.3608 718.00 704.15 26.80
15159 147.3700 704.00 704.40 26.53
15160 147.3792 701.00 704.67 26.48
15161 147.3884 678.00 704.96 26.04
15162 147.3976 741.00 705.26 27.22
15163 147.4068 695.00 705.59 26.36
15164 147.4160 681.00 705.95 26.10
15165 147.4252 698.00 706.33 26.42
15166 147.4344 707.00 706.75 26.59
15167 147.4436 707.00 707.21 26.59
15168 147.4528 679.00 707.70 26.06
15169 147.4620 652.00 708.23 25.53
15170 147.4712 682.00 708.80 26.12
15171 147.4804 711.00 709.41 26.66
15172 147.4896 675.00 710.07 25.98
15173 147.4988 718.00 710.77 26.80
15174 147.5080 728.00 711.51 26.98
15175 147.5172 735.00 712.29 27.11
15176 147.5264 695.00 713.11 26.36
15177 147.5356 678.00 713.98 26.04
15178 147.5448 733.00 714.88 27.07
15179 147.5540 676.00 715.81 26.00
15180 147.5632 766.00 716.78 27.68
15181 147.5724 686.00 717.77 26.19
15182 147.5816 754.00 718.78 27.46
15183 147.5908 789.00 719.80 28.09
15184 147.6000 703.00 720.84 26.51
15185 147.6092 678.00 721.89 26.04
15186 147.6184 705.00 722.95 26.55
15187 147.6276 731.00 723.98 27.04
15188 147.6368 711.00 725.01 26.66
15189 147.6460 754.00 726.01 27.46
15190 147.6552 707.00 726.99 26.59
15191 147.6644 741.00 727.94 27.22
15192 147.6736 722.00 728.84 26.87
15193 147.6828 733.00 729.71 27.07
15194 147.6920 771.00 730.52 27.77
15195 147.7012 775.00 731.27 27.84
15196 147.7104 718.00 731.96 26.80
15197 147.7196 748.00 732.59 27.35
15198 147.7288 742.00 733.16 27.24
15199 147.7380 714.00 733.65 26.72
15200 147.7472 757.00 734.08 27.51
15201 147.7564 715.00 734.43 26.74
15202 147.7656 741.00 734.72 27.22
15203 147.7748 779.00 734.94 27.91
15204 147.7840 772.00 735.10 27.78
15205 147.7932 719.00 735.20 26.81
15206 147.8024 719.00 735.22 26.81
15207 147.8116 759.00 735.22 27.55
15208 147.8208 703.00 735.18 26.51
15209 147.8300 774.00 735.11 27.82
15210 147.8392 820.00 735.01 28.64
15211 147.8484 765.00 734.91 27.66
15212 147.8576 774.00 734.85 27.82
15213 147.8668 747.00 734.75 27.33
15214 147.8760 764.00 734.67 27.64
15215 147.8852 741.00 734.62 27.22
15216 147.8944 725.00 734.61 26.93
15217 147.9036 770.00 734.65 27.75
15218 147.9128 767.00 734.76 27.69
15219 147.9220 722.00 734.94 26.87
15220 147.9312 723.00 735.20 26.89
15221 147.9404 754.00 735.57 27.46
15222 147.9496 719.00 736.03 26.81
15223 147.9588 745.00 736.61 27.29
15224 147.9680 726.00 737.30 26.94
15225 147.9772 712.00 738.14 26.68
15226 147.9864 744.00 739.12 27.28
15227 147.9956 716.00 740.24 26.76
15228 148.0048 770.00 741.51 27.75
15229 148.0140 789.00 742.94 28.09
15230 148.0232 731.00 744.53 27.04
15231 148.0324 760.00 746.28 27.57
15232 148.0416 715.00 748.19 26.74
15233 148.0508 716.00 750.27 26.76
15234 148.0600 739.00 752.50 27.18
15235 148.0692 719.00 754.89 26.81
15236 148.0784 764.00 757.44 27.64
15237 148.0876 764.00 760.14 27.64
15238 148.0968 768.00 762.98 27.71
15239 148.1060 733.00 765.95 27.07
15240 148.1152 751.00 769.05 27.40
15241 148.1244 762.00 772.26 27.60
15242 148.1336 706.00 775.57 26.57
15243 148.1428 733.00 778.96 27.07
15244 148.1520 717.00 782.43 26.78
15245 148.1612 816.00 785.96 28.57
15246 148.1704 814.00 789.52 28.53
15247 148.1796 733.00 793.10 27.07
15248 148.1888 736.00 796.68 27.13
15249 148.1980 803.00 800.24 28.34
15250 148.2072 787.00 803.75 28.05
15251 148.2164 760.00 807.20 27.57
15252 148.2256 816.00 810.57 28.57
15253 148.2348 842.00 813.82 29.02
15254 148.2440 790.00 816.95 28.11
15255 148.2532 812.00 819.93 28.50
15256 148.2624 811.00 822.73 28.48
15257 148.2716 832.00 825.33 28.84
15258 148.2808 877.00 827.72 29.61
15259 148.2900 841.00 829.87 29.00
15260 148.2992 853.00 831.78 29.21
15261 148.3084 828.00 833.43 28.77
15262 148.3176 837.00 834.80 28.93
15263 148.3268 840.00 835.90 28.98
15264 148.3360 864.00 836.71 29.39
15265 148.3452 773.00 837.23 27.80
15266 148.3544 841.00 837.46 29.00
15267 148.3636 848.00 837.42 29.12
15268 148.3728 909.00 837.10 30.15
15269 148.3820 824.00 836.51 28.71
15270 148.3912 840.00 835.68 28.98
15271 148.4004 830.00 834.60 28.81
15272 148.4096 850.00 833.32 29.15
15273 148.4188 873.00 831.84 29.55
15274 148.4280 865.00 830.18 29.41
15275 148.4372 855.00 828.37 29.24
15276 148.4464 832.00 826.45 28.84
15277 148.4556 803.00 824.40 28.34
15278 148.4648 789.00 822.27 28.09
15279 148.4740 872.00 820.09 29.53
15280 148.4832 827.00 817.87 28.76
15281 148.4924 850.00 815.65 29.15
15282 148.5016 832.00 813.43 28.84
15283 148.5108 727.00 811.25 26.96
15284 148.5200 754.00 809.12 27.46
15285 148.5292 867.00 807.02 29.44
15286 148.5384 794.00 805.05 28.18
15287 148.5476 785.00 803.20 28.02
15288 148.5568 813.00 801.46 28.51
15289 148.5660 805.00 799.86 28.37
15290 148.5752 785.00 798.41 28.02
15291 148.5844 807.00 797.11 28.41
15292 148.5936 781.00 795.99 27.95
15293 148.6028 763.00 795.03 27.62
15294 148.6120 784.00 794.26 28.00
15295 148.6212 782.00 793.67 27.96
15296 148.6304 737.00 793.27 27.15
15297 148.6396 784.00 793.05 28.00
15298 148.6488 777.00 793.03 27.87
15299 148.6580 787.00 793.14 28.05
15300 148.6672 766.00 793.49 27.68
15301 148.6764 773.00 794.02 27.80
15302 148.6856 840.00 794.73 28.98
15303 148.6948 793.00 795.61 28.16
15304 148.7040 815.00 796.66 28.55
15305 148.7132 765.00 797.86 27.66
15306 148.7224 784.00 799.21 28.00
15307 148.7316 809.00 800.71 28.44
15308 148.7408 837.00 802.34 28.93
15309 148.7500 787.00 804.11 28.05
15310 148.7592 856.00 805.98 29.26
15311 148.7684 769.00 807.96 27.73
15312 148.7776 804.00 810.03 28.35
15313 148.7868 857.00 812.20 29.27
15314 148.7960 814.00 814.45 28.53
15315 148.8052 840.00 816.78 28.98
15316 148.8144 820.00 819.17 28.64
15317 148.8236 785.00 821.61 28.02
15318 148.8328 812.00 824.10 28.50
15319 148.8420 833.00 826.64 28.86
15320 148.8512 832.00 829.22 28.84
15321 148.8604 839.00 831.83 28.97
15322 148.8696 856.00 834.46 29.26
15323 148.8788 834.00 837.11 28.88
15324 148.8880 830.00 839.78 28.81
15325 148.8972 836.00 842.46 28.91
15326 148.9064 815.00 845.15 28.55
15327 148.9156 830.00 847.84 28.81
15328 148.9248 813.00 850.53 28.51
15329 148.9340 829.00 853.20 28.79
15330 148.9432 763.00 855.86 27.62
15331 148.9524 850.00 858.49 29.15
15332 148.9616 833.00 861.09 28.86
15333 148.9708 822.00 863.65 28.67
15334 148.9800 831.00 866.16 28.83
15335 148.9892 832.00 868.60 28.84
15336 148.9984 858.00 870.99 29.29
15337 149.0076 852.00 873.29 29.19
15338 149.0168 861.00 875.50 29.34
15339 149.0260 817.00 877.61 28.58
15340 149.0352 880.00 879.59 29.66
15341 149.0444 851.00 881.45 29.17
15342 149.0536 860.00 883.17 29.33
15343 149.0628 873.00 884.73 29.55
15344 149.0720 892.00 886.13 29.87
15345 149.0812 844.00 887.36 29.05
15346 149.0904 902.00 888.41 30.03
15347 149.0996 886.00 889.27 29.77
15348 149.1088 913.00 889.94 30.22
15349 149.1180 870.00 890.42 29.50
15350 149.1272 899.00 890.70 29.98
15351 149.1364 907.00 890.79 30.12
15352 149.1456 884.00 890.68 29.73
15353 149.1548 910.00 890.39 30.17
15354 149.1640 838.00 889.93 28.95
15355 149.1732 891.00 889.29 29.85
15356 149.1824 899.00 888.50 29.98
15357 149.1916 896.00 887.56 29.93
15358 149.2008 908.00 886.49 30.13
15359 149.2100 958.00 885.31 30.95
15360 149.2192 961.00 884.02 31.00
15361 149.2284 939.00 882.64 30.64
15362 149.2376 964.00 881.21 31.05
15363 149.2468 899.00 879.71 29.98
15364 149.2560 879.00 878.16 29.65
15365 149.2652 977.00 876.58 31.26
15366 149.2744 920.00 875.00 30.33
15367 149.2836 869.00 873.38 29.48
15368 149.2928 881.00 871.82 29.68
15369 149.3020 913.00 870.28 30.22
15370 149.3112 870.00 868.78 29.50
15371 149.3204 864.00 867.34 29.39
15372 149.3296 913.00 865.96 30.22
15373 149.3388 842.00 864.66 29.02
15374 149.3480 883.00 863.44 29.72
15375 149.3572 822.00 862.31 28.67
15376 149.3664 889.00 861.28 29.82
15377 149.3756 854.00 860.36 29.22
15378 149.3848 832.00 859.55 28.84
15379 149.3940 865.00 858.86 29.41
15380 149.4032 810.00 858.29 28.46
15381 149.4124 873.00 857.84 29.55
15382 149.4216 861.00 857.52 29.34
15383 149.4308 859.00 857.32 29.31
15384 149.4400 877.00 857.25 29.61
15385 149.4492 861.00 857.30 29.34
15386 149.4584 848.00 857.48 29.12
15387 149.4676 879.00 857.78 29.65
15388 149.4768 867.00 858.19 29.44
15389 149.4860 833.00 858.71 28.86
15390 149.4952 904.00 859.34 30.07
15391 149.5044 821.00 860.08 28.65
15392 149.5136 832.00 860.91 28.84
15393 149.5228 844.00 861.85 29.05
15394 149.5320 940.00 862.87 30.66
15395 149.5412 921.00 863.98 30.35
15396 149.5504 879.00 865.18 29.65
15397 149.5596 906.00 866.46 30.10
15398 149.5688 896.00 867.82 29.93
15399 149.5780 906.00 869.25 30.10
15400 149.5872 857.00 870.76 29.27
15401 149.5964 859.00 872.35 29.31
15402 149.6056 872.00 874.01 29.53
15403 149.6148 897.00 875.75 29.95
15404 149.6240 940.00 877.57 30.66
15405 149.6332 911.00 879.46 30.18
15406 149.6424 861.00 881.43 29.34
15407 149.6516 903.00 883.47 30.05
15408 149.6608 846.00 885.59 29.09
15409 149.6700 861.00 887.78 29.34
15410 149.6792 906.00 890.04 30.10
15411 149.6884 851.00 892.37 29.17
15412 149.6976 914.00 894.77 30.23
15413 149.7068 882.00 897.22 29.70
15414 149.7160 911.00 899.72 30.18
15415 149.7252 834.00 902.27 28.88
15416 149.7344 930.00 904.87 30.50
15417 149.7436 940.00 907.50 30.66
15418 149.7528 866.00 910.15 29.43
15419 149.7620 859.00 912.81 29.31
15420 149.7712 883.00 915.47 29.72
15421 149.7804 816.00 918.11 28.57
15422 149.7896 901.00 920.74 30.02
15423 149.7988 904.00 923.35 30.07
15424 149.8080 950.00 925.92 30.82
15425 149.8172 906.00 928.43 30.10
15426 149.8264 900.00 930.88 30.00
15427 149.8356 938.00 933.25 30.63
15428 149.8448 949.00 935.54 30.81
15429 149.8540 933.00 937.72 30.55
15430 149.8632 894.00 939.81 29.90
15431 149.8724 980.00 941.78 31.31
15432 149.8816 929.00 943.63 30.48
15433 149.8908 937.00 945.35 30.61
15434 149.9000 947.00 946.93 30.77
15435 149.9092 905.00 948.37 30.08
15436 149.9184 924.00 949.66 30.40
15437 149.9276 948.00 950.80 30.79
loop_
_refln_index_h
_refln_index_k
_refln_index_l
_refln_F_squared_calc
_refln_F_squared_meas
_refln_F_squared_sigma
_refln_observed_status
_refln_d_spacing
0 1 1 2287.12 2262.66 303.18 o 8.7
0 2 0 28437.60 27715.28 958.59 o 7.2
1 0 1 241.28 438.77 350.05 < 6.1
1 1 1 12699.57 12873.03 370.15 o 5.6
0 0 2 19.06 25.03 30.26 < 5.5
1 2 1 4151.37 4128.62 247.65 o 4.7
1 0 2 70.26 48.44 10.94 o 4.4
0 3 1 620.89 452.67 69.62 o 4.4
0 2 2 45738.52 48691.28 1246.80 o 4.3
1 1 2 395.58 280.58 181.33 < 4.2
1 3 1 37535.22 38503.29 914.53 o 3.8
1 2 2 1769.18 1713.38 96.12 o 3.7
2 0 0 69184.22 61696.31 1859.54 o 3.7
0 4 0 38986.63 41038.30 1404.51 o 3.6
2 1 0 31918.46 30292.27 906.87 o 3.6
0 1 3 10361.55 10215.83 515.23 o 3.5
2 0 1 136669.61 135494.64 3005.80 o 3.5
2 1 1 44693.96 43557.07 1027.59 o 3.4
2 2 0 26502.61 25354.68 795.63 o 3.3
1 0 3 51348.48 53084.43 1392.05 o 3.3
1 3 2 545.43 508.04 138.39 o 3.2
1 1 3 149.99 327.45 219.34 < 3.2
2 2 1 14493.73 14692.81 497.45 o 3.1
1 4 1 104.68 81.30 12.03 o 3.1
2 0 2 667384.88 684421.00 14066.17 o 3.0
0 4 2 1146152.38 1219836.12 24896.39 o 3.0
2 1 2 31146.49 32762.70 682.82 o 3.0
1 2 3 5290.11 4308.13 138.49 o 3.0
2 3 0 67785.95 64439.93 1666.99 o 2.9
0 3 3 12660.75 13271.30 715.95 o 2.9
2 3 1 46365.70 47153.02 1043.47 o 2.8
2 2 2 135092.55 133709.02 2842.94 o 2.8
1 4 2 9722.81 9828.63 366.82 o 2.8
0 5 1 2742.49 2764.19 102.43 o 2.8
0 0 4 976736.88 969873.88 20277.01 o 2.7
1 3 3 10993.50 11064.35 427.86 o 2.7
1 5 1 125310.04 126645.12 2701.61 o 2.6
2 0 3 178331.89 179021.66 3834.97 o 2.6
2 3 2 54024.51 50132.80 1067.03 o 2.6
2 4 0 248716.89 232164.69 4937.07 o 2.6
1 0 4 37159.56 38271.54 953.21 o 2.5
0 2 4 6319.73 6279.85 143.34 o 2.5
2 1 3 60260.06 59890.38 1381.93 o 2.5
1 1 4 3678.89 4075.48 251.05 o 2.5
2 4 1 75353.60 70835.10 1632.88 o 2.5
2 2 3 8575.70 8531.42 437.20 o 2.4
1 4 3 28103.00 27322.90 724.00 o 2.4
1 2 4 9105.95 8809.45 235.18 o 2.4
1 5 2 12925.55 12828.73 408.23 o 2.4
3 0 1 15419.83 15009.09 479.41 o 2.4
0 6 0 30386.53 28735.16 1151.52 o 2.4
3 1 1 12122.94 10404.97 469.60 o 2.3
2 4 2 26069.71 24483.58 742.36 o 2.3
2 3 3 22872.45 21699.74 538.51 o 2.3
3 2 1 35775.58 34344.63 843.46 o 2.3
2 5 0 6202.40 6244.57 313.11 o 2.2
1 3 4 13460.46 13244.64 438.59 o 2.2
0 5 3 14960.78 14440.37 486.11 o 2.2
3 0 2 49303.13 49540.43 1511.74 o 2.2
1 6 1 7887.90 7292.71 345.56 o 2.2
2 5 1 45695.85 43743.48 1105.02 o 2.2
3 1 2 5241.71 4935.47 127.62 o 2.2
2 0 4 48060.30 48076.26 1207.48 o 2.2
0 6 2 59025.63 59442.94 1479.50 o 2.2
0 4 4 4185.60 4072.80 132.29 o 2.1
2 1 4 25811.96 25140.95 734.17 o 2.1
0 1 5 10640.09 10935.95 243.74 o 2.1
1 5 3 120907.31 123858.16 2726.09 o 2.1
3 3 1 287.02 232.51 20.94 o 2.1
3 2 2 3667.18 3349.49 285.20 o 2.1
1 6 2 5343.63 5295.89 114.41 o 2.1
2 4 3 118239.27 117310.42 2533.79 o 2.1
2 2 4 36964.95 36359.07 781.87 o 2.1
1 0 5 38635.29 38223.68 904.04 o 2.1
2 5 2 0.67 0.64 0.10 o 2.1
1 4 4 2496.16 2601.47 217.55 o 2.1
1 1 5 2190.26 2170.90 344.21 o 2.0
3 0 3 9975.51 9053.65 890.38 o 2.0
3 3 2 2072.19 1487.38 302.08 o 2.0
3 1 3 2296.08 2172.33 141.49 o 2.0
0 7 1 4427.62 4253.50 252.21 o 2.0
1 2 5 398.29 382.76 9.81 o 2.0
2 6 0 165596.36 157303.36 3695.68 o 2.0
2 3 4 68281.99 68441.35 1640.01 o 2.0
3 4 1 3379.94 3382.17 80.20 o 2.0
0 3 5 17716.88 17534.59 744.83 o 2.0
2 6 1 7085.58 6799.59 493.85 o 1.9
3 2 3 606.51 366.99 345.51 < 1.9
1 7 1 1802.41 1164.36 433.95 < 1.9
1 6 3 7939.37 7995.02 524.55 o 1.9
2 5 3 6586.17 6797.66 317.81 o 1.9
1 3 5 20158.81 20345.01 737.09 o 1.9
1 5 4 10586.49 10471.77 568.28 o 1.9
3 4 2 418.81 296.25 110.98 < 1.9
2 6 2 17518.64 17170.62 550.98 o 1.9
2 0 5 42969.36 41529.63 1103.89 o 1.9
3 3 3 3907.52 3810.77 80.00 o 1.8
2 4 4 303221.09 294695.31 6197.28 o 1.8
2 1 5 2648.58 2119.15 101.13 o 1.8
1 7 2 4318.61 4151.82 291.49 o 1.8
4 0 0 105283.48 104302.44 2698.41 o 1.8
3 5 1 40313.59 39153.21 1004.45 o 1.8
4 1 0 263402.62 255357.23 5753.64 o 1.8
3 0 4 145.44 139.78 3.19 o 1.8
0 0 6 2824.62 2833.93 78.00 o 1.8
2 2 5 4169.93 4205.89 115.14 o 1.8
4 0 1 81288.55 81915.31 2199.90 o 1.8
3 1 4 6020.79 6087.56 161.09 o 1.8
1 4 5 66081.08 66275.03 1634.28 o 1.8
4 1 1 394.06 364.56 12.86 o 1.8
0 6 4 60438.93 57851.98 1531.88 o 1.8
0 8 0 491435.56 529891.69 11852.26 o 1.8
2 7 0 11143.78 12187.92 278.26 o 1.8
0 7 3 5127.88 4613.42 169.19 o 1.8
4 2 0 35305.16 32133.58 1233.42 o 1.8
3 4 3 820.73 815.23 32.85 o 1.7
3 2 4 152.47 143.09 5.07 o 1.7
2 7 1 25026.36 23231.97 789.40 o 1.7
1 0 6 111.09 103.78 3.37 o 1.7
3 5 2 3187.57 2975.89 96.93 o 1.7
0 2 6 4159.64 3577.86 119.45 o 1.7
4 2 1 31322.66 27627.54 889.27 o 1.7
2 6 3 1288.95 1210.97 72.49 o 1.7
1 1 6 4217.75 3842.96 176.90 o 1.7
2 3 5 49751.68 47820.57 1330.42 o 1.7
1 6 4 0.00 0.00 0.00 o 1.7
4 0 2 1171.12 1124.66 34.97 o 1.7
2 5 4 201.62 150.22 14.90 o 1.7
0 5 5 16960.85 17704.81 955.35 o 1.7
1 7 3 5682.14 5870.15 321.23 o 1.7
4 1 2 534.83 520.90 44.19 o 1.7
1 8 1 12526.63 12856.28 579.46 o 1.7
4 3 0 13415.03 13735.87 614.45 o 1.7
1 2 6 1268.58 1183.76 155.02 o 1.7
3 3 4 437.11 464.48 11.77 o 1.7
0 8 2 139340.17 147025.19 3567.87 o 1.7
2 7 2 19100.52 20308.20 495.98 o 1.7
4 3 1 3562.91 3402.01 96.62 o 1.7
4 2 2 30626.18 29741.47 760.46 o 1.7
3 6 1 51826.27 51495.19 1181.27 o 1.7
1 5 5 69239.33 68870.16 1591.08 o 1.7
2 4 5 89770.48 90122.45 2078.59 o 1.6
3 5 3 80458.67 77322.84 1797.42 o 1.6
1 8 2 188.96 180.68 4.20 o 1.6
1 3 6 472.79 450.27 14.67 o 1.6
4 0 3 2956.44 3139.67 74.33 o 1.6
4 3 2 343492.50 333474.00 7074.79 o 1.6
4 4 0 6574.97 6379.80 134.43 o 1.6
3 6 2 2471.48 2632.79 62.67 o 1.6
4 1 3 7706.71 7958.85 184.17 o 1.6
3 0 5 14121.82 14546.40 339.54 o 1.6
2 0 6 194554.73 200005.72 4599.12 o 1.6
3 4 4 30458.72 31047.47 745.26 o 1.6
0 4 6 479702.59 498330.31 10596.68 o 1.6
3 1 5 14423.12 14882.68 317.88 o 1.6
4 4 1 19618.71 20163.14 429.20 o 1.6
2 1 6 32351.47 33156.64 704.22 o 1.6
2 6 4 113277.69 110388.50 2534.87 o 1.6
2 8 0 3193.07 3002.68 83.92 o 1.6
2 7 3 33005.27 33930.55 1087.40 o 1.6
4 2 3 25131.57 25714.18 895.23 o 1.6
1 7 4 1221.90 1257.67 44.42 o 1.6
2 8 1 54969.46 57790.68 1493.80 o 1.6
3 2 5 57015.36 58141.91 1334.92 o 1.6
2 2 6 72849.73 74129.77 1699.68 o 1.6
1 4 6 78029.64 82408.34 2065.30 o 1.6
0 9 1 60.45 65.28 3.02 o 1.5
1 6 5 18987.46 19583.31 600.91 o 1.5
1 8 3 2050.78 2024.52 48.10 o 1.5
2 5 5 55518.28 54640.88 1294.31 o 1.5
4 4 2 67612.14 66250.80 1571.89 o 1.5
3 7 1 3767.84 3930.22 342.28 o 1.5
4 3 3 629.33 631.34 24.35 o 1.5
4 5 0 41463.84 41557.34 959.52 o 1.5
3 6 3 94116.46 94445.59 2163.29 o 1.5
0 1 7 22404.64 22509.85 510.23 o 1.5
2 8 2 75202.45 76647.49 1700.63 o 1.5
3 3 5 20728.03 21928.11 472.44 o 1.5
2 3 6 36817.98 38697.79 831.42 o 1.5
1 9 1 200647.59 210904.78 4547.51 o 1.5
3 5 4 1584.44 1648.98 36.45 o 1.5
4 5 1 6176.16 5935.17 399.14 o 1.5
4 0 4 67150.69 69274.62 1798.94 o 1.5
1 0 7 94811.84 97243.57 2521.39 o 1.5
4 1 4 171602.89 172242.06 3897.22 o 1.5
1 1 7 1066.07 1071.28 25.53 o 1.5
3 7 2 164.29 198.55 18.20 o 1.5
1 5 6 282.89 248.10 31.56 o 1.5
0 8 4 162585.39 178182.91 4463.29 o 1.5
1 9 2 19.86 21.62 0.73 o 1.5
2 7 4 8812.66 9701.54 240.42 o 1.5
4 4 3 36229.35 36154.99 907.59 o 1.5
0 7 5 2599.81 2594.48 65.04 o 1.5
4 2 4 17825.05 17691.22 434.00 o 1.5
1 2 7 5680.61 5678.52 137.92 o 1.5
4 5 2 61902.46 61936.04 1552.62 o 1.5
3 4 5 111.87 141.26 12.69 o 1.5
2 4 6 4121.37 5247.77 490.67 o 1.5
0 3 7 5668.81 6622.61 680.77 o 1.5
2 6 5 12176.90 12417.63 365.67 o 1.4
2 8 3 85881.09 86252.56 2205.54 o 1.4
1 8 4 21928.27 23326.48 1032.87 o 1.4
1 7 5 737.30 739.90 37.41 o 1.4
2 9 0 6565.19 6729.14 268.58 o 1.4
3 0 6 48049.25 48243.66 1687.89 o 1.4
5 0 1 2671.90 2641.79 92.03 o 1.4
0 9 3 608.20 604.57 22.41 o 1.4
4 6 0 42621.45 42526.02 1540.92 o 1.4
4 3 4 9844.33 11151.04 468.71 o 1.4
3 1 6 313.82 353.66 14.84 o 1.4
1 3 7 10701.22 12073.14 480.44 o 1.4
5 1 1 5265.68 5962.40 232.09 o 1.4
3 6 4 738.05 778.14 29.78 o 1.4
2 9 1 15816.55 16440.51 660.13 o 1.4
0 6 6 14467.15 13612.57 464.12 o 1.4
4 6 1 31966.51 29869.49 1028.43 o 1.4
3 7 3 4442.22 3990.32 168.34 o 1.4
3 8 1 29038.47 30408.37 843.77 o 1.4
2 0 7 36256.53 37956.77 1059.87 o 1.4
0 10 0 5.92 6.55 0.17 o 1.4
3 2 6 42.88 46.47 1.08 o 1.4
1 9 3 120579.62 130681.33 3066.63 o 1.4
5 2 1 9785.16 10584.31 249.31 o 1.4
2 1 7 42784.85 42926.55 1220.90 o 1.4
4 5 3 204.18 213.92 8.30 o 1.4
5 0 2 1.60 1.62 0.72 o 1.4
1 6 6 7720.18 7895.14 762.48 o 1.4
3 5 5 2115.16 2212.71 229.83 o 1.4
2 5 6 1462.67 1445.52 166.95 o 1.4
5 1 2 678.12 658.84 107.03 o 1.4
2 9 2 4281.63 3987.15 401.30 o 1.4
4 6 2 22752.44 23082.10 882.09 o 1.4
2 2 7 3600.53 3667.19 140.02 o 1.4
4 0 5 33233.80 33854.49 1279.29 o 1.4
4 4 4 637.03 662.61 25.72 o 1.4
1 4 7 31713.31 32851.65 1277.83 o 1.4
4 1 5 106.77 113.28 4.83 o 1.4
3 8 2 11418.59 11865.85 529.45 o 1.4
3 3 6 14524.85 14137.38 583.31 o 1.4
5 3 1 12588.27 12224.47 538.34 o 1.4
1 10 1 1633.56 1586.35 71.38 o 1.4
5 2 2 58.12 53.88 2.98 o 1.4
2 8 4 8755.50 9716.36 743.21 o 1.4
0 10 2 7747.73 8430.04 633.42 o 1.4
2 7 5 8792.85 8009.82 630.59 o 1.4
4 2 5 19237.98 17466.47 1042.47 o 1.3
2 3 7 498.09 349.30 88.08 o 1.3
4 7 0 166452.34 165381.86 4433.19 o 1.3
0 5 7 6592.69 6553.54 176.33 o 1.3
5 0 3 5637.25 6173.68 176.78 o 1.3
0 0 8 284132.12 300931.03 7585.21 o 1.3
5 3 2 1204.78 1280.47 32.59 o 1.3
1 10 2 135.89 144.38 3.54 o 1.3
3 7 4 4726.21 4955.96 121.64 o 1.3
1 8 5 56306.03 57176.55 1454.68 o 1.3
5 1 3 11286.16 11221.05 325.15 o 1.3
4 7 1 1700.51 1685.75 49.91 o 1.3
2 9 3 30310.20 29313.89 1052.44 o 1.3
4 6 3 20146.49 17656.80 813.96 o 1.3
3 4 6 354.71 306.72 15.89 o 1.3
1 9 4 294.62 258.82 13.80 o 1.3
5 4 1 0.51 0.45 0.04 o 1.3
4 3 5 3472.92 3493.36 159.94 o 1.3
4 5 4 27582.08 28436.27 735.01 o 1.3
3 6 5 9057.07 9344.76 241.42 o 1.3
2 6 6 20.26 20.90 0.54 o 1.3
1 5 7 48557.07 49595.51 1250.84 o 1.3
3 8 3 32074.99 32449.96 834.51 o 1.3
5 2 3 23177.02 22911.13 629.21 o 1.3
1 0 8 106826.86 105233.17 2890.04 o 1.3
0 2 8 11109.51 10871.97 306.04 o 1.3
1 7 6 3590.23 3151.01 178.67 o 1.3
2 10 0 16818.85 14573.68 974.86 o 1.3
1 1 8 3559.22 3114.98 222.60 o 1.3
2 4 7 8938.73 6241.61 720.18 o 1.3
4 7 2 697.67 725.89 26.47 o 1.3
3 9 1 46030.83 45906.04 1570.68 o 1.3
2 10 1 4711.51 4700.25 161.96 o 1.3
5 4 2 599.73 327.33 175.59 < 1.3
1 2 8 6616.09 3507.07 869.68 o 1.3
3 0 7 463.18 259.47 95.63 o 1.3
5 3 3 1239.73 838.97 133.58 o 1.3
1 10 3 4529.63 3265.89 468.34 o 1.3
3 1 7 10222.64 8468.29 879.42 o 1.3
4 4 5 1181.05 1003.17 104.32 o 1.3
3 5 6 17764.76 16086.51 788.01 o 1.3
5 5 1 11834.27 10493.50 492.96 o 1.3
3 9 2 2438.22 2405.20 80.08 o 1.3
2 10 2 25696.68 25689.14 850.62 o 1.3
2 8 5 23735.45 23938.90 776.56 o 1.3
5 0 4 25048.88 25237.60 826.21 o 1.3
0 11 1 366.86 361.22 14.78 o 1.3
3 2 7 2897.01 2680.36 129.75 o 1.3
4 0 6 9368.25 8257.01 456.48 o 1.3
1 3 8 2286.44 1945.02 132.02 o 1.3
5 1 4 14517.46 12384.13 819.76 o 1.3
2 9 4 4170.91 3519.35 262.07 o 1.3
4 1 6 258.95 212.22 16.05 o 1.3
0 9 5 4532.99 3745.04 234.26 o 1.3
4 6 4 8593.06 7124.38 406.25 o 1.3
1 6 7 3139.26 2566.52 142.27 o 1.3
4 8 0 33699.25 27433.59 1560.96 o 1.3
2 5 7 40.91 34.23 2.17 o 1.2
4 7 3 1401.30 1058.56 131.92 o 1.2
3 8 4 85.32 84.51 3.28 o 1.2
2 0 8 36712.96 36366.97 1353.15 o 1.2
0 8 6 64635.45 65960.77 1750.12 o 1.2
5 4 3 7903.00 8031.93 208.25 o 1.2
3 7 5 3470.15 3526.76 93.20 o 1.2
4 8 1 28885.10 29333.99 765.13 o 1.2
2 7 6 11825.08 12008.86 314.89 o 1.2
5 2 4 983.45 1002.22 26.17 o 1.2
1 11 1 9134.60 9301.26 246.75 o 1.2
0 4 8 7579.89 7626.74 202.75 o 1.2
5 5 2 3924.60 3861.55 108.83 o 1.2
2 1 8 8290.12 7981.21 241.35 o 1.2
4 2 6 6628.79 6244.28 218.62 o 1.2
0 10 4 1067.14 1170.51 32.81 o 1.2
3 3 7 1547.79 1680.02 45.62 o 1.2
1 9 5 96485.46 102973.41 2747.92 o 1.2
4 5 5 4363.07 3540.27 518.78 o 1.2
2 2 8 1968.07 1606.90 440.40 o 1.2
1 8 6 100.97 85.22 12.00 o 1.2
1 4 8 522.71 520.56 20.28 o 1.2
3 9 3 36737.98 36079.93 1330.88 o 1.2
2 10 3 8300.66 8158.52 302.03 o 1.2
5 3 4 1474.81 1439.48 41.87 o 1.2
1 10 4 7833.87 7739.58 216.04 o 1.2
4 8 2 72.86 73.74 1.86 o 1.2
1 11 2 264.84 267.02 6.57 o 1.2
4 3 6 129037.94 129224.05 3176.83 o 1.2
3 6 6 1096.15 1075.60 27.58 o 1.2
5 6 1 62281.32 58560.89 1679.38 o 1.2
0 7 7 3448.93 2873.65 964.87 o 1.2
2 3 8 23544.92 22280.58 1058.25 o 1.2
3 4 7 8650.54 8184.89 386.75 o 1.2
5 5 3 376.57 346.70 21.89 o 1.2
3 10 1 26879.80 24635.16 1230.70 o 1.2
2 6 7 2433.24 2230.05 111.12 o 1.2
2 11 0 1975.25 1863.31 96.12 o 1.2
6 0 0 2315.23 2091.08 213.68 o 1.2
0 11 3 77.69 74.30 7.09 o 1.2
4 7 4 90703.52 88273.48 2247.12 o 1.2
6 1 0 61506.31 60459.37 1518.29 o 1.2
1 7 7 3356.97 3310.94 85.43 o 1.2
5 6 2 27.40 27.39 0.73 o 1.2
2 11 1 15161.08 14956.70 434.03 o 1.2
5 0 5 1376.41 1389.78 43.18 o 1.2
6 0 1 70805.49 73946.87 2407.99 o 1.2
5 4 4 3649.44 3796.80 125.16 o 1.2
4 4 6 27708.89 27996.58 1021.02 o 1.2
5 1 5 1767.91 1771.99 64.35 o 1.2
6 1 1 16879.23 16747.42 646.56 o 1.2
2 9 5 2.77 2.67 0.46 o 1.2
1 5 8 2567.10 2446.64 110.76 o 1.2
4 6 5 12299.56 12428.82 657.07 o 1.2
4 8 3 4085.27 4239.53 194.95 o 1.2
1 11 3 16804.40 17305.15 824.12 o 1.2
6 2 0 9386.16 9369.96 472.81 o 1.2
0 1 9 10859.36 10664.85 444.29 o 1.2
3 10 2 105.57 103.57 4.22 o 1.2
3 8 5 13919.53 13492.58 421.21 o 1.2
2 8 6 19269.08 18877.23 565.26 o 1.2
4 9 0 5909.06 5830.29 167.57 o 1.2
2 4 8 56096.56 55016.23 1602.47 o 1.2
5 2 5 4723.55 4536.00 141.46 o 1.2
6 2 1 2586.94 2517.49 89.73 o 1.2
3 9 4 5184.54 5168.76 243.45 o 1.2
2 10 4 22096.70 22177.28 1031.66 o 1.2
2 11 2 2177.15 2153.88 98.99 o 1.2
4 9 1 53.74 52.23 2.23 o 1.2
6 0 2 894.32 889.51 30.89 o 1.2
1 0 9 27374.87 29006.66 772.30 o 1.2
3 5 7 40395.17 42723.39 1134.88 o 1.2
0 12 0 196013.56 205372.88 5377.31 o 1.2
6 1 2 21758.64 22397.80 683.43 o 1.2
3 0 8 614.86 559.94 28.44 o 1.2
1 1 9 112.95 103.69 5.96 o 1.2
3 7 6 1383.33 1330.06 56.40 o 1.2
4 0 7 426.50 408.11 16.81 o 1.2
6 3 0 43372.62 42031.51 1674.28 o 1.2
5 7 1 1181.41 1149.96 45.61 o 1.2
3 1 8 18842.50 17850.42 653.29 o 1.2
5 6 3 42092.48 42327.21 1344.32 o 1.2
4 1 7 7205.96 7246.14 229.44 o 1.2
0 6 8 22342.43 22660.34 708.59 o 1.1
5 3 5 16434.38 16688.89 596.81 o 1.1
1 10 5 1973.57 2001.21 73.03 o 1.1
1 9 6 1630.08 1652.91 60.97 o 1.1
6 3 1 17290.49 17118.16 685.15 o 1.1
6 2 2 369.73 365.74 15.46 o 1.1
5 5 4 43.55 43.43 2.14 o 1.1
1 2 9 0.20 0.21 0.14 o 1.1
4 5 6 10630.75 11027.46 655.10 o 1.1
4 9 2 55399.98 55425.52 1693.64 o 1.1
3 2 8 2050.63 2052.97 61.06 o 1.1
2 7 7 16817.18 16769.75 510.52 o 1.1
0 3 9 6277.83 6254.85 201.99 o 1.1
4 2 7 14529.65 15074.01 677.94 o 1.1
1 12 1 2522.73 2570.67 140.18 o 1.1
3 10 3 4005.99 4235.66 263.18 o 1.1
1 6 8 883.74 961.93 56.91 o 1.1
5 7 2 253.54 291.61 12.30 o 1.1
2 5 8 989.51 1133.28 46.43 o 1.1
0 12 2 73928.21 84661.48 3404.02 o 1.1
2 11 3 11587.03 11381.99 346.58 o 1.1
6 0 3 78568.17 77070.95 1951.45 o 1.1
4 8 4 20526.96 20364.92 495.63 o 1.1
6 3 2 72704.24 72918.29 1784.05 o 1.1
1 11 4 286.71 288.80 7.40 o 1.1
6 4 0 437.10 440.37 10.66 o 1.1
1 8 7 18099.10 18263.50 447.61 o 1.1
1 3 9 22580.54 23471.69 619.91 o 1.1
4 7 5 17.70 18.67 0.51 o 1.1
6 1 3 9421.38 10344.12 333.33 o 1.1
3 3 8 518.97 511.50 19.86 o 1.1
5 4 5 401.58 389.81 12.93 o 1.1
6 4 1 62804.20 60514.44 1746.13 o 1.1
4 3 7 1240.76 1227.08 32.07 o 1.1
1 12 2 3605.74 3623.49 94.53 o 1.1
3 6 7 88618.12 90239.16 2406.90 o 1.1
2 0 9 1694.41 1782.04 52.87 o 1.1
6 2 3 2154.39 2046.85 398.50 o 1.1
2 1 9 1335.88 1391.59 259.80 o 1.1
3 11 1 2310.20 2461.03 234.78 o 1.1
5 0 6 7336.66 7907.48 706.18 o 1.1
4 9 3 8200.49 8750.53 772.82 o 1.1
5 1 6 550.00 583.46 19.50 o 1.1
3 9 5 63767.79 65094.72 2009.24 o 1.1
2 10 5 213.32 217.57 7.87 o 1.1
2 9 6 2081.32 2124.93 67.79 o 1.1
5 6 4 3301.67 3367.58 102.76 o 1.1
4 6 6 6278.77 6322.45 235.76 o 1.1
2 12 0 11573.59 11527.12 490.70 o 1.1
2 2 9 256.21 255.18 11.56 o 1.1
5 7 3 7550.50 7789.01 278.46 o 1.1
6 4 2 3.09 3.23 0.17 o 1.1
1 4 9 50531.25 51886.66 1582.09 o 1.1
3 8 6 23661.57 23609.76 592.23 o 1.1
5 8 1 39716.41 39662.17 971.11 o 1.1
4 10 0 5628.51 5531.75 134.35 o 1.1
3 4 8 47030.09 45986.54 1108.38 o 1.1
2 12 1 36057.87 35231.96 855.43 o 1.1
5 2 6 5311.38 5190.68 125.74 o 1.1
6 3 3 19759.12 19373.76 476.29 o 1.1
4 4 7 33651.72 32978.81 863.34 o 1.1
6 5 0 108.26 104.91 2.93 o 1.1
3 10 4 414.26 431.99 13.88 o 1.1
2 6 8 34933.82 36428.77 1153.43 o 1.1
3 11 2 32.74 34.03 1.58 o 1.1
0 10 6 100.78 110.23 9.44 o 1.1
4 10 1 8966.70 8583.13 470.53 o 1.1
5 5 5 6220.32 5902.43 213.78 o 1.1
6 5 1 20906.94 19582.92 676.38 o 1.1
1 12 3 27805.69 26599.55 876.79 o 1.1
1 7 8 698.05 676.06 22.47 o 1.1
2 11 4 40.58 40.74 1.67 o 1.1
2 8 7 24383.04 24317.74 844.39 o 1.1
6 0 4 2627.33 2635.50 104.12 o 1.1
2 3 9 16784.72 16860.78 667.56 o 1.1
0 11 5 766.04 777.46 30.95 o 1.1
0 5 9 14960.27 13981.03 538.59 o 1.1
6 1 4 37394.38 34931.61 1332.51 o 1.1
5 8 2 0.84 0.81 0.13 o 1.1
0 9 7 19667.58 19088.16 694.56 o 1.1
5 3 6 17278.24 17259.30 667.16 o 1.1
1 10 6 138.69 138.73 5.45 o 1.1
2 12 2 20392.95 20438.24 801.80 o 1.1
4 10 2 18687.47 18363.01 571.63 o 1.1
3 7 7 12185.45 12132.88 353.03 o 1.1
4 8 5 19148.19 19147.56 551.82 o 1.1
1 11 5 4816.86 4855.87 140.93 o 1.1
6 4 3 24821.56 25010.26 727.68 o 1.1
6 2 4 13994.82 14222.29 414.68 o 1.1
6 5 2 6351.04 6658.11 212.12 o 1.1
1 5 9 7157.06 7141.07 352.18 o 1.1
4 9 4 5440.55 5597.81 210.56 o 1.1
1 9 7 40412.56 40833.50 1576.97 o 1.1
3 5 8 721.81 735.79 28.66 o 1.1
4 5 7 4132.28 4092.23 291.70 o 1.1
3 11 3 7720.15 6914.38 334.93 o 1.1
0 13 1 1198.03 1083.50 47.40 o 1.1
2 4 9 27827.68 26722.40 833.58 o 1.1
4 0 8 19149.08 18720.48 566.08 o 1.1
5 7 4 4958.83 4811.40 143.77 o 1.1
0 12 4 91910.50 88555.03 2628.14 o 1.1
4 7 6 0.00 0.00 0.00 o 1.1
4 1 8 47186.04 45863.88 1451.47 o 1.1
6 6 0 1182.11 1168.01 36.48 o 1.1
0 0 10 5131.97 5220.60 160.02 o 1.1
5 4 6 27151.88 27353.79 859.98 o 1.1
6 3 4 30605.60 30596.50 983.54 o 1.1
5 6 5 36482.52 36241.23 968.60 o 1.1
3 0 9 31310.78 31809.05 808.42 o 1.1
6 6 1 3410.35 3479.25 85.69 o 1.1
5 8 3 20979.90 21414.79 527.56 o 1.0
1 13 1 47886.64 48711.33 1207.96 o 1.0
0 8 8 39160.97 39955.56 993.79 o 1.0
2 12 3 24124.55 24920.16 632.12 o 1.0
2 7 8 6501.62 6795.37 173.08 o 1.0
3 1 9 10245.01 10484.16 313.25 o 1.0
4 2 8 8713.38 8565.75 302.67 o 1.0
1 12 4 45.24 44.11 2.14 o 1.0
4 10 3 12694.24 11990.12 856.63 o 1.0
1 0 10 1021.44 975.77 40.10 o 1.0
0 2 10 5572.63 5515.52 181.49 o 1.0
6 5 3 14584.15 14899.92 438.90 o 1.0
3 10 5 42024.43 42922.97 1219.70 o 1.0
3 9 6 0.28 0.28 0.02 o 1.0
2 10 6 29732.07 30353.52 855.70 o 1.0
5 9 1 269.75 275.36 7.71 o 1.0
3 2 9 38702.40 40282.30 1126.60 o 1.0
1 8 8 52632.45 54285.16 1537.47 o 1.0
2 11 5 12285.73 12672.52 365.04 o 1.0
6 6 2 20779.47 21433.65 619.19 o 1.0
5 0 7 13976.55 14226.16 403.21 o 1.0
6 0 5 11100.31 11168.33 301.70 o 1.0
1 13 2 978.32 984.70 25.93 o 1.0
1 6 9 8725.21 8762.41 231.79 o 1.0
3 12 1 42853.79 42613.16 1138.48 o 1.0
6 4 4 0.00 0.00 0.00 o 1.0
2 5 9 20036.92 19400.75 523.11 o 1.0
4 3 8 7683.53 7346.46 200.54 o 1.0
5 1 7 12227.01 11444.26 323.66 o 1.0
1 2 10 5019.14 4738.59 139.52 o 1.0
6 1 5 20416.57 19291.61 570.35 o 1.0
3 6 8 227.62 214.58 6.44 o 1.0
2 9 7 25973.33 24189.28 756.38 o 1.0
4 6 7 2621.03 2582.23 100.03 o 1.0
4 11 0 34423.94 32166.21 1362.85 o 1.0
5 5 6 21934.25 20938.97 897.22 o 1.0
5 9 2 37.95 38.95 1.51 o 1.0
3 11 4 15.36 15.72 1.05 o 1.0
3 8 7 25584.48 26090.43 973.06 o 1.0
3 3 9 21684.29 21871.48 802.42 o 1.0
4 11 1 404.33 396.12 16.21 o 1.0
5 2 7 11863.18 11532.02 489.83 o 1.0
6 2 5 4361.96 4283.19 216.22 o 1.0
2 13 0 936.99 891.83 110.76 o 1.0
0 13 3 3024.28 2477.12 648.27 o 1.0
4 9 5 762.15 657.21 93.99 o 1.0
3 12 2 940.19 857.67 84.44 o 1.0
6 7 0 23032.62 23439.48 1522.45 o 1.0
1 3 10 1000.98 987.51 61.44 o 1.0
2 13 1 12666.27 12506.00 726.52 o 1.0
5 8 4 11997.23 11258.90 665.59 o 1.0
2 12 4 7028.86 6482.55 339.07 o 1.0
4 8 6 67.56 61.84 3.24 o 1.0
5 7 5 143.07 131.68 6.99 o 1.0
1 11 6 630.48 586.63 31.62 o 1.0
6 7 1 16320.74 14905.03 785.67 o 1.0
4 4 8 0.17 0.16 0.06 o 1.0
7 0 1 7699.59 6847.89 298.67 o 1.0
2 0 10 41215.55 42047.25 1230.60 o 1.0
6 6 3 3675.40 3737.31 107.00 o 1.0
4 10 4 4243.57 4240.48 116.55 o 1.0
1 13 3 46317.30 46522.09 1272.64 o 1.0
5 3 7 25.48 25.94 0.73 o 1.0
7 1 1 2401.28 2445.32 67.50 o 1.0
1 10 7 4363.15 4443.17 119.38 o 1.0
4 11 2 11148.86 11414.40 312.42 o 1.0
6 3 5 5124.98 5291.44 148.74 o 1.0
0 4 10 53191.27 54719.87 1607.97 o 1.0
0 7 9 1120.45 1109.85 35.71 o 1.0
2 1 10 2030.72 1995.47 66.56 o 1.0
6 5 4 42.10 41.06 1.69 o 1.0
2 8 8 1728.27 1651.88 315.50 o 1.0
3 4 9 188.20 165.44 59.28 < 1.0
1 12 5 2822.95 2673.14 354.22 o 1.0
2 13 2 5.24 4.98 1.70 o 1.0
2 6 9 756.01 676.71 82.78 o 1.0
5 9 3 2716.11 2453.91 245.21 o 1.0
7 2 1 3489.06 3315.57 259.37 o 1.0
2 2 10 13429.07 12022.05 505.65 o 1.0
6 7 2 8826.28 8339.19 275.01 o 1.0
1 4 10 50425.86 47128.39 1570.73 o 1.0
7 0 2 1640.02 1530.01 51.03 o 1.0
1 7 9 889.14 826.68 28.44 o 1.0
5 6 6 2188.56 2061.11 70.65 o 1.0
7 1 2 742.47 752.68 32.25 o 1.0
3 12 3 29622.58 30030.18 1278.67 o 1.0
3 7 8 7474.72 7572.76 325.39 o 1.0
4 7 7 1772.20 1535.23 117.55 o 1.0
1 9 8 1005.85 876.13 27.62 o 1.0
5 4 7 1184.48 1037.17 32.13 o 1.0
6 4 5 71504.93 63069.13 1901.51 o 1.0
0 14 0 18468.25 16746.39 479.42 o 1.0
4 5 8 8937.21 8222.27 259.96 o 1.0
3 10 6 725.19 668.72 21.33 o 1.0
7 3 1 15552.06 14746.50 507.79 o 1.0
5 10 1 16300.16 15400.78 535.27 o 1.0
7 2 2 484.32 467.16 16.82 o 1.0
2 3 10 13543.84 12780.66 564.60 o 1.0
4 11 3 199.08 188.54 11.53 o 1.0
3 11 5 6.63 6.61 4.34 < 1.0
2 11 6 1342.54 1374.23 556.47 < 1.0
6 0 6 1693.54 1811.93 658.69 < 1.0
3 5 9 2.27 2.03 1.12 o 1.0
6 1 6 9242.24 8975.41 754.56 o 1.0
2 13 3 766.95 744.92 65.88 o 1.0
3 9 7 4135.70 3978.52 325.84 o 1.0
2 10 7 1561.77 1482.58 125.97 o 1.0
6 6 4 685.22 643.41 51.25 o 1.0
1 13 4 397.56 383.67 32.88 o 1.0
6 8 0 3229.83 3128.91 263.63 o 1.0
4 0 9 13822.31 13530.03 1102.27 o 1.0
6 7 3 7303.88 7084.80 541.15 o 1.0
7 0 3 1579.68 1391.96 77.08 o 1.0
1 14 1 1.33 1.19 0.06 o 1.0
1 5 10 152.10 137.56 4.85 o 1.0
4 1 9 1618.98 1461.90 48.15 o 1.0
7 3 2 325.56 293.68 9.31 o 1.0
5 10 2 138.04 124.52 4.14 o 1.0
5 8 5 27229.93 24912.00 710.79 o 1.0
6 8 1 36973.85 33931.54 951.68 o 1.0
7 1 3 10534.91 9711.12 272.25 o 1.0
2 12 5 26904.67 25007.56 703.77 o 1.0
6 2 6 25.59 24.14 0.72 o 1.0
0 14 2 15808.96 15227.49 555.71 o 1.0
5 9 4 12285.03 11479.87 441.80 o 1.0
7 4 1 3026.74 2832.96 106.58 o 1.0
4 10 5 6684.09 6209.05 230.26 o 1.0
4 9 6 28449.29 26381.40 1005.67 o 1.0
2 4 10 3414.65 3135.54 119.11 o 1.0
2 7 9 11.75 11.08 0.58 o 1.0
5 5 7 590.14 619.06 25.34 o 1.0
4 12 0 376.66 388.47 17.45 o 1.0
4 2 9 3753.02 3870.60 173.23 o 1.0
6 5 5 4082.01 4203.42 193.75 o 1.0
3 13 1 17017.66 17619.33 812.21 o 1.0
7 2 3 383.49 435.46 19.14 o 1.0
5 0 8 22209.80 24441.85 1104.66 o 1.0
0 11 7 730.22 685.12 28.71 o 1.0
3 12 4 8333.66 7818.50 318.69 o 1.0
5 7 6 2329.07 2258.92 81.25 o 1.0
0 12 6 19465.38 18142.16 616.59 o 1.0
4 12 1 11173.34 10289.01 341.73 o 1.0
5 1 8 23367.38 21491.23 723.50 o 1.0
1 14 2 2165.09 2054.91 66.17 o 1.0
2 9 8 5863.74 5651.36 184.42 o 1.0
3 0 10 36366.09 33085.67 1078.90 o 1.0
4 6 8 2574.11 2419.09 70.12 o 1.0
6 8 2 4808.64 4580.39 130.42 o 1.0
6 3 6 37854.91 36168.30 1042.87 o 1.0
1 8 9 41522.98 39533.85 1145.41 o 1.0
3 1 10 832.04 793.01 23.24 o 1.0
7 4 2 1917.39 1922.38 86.08 o 1.0
3 8 8 462.04 468.88 21.24 o 1.0
0 6 10 18364.98 18739.28 787.69 o 1.0
4 11 4 25199.71 24425.17 890.85 o 1.0
4 8 7 11.56 11.30 0.40 o 1.0
5 2 8 3101.26 3039.18 106.97 o 1.0
1 11 7 5484.42 5420.98 185.65 o 1.0
4 3 9 3719.64 3629.78 116.09 o 1.0
1 12 6 22570.73 21235.52 669.74 o 1.0
3 13 2 357.62 336.55 11.08 o 1.0
3 6 9 129.69 121.86 4.34 o 1.0
0 1 11 7560.86 7083.36 230.47 o 1.0
7 3 3 9135.85 8628.16 287.49 o 1.0
5 10 3 26870.69 25388.14 838.56 o 1.0
0 10 8 4166.13 3911.10 141.23 o 1.0
3 2 10 588.66 549.78 28.32 o 0.9
2 14 0 381.78 358.75 25.58 o 0.9
4 12 2 12080.49 11093.88 985.80 o 0.9
2 13 4 476.73 429.47 35.02 o 0.9
0 13 5 4367.28 4109.63 213.55 o 0.9
7 5 1 1018.62 1015.29 38.89 o 0.9
1 6 10 10869.34 10804.98 385.21 o 0.9
2 14 1 1668.12 1658.13 59.08 o 0.9
1 0 11 58370.11 57984.83 1996.01 o 0.9
2 5 10 37.20 37.18 1.68 o 0.9
6 7 4 17908.38 17891.87 622.75 o 0.9
7 0 4 4676.01 4771.93 178.15 o 0.9
1 1 11 4404.97 4953.70 335.17 o 0.9
5 3 8 1074.65 1320.02 100.85 o 0.9
7 1 4 660.37 798.32 59.00 o 0.9
1 10 8 9145.25 11055.63 830.86 o 0.9
6 4 6 1405.85 1610.98 118.69 o 0.9
1 14 3 75.58 71.61 2.58 o 0.9
5 6 7 11781.29 11685.47 379.31 o 0.9
6 6 5 365.19 357.78 10.25 o 0.9
3 3 10 8747.93 8509.92 246.71 o 0.9
1 13 5 27155.52 26471.27 764.03 o 0.9
6 8 3 46199.04 45034.06 1302.77 o 0.9
4 4 9 620.70 604.70 22.38 o 0.9
1 2 11 3276.72 3243.67 174.75 o 0.9
7 4 3 7420.22 7225.38 341.65 o 0.9
3 11 6 3226.00 3133.20 143.45 o 0.9
7 2 4 1780.46 1779.05 74.27 o 0.9
6 9 0 991.78 1018.92 39.34 o 0.9
5 11 1 0.96 1.00 0.08 o 0.9
7 5 2 883.12 926.84 31.18 o 0.9
2 14 2 52233.14 52063.13 1668.56 o 0.9
0 3 11 2505.30 2512.63 80.03 o 0.9
3 13 3 23538.38 23167.92 812.07 o 0.9
3 10 7 1.99 1.86 0.09 o 0.9
5 9 5 60.44 57.74 3.02 o 0.9
2 8 9 1937.10 1972.03 94.51 o 0.9
6 9 1 8474.62 8602.95 434.47 o 0.9
4 12 3 10247.81 10218.49 400.56 o 0.9
4 7 8 27185.73 26717.38 1024.44 o 0.9
2 11 7 1972.14 1994.80 58.69 o 0.9
5 8 6 3990.38 3964.42 114.27 o 0.9
0 9 9 11339.91 11266.13 323.73 o 0.9
6 0 7 45847.35 44939.21 1311.91 o 0.9
3 12 5 32952.09 32393.13 949.80 o 0.9
2 12 6 12581.26 12416.54 365.38 o 0.9
5 4 8 1995.89 1969.76 58.62 o 0.9
1 3 11 7876.78 8130.48 292.27 o 0.9
6 1 7 4884.82 4566.13 220.20 o 0.9
7 3 4 3252.66 3265.64 185.38 o 0.9
5 10 4 0.81 0.80 0.11 o 0.9
5 11 2 543.54 513.96 31.86 o 0.9
4 10 6 7781.37 7082.79 415.60 o 0.9
3 4 10 1387.97 1241.52 70.57 o 0.9
3 7 9 3213.83 2893.29 158.68 o 0.9
7 6 1 13343.66 11930.49 643.31 o 0.9
0 14 4 9827.92 8611.73 470.51 o 0.9
6 5 6 3094.56 2762.80 148.64 o 0.9
2 6 10 740.47 668.89 35.00 o 0.9
2 0 11 12139.52 12757.58 515.48 o 0.9
6 9 2 1852.65 1950.89 79.96 o 0.9
1 9 9 34727.89 35690.46 1305.00 o 0.9
4 11 5 1418.73 1450.68 52.25 o 0.9
6 2 7 985.19 1008.91 35.14 o 0.9
2 1 11 11596.08 12151.19 436.98 o 0.9
1 7 10 1260.40 1219.23 53.81 o 0.9
4 5 9 6946.97 6718.85 291.75 o 0.9
3 9 8 10244.08 10114.57 455.02 o 0.9
2 10 8 2329.62 2298.27 103.07 o 0.9
7 5 3 2256.83 2402.89 150.24 o 0.9
4 9 7 4882.83 5194.18 340.27 o 0.9
2 14 3 1025.52 1082.15 85.79 o 0.9
0 15 1 382.19 407.89 31.35 o 0.9
2 13 5 16601.20 18297.07 1272.04 o 0.9
1 14 4 267.24 297.14 20.00 o 0.9
6 8 4 2793.71 2283.07 130.55 o 0.9
2 2 11 89.29 75.78 3.77 o 0.9
5 7 7 6058.25 5453.94 227.55 o 0.9
7 6 2 677.63 622.36 24.05 o 0.9
6 7 5 8564.87 7851.74 308.52 o 0.9
1 4 11 31968.30 29727.39 1134.32 o 0.9
7 0 5 2174.05 2031.40 77.76 o 0.9
7 4 4 4557.46 4673.44 189.12 o 0.9
4 13 0 13234.29 13681.19 671.79 o 0.9
7 1 5 650.14 648.41 35.81 o 0.9
6 3 7 6836.09 6852.42 382.67 o 0.9
5 5 8 484.79 468.71 28.10 o 0.9
1 15 1 16400.18 15847.97 971.95 o 0.9
3 13 4 44.74 44.66 2.84 o 0.9
5 11 3 48.75 49.04 5.92 o 0.9
4 13 1 1699.37 1656.63 157.57 o 0.9
3 14 1 22.68 21.79 1.45 o 0.9
3 5 10 9829.18 10009.42 422.04 o 0.9
4 12 4 366.68 347.83 13.04 o 0.9
1 12 7 37157.36 34853.27 1263.97 o 0.9
7 2 5 13367.31 12879.54 492.26 o 0.9
6 9 3 6566.74 6271.92 249.10 o 0.9
2 3 11 1644.90 1378.23 70.74 o 0.9
4 0 10 59.25 52.49 3.54 o 0.9
0 5 11 6857.08 6882.53 603.29 o 0.9
4 1 10 616.93 562.65 45.08 o 0.9
6 6 6 14096.73 13039.48 968.89 o 0.9
5 0 9 228.98 213.69 19.78 o 0.9
1 13 6 32.77 30.96 2.40 o 0.9
4 8 8 5358.66 5043.36 399.07 o 0.9
1 11 8 2223.55 1976.53 177.28 o 0.9
1 15 2 677.81 603.24 51.27 o 0.9
5 1 9 1486.86 1305.50 101.73 o 0.9
2 9 9 1422.11 1340.38 65.95 o 0.9
6 10 0 6576.64 6072.90 262.78 o 0.9
7 7 1 2375.43 2191.88 94.41 o 0.9
4 13 2 12502.61 11557.59 477.83 o 0.9
4 6 9 7193.22 6684.16 265.35 o 0.9
0 8 10 15567.63 14498.74 558.42 o 0.9
2 7 10 2159.91 2005.49 76.25 o 0.9
3 14 2 584.29 538.51 20.12 o 0.9
6 4 7 4548.02 4187.11 157.14 o 0.9
7 6 3 13888.95 12446.32 477.92 o 0.9
4 2 10 1424.23 1300.14 48.00 o 0.9
1 5 11 7694.49 6938.19 280.19 o 0.9
7 3 5 17665.69 16030.47 648.92 o 0.9
5 10 5 6011.51 5463.44 223.96 o 0.9
5 9 6 8.89 8.05 0.50 o 0.9
3 8 9 426.22 386.69 17.68 o 0.9
6 10 1 880.81 797.25 34.35 o 0.9
7 5 4 4656.79 4335.28 201.05 o 0.9
5 2 9 608.48 564.27 45.28 o 0.9
2 14 4 56.03 52.91 4.20 o 0.9
3 11 7 10533.08 10061.08 484.86 o 0.9
2 15 0 7183.72 6861.97 273.02 o 0.9
2 4 11 27.91 26.77 1.07 o 0.9
3 12 6 197.57 189.63 7.66 o 0.9
5 12 1 37728.95 36127.33 1425.64 o 0.9
0 15 3 18.12 17.31 0.72 o 0.9
1 8 10 55.48 52.89 2.36 o 0.9
5 6 8 4034.71 3906.66 267.35 o 0.9
7 7 2 802.68 706.87 41.06 o 0.9
2 15 1 5886.99 5353.64 229.69 o 0.9
4 3 10 35970.18 33611.94 1153.66 o 0.9
8 0 0 61666.29 57539.98 1972.78 o 0.9
3 6 10 3309.37 3130.35 104.04 o 0.9
1 14 5 41.60 39.58 1.33 o 0.9
3 0 11 4662.70 4504.78 160.52 o 0.9
6 10 2 1.60 1.52 0.09 o 0.9
5 11 4 1598.98 1520.39 56.58 o 0.9
5 8 7 4923.09 4681.00 174.78 o 0.9
8 1 0 5655.02 5367.51 196.08 o 0.9
6 8 5 9389.49 8996.20 324.36 o 0.9
5 3 9 7708.46 7441.96 266.86 o 0.9
1 10 9 98.32 95.44 3.85 o 0.9
2 12 7 3684.90 3568.99 127.82 o 0.9
4 11 6 3633.53 3491.30 123.85 o 0.9
3 1 11 11933.41 11434.47 425.35 o 0.9
8 0 1 5902.15 5688.33 213.70 o 0.9
1 15 3 11731.66 11306.66 431.90 o 0.9
3 10 8 3591.53 3317.61 149.35 o 0.9
7 4 5 246.83 231.24 12.83 o 0.9
6 9 4 8.17 7.03 0.60 o 0.9
4 13 3 18.81 16.47 1.12 o 0.9
8 1 1 287.35 255.52 17.96 o 0.9
4 10 7 12495.12 11111.32 788.89 o 0.9
3 14 3 969.63 885.67 63.15 o 0.9
5 12 2 1135.66 1057.82 75.15 o 0.9
6 5 7 6225.27 5907.21 481.62 o 0.9
3 13 5 2966.92 2808.91 235.66 o 0.9
2 13 6 1858.23 1814.70 149.23 o 0.9
8 2 0 1965.44 2091.33 161.21 o 0.9
2 11 8 320.73 359.66 28.09 o 0.9
2 15 2 3352.00 3655.87 266.25 o 0.9
6 0 8 3221.73 3506.78 255.90 o 0.9
3 2 11 3453.56 3607.05 226.27 o 0.9
6 7 6 4819.44 4696.08 202.60 o 0.9
4 12 5 712.92 655.37 26.71 o 0.9
7 0 6 8198.65 7542.21 298.78 o 0.9
6 1 8 11962.06 10848.40 421.86 o 0.9
8 2 1 23538.16 21560.31 804.02 o 0.9
0 0 12 44112.04 39762.89 1615.72 o 0.9
1 6 11 215.19 193.48 9.25 o 0.9
7 1 6 6317.31 5675.92 244.67 o 0.9
2 5 11 4046.10 3790.59 192.20 o 0.9
7 6 4 809.82 781.26 41.53 o 0.9
4 4 10 4978.97 4662.44 268.07 o 0.9
8 0 2 15.95 14.65 0.85 o 0.9
4 7 9 642.97 568.81 35.78 o 0.9
7 7 3 4950.21 4021.60 252.39 o 0.9
8 1 2 13557.77 11362.25 655.27 o 0.9
5 4 9 3770.96 3239.80 162.86 o 0.9
6 2 8 2460.86 2218.03 98.07 o 0.9
7 8 1 22503.47 21201.50 945.64 o 0.9
8 3 0 13237.38 12392.56 565.73 o 0.9
7 2 6 1252.64 1145.78 53.71 o 0.9
2 8 10 569.68 521.61 24.18 o 0.9
6 10 3 586.44 536.60 24.93 o 0.9
3 3 11 1096.89 1035.92 52.18 o 0.9
4 9 8 24.43 23.10 1.57 o 0.9
1 0 12 33718.10 33173.74 1804.22 o 0.9
0 2 12 2931.36 2868.92 142.26 o 0.9
8 3 1 22.80 22.09 0.99 o 0.9
8 2 2 17956.92 16349.25 649.57 o 0.9
1 1 12 521.23 494.11 16.86 o 0.9
0 13 7 3053.81 2913.91 97.51 o 0.9
7 5 5 165.25 161.76 4.64 o 0.9
5 12 3 40132.71 39076.00 1087.77 o 0.9
2 14 5 3234.38 3158.00 87.70 o 0.9
5 7 8 11550.48 11291.32 312.36 o 0.9
0 12 8 44487.73 44305.23 1214.62 o 0.9
3 9 9 28605.25 28972.38 862.63 o 0.9
2 10 9 16.55 16.59 0.56 o 0.9
2 15 3 7202.36 7306.21 256.90 o 0.9
3 7 10 648.82 627.46 24.29 o 0.9
0 16 0 40140.85 38877.90 1448.46 o 0.9
6 3 8 11974.72 11719.76 439.67 o 0.9
1 15 4 1942.45 1811.02 66.54 o 0.9
4 14 0 24267.22 21998.37 797.92 o 0.9
7 8 2 1325.85 1201.89 43.71 o 0.9
1 2 12 4297.27 3886.55 142.66 o 0.9
7 3 6 295.53 284.74 9.71 o 0.9
5 10 6 3384.48 3269.10 111.85 o 0.9
6 6 7 1645.49 1618.08 55.29 o 0.9
4 13 4 11295.04 11001.91 388.03 o 0.9
6 11 0 1439.76 1387.46 50.10 o 0.9
1 13 7 22298.56 21488.54 763.86 o 0.9
1 9 10 4201.65 4085.51 144.74 o 0.9
3 14 4 37.52 37.95 1.58 o 0.9
0 7 11 1905.32 1924.02 78.44 o 0.9
8 0 3 1239.10 1234.88 49.89 o 0.9
0 14 6 14090.27 13644.51 586.62 o 0.9
4 14 1 8410.87 7702.18 364.38 o 0.9
1 12 8 356.95 326.12 15.84 o 0.9
4 5 10 314.67 287.27 14.18 o 0.9
8 3 2 4298.20 3894.43 197.53 o 0.9
8 4 0 1456.63 1306.79 69.26 o 0.9
5 11 5 1133.78 998.00 60.29 o 0.9
8 1 3 217.54 180.52 12.48 o 0.9
6 11 1 5639.60 4697.67 339.29 o 0.9
3 4 11 4665.52 3861.18 294.67 o 0.9
5 5 9 2385.97 2040.16 177.42 o 0.9
2 6 11 7.71 7.56 0.50 o 0.9
8 4 1 1709.78 1676.90 108.04 o 0.9
5 9 7 2575.54 2511.11 160.13 o 0.8
6 9 5 10743.58 10417.03 654.51 o 0.8
3 15 1 6028.26 5781.78 359.76 o 0.8
0 11 9 299.85 290.63 17.81 o 0.8
1 16 1 2821.85 2877.93 135.95 o 0.8
1 3 12 1594.01 1581.65 69.96 o 0.8
1 7 11 6577.79 6122.18 255.40 o 0.8
1 14 6 4645.59 4291.22 173.10 o 0.8
8 2 3 19003.04 18077.78 673.17 o 0.8
7 7 4 100.21 99.62 3.37 o 0.8
6 8 6 3129.45 3024.59 107.24 o 0.8
3 12 7 8357.24 7993.65 299.40 o 0.8
0 16 2 45857.17 43974.21 1680.95 o 0.8
6 4 8 281.07 274.80 10.85 o 0.8
4 14 2 883.58 916.61 41.39 o 0.8
7 4 6 4938.37 4607.62 251.51 o 0.8
2 0 12 2913.78 2744.01 151.48 o 0.8
6 10 4 10571.36 10116.71 516.44 o 0.8
6 11 2 31.39 29.38 1.34 o 0.8
4 8 9 9257.08 8595.98 339.36 o 0.8
1 11 9 1642.42 1534.25 56.17 o 0.8
0 4 12 1204.56 1105.95 38.40 o 0.8
7 6 5 2951.99 2702.81 91.86 o 0.8
2 1 12 2221.75 2016.12 67.87 o 0.8
7 8 3 5739.78 5224.18 171.94 o 0.8
3 13 6 5716.70 5203.54 170.76 o 0.8
5 13 1 3805.02 3458.42 113.31 o 0.8
8 4 2 34663.62 31532.01 1055.59 o 0.8
3 11 8 2480.95 2270.59 76.95 o 0.8
3 15 2 510.45 466.74 17.54 o 0.8
4 11 7 43.96 39.19 2.31 o 0.8
5 12 4 1474.96 1392.74 95.51 o 0.8
1 16 2 52.13 59.59 6.45 o 0.8
4 12 6 2884.42 2980.55 336.13 o 0.8
8 3 3 0.37 0.35 0.06 o 0.8
5 0 10 2160.81 2070.28 123.64 o 0.8
8 5 0 9024.49 8646.39 507.09 o 0.8
2 15 4 7412.52 7279.84 383.50 o 0.8
2 2 12 1.02 1.00 0.13 o 0.8
0 15 5 0.78 0.77 0.06 o 0.8
3 5 11 11081.25 10968.63 529.34 o 0.8
7 9 1 7489.40 7592.35 354.86 o 0.8
5 1 10 242.41 243.19 12.43 o 0.8
1 4 12 147.13 148.79 6.85 o 0.8
2 13 7 128.96 135.91 5.81 o 0.8
2 9 10 6343.20 6715.91 293.16 o 0.8
8 5 1 149.11 152.89 6.48 o 0.8
5 8 8 14341.98 14793.01 624.43 o 0.8
4 6 10 3173.78 3216.72 128.85 o 0.8
2 12 8 68.56 64.82 2.46 o 0.8
4 0 11 1707.73 1614.56 57.29 o 0.8
6 7 7 2351.22 2123.63 65.17 o 0.8
8 0 4 53416.16 49021.11 1435.07 o 0.8
7 0 7 5180.35 4828.43 137.89 o 0.8
5 13 2 2461.31 2302.37 63.02 o 0.8
5 6 9 26511.50 24609.42 677.69 o 0.8
4 1 11 2721.15 2523.64 69.43 o 0.8
3 8 10 25615.06 23865.95 661.97 o 0.8
2 16 0 2831.67 2679.62 78.39 o 0.8
8 1 4 3230.04 3106.33 89.64 o 0.8
4 10 8 3364.75 3235.88 92.56 o 0.8
7 1 7 7075.34 7151.37 215.86 o 0.8
5 2 10 3137.13 3187.54 102.26 o 0.8
1 15 5 11961.60 11446.82 475.49 o 0.8
6 5 8 563.11 555.74 23.62 o 0.8
4 14 3 3900.33 3945.39 157.99 o 0.8
0 10 10 2551.24 2589.67 88.02 o 0.8
4 13 5 2566.62 2608.25 86.95 o 0.8
2 16 1 11103.38 11145.04 372.41 o 0.8
7 5 6 604.10 602.72 19.82 o 0.8
6 11 3 6517.14 6507.09 214.03 o 0.8
2 3 12 3503.43 3488.10 115.15 o 0.8
2 7 11 3767.19 3623.05 115.47 o 0.8
3 14 5 4805.13 4627.71 147.29 o 0.8
2 14 6 19410.75 18788.48 594.65 o 0.8
7 9 2 133.73 129.97 4.57 o 0.8
4 2 11 2000.84 1958.50 63.04 o 0.8
3 10 9 22984.78 22037.67 799.89 o 0.8
8 4 3 7870.42 7408.14 275.38 o 0.8
8 2 4 109.08 100.83 4.42 o 0.8
7 2 7 487.41 456.17 19.30 o 0.8
8 5 2 1077.22 1050.36 44.76 o 0.8
3 15 3 126.85 134.40 7.00 o 0.8
1 16 3 371.19 361.56 62.63 o 0.8
2 11 9 3104.86 2708.99 134.40 o 0.8
6 0 9 108.18 101.07 4.16 o 0.8
5 3 10 17407.17 16386.46 653.34 o 0.8
1 10 10 146.34 137.20 5.62 o 0.8
1 8 11 20115.08 19019.16 737.86 o 0.8
7 8 4 2432.75 2498.35 100.13 o 0.8
6 1 9 2952.30 3070.04 127.52 o 0.8
1 5 12 1459.42 1512.92 68.20 o 0.8
7 7 5 1145.48 1166.34 50.91 o 0.8
5 11 6 4756.79 4697.65 204.75 o 0.8
2 16 2 6269.92 6124.88 257.30 o 0.8
8 6 0 34531.49 32610.51 1016.32 o 0.8
4 3 11 922.97 898.15 25.70 o 0.8
3 6 11 39471.11 38268.46 1056.79 o 0.8
8 3 4 10944.46 10598.07 292.22 o 0.8
5 13 3 10.82 10.51 0.30 o 0.8
7 3 7 3317.52 3232.29 89.15 o 0.8
5 10 7 10198.33 9922.89 275.24 o 0.8
6 10 5 4986.12 4914.00 133.80 o 0.8
6 9 6 3930.56 3880.90 108.44 o 0.8
2 4 12 2992.08 2991.58 91.12 o 0.8
8 6 1 23648.15 22753.11 821.37 o 0.8
6 12 0 6153.41 5882.88 229.00 o 0.8
6 2 9 432.70 413.68 15.99 o 0.8
4 9 9 713.18 705.43 26.37 o 0.8
5 12 5 18229.38 18034.68 626.52 o 0.8
6 12 1 26428.46 26350.92 900.37 o 0.8
7 9 3 1983.03 1988.74 69.85 o 0.8
4 7 10 481.46 486.12 16.76 o 0.8
3 0 12 222.52 228.39 7.96 o 0.8
6 6 8 2448.78 2571.43 85.37 o 0.8
8 5 3 75.75 80.02 2.60 o 0.8
2 15 5 4834.79 5086.59 161.96 o 0.8
1 13 8 2148.83 2265.17 71.33 o 0.8
5 4 10 21360.17 22307.37 691.22 o 0.8
0 16 4 28040.48 29224.86 903.53 o 0.8
5 7 9 424.83 442.95 14.24 o 0.8
7 6 6 1446.48 1517.04 46.55 o 0.8
3 1 12 8986.55 9401.69 292.49 o 0.8
4 14 4 8519.49 8669.69 285.36 o 0.8
1 14 7 513.41 511.30 16.80 o 0.8
0 6 12 9105.05 9000.80 318.41 o 0.8
6 11 4 1360.72 1343.40 48.08 o 0.8
6 8 7 28931.94 28437.18 1000.09 o 0.8
6 3 9 820.97 800.38 27.94 o 0.8
8 6 2 899.60 876.07 30.06 o 0.8
4 15 0 113.28 109.40 3.66 o 0.8
4 4 11 5020.01 4891.96 165.51 o 0.8
8 0 5 7332.50 7116.63 240.48 o 0.8
8 4 4 2353.84 2253.31 75.56 o 0.8
5 9 8 15888.43 15038.61 508.74 o 0.8
7 4 7 6231.88 5851.06 196.59 o 0.8
2 16 3 16429.29 15370.87 504.23 o 0.8
3 15 4 1043.00 974.58 31.62 o 0.8
8 1 5 57.24 53.51 1.69 o 0.8
3 2 12 1435.28 1337.43 41.33 o 0.8
4 15 1 474.17 453.22 13.98 o 0.8
6 12 2 5207.76 4977.69 155.54 o 0.8
1 16 4 4449.77 4266.82 132.88 o 0.8
7 10 1 8297.50 7957.11 248.18 o 0.8
1 12 9 7128.08 6849.33 216.18 o 0.8
3 13 7 19311.65 18605.70 586.29 o 0.8
3 9 10 85.86 83.54 2.61 o 0.8
2 10 10 5926.23 5835.05 185.72 o 0.8
2 8 11 5393.02 5525.43 180.63 o 0.8
1 6 12 657.67 665.33 26.29 o 0.8
3 12 8 15379.81 15413.61 610.15 o 0.8
2 5 12 842.52 847.02 38.27 o 0.8
4 12 7 7910.73 8080.49 376.20 o 0.8
8 2 5 9561.53 9459.24 544.74 o 0.8
0 9 11 7958.43 8031.23 526.37 o 0.8
0 17 1 1.34 1.69 0.27 o 0.8
1 15 6 697.49 798.24 65.67 o 0.8
5 13 4 111.90 105.51 4.26 o 0.8
8 7 0 963.50 841.28 27.23 o 0.8
3 16 1 7749.27 7168.15 194.98 o 0.8
4 13 6 3298.74 3097.66 81.96 o 0.8
3 3 12 462.57 442.49 11.53 o 0.8
3 7 11 8012.48 7607.35 189.30 o 0.8
4 11 8 10525.14 9982.19 246.07 o 0.8
3 14 6 1552.52 1468.76 35.75 o 0.8
6 4 9 21669.89 20517.30 501.30 o 0.8
5 14 1 283.38 268.04 6.40 o 0.8
4 15 2 42374.91 40063.96 983.69 o 0.8
5 5 10 20389.89 19257.17 470.74 o 0.8
7 10 2 181.06 171.05 4.14 o 0.8
7 8 5 15614.31 15091.67 378.32 o 0.8
0 1 13 2056.48 2053.45 52.43 o 0.8
8 7 1 2.39 2.33 0.08 o 0.8
1 9 11 11845.76 12328.32 516.88 o 0.8
8 6 3 10320.56 10474.94 464.23 o 0.8
7 9 4 233.57 236.82 10.74 o 0.8
1 17 1 3691.98 3720.37 166.45 o 0.8
2 13 8 725.80 689.62 33.68 o 0.8
4 5 11 1162.96 1106.77 54.71 o 0.8
8 3 5 246.12 233.02 11.29 o 0.8
3 11 9 2602.74 2299.51 115.87 o 0.8
8 5 4 5021.28 4436.81 206.97 o 0.8
7 5 7 4482.43 4100.71 176.73 o 0.8
2 14 7 45.54 42.33 1.90 o 0.8
1 0 13 13477.80 12473.07 505.42 o 0.8
6 12 3 12650.71 11850.82 484.55 o 0.8
6 7 8 7532.56 7048.22 291.20 o 0.8
7 0 8 7108.61 6810.55 291.46 o 0.8
1 1 13 1089.34 1058.09 65.73 o 0.8
7 7 6 2154.45 2004.61 142.36 o 0.8
3 16 2 735.51 658.09 52.82 o 0.8
7 1 8 1045.07 909.11 102.52 o 0.8
4 8 10 652.37 576.11 64.40 o 0.8
1 11 10 2057.25 1690.98 182.77 o 0.8
5 14 2 8.85 7.04 0.71 o 0.8
8 7 2 4808.27 4577.11 151.09 o 0.8
6 10 6 194.01 187.03 5.98 o 0.8
5 8 9 13348.52 12877.25 406.30 o 0.8
2 16 4 7070.95 6819.20 213.88 o 0.8
3 4 12 23419.73 22401.69 697.21 o 0.8
2 12 9 6608.55 6348.03 197.03 o 0.8
1 17 2 408.56 418.71 13.93 o 0.8
4 14 5 6020.85 5973.35 221.95 o 0.8
1 2 13 94.65 93.84 3.53 o 0.8
2 6 12 15449.20 14995.37 598.05 o 0.8
7 2 8 1434.92 1416.69 57.28 o 0.8
5 11 7 1727.16 1718.83 70.47 o 0.8
4 10 9 478.57 482.05 20.41 o 0.8
6 11 5 4321.01 4338.17 186.24 o 0.8
5 12 6 9858.83 9735.65 480.54 o 0.8
0 3 13 4495.19 4357.77 227.69 o 0.8
4 15 3 241.28 236.19 12.85 o 0.8
7 10 3 1504.75 1499.65 84.01 o 0.8
6 5 9 45.19 43.27 3.11 o 0.8
1 7 12 730.93 732.54 41.77 o 0.8
8 4 5 0.53 0.52 0.10 o 0.8
6 9 7 2255.71 2032.92 115.11 o 0.8
3 15 5 9014.35 8394.76 451.64 o 0.8
2 15 6 4340.70 4084.62 214.47 o 0.8
1 16 5 13136.85 12350.23 649.94 o 0.8
5 6 10 936.48 941.79 54.52 o 0.8
5 0 11 19117.77 18022.50 1105.75 o 0.8
2 17 0 1649.46 1527.32 83.14 o 0.8
0 17 3 246.46 245.84 10.75 o 0.8
8 0 6 600.35 600.28 22.08 o 0.8
1 3 13 14349.28 14449.12 522.98 o 0.8
5 1 11 4254.46 4298.59 154.15 o 0.8
2 9 11 8003.39 7607.16 244.31 o 0.8
7 3 8 4065.47 3794.75 120.82 o 0.8
5 10 8 988.90 920.38 28.58 o 0.8
6 13 0 33.66 31.09 1.11 o 0.8
3 16 3 10026.29 9183.51 270.93 o 0.8
4 6 11 358.65 329.64 9.58 o 0.8
8 1 6 6076.20 5553.75 160.63 o 0.8
2 17 1 2845.16 2593.17 75.02 o 0.8
8 6 4 21239.13 19176.86 563.65 o 0.8
5 14 3 11.89 10.71 0.38 o 0.8
7 6 7 21463.26 19285.48 568.35 o 0.8
8 8 0 3944.68 3532.67 107.46 o 0.8
0 14 8 4192.84 3754.91 112.08 o 0.8
3 10 10 66.41 62.59 2.21 o 0.8
5 13 5 1170.02 1103.73 36.64 o 0.8
8 7 3 8.95 8.60 0.34 o 0.8
6 13 1 6172.61 5895.63 215.82 o 0.8
3 8 11 5060.04 4721.77 180.51 o 0.8
2 0 13 780.21 732.08 28.00 o 0.8
5 2 11 6202.95 5700.50 255.24 o 0.8
3 5 12 37.21 34.16 1.66 o 0.8
6 12 4 5594.46 5154.81 223.86 o 0.8
2 1 13 2502.57 2317.49 98.57 o 0.8
8 8 1 3676.41 3428.54 143.81 o 0.8
1 17 3 1866.38 1740.54 72.69 o 0.8
7 11 1 370.06 350.96 15.12 o 0.8
9 0 1 5498.52 5192.78 227.85 o 0.8
8 2 6 9809.75 9193.23 413.26 o 0.8
0 13 9 6981.02 6482.08 303.28 o 0.8
2 11 10 442.95 412.03 19.39 o 0.8
6 0 10 1342.24 1294.69 63.92 o 0.8
4 0 12 739.58 732.04 38.26 o 0.8
0 15 7 6.84 6.73 0.35 o 0.8
9 1 1 1697.09 1647.29 91.02 o 0.8
7 9 5 9839.52 9574.51 548.52 o 0.8
6 1 10 2751.98 2740.33 154.12 o 0.8
1 14 8 12.25 12.46 0.70 o 0.8
4 1 12 4755.06 4871.32 278.82 o 0.8
8 5 5 508.77 495.16 28.28 o 0.8
2 17 2 3473.66 2959.32 152.27 o 0.8
6 8 8 949.88 808.91 40.60 o 0.8
2 2 13 0.13 0.11 0.01 o 0.8
1 4 13 26789.48 24536.91 838.79 o 0.8
7 8 6 5187.71 4759.86 161.07 o 0.8
7 4 8 9499.88 8886.24 293.82 o 0.8
6 13 2 2010.46 1883.51 61.85 o 0.8
6 6 9 125.88 119.52 3.92 o 0.8
9 2 1 2.91 2.80 0.11 o 0.8
1 13 9 5012.95 4835.75 165.03 o 0.8
0 8 12 120.02 115.37 3.83 o 0.8
5 3 11 434.30 420.18 14.63 o 0.8
1 10 11 1874.82 1803.50 60.77 o 0.8
2 7 12 1669.24 1597.89 55.52 o 0.8
4 15 4 106.18 98.84 3.42 o 0.8
6 2 10 363.34 337.83 11.79 o 0.8
7 10 4 1137.29 1040.83 35.93 o 0.8
1 15 7 7491.05 6780.20 238.92 o 0.8
8 8 2 17513.97 15879.10 557.20 o 0.8
4 2 12 96.41 87.40 3.32 o 0.8
7 11 2 24.55 22.06 0.75 o 0.8
3 13 8 386.35 347.51 11.62 o 0.8
8 3 6 4157.34 3792.53 127.40 o 0.8
9 0 2 9.72 9.03 0.30 o 0.8
4 13 7 1417.79 1335.24 48.60 o 0.8
2 16 5 6514.10 6109.75 228.42 o 0.8
4 9 10 14351.88 13510.12 535.33 o 0.8
3 14 7 3368.75 3310.15 142.08 o 0.8
9 1 2 65.80 67.35 3.07 o 0.8
4 12 8 734.30 806.61 44.62 o 0.8
5 9 9 3086.03 2470.89 166.00 o 0.8
2 3 13 2863.58 2628.74 112.22 o 0.8
5 7 10 1273.43 1174.37 49.07 o 0.8
4 16 0 5170.85 4762.12 191.23 o 0.8
1 8 12 20596.59 19035.38 769.26 o 0.8
0 12 10 30.05 27.92 1.15 o 0.8
0 5 13 7834.76 7019.23 262.01 o 0.8
3 16 4 280.21 272.86 7.85 o 0.8
9 3 1 7355.20 7140.23 206.12 o 0.8
9 2 2 1341.04 1311.11 36.84 o 0.8
3 12 9 18204.08 17743.47 495.95 o 0.8
0 16 6 27587.60 26920.68 755.46 o 0.8
6 3 10 11937.97 11670.53 328.56 o 0.8
4 16 1 4263.46 4173.47 117.02 o 0.8
5 14 4 1006.79 988.89 27.55 o 0.8
4 3 12 6637.13 6623.20 187.59 o 0.8
4 7 11 1145.71 1215.16 34.99 o 0.8
4 14 6 235.10 252.35 7.64 o 0.8
3 6 12 9.69 10.36 0.36 o 0.8
8 7 4 1060.03 1072.98 44.80 o 0.8
7 7 7 6243.49 6363.13 312.18 o 0.8
6 11 6 147.47 140.87 7.09 o 0.8
2 17 3 5816.26 5463.39 280.64 o 0.8
5 4 11 0.26 0.24 0.04 o 0.8
1 17 4 75.13 75.12 2.52 o 0.8
1 12 10 15835.79 15535.92 518.70 o 0.8
8 4 6 15757.94 15523.20 509.32 o 0.8
1 5 13 241.27 238.00 7.87 o 0.8
6 13 3 4562.02 4531.00 147.80 o 0.8
6 10 7 17.39 17.43 0.65 o 0.8
3 15 6 1072.89 1096.73 35.76 o 0.8
7 5 8 5941.35 6060.47 199.45 o 0.8
5 15 1 515.03 516.10 17.81 o 0.8
4 11 9 159.83 154.28 5.87 o 0.8
2 14 8 27.40 26.34 1.02 o 0.8
8 6 5 11378.54 11007.01 449.00 o 0.8
1 16 6 208.69 204.60 9.15 o 0.8
8 8 3 559.09 549.36 24.51 o 0.8
7 11 3 2241.10 2130.39 99.73 o 0.8
9 0 3 11048.47 9001.29 399.83 o 0.8
9 3 2 398.48 368.05 11.75 o 0.8
2 4 13 888.73 845.48 25.16 o 0.8
5 12 7 22599.25 22020.64 627.07 o 0.8
4 16 2 113.32 111.09 3.19 o 0.8
8 9 0 1190.01 1168.28 32.00 o 0.8
9 1 3 609.81 598.67 17.36 o 0.8
6 12 5 22037.34 21704.82 607.76 o 0.8
0 18 0 29702.32 30298.06 854.13 o 0.8
2 13 9 8595.25 9129.52 259.90 o 0.8
3 9 11 158.30 169.65 4.88 o 0.8
2 10 11 386.84 416.68 12.53 o 0.8
9 4 1 5347.52 5982.05 248.42 o 0.8
3 17 1 2189.51 2408.29 104.63 o 0.8
2 15 7 2109.66 2310.01 102.51 o 0.8
6 4 10 333.59 310.33 18.12 o 0.8
8 9 1 89.67 83.97 4.58 o 0.8
6 7 9 1509.11 1409.01 78.28 o 0.8
4 4 12 182.93 170.71 9.15 o 0.8
7 0 9 760.73 707.19 39.27 o 0.8
5 13 6 8765.60 8293.71 464.08 o 0.8
3 0 13 12913.28 12432.61 703.82 o 0.8
5 11 8 1363.13 1313.79 78.01 o 0.8
9 2 3 250.07 249.64 14.96 o 0.8
5 15 2 8.69 8.63 0.92 o 0.8
7 1 9 133.96 135.65 8.84 o 0.8
3 1 13 1688.33 1551.20 181.09 o 0.8
8 0 7 1133.12 1002.09 118.34 o 0.8
3 11 10 3471.27 2810.96 249.64 o 0.8
2 8 12 2101.93 1707.10 133.85 o 0.8
6 9 8 721.81 593.80 44.73 o 0.8
8 1 7 0.00 0.00 0.00 o 0.8
4 15 5 52.44 48.00 2.31 o 0.8
5 5 11 855.07 784.10 36.86 o 0.8
7 10 5 13362.17 12271.08 541.18 o 0.8
7 9 6 5430.82 4999.08 218.86 o 0.8
1 18 1 610.60 568.19 20.70 o 0.7
7 2 9 7526.71 7205.39 255.02 o 0.7
8 5 6 1006.04 964.18 32.81 o 0.7
9 4 2 30.42 28.85 1.07 o 0.7
3 17 2 61.09 58.54 1.95 o 0.7
0 11 11 120.12 115.45 3.83 o 0.7
3 2 13 19044.27 18535.45 618.30 o 0.7
8 9 2 4625.76 4425.77 140.16 o 0.7
0 18 2 21244.66 20854.81 656.62 o 0.7
8 2 7 8283.54 7850.02 277.56 o 0.7
7 12 1 10321.33 9775.41 367.39 o 0.7
