#------------------------------------------------------------------------------
#$Date: 2017-06-28 06:25:09 +0300 (Wed, 28 Jun 2017) $
#$Revision: 198194 $
#$URL: file:///home/coder/svn-repositories/cod/cif/7/04/34/7043489.cif $
#------------------------------------------------------------------------------
#
# This file is available in the Crystallography Open Database (COD),
# http://www.crystallography.net/
#
# All data on this site have been placed in the public domain by the
# contributors.
#
data_7043489
loop_
_publ_author_name
'Sun, Wei'
'Huang, Ya-Xi'
'Pan, Yuanming'
'Mi, Jin-Xiao'
_publ_section_title
;
 Strong spin frustration and negative magnetization in LnCu3(OH)6Cl3 (Ln =
 Nd and Sm) with triangular lattices: The effects of lanthanides
;
_journal_name_full               'Dalton Trans.'
_journal_paper_doi               10.1039/C7DT01798G
_journal_year                    2017
_chemical_formula_sum            'Cl3 Cu3 Gd H6 O6'
_chemical_formula_weight         556.27
_chemical_name_systematic
;
 ?
;
_space_group_crystal_system      trigonal
_space_group_IT_number           164
_space_group_name_Hall           '-P 3 2"'
_space_group_name_H-M_alt        'P -3 m 1'
_symmetry_space_group_name_Hall  '-P 3 2"'
_symmetry_space_group_name_H-M   'P -3 m 1'
_atom_sites_solution_hydrogens   difmap
_atom_sites_solution_primary     direct
_audit_creation_method           SHELXL-2013
_cell_angle_alpha                90
_cell_angle_beta                 90
_cell_angle_gamma                120
_cell_formula_units_Z            1
_cell_length_a                   6.7982(4)
_cell_length_b                   6.7982(4)
_cell_length_c                   5.6062(3)
_cell_measurement_reflns_used    3098
_cell_measurement_temperature    173(2)
_cell_measurement_theta_max      28.768
_cell_measurement_theta_min      3.460
_cell_volume                     224.38(2)
_computing_cell_refinement       'SAINT (Bruker, 2001)'
_computing_data_collection       'SMART (Bruker, 2001)'
_computing_data_reduction        'SAINT (Bruker, 2001)'
_computing_molecular_graphics
'DIAMOND (Brandenburg, 2011) and ATOMS (Dowty, 2004)'
_computing_publication_material  'SHELXL-2013 (Sheldrick, 2015)'
_computing_structure_refinement  'SHELXL-2013 (Sheldrick, 2015)'
_computing_structure_solution    'SHELXS-2013 (Sheldrick, 2015)'
_diffrn_ambient_temperature      173(2)
_diffrn_measured_fraction_theta_full 0.989
_diffrn_measured_fraction_theta_max 1.000
_diffrn_measurement_device_type  'Bruker Diffraction CCD area-detector'
_diffrn_measurement_method
'1265 images,\f=0, 90, 180 degree, and \D\w=0.3 degree, \c= 54.74 degree'
_diffrn_radiation_monochromator  graphite
_diffrn_radiation_source         'fine-focus sealed tube'
_diffrn_radiation_type           MoK\a
_diffrn_radiation_wavelength     0.71073
_diffrn_reflns_av_R_equivalents  0.0217
_diffrn_reflns_av_unetI/netI     0.0089
_diffrn_reflns_Laue_measured_fraction_full 0.989
_diffrn_reflns_Laue_measured_fraction_max 1.000
_diffrn_reflns_limit_h_max       9
_diffrn_reflns_limit_h_min       -9
_diffrn_reflns_limit_k_max       9
_diffrn_reflns_limit_k_min       -8
_diffrn_reflns_limit_l_max       7
_diffrn_reflns_limit_l_min       -6
_diffrn_reflns_number            3098
_diffrn_reflns_point_group_measured_fraction_full 0.989
_diffrn_reflns_point_group_measured_fraction_max 1.000
_diffrn_reflns_theta_full        25.242
_diffrn_reflns_theta_max         28.768
_diffrn_reflns_theta_min         3.460
_diffrn_standards_number         0
_exptl_absorpt_coefficient_mu    15.185
_exptl_absorpt_correction_T_max  0.763
_exptl_absorpt_correction_T_min  0.536
_exptl_absorpt_correction_type   multi-scan
_exptl_absorpt_process_details   'SMART (Bruker, 2001)'
_exptl_crystal_colour            blue
_exptl_crystal_density_diffrn    4.117
_exptl_crystal_description       prism
_exptl_crystal_F_000             256
_exptl_crystal_size_max          0.130
_exptl_crystal_size_mid          0.120
_exptl_crystal_size_min          0.120
_refine_diff_density_max         0.872
_refine_diff_density_min         -0.370
_refine_diff_density_rms         0.083
_refine_ls_extinction_coef       0.0153(11)
_refine_ls_extinction_expression Fc^*^=kFc[1+0.001xFc^2^\l^3^/sin(2\q)]^-1/4^
_refine_ls_extinction_method     SHELXL
_refine_ls_goodness_of_fit_ref   1.049
_refine_ls_hydrogen_treatment    refall
_refine_ls_matrix_type           full
_refine_ls_number_parameters     22
_refine_ls_number_reflns         244
_refine_ls_number_restraints     1
_refine_ls_restrained_S_all      1.050
_refine_ls_R_factor_all          0.0091
_refine_ls_R_factor_gt           0.0091
_refine_ls_shift/su_max          0.000
_refine_ls_shift/su_mean         0.000
_refine_ls_structure_factor_coef Fsqd
_refine_ls_weighting_details
;
 w=1/[\s^2^(Fo^2^)+(0.0128P)^2^+0.3683P]
 where P=(Fo^2^+2Fc^2^)/3
;
_refine_ls_weighting_scheme      calc
_refine_ls_wR_factor_gt          0.0255
_refine_ls_wR_factor_ref         0.0255
_reflns_Friedel_coverage         0.000
_reflns_number_gt                244
_reflns_number_total             244
_reflns_threshold_expression     'I > 2\s(I)'
_cod_data_source_file            c7dt01798g2.cif
_cod_data_source_block           gdcu3
_cod_original_cell_volume        224.38(3)
_cod_database_code               7043489
_shelx_space_group_comment
;
The symmetry employed for this shelxl refinement is uniquely defined
by the following loop, which should always be used as a source of
symmetry information in preference to the above space-group names.
They are only intended as comments.
;
_shelx_estimated_absorpt_t_min   0.243
_shelx_estimated_absorpt_t_max   0.263
_shelxl_version_number           2013-2
_shelx_res_file
;

TITL GdCu3O6H6Cl3_0m_a.res in P-3m1
REM Old TITL GdCu3O6H6Cl3_0m in P-3m1

REM SHELXT solution in P-3m1
REM R1 0.062,  Rweak 0.008,  Alpha 0.034,  Orientation as input
REM Formula found by SHELXT:  O6 Cl3 Cu3 Gd

CELL  0.71073   6.7982   6.7982   5.6062   90.000   90.000  120.000
ZERR    1.000   0.0004   0.0004   0.0003    0.000    0.000    0.000
LATT  1
SYMM -Y, X-Y, Z
SYMM -X+Y, -X, Z
SYMM Y, X, -Z
SYMM X-Y, -Y, -Z
SYMM -X, -X+Y, -Z
SFAC O H CL CU GD
UNIT 6 6 3 3 1
TEMP -100.000
SIZE 0.12 0.12 0.13

OMIT 0 0 1
L.S. 10
BOND $H
LIST 6
FMAP 2
PLAN 20
HTAB
EQIV $2 x, y, z-1
HTAB O1 Cl1_$2
HTAB O1 Cl2
ACTA

WGHT    0.012800    0.368300
EXTI    0.015319
FVAR       0.70221
GD1   5    0.000000    0.000000    0.500000    10.08333    0.00290    0.00290 =
         0.00982    0.00000    0.00000    0.00145
CU1   4    0.500000    0.500000    0.500000    10.25000    0.00271    0.00271 =
         0.00807    0.00097   -0.00097    0.00043
CL1   3    0.333333    0.666667    0.863983    10.16667    0.01421    0.01421 =
         0.00637    0.00000    0.00000    0.00711
CL2   3    0.000000    0.000000    0.000000    10.08333    0.01162    0.01162 =
         0.00564    0.00000    0.00000    0.00581
O1    1    0.192685    0.385370    0.367183    10.50000    0.00491    0.00575 =
         0.00494    0.00033    0.00017    0.00288
DFIX 0.82 0.02 O1 H1
H1    2    0.199033    0.398066    0.225817    10.50000    0.02105
HKLF 4

REM  GdCu3O6H6Cl3_0m_a.res in P-3m1
REM R1 =  0.0091 for     244 Fo > 4sig(Fo)  and  0.0091 for all     244 data
REM     22 parameters refined using      1 restraints

END

WGHT      0.0056      0.3339

REM Instructions for potential hydrogen bonds
HTAB O1 Cl1_$2
HTAB O1 Cl2

REM Highest difference peak  0.872,  deepest hole -0.370,  1-sigma level  0.083
Q1    1   0.0000  0.0000  0.3593  10.16667  0.05    0.87
Q2    1   0.2807  0.4196  0.4038  11.00000  0.05    0.25
Q3    1   0.1113  0.1113  0.5000  10.50000  0.05    0.25
Q4    1   0.2166  0.4331  0.6097  10.50000  0.05    0.21
Q5    1   0.4274  0.7137  0.8872  10.50000  0.05    0.21
Q6    1   0.0860  0.1719  0.2393  10.50000  0.05    0.21
Q7    1   0.1449  0.2897  0.4096  10.50000  0.05    0.20
Q8    1  -0.0822 -0.1644  0.3072  10.50000  0.05    0.18
Q9    1   0.0513  0.1025  0.0534  10.50000  0.05    0.17
Q10   1  -0.0453 -0.0906  0.0618  10.50000  0.05    0.16
Q11   1   0.5415  0.4585  0.2434  10.50000  0.05    0.15
Q12   1   0.0371  0.1997  0.3786  11.00000  0.05    0.15
Q13   1  -0.1274  0.1274  0.1109  10.50000  0.05    0.15
Q14   1   0.1668  0.4912  0.0157  11.00000  0.05    0.15
Q15   1  -0.0981  0.2948  0.2255  11.00000  0.05    0.15
Q16   1   0.3333  0.6667  0.2741  10.16667  0.05    0.14
Q17   1   0.4633  0.9266  0.9846  10.50000  0.05    0.12
Q18   1   0.3989  0.7979  0.7003  10.50000  0.05    0.12
Q19   1   0.2501  0.5001  0.1832  10.50000  0.05    0.11
Q20   1   0.6640  0.6062  0.3613  11.00000  0.05    0.11
;
_shelx_res_checksum              29017
_shelx_hkl_file
;
   1  -1   0  486.75   11.40
  -1   0   0  480.85   11.30
  -1   0   0  471.05   11.20
   0   1   0  460.85   11.50
   0   1   0  488.05   11.60
   0   1   0  479.95   11.30
   0   1   0  466.35   11.70
   0   1   0  450.75   11.50
  -1   0   0  497.25   11.40
   1  -1   0  460.75   11.40
  -1   1   0  481.95   11.30
  -1   1   0  485.25   11.50
   1   0   0  474.55   11.30
   1   0   0  497.15   11.30
   0  -1   0  487.05   11.50
   0  -1   0  507.45   11.60
   0  -1   0  506.85   11.40
   0  -1   0  502.65   11.80
   0  -1   0  463.75   11.60
   1   0   0  476.45   11.30
  -1   1   0  461.95   11.40
  -1  -1   0 1783.12   42.10
  -1  -1   0 1852.61   42.80
  -1  -1   0 1869.21   41.70
  -1  -1   0 1680.13   43.60
   2  -1   0 1773.42   41.20
   2  -1   0 1790.52   42.80
  -1   2   0 1824.92   45.60
  -1   2   0 1686.23   39.50
  -1   2   0 1674.13   40.30
  -1   2   0 1862.51   42.10
   1  -2   0 1741.83   42.00
  -2   1   0 1840.92   41.20
   1   1   0 1671.03   39.60
   1   1   0 1795.32   43.90
  -2   1   0 1758.12   43.30
   1  -2   0 1717.43   43.80
   1  -2   0 1818.42   41.60
   1  -2   0 1749.72   40.30
  -2   1   0 1699.13   43.60
  -2   0   0 5421.56  122.49
   0   2   0 5124.19  121.69
  -2   0   0 5399.46  122.49
  -2   0   0 5210.38  122.79
   0   2   0 5058.39  121.09
   0   2   0 5223.28  120.79
   2  -2   0 5078.59  120.19
   0   2   0 4888.31  126.19
  -2   2   0 5213.58  120.39
   0  -2   0 5212.58  124.89
  -2   2   0 5042.70  120.19
  -2   2   0 5142.59  124.69
   2   0   0 5191.88  121.29
   0  -2   0 5378.06  124.89
   0  -2   0 5252.37  126.49
   2   0   0 5302.97  121.09
  -1  -2   0  956.90   23.20
  -1  -2   0  953.40   24.00
  -1  -2   0  927.21   24.10
   3  -1   0  964.50   22.60
   3  -1   0  914.11   22.30
  -2   3   0 1003.70   23.60
  -2   3   0  944.11   22.80
  -2   3   0  934.71   23.90
   1   2   0  978.90   23.20
   2  -3   0  981.70   23.90
   1   2   0  946.41   22.80
   1   2   0  918.11   23.80
   1   2   0  956.60   24.10
  -3   1   0  946.21   22.90
   2  -3   0  931.41   23.00
  -3   1   0  968.20   23.00
  -2  -1   0  882.41   24.00
   3  -2   0  945.51   22.80
  -1   3   0  963.90   22.90
  -1   3   0  988.10   23.20
  -1   3   0  905.81   23.90
  -1   3   0  952.50   23.50
  -2  -1   0  973.60   23.20
   3  -2   0  956.20   22.60
   1  -3   0 1010.80   23.50
  -3   2   0  966.40   23.50
   2   1   0  982.70   23.00
   2   1   0  892.31   24.30
   1  -3   0  980.30   24.10
   1  -3   0  967.40   23.10
   2   1   0  959.30   22.90
   2   1   0  974.00   22.80
  -3   2   0  973.10   23.20
   0   3   0  969.60   24.10
   0   3   0  960.20   23.70
   0   3   0  970.70   23.50
   0   3   0  882.51   22.70
   3  -3   0  917.01   22.80
  -3   0   0  949.11   23.10
   0  -3   0  868.31   23.90
  -3   3   0  920.81   24.10
   3   0   0  964.50   22.70
   0  -3   0  906.21   23.50
   0  -3   0  961.70   23.40
   3   0   0  923.01   22.40
  -3   3   0  951.10   23.50
  -1  -3   0  254.47    9.50
   4  -1   0  235.48    7.70
   4  -1   0  250.17    7.90
  -3   4   0  249.18    8.20
  -3   4   0  249.97    9.50
  -1  -3   0  255.87    8.70
  -3   4   0  247.48    8.90
   1   3   0  250.07    8.50
  -4   1   0  243.08    8.40
   1   3   0  255.87    9.40
   1   3   0  242.68    9.30
   1   3   0  241.48    8.20
   3  -4   0  250.47    9.30
   3  -4   0  244.68    8.40
  -2  -2   0 9481.65  218.88
  -2  -2   0 9687.33  229.38
  -2   4   0 9726.63  223.98
   4  -2   0 9102.79  212.48
  -2   4   0 9643.04  220.18
  -2   4   0 9430.16  226.78
   4  -2   0 9565.24  216.48
   2  -4   0 9116.69  222.08
   2   2   0 9618.84  215.18
   2  -4   0 9999.00  218.18
   2   2   0 9495.75  212.48
   2   2   0 9076.09  225.78
   2  -4   0 9122.29  218.58
  -4   2   0 9404.26  220.08
  -1   4   0  246.58    8.80
  -3  -1   0  245.38    8.40
  -1   4   0  253.17    8.30
  -1   4   0  258.07    9.40
   4  -3   0  242.08    8.00
  -1   4   0  244.18    8.40
  -3  -1   0  227.68    9.20
   3   1   0  229.28    9.60
   1  -4   0  255.97    8.50
   3   1   0  250.37    8.10
   3   1   0  235.58    7.80
  -4   3   0  249.78    8.60
   1  -4   0  246.88    8.60
   1  -4   0  239.38    9.20
  -4   3   0  247.58    9.40
   0   4   0 4017.90   96.69
  -4   0   0 4181.08   99.79
   4  -4   0 3967.60   89.39
   0   4   0 3984.10   91.19
   0   4   0 4154.08   95.29
   0   4   0 4055.89   90.29
   0  -4   0 3656.03   89.89
  -4   4   0 3949.41   90.39
   4   0   0 3832.72   91.99
  -4   4   0 4094.29   91.49
   0  -4   0 4170.78   90.99
   4   0   0 3944.61   88.79
   4   0   0 4181.88   95.59
   5  -1   0  878.61   22.00
   5  -1   0  846.82   21.90
  -4   5   0  864.11   22.60
  -4   5   0  880.91   24.90
  -4   5   0  879.61   23.90
  -1  -4   0  896.71   24.90
  -1  -4   0  865.91   23.50
   1   4   0  861.31   24.40
   4  -5   0  832.52   22.70
   1   4   0  872.51   24.60
   1   4   0  841.72   22.60
   1   4   0  886.31   23.30
  -5   1   0  834.22   23.10
   5  -2   0  122.09    5.20
  -3   5   0  126.19    6.30
  -2  -3   0  118.19    5.90
  -2  -3   0  122.79    6.60
  -3   5   0  123.89    5.60
  -3   5   0  123.99    6.70
   5  -2   0  126.69    5.20
  -5   2   0  116.69    5.70
   3  -5   0  122.59    5.20
   2   3   0  118.79    6.70
   2   3   0  130.59    5.80
   3  -5   0  124.39    6.50
   3  -5   0  120.19    5.80
   2   3   0  120.09    5.40
   5  -3   0  122.99    5.30
  -2   5   0  122.79    5.60
  -2   5   0  119.19    6.50
  -3  -2   0  123.89    6.00
   5  -3   0  119.39    5.20
  -2   5   0  132.59    6.30
  -3  -2   0  123.79    6.70
   2  -5   0  129.49    5.60
  -5   3   0  123.59    5.90
   3   2   0  114.89    5.30
   3   2   0  116.29    6.80
   2  -5   0  123.49    5.90
   3   2   0  127.69    5.50
   3   2   0  143.39    5.80
   2  -5   0  118.69    6.40
  -1   5   0  857.81   24.30
  -4  -1   0  854.91   23.00
  -1   5   0  875.01   23.20
  -1   5   0  837.62   23.40
   5  -4   0  868.51   22.30
  -1   5   0  842.12   22.60
  -4  -1   0  919.61   25.20
  -5   4   0  863.11   24.70
  -5   4   0  818.92   23.20
   4   1   0  835.22   22.00
   1  -5   0  847.72   23.00
   1  -5   0  880.11   24.50
   1  -5   0  858.31   23.30
   4   1   0  853.31   25.20
   4   1   0  872.51   22.10
   5  -5   0  661.73   18.90
   0   5   0  682.33   19.80
   0   5   0  677.73   19.20
   0   5   0  672.93   20.20
  -5   0   0  680.73   19.60
   0   5   0  700.83   20.90
   0  -5   0  705.43   21.30
   0  -5   0  688.93   20.40
   5   0   0  683.03   18.40
   0  -5   0  692.13   20.00
   5   0   0  680.23   19.20
  -5   5   0  670.83   20.10
   5   0   0  670.03   21.70
  -5   5   0  686.63   21.20
  -5   6   0  265.67   10.00
  -5   6   0  248.28   10.80
   6  -1   0  253.27    9.10
  -5   6   0  268.47   11.90
  -1  -5   0  248.18   10.50
   6  -1   0  270.27   12.20
   1   5   0  268.07   10.00
   1   5   0  256.27   11.50
   5  -6   0  254.27    9.90
   1   5   0  265.67   10.40
   1   5   0  256.77   11.30
  -6   1   0  262.07   10.40
  -4   6   0 2772.62   66.89
  -2  -4   0 2775.72   66.19
   6  -2   0 2761.02   64.19
  -4   6   0 2825.22   65.39
  -4   6   0 2800.42   67.99
   2   4   0 2738.63   64.99
   2   4   0 2872.01   65.59
   4  -6   0 2858.81   65.89
   2   4   0 2839.62   68.09
   4  -6   0 2898.41   64.29
  -6   2   0 2748.12   65.99
  -3   6   0 1052.09   27.20
   6  -3   0 1050.79   26.30
  -3  -3   0 1003.20   27.80
  -3   6   0 1018.40   29.30
  -3   6   0 1009.30   28.30
  -6   3   0  997.50   27.80
   3   3   0 1037.10   26.80
   3  -6   0 1045.60   27.70
   3  -6   0 1067.99   26.60
   3   3   0 1031.30   26.70
   3   3   0 1062.79   30.30
   3   3   0 1048.80   26.90
  -2   6   0 2693.63   64.59
  -4  -2   0 2730.23   65.29
  -2   6   0 2850.11   66.29
  -2   6   0 2840.12   67.39
   4   2   0 2712.63   68.19
   2  -6   0 2800.62   65.59
  -6   4   0 2765.72   65.79
   4   2   0 2702.03   63.89
  -6   4   0 2856.71   67.89
   2  -6   0 2852.21   64.69
  -5  -1   0  263.87   10.50
  -1   6   0  266.07   10.60
  -1   6   0  264.17   11.40
  -1   6   0  265.57   10.10
  -1   6   0  266.97   10.80
  -6   5   0  251.27   11.60
   5   1   0  257.97   12.10
   1  -6   0  250.87   10.40
   5   1   0  246.98    9.20
   1  -6   0  263.47   10.50
  -6   5   0  249.88   10.70
   0   6   0 4011.40   93.99
   0   6   0 4063.19   92.49
   0   6   0 4133.59   93.49
  -6   0   0 4041.20   93.29
   0   6   0 4002.90   95.09
  -6   6   0 3939.81   93.89
   6   0   0 3913.71   90.89
  -6   6   0 4097.89   95.99
   6   0   0 4053.49   96.89
   0  -6   0 4084.09   93.69
  -6   6   0 4048.19   92.39
  -6   7   0  126.39    8.00
  -1  -6   0  128.99    7.70
   7  -1   0  122.69    6.20
  -6   7   0  140.49    7.40
   7  -1   0  127.19   10.30
   1   6   0  131.59    7.20
   1   6   0  128.29    8.20
  -7   1   0  121.99    7.40
  -2  -5   0  443.46   15.80
   7  -2   0  425.36   13.60
  -5   7   0  421.46   14.80
  -5   7   0  451.25   16.40
   7  -2   0  443.26   17.50
   2   5   0  426.76   14.50
  -7   2   0  452.45   15.80
   2   5   0  427.26   16.90
  -4   7   0  414.96   16.10
  -4   7   0  389.26   13.60
   7  -3   0  384.76   12.60
  -4   7   0  390.76   14.90
  -3  -4   0  376.66   14.30
   4  -7   0  411.06   14.20
  -7   3   0  387.86   14.40
   3   4   0  374.56   13.10
   3   4   0  402.46   16.30
  -3   7   0  385.66   14.70
  -4  -3   0  383.56   14.30
  -3   7   0  387.86   13.60
  -3   7   0  384.56   15.40
  -7   4   0  377.96   14.40
   4   3   0  416.26   13.30
   3  -7   0  405.76   14.30
   4   3   0  402.36   16.60
  -2   7   0  428.96   14.80
  -2   7   0  424.06   15.70
  -2   7   0  429.56   16.40
  -5  -2   0  436.36   15.50
   5   2   0  415.86   13.80
  -7   5   0  430.46   15.80
   2  -7   0  440.46   15.50
   5   2   0  428.86   17.60
  -6  -1   0  129.69    7.70
  -1   7   0  142.69    7.50
   1  -7   0  125.19    7.60
   6   1   0  125.99    6.40
  -7   6   0  127.29    7.90
   0   7   0   96.09    6.40
  -7   0   0   87.89    6.50
   0   7   0   92.39    7.60
   7   0   0   83.89    5.30
  -7   7   0   82.59    5.90
   0  -7   0   93.89    6.80
  -7   7   0   86.19    6.90
  -7   8   0  614.74   20.20
  -1  -7   0  609.94   21.30
  -7   8   0  600.84   21.70
   8  -1   0  623.34   18.40
  -8   1   0  558.14   20.60
   1   7   0  563.64   19.50
  -2  -6   0 1902.91   49.70
  -6   8   0 1990.60   48.80
  -6   8   0 1936.61   50.69
   8  -2   0 1926.91   46.30
  -8   2   0 1664.13   48.80
   2   6   0 1948.71   48.10
  -3  -5   0  121.19    8.00
   8  -3   0  131.59    6.70
  -5   8   0  131.19    7.60
  -5   8   0  129.19    8.50
  -8   3   0  132.59    8.30
   3   5   0  122.79    7.10
  -4   8   0 2947.91   71.69
  -4  -4   0 2954.00   71.19
  -4   8   0 2891.21   69.59
  -8   4   0 2940.51   71.29
   4   4   0 2770.82   68.29
  -5  -3   0  130.19    8.10
  -3   8   0  134.99    7.70
  -3   8   0  136.69    8.50
  -8   5   0  131.69    8.40
   5   3   0  120.99    6.80
  -6  -2   0 1982.80   51.39
  -2   8   0 1981.60   50.29
   6   2   0 1948.71   48.30
  -8   6   0 1995.40   52.09
  -1   8   0  556.14   19.70
  -8   7   0  614.84   20.20
  -8   7   0  608.04   21.70
   7   1   0  597.74   18.40
  -6   9   0  361.76   16.30
  -6   9   0  354.36   14.70
   9  -3   0  349.47   12.90
  -3  -6   0  365.76   15.90
   3   6   0  356.36   14.10
  -9   3   0  378.06   16.40
  -4  -5   0   99.39    7.70
  -5   9   0  120.59    7.70
   4   5   0  100.29    6.60
  -9   4   0   92.69    7.60
  -4   9   0  103.79    7.40
  -5  -4   0  111.49    8.20
  -9   5   0  119.29    8.70
   5   4   0  105.29    6.70
  -3   9   0  358.86   14.70
  -6  -3   0  356.56   15.60
  -9   6   0  359.06   16.20
   6   3   0  355.06   13.40
   0   0  -1 2061.69   45.70
  -1   1  -1  472.75   11.40
  -1   1  -1  481.85   11.20
   0  -1  -1  474.55   11.30
  -1   1  -1  457.95   11.90
   0  -1  -1  464.45   11.20
  -1   1  -1  458.75   11.30
   0  -1  -1  460.25   11.10
   0  -1  -1  451.85   10.70
   1   0  -1  459.05   12.00
   1  -1   1  475.35   11.50
  -1   0   1  490.35   10.40
   0   1   1  456.85   11.10
   1  -1   1  472.85   12.00
  -1   0   1  432.36   11.60
   1  -1   1  450.25   11.20
  -1   0   1  436.26   11.90
   0   1   1  449.56   10.70
   0   1   1  454.35   11.40
   0   1   1  472.25   11.30
   0   1  -1  216.68    5.60
   0   1  -1  204.58    6.70
   1  -1  -1  204.48    5.50
   0   1  -1  211.68    5.50
   0   1  -1  218.18    5.40
  -1   0  -1  214.48    6.10
   0   1  -1  207.28    5.40
  -1   0  -1  212.88    6.10
  -1   0  -1  212.68    6.00
   0   1  -1  197.28    6.60
  -1   1   1  212.48    5.50
   1   0   1  209.38    6.20
   0  -1   1  215.88    5.80
   1   0   1  224.48    6.00
   0  -1   1  218.18    5.70
   1   0   1  220.98    6.20
  -1   1   1  218.88    5.30
   0  -1   1  217.18    6.80
  -1   1   1  213.78    5.30
   0  -1   1  230.98    6.80
   0  -1   1  209.78    5.60
   1   1  -1   26.20    1.50
   1  -2  -1   25.10    1.70
   1   1  -1   22.50    2.40
   1  -2  -1   26.00    1.70
   1  -2  -1   27.20    1.70
  -2   1  -1   27.30    2.10
  -2   1  -1   24.60    1.80
   1   1  -1   28.80    1.30
   1   1  -1   21.20    2.30
   2  -1   1   27.30    1.90
  -1   2   1   22.20    1.70
  -1  -1   1   27.10    1.70
  -1  -1   1   27.50    1.70
  -1  -1   1   24.30    2.30
  -1  -1   1   26.50    1.70
  -1   2   1   25.40    1.90
  -1  -1   1   26.10    2.50
  -1   2   1   26.60    1.90
   2  -1   1   23.30    2.00
   1  -3  -1  980.10   23.80
   2   1  -1  997.80   22.40
   2   1  -1  964.80   22.70
   1  -3  -1  993.70   23.80
  -3   2  -1  980.30   25.10
   2   1  -1 1013.70   25.60
  -3   2  -1  979.30   24.20
  -2  -1   1  986.90   23.30
  -1   3   1  992.30   22.70
   3  -2   1  954.30   24.00
  -2  -1   1 1008.00   23.50
  -1   3   1  996.40   23.90
  -1   3   1  962.70   23.50
  -1   3   1  955.10   24.20
  -2  -1   1  988.10   25.10
   3  -2   1  947.11   23.50
  -2  -1   1 1006.10   25.50
   0  -2  -1 2341.47   52.89
  -2   2  -1 2357.36   54.19
  -2   2  -1 2446.86   59.99
   2   0  -1 2247.68   58.09
   0  -2  -1 2362.06   53.19
   2   0  -1 2430.06   55.39
   0  -2  -1 2285.17   60.49
  -2   2  -1 2517.55   53.09
   2  -2   1 2352.06   54.29
   0   2   1 2344.17   57.39
   0   2   1 2388.06   56.69
  -2   0   1 2367.76   58.69
  -2   0   1 2347.27   54.29
   0   2   1 2530.05   53.49
   2  -2   1 2415.16   57.29
  -2   0   1 2387.96   54.99
  -2   0   1 2385.76   54.29
   2  -2   1 2391.26   52.99
   0   2   1 2445.46   55.79
   0   2   1 2338.37   53.49
   2  -1  -1   26.80    2.00
  -1   2  -1   25.90    1.80
  -1   2  -1   23.60    1.80
  -1  -1  -1   26.70    1.90
  -1  -1  -1   24.20    2.00
  -1  -1  -1   24.80    2.00
  -1   2  -1   25.00    1.90
  -1   2  -1   25.20    2.40
   1   1   1   26.70    2.10
   1   1   1   26.50    1.90
  -2   1   1   25.00    1.40
  -2   1   1   25.80    1.40
   1   1   1   28.30    2.10
   1  -2   1   28.80    2.10
   1  -2   1   23.80    2.30
   1  -2   1   22.20    2.30
   1  -2   1   29.00    2.00
  -2   0  -1 8681.53  201.28
   0   2  -1 8790.12  199.28
   2  -2  -1 9310.87  196.28
   0   2  -1 8611.24  196.98
   0   2  -1 8934.91  211.28
   0   2  -1 8890.31  209.88
  -2   2   1 8834.82  202.38
   2   0   1 8825.22  205.68
   0  -2   1 8299.67  205.68
   2   0   1 8854.91  201.28
   0  -2   1 9180.18  211.98
  -2   2   1 8277.57  199.98
   0  -2   1 9000.60  203.18
  -2   2   1 9230.78  200.28
   0  -2   1 8426.36  200.48
   2   0   1 9089.09  206.28
   2  -3  -1  212.68    7.10
  -3   1  -1  212.18    7.20
   2  -3  -1  210.98    6.70
   1   2  -1  217.08    8.20
   1   2  -1  226.78    6.60
   1   2  -1  207.58    8.00
  -1  -2   1  220.08    8.20
  -2   3   1  221.58    7.10
  -2   3   1  201.98    6.60
   3  -1   1  214.78    6.90
  -1  -2   1  209.28    8.10
  -2   3   1  217.28    7.30
   3  -1   1  220.78    7.40
  -1  -2   1  221.98    7.10
  -1  -2   1  204.38    6.80
  -2   3   1  214.38    7.20
   2   2  -1 4022.50   91.79
   2  -4  -1 3917.91   92.99
   2   2  -1 3897.21   91.89
   2   2  -1 4007.00   94.39
   2  -4  -1 4019.80   91.29
   2  -4  -1 4019.00   90.09
  -4   2  -1 3943.21   95.59
  -2  -2   1 4219.08   92.49
   4  -2   1 4193.08   94.69
  -2  -2   1 4272.57   90.19
  -2   4   1 3917.31   94.59
   4  -2   1 4184.08   94.89
  -2   4   1 4023.70   93.59
  -2  -2   1 3898.11   96.99
  -2  -2   1 4150.98   91.99
  -2   4   1 3944.71   95.29
   2  -5  -1  119.19    5.60
   2  -5  -1  114.89    5.80
  -5   3  -1  118.69    6.00
   3   2  -1  116.69    4.90
  -5   3  -1  119.09    6.70
   3   2  -1  115.99    7.00
  -3  -2   1  113.39    5.50
  -2   5   1  118.59    6.00
  -2   5   1  118.09    6.10
   5  -3   1  118.49    5.60
   5  -3   1  120.69    5.40
  -3  -2   1  130.19    7.00
  -2   5   1  133.59    5.70
  -4   3  -1   67.79    4.10
   1  -4  -1   61.39    3.70
   3   1  -1   59.29    3.00
  -4   3  -1   59.39    4.40
   3   1  -1   59.49    4.60
   3   1  -1   64.69    2.80
   1  -4  -1   61.39    3.80
  -1   4   1   61.49    4.00
  -1   4   1   62.59    3.90
  -1   4   1   61.29    3.20
  -3  -1   1   58.79    4.40
   4  -3   1   65.19    3.80
  -3  -1   1   59.19    3.40
   4  -3   1   61.69    3.50
  -1   4   1   67.69    3.70
  -3  -1   1   66.99    3.70
   3   0  -1   45.20    2.30
   0  -3  -1   53.69    3.20
   3   0  -1   48.10    1.90
   3   0  -1   45.80    3.60
  -3   3  -1   46.00    3.20
  -3   3  -1   50.89    3.80
   0   3   1   57.09    3.20
   0   3   1   41.90    2.80
   3  -3   1   45.40    3.10
   0   3   1   49.20    3.10
  -3   0   1   44.90    2.60
   3  -3   1   47.10    2.90
   0   3   1   46.00    3.20
  -3   0   1   46.90    2.70
   3  -1  -1  960.50   22.30
  -1  -2  -1 1001.10   24.10
  -2   3  -1 1001.50   23.60
   3  -1  -1 1011.50   21.60
  -2   3  -1  964.70   25.10
   3  -1  -1  958.80   24.50
  -1  -2  -1  991.80   24.10
  -2   3  -1  979.40   24.10
   1   2   1 1003.50   24.60
  -3   1   1  984.50   23.00
  -3   1   1  971.20   23.00
   1   2   1  977.40   24.30
   1   2   1  929.41   23.60
   2  -3   1  984.30   25.10
   2  -3   1  965.70   24.00
   3  -2  -1  221.88    5.80
   3  -2  -1  207.38    6.80
  -1   3  -1  218.78    7.10
  -2  -1  -1  209.28    7.20
  -3   2   1  212.48    6.60
  -3   2   1  222.68    6.60
   2   1   1  210.98    6.90
   1  -3   1  204.18    7.00
   2   1   1  209.18    7.20
   1  -3   1  202.08    7.60
   0   3  -1  142.69    5.40
   0   3  -1  140.49    6.40
   0   3  -1  153.48    5.40
   0   3  -1  139.79    6.50
  -3   3   1  150.58    6.10
   3   0   1  146.79    5.60
   0  -3   1  136.99    6.40
  -3   3   1  145.69    5.60
   0  -3   1  138.49    5.60
  -3   3   1  155.38    5.60
   3   0   1  151.18    5.90
   3  -4  -1  422.06   11.90
   1   3  -1  441.86   11.90
   3  -4  -1  429.16   10.20
   1   3  -1  425.76   11.80
  -4   1  -1  408.86   12.60
   1   3  -1  407.26   13.80
   1   3  -1  420.96   13.90
  -3   4   1  422.76   13.00
  -1  -3   1  426.26   14.00
   4  -1   1  416.86   12.50
  -3   4   1  418.26   11.90
  -1  -3   1  431.06   14.00
   4  -1   1  411.36   12.10
  -3   4   1  389.16   12.50
  -1  -3   1  409.46   12.40
   3  -5  -1  111.09    5.20
   2   3  -1  113.99    6.70
   2   3  -1  114.39    6.70
   2   3  -1  114.99    5.00
  -5   2  -1  105.89    5.60
   3  -5  -1  113.39    3.70
   3  -5  -1  109.79    5.70
   2   3  -1  115.49    4.90
  -3   5   1  117.09    5.30
   5  -2   1  120.79    5.40
  -2  -3   1  106.69    5.50
  -3   5   1  114.29    6.00
  -3   5   1  110.99    6.00
   5  -2   1  109.39    5.40
  -2  -3   1  124.89    6.90
   3  -6  -1   52.49    3.90
  -6   3  -1   47.10    4.10
   3   3  -1   43.40    4.70
   3  -6  -1   45.80    4.00
   3   3  -1   48.90    3.30
  -3   6   1   60.69    4.70
   6  -3   1   49.50    3.70
  -3  -3   1   57.49    4.20
  -3   6   1   44.10    3.60
  -3   6   1   46.70    4.20
   6  -3   1   44.80    3.60
   4   3  -1  422.66   13.40
  -7   4  -1  422.46   15.70
   4   3  -1  448.46   17.80
  -3   7   1  446.16   16.00
  -3   7   1  436.66   14.70
  -4  -3   1  432.06   15.20
   7  -4   1  421.36   14.20
  -3   7   1  435.96   16.10
   4   2  -1 1923.01   44.50
   4   2  -1 1887.51   49.80
   2  -6  -1 1924.91   46.40
  -6   4  -1 1860.21   48.90
   2  -6  -1 1895.81   46.90
  -6   4  -1 1930.91   47.30
  -2   6   1 1911.71   47.60
   6  -4   1 1933.41   46.20
  -2   6   1 1885.81   46.00
  -2   6   1 1934.11   47.30
   6  -4   1 1876.71   45.60
  -4  -2   1 1833.02   46.20
  -5   4  -1    9.50    2.00
   4   1  -1   13.00    2.60
   4   1  -1    5.30    1.20
   1  -5  -1    8.30    1.80
   1  -5  -1    6.90    1.80
  -5   4  -1    8.20    2.40
   5  -4   1    5.80    1.50
  -1   5   1    5.60    1.70
  -4  -1   1    5.60    1.50
  -4  -1   1    4.20    1.90
  -1   5   1    6.20    1.40
  -1   5   1    4.00    1.40
  -1   5   1    4.50    1.30
   5  -4   1    4.10    1.40
   4   0  -1 5557.24  122.39
  -4   4  -1 5566.44  130.69
   0  -4  -1 5496.65  127.49
  -4   4  -1 5435.36  126.59
   4   0  -1 5271.37  127.29
   4   0  -1 5404.06  131.49
   0  -4  -1 5371.96  125.49
  -4   0   1 5776.22  120.49
   0   4   1 5265.27  125.59
   0   4   1 5632.24  130.89
   4  -4   1 5458.65  130.49
  -4   0   1 5644.33  120.49
   0   4   1 5436.06  128.19
   0   4   1 5529.25  125.89
  -4   0   1 5236.38  122.69
  -4   0   1 5253.57  127.79
  -1  -3  -1   63.79    4.10
  -3   4  -1   65.39    4.00
  -1  -3  -1   61.89    3.80
   4  -1  -1   61.69    2.40
   4  -1  -1   73.99    4.70
  -3   4  -1   59.09    3.50
  -3   4  -1   66.99    4.70
   4  -1  -1   60.19    2.90
  -4   1   1   61.09    3.40
   1   3   1   60.99    3.70
   1   3   1   67.99    4.10
   1   3   1   61.59    4.00
   3  -4   1   63.49    4.50
  -4   1   1   61.29    3.40
   3  -4   1   66.09    3.90
   1   3   1   64.39    4.10
  -2  -2  -1 3840.32   90.69
   4  -2  -1 4133.69  100.49
  -2  -2  -1 4047.00   91.39
  -2   4  -1 4106.89   92.59
  -2   4  -1 3957.70   94.59
   4  -2  -1 4123.09   91.39
  -2   4  -1 4175.08   91.09
   2  -4   1 4172.78   92.49
   2   2   1 3956.00   91.99
   2  -4   1 4157.18   91.39
  -4   2   1 4129.99   89.99
   2   2   1 4102.79   96.59
   2  -4   1 4065.69   95.39
   2   2   1 3968.70   90.29
  -4   2   1 4045.20   92.99
  -3  -1  -1  412.26   12.70
  -1   4  -1  438.86   12.60
   4  -3  -1  421.56   11.10
  -1   4  -1  416.96   13.90
  -1   4  -1  410.36   12.00
   3   1   1  407.36   12.60
   1  -4   1  428.06   13.40
  -4   3   1  408.36   12.20
   3   1   1  389.56   12.10
   3   1   1  421.36   12.60
   1  -4   1  412.16   12.70
   1  -4   1  437.96   14.20
  -4   3   1  436.96   12.20
  -4   0  -1 2308.87   53.59
   0   4  -1 2379.36   52.99
   4  -4  -1 2307.97   55.49
   0   4  -1 2302.77   55.29
   0   4  -1 2232.58   52.39
   0   4  -1 2232.88   54.59
   0  -4   1 2312.77   53.49
  -4   4   1 2310.17   53.39
   4   0   1 2187.38   52.59
  -4   4   1 2335.87   54.29
   0  -4   1 2279.97   54.79
   4   0   1 2296.07   53.19
   1   4  -1   57.09    3.60
   4  -5  -1   57.79    3.50
   1   4  -1   58.09    3.60
   1   4  -1   63.99    5.00
  -5   1  -1   57.29    4.10
   1   4  -1   64.59    4.90
   4  -5  -1   60.59    2.60
  -4   5   1   57.29    4.40
   5  -1   1   54.99    3.70
  -1  -4   1   57.39    4.00
  -4   5   1   58.29    3.70
  -4   5   1   56.79    4.20
   5  -1   1   59.09    3.90
  -6   2  -1 3439.46   79.59
   2   4  -1 3330.57   77.39
   2   4  -1 3328.27   81.59
   2   4  -1 3466.15   81.99
  -2  -4   1 3403.66   79.09
   6  -2   1 3362.56   77.89
  -4   6   1 3362.16   79.89
  -4   6   1 3417.56   78.19
   6  -2   1 3525.15   78.49
  -4   6   1 3530.55   80.49
   3   4  -1  120.49    8.30
   3   4  -1  115.29    5.90
  -7   3  -1  110.09    7.00
  -4   7   1  114.09    6.40
  -4   7   1  109.09    7.20
  -4   7   1  113.09    7.30
   7  -3   1  112.59    6.20
  -3  -4   1  126.59    7.10
  -8   4  -1 1308.37   37.00
   4   4  -1 1322.77   33.60
  -4   8   1 1325.37   35.30
   8  -4   1 1288.37   34.50
  -4  -4   1 1335.87   36.60
  -4   8   1 1289.97   37.10
   5   4  -1  101.09    6.10
  -9   5  -1   97.29    7.80
  -5  -4   1   97.69    7.50
  -4   9   1   93.69    6.90
  -4   9   1   84.09    7.40
   5   3  -1   16.20    2.40
  -8   5  -1   22.40    3.80
  -3   8   1   15.30    3.30
  -5  -3   1   13.40    2.90
  -3   8   1   13.80    3.20
  -7   5  -1   60.49    5.30
   5   2  -1   56.69    6.10
   5   2  -1   53.79    3.70
  -2   7   1   51.69    4.80
  -2   7   1   47.00    4.80
  -5  -2   1   52.49    4.60
  -2   7   1   55.19    4.60
   5   1  -1  442.96   17.40
   1  -6  -1  453.35   15.60
  -6   5  -1  455.75   16.80
  -6   5  -1  438.86   15.40
   5   1  -1  441.16   12.90
   1  -6  -1  451.25   15.00
  -1   6   1  451.05   15.40
   6  -5   1  459.05   14.80
  -1   6   1  452.65   14.20
  -5  -1   1  427.36   14.40
  -1   6   1  431.76   15.50
  -1   6   1  440.46   14.50
   5   0  -1  203.88   10.10
  -5   5  -1  209.98    9.00
   5   0  -1  209.08    7.10
   0  -5  -1  200.38    8.60
  -5   5  -1  205.28    9.90
   0  -5  -1  216.68    9.30
   5  -5   1  211.28    8.60
  -5   0   1  193.18    8.10
   0   5   1  211.88    9.10
   0   5   1  206.38    8.40
   0   5   1  199.58    8.80
   0   5   1  205.78    8.60
  -4   5  -1    3.90    1.30
   5  -1  -1    4.40    1.00
  -1  -4  -1    5.70    1.60
  -4   5  -1    3.40    1.40
   5  -1  -1    3.50    1.50
  -1  -4  -1    4.80    1.70
  -4   5  -1    8.70    2.60
   1   4   1    4.10    1.40
   1   4   1    7.00    1.80
   4  -5   1    7.20    2.30
  -5   1   1    4.10    1.30
   1   4   1    5.70    1.70
   4  -5   1    6.10    1.60
   1   4   1    6.30    1.80
   5  -2  -1  112.89    6.30
   5  -2  -1  127.69    4.20
   5  -2  -1  125.09    4.80
  -3   5  -1  118.59    6.90
  -3   5  -1  121.79    6.10
  -2  -3  -1  122.69    6.40
  -2  -3  -1  118.89    6.00
   3  -5   1  125.79    6.10
   3  -5   1  117.09    6.00
  -5   2   1  130.49    5.70
   3  -5   1  124.79    6.90
   2   3   1  124.89    5.80
   2   3   1  126.49    6.70
   2   3   1  122.29    6.10
   5  -3  -1  118.19    4.30
  -2   5  -1  114.99    6.80
   5  -3  -1  113.79    5.80
  -3  -2  -1  142.39    6.30
  -2   5  -1  111.39    5.30
  -3  -2  -1  112.39    6.30
  -2   5  -1  109.69    5.70
   3   2   1  113.79    6.60
   3   2   1  109.69    5.40
  -5   3   1  110.69    5.50
   2  -5   1  117.69    6.80
   2  -5   1  110.39    5.80
   3   2   1  115.49    5.80
   2  -5   1  115.49    6.00
  -1   5  -1   63.09    5.00
  -4  -1  -1   53.69    4.00
  -1   5  -1   65.39    4.20
  -1   5  -1   57.19    3.70
  -4  -1  -1   58.19    4.60
   1  -5   1   60.99    4.50
  -5   4   1   55.89    4.50
   1  -5   1   56.49    4.80
   1  -5   1   57.69    4.20
   4   1   1   66.19    4.00
   4   1   1   57.39    4.00
  -5   4   1   58.79    4.00
   0   5  -1  659.63   20.20
   0   5  -1  656.83   18.40
   0   5  -1  645.04   20.70
  -5   0  -1  632.34   19.10
   0   5  -1  619.74   18.00
  -5   5   1  656.73   20.00
   5   0   1  678.83   18.90
   5   0   1  625.14   18.00
   0  -5   1  640.44   19.10
  -5   5   1  612.04   19.00
   1   5  -1   40.00    3.40
   1   5  -1   41.90    4.60
   1   5  -1   46.30    4.80
  -6   1  -1   54.19    4.40
  -5   6   1   41.80    3.50
  -1  -5   1   38.50    3.80
   6  -1   1   37.00    3.40
  -5   6   1   43.10    4.40
  -5   6   1   43.60    4.10
   2   5  -1   12.20    3.10
  -7   2  -1   17.50    3.10
   2   5  -1   11.70    2.20
   7  -2   1   12.00    2.20
  -5   7   1   17.40    3.30
  -2  -5   1   18.40    3.00
  -5   7   1   11.80    2.90
   3   5  -1  300.17   11.30
  -8   3  -1  306.27   13.40
  -5   8   1  296.17   12.20
  -5   8   1  294.77   13.60
   8  -3   1  300.07   11.60
  -3  -5   1  288.67   12.80
  -9   4  -1   71.09    6.80
   4   5  -1   61.79    5.00
   9  -4   1   70.99    5.50
  -5   9   1   73.99    7.00
  -5   9   1   78.09    6.20
  -4  -5   1   67.09    6.30
   6   2  -1 2070.29   51.09
  -8   6  -1 2209.98   56.29
  -2   8   1 2197.58   54.29
  -6  -2   1 2129.49   54.89
  -2   8   1 2180.28   56.29
   6   1  -1   45.00    3.40
  -7   6  -1   44.20    4.70
  -1   7   1   45.70    4.30
  -1   7   1   44.00    4.70
  -6  -1   1   40.20    4.20
  -1   7   1   44.40    4.70
   0  -6  -1 1660.73   42.00
   6   0  -1 1618.24   38.60
  -6   6  -1 1630.64   42.50
   6   0  -1 1624.44   44.80
  -6   6  -1 1602.74   41.00
   0   6   1 1635.14   42.50
   0   6   1 1653.83   41.70
   0   6   1 1642.34   42.40
   6  -6   1 1632.04   41.30
  -6   0   1 1567.74   41.20
   0   6   1 1649.33   41.20
  -5   6  -1  432.16   15.40
   6  -1  -1  426.76   16.50
   6  -1  -1  437.26   12.70
  -5   6  -1  449.66   16.90
  -1  -5  -1  436.86   15.10
  -5   6  -1  428.86   14.30
  -6   1   1  439.66   14.60
   1   5   1  424.76   15.30
   1   5   1  458.35   15.40
   5  -6   1  462.85   15.00
   1   5   1  437.76   14.50
   1   5   1  463.95   15.70
   6  -2  -1 1950.01   49.30
   6  -2  -1 1887.61   44.60
  -4   6  -1 1921.11   48.10
  -4   6  -1 1927.21   46.90
  -4   6  -1 1942.41   49.99
  -2  -4  -1 1957.80   49.10
  -2  -4  -1 1973.30   48.00
   4  -6   1 1910.11   47.40
   4  -6   1 2043.00   47.80
  -6   2   1 1837.22   46.60
   2   4   1 1955.30   47.80
   2   4   1 1945.11   47.00
   2   4   1 1930.71   49.20
  -3  -3  -1   53.79    4.30
  -3   6  -1   49.40    4.90
  -3   6  -1   47.40    3.70
   6  -3  -1   50.39    4.30
  -3   6  -1   50.09    4.10
   3  -6   1   47.70    4.00
   3   3   1   50.29    4.80
   3  -6   1   47.20    4.00
   3   3   1   44.00    3.80
   3   3   1   45.30    3.70
  -6   3   1   50.99    3.90
  -2   6  -1 3310.77   77.89
  -4  -2  -1 3417.66   79.29
  -2   6  -1 3421.16   81.59
  -2   6  -1 3510.65   79.09
   4   2   1 3350.76   77.89
  -6   4   1 3376.56   80.69
   4   2   1 3437.76   81.89
  -6   4   1 3351.96   78.69
   4   2   1 3500.45   78.69
   2  -6   1 3347.27   79.19
  -1   6  -1   39.50    3.60
  -1   6  -1   39.60    3.50
  -5  -1  -1   40.80    3.90
  -1   6  -1   41.90    4.70
  -6   5   1   41.10    3.90
   5   1   1   36.00    3.30
  -6   5   1   35.50    4.20
   5   1   1   47.80    5.10
   5   1   1   40.60    3.60
   1  -6   1   39.00    3.90
  -6   0  -1 1850.01   47.20
   0   6  -1 1875.61   45.80
   0   6  -1 1891.41   48.70
  -6   6   1 1818.32   47.30
   6   0   1 1899.81   50.59
  -6   6   1 1862.91   48.70
   0  -6   1 1892.21   47.40
   6   0   1 1896.11   45.80
  -6   6   1 1853.71   45.60
   1   6  -1  199.88   10.80
  -7   1  -1  191.08    9.90
   1   6  -1  194.98    8.80
  -6   7   1  198.58   10.20
   7  -1   1  203.58    8.80
  -1  -6   1  203.28    9.90
  -6   7   1  206.58    9.30
  -8   2  -1 1351.76   37.90
   2   6  -1 1335.37   35.20
  -2  -6   1 1320.37   37.40
  -6   8   1 1366.86   36.20
   8  -2   1 1311.37   35.20
  -6   8   1 1365.16   38.60
  -8   7  -1   44.10    4.80
  -8   7  -1   46.60    5.40
   7   1  -1   48.80    3.70
  -7  -1   1   54.09    5.40
  -1   8   1   45.80    4.80
  -7   7  -1   75.09    5.80
  -7   7  -1   78.89    6.50
   7   0  -1   73.49    4.40
   0   7   1   70.09    5.70
  -7   0   1   77.89    6.00
  -6   7  -1   42.60    4.70
   7  -1  -1   49.90    5.70
   7  -1  -1   44.90    3.30
  -1  -6  -1   48.00    4.70
  -6   7  -1   50.39    4.50
   1   6   1   49.99    5.00
   1   6   1   42.50    4.70
   1   6   1   48.10    4.40
  -7   1   1   50.59    4.60
  -5   7  -1   62.99    5.30
  -2  -5  -1   58.19    5.00
  -5   7  -1   56.99    4.70
   7  -2  -1   53.59    3.50
   7  -2  -1   52.19    5.30
   2   5   1   67.09    5.80
   2   5   1   60.69    4.80
   5  -7   1   55.79    4.70
  -7   2   1   50.59    4.60
   2   5   1   62.79    5.10
  -4   7  -1  425.96   14.70
  -3  -4  -1  412.76   15.40
   7  -3  -1  425.56   16.30
  -4   7  -1  473.35   16.20
   3   4   1  427.46   14.70
  -7   3   1  424.96   15.10
   3   4   1  438.66   17.20
   4  -7   1  454.05   15.70
   7  -4  -1  120.29    7.10
  -4  -3  -1  120.09    7.20
  -3   7  -1  120.59    6.60
  -3   7  -1  118.99    7.20
   4   3   1  110.59    7.90
   4   3   1  121.59    6.60
   3  -7   1  120.49    7.20
  -7   4   1  117.69    7.00
  -5  -2  -1   14.10    2.80
  -2   7  -1   15.00    2.60
  -7   5   1   20.10    3.10
   5   2   1   11.70    3.40
   2  -7   1   14.20    2.80
   5   2   1   18.30    2.70
  -1   7  -1  221.28    9.50
  -6  -1  -1  197.58    9.90
  -7   6   1  202.28   10.20
   6   1   1  200.88    9.00
   1  -7   1  208.48   10.20
   0   7  -1   74.89    5.60
   0   7  -1   81.79    7.00
  -7   0  -1   81.09    6.30
  -7   7   1   77.59    5.60
   7   0   1   82.79    5.60
   0  -7   1   76.89    6.30
  -7   7   1   85.69    6.80
   1   7  -1   68.49    5.50
  -8   1  -1   74.29    6.60
  -7   8   1   83.39    6.20
  -7   8   1   68.29    6.60
  -1  -7   1   81.89    6.80
   8  -1   1   75.39    5.50
  -7   8  -1   44.60    4.90
  -7   8  -1   47.80    5.50
   8  -1  -1   44.40    3.50
   1   7   1   44.40    4.80
  -8   1   1   40.70    4.80
  -6   8  -1 2196.08   56.19
  -2  -6  -1 2115.69   55.39
  -6   8  -1 2131.49   54.29
   8  -2  -1 2151.58   50.79
   2   6   1 2125.29   59.69
  -8   2   1 2186.28   55.39
   2   6   1 2202.48   54.29
  -5   8  -1   19.40    3.20
  -5   8  -1   24.50    5.60
  -3  -5  -1   18.50    3.30
   8  -3  -1   15.30    3.30
  -8   3   1   18.00    3.30
   3   5   1   14.90    2.90
  -4   8  -1 1262.47   35.30
  -4  -4  -1 1349.07   37.20
   4  -8   1 1347.97   36.80
   4   4   1 1300.67   35.30
  -8   4   1 1338.47   36.80
  -3   8  -1  285.17   12.10
  -5  -3  -1  293.77   13.10
   3  -8   1  295.77   13.00
   5   3   1  298.97   12.00
  -8   5   1  297.17   13.20
  -2   8  -1 1374.06   36.90
  -6  -2  -1 1365.96   38.30
  -8   6   1 1348.97   38.50
   6   2   1 1349.36   36.20
   2  -8   1 1393.16   38.30
  -1   8  -1   84.19    6.20
  -7  -1  -1   73.69    6.40
  -8   7   1   74.39    6.60
   1  -8   1   64.69    6.20
   7   1   1   69.09    5.40
  -5   9  -1   91.19    6.80
  -4  -5  -1   97.79    7.70
   4   5   1   92.49    6.80
  -9   4   1   94.29    7.60
  -5  -4  -1   67.79    6.50
  -4   9  -1   62.59    5.80
  -9   5   1   71.79    6.70
   5   4   1   76.79    6.00
   0   0  -2 6817.32  156.28
   0   0   2 6978.80  152.48
   0   0   2 6967.60  156.08
  -1   1  -2   24.30    2.20
   1   0  -2   26.00    2.40
   1   0  -2   24.50    2.10
  -1   1  -2   29.20    1.60
   0  -1  -2   27.80    1.60
  -1   1  -2   26.10    1.70
   0  -1  -2   28.50    1.30
  -1   0   2   32.00    2.20
   1  -1   2   26.70    1.90
   1  -1   2   33.10    2.50
   1  -1   2   25.40    1.80
  -1   0   2   26.90    2.40
   0   1   2   26.20    1.80
   0   1   2   29.80    1.80
   1  -1   2   25.00    1.90
   0   1   2   27.00    1.70
  -1   0  -2 2630.34   63.49
   0   1  -2 2610.14   64.09
  -1   0  -2 2848.92   64.49
   0   1  -2 2629.74   60.79
   0   1  -2 2817.82   60.99
   1   0   2 2776.02   66.09
   0  -1   2 2765.42   63.19
   0  -1   2 2766.72   61.89
   1   0   2 2847.62   64.99
   0  -1   2 2728.43   61.29
   0  -1   2 2711.23   65.19
   0  -1   2 2819.62   70.69
  -1   1   2 2741.83   61.29
  -1   1   2 2627.64   62.89
   1   0   2 2793.72   67.49
  -1   1   2 2634.04   63.99
  -2   1  -2  651.93   15.70
   1   1  -2  630.14   17.40
  -2   1  -2  610.34   16.60
   1   1  -2  622.84   17.00
  -2   1  -2  643.74   16.00
   1  -2  -2  662.73   14.90
   2  -1   2  622.84   16.30
  -1   2   2  627.94   15.50
   2  -1   2  664.33   16.40
  -1  -1   2  648.84   17.50
  -1   2   2  607.34   15.10
  -1   2   2  630.04   14.30
  -1  -1   2  631.54   14.40
  -1   2   2  647.74   15.40
  -1  -1   2  644.44   14.50
   2  -1   2  633.34   15.90
  -1  -1   2  607.24   16.90
   1  -3  -2  129.49    4.60
  -3   2  -2  121.59    5.20
   2   1  -2  120.49    3.30
   2   1  -2  123.89    6.00
   2   1  -2  117.09    6.10
   1  -3  -2  117.59    4.10
  -2  -1   2  124.19    6.20
  -2  -1   2  111.69    5.70
  -1   3   2  126.49    5.10
  -1   3   2  118.39    3.90
   3  -2   2  115.49    4.90
  -1   3   2  118.79    4.70
  -2  -1   2  120.99    4.10
  -2  -1   2  121.59    4.20
   3  -2   2  124.89    5.50
  -1   3   2  121.69    5.20
  -1   3   2  128.99    4.20
  -2   2  -2 6652.63  155.48
  -2   2  -2 6424.06  159.08
   0  -2  -2 7062.69  150.98
   0  -2  -2 6574.74  149.49
  -2   2  -2 6983.50  152.68
   2   0  -2 6401.56  159.08
   2  -2   2 6885.51  170.78
   2  -2   2 6485.65  154.68
   0   2   2 6759.42  158.98
  -2   0   2 6543.75  159.88
   2  -2   2 6995.20  157.68
   0   2   2 6844.02  155.48
   2  -2   2 6624.54  153.98
  -2   0   2 6629.14  162.58
   0   2   2 6693.33  154.58
   2  -1  -2  646.64   16.30
  -1   2  -2  636.54   17.20
  -1  -1  -2  645.94   15.80
  -1   2  -2  647.74   15.30
  -1   2  -2  619.74   15.30
  -1  -1  -2  647.74   15.70
   1   1   2  624.04   16.30
   1  -2   2  636.24   15.80
   1  -2   2  662.03   16.10
  -2   1   2  623.54   16.20
  -2   1   2  620.94   16.00
   1   1   2  646.74   16.20
   1  -2   2  647.94   15.60
   1   1   2  608.14   15.70
   0   2  -2 7066.29  178.88
   0   2  -2 7778.62  167.68
  -2   0  -2 7497.65  170.08
   0   2  -2 7409.96  168.58
  -2   2   2 7364.96  167.18
  -2   2   2 7966.00  168.38
   0  -2   2 7591.94  171.28
   2   0   2 7409.36  177.98
   2   0   2 7029.20  168.38
   0  -2   2 7197.78  170.88
  -2   2   2 7582.84  168.08
   0  -2   2 7781.52  182.08
  -2   2   2 7627.74  167.68
   1   2  -2 1296.17   29.40
   1   2  -2 1330.37   33.30
  -3   1  -2 1289.97   31.40
   1   2  -2 1284.37   32.80
   2  -3  -2 1364.36   29.10
  -2   3   2 1296.97   30.20
  -1  -2   2 1261.47   30.20
  -2   3   2 1345.77   30.70
  -1  -2   2 1347.37   30.60
  -1  -2   2 1344.07   33.40
  -2   3   2 1272.07   30.10
  -1  -2   2 1301.77   32.80
   3  -1   2 1286.67   31.10
  -2   3   2 1282.77   30.80
   3  -1   2 1286.77   31.70
   2   2  -2 4551.04  106.19
   2   2  -2 4883.71  105.29
   2   2  -2 4606.34  105.49
  -4   2  -2 4631.44  104.49
  -4   2  -2 4579.54  108.39
   2  -4  -2 4499.75  104.19
  -2  -2   2 4514.75  108.79
   4  -2   2 4741.73  107.99
  -2  -2   2 4638.54  105.39
  -2  -2   2 4475.35  104.69
   4  -2   2 4534.75  103.39
  -2   4   2 4723.13  106.29
  -2  -2   2 4993.40  107.39
  -2   4   2 4383.46  102.79
  -2   4   2 4622.34  107.19
   2  -5  -2   36.30    2.90
   3   2  -2   41.00    4.30
  -5   3  -2   33.60    3.30
   2  -5  -2   40.50    3.00
   3   2  -2   36.40    2.20
  -5   3  -2   40.10    4.10
   5  -3   2   35.60    3.10
   5  -3   2   36.40    3.30
  -2   5   2   32.90    2.80
  -2   5   2   41.30    3.10
  -3  -2   2   36.90    2.90
  -2   5   2   36.40    3.40
   1  -4  -2 1202.18   28.80
   3   1  -2 1184.48   31.60
   3   1  -2 1169.18   26.40
   1  -4  -2 1162.28   28.10
  -4   3  -2 1146.09   30.80
  -4   3  -2 1174.08   29.60
  -3  -1   2 1261.67   31.30
   4  -3   2 1113.09   28.80
  -1   4   2 1167.78   28.70
  -3  -1   2 1154.78   27.90
  -1   4   2 1118.59   29.60
  -3  -1   2 1231.58   33.70
  -3  -1   2 1191.48   28.20
   4  -3   2 1163.78   29.60
  -1   4   2 1182.38   28.20
  -1   4   2 1181.88   27.30
   0  -3  -2 1006.60   24.30
  -3   3  -2 1016.50   25.40
   3   0  -2 1014.20   26.80
   0  -3  -2 1049.49   25.00
  -3   3  -2 1018.40   26.90
   0   3   2 1014.30   24.20
  -3   0   2  975.40   26.40
  -3   0   2  974.30   26.60
  -3   0   2 1069.49   23.60
   3  -3   2 1046.00   25.00
   3  -3   2 1015.40   27.00
   0   3   2  999.40   24.90
   3  -3   2 1000.00   25.60
   0   3   2 1020.40   24.90
  -3   0   2 1022.80   23.50
  -1  -2  -2  126.89    5.10
  -1  -2  -2  116.89    4.70
  -2   3  -2  119.39    4.80
   3  -1  -2  122.19    5.60
  -2   3  -2  120.49    6.10
  -2   3  -2  121.99    5.00
  -3   1   2  130.49    3.80
   1   2   2  123.19    5.00
   1   2   2  120.69    5.50
   2  -3   2  117.49    5.10
  -3   1   2  122.19    5.50
  -3   1   2  117.59    3.70
   2  -3   2  117.09    6.00
  -1   3  -2 1352.86   30.60
   3  -2  -2 1321.47   30.90
  -1   3  -2 1305.97   33.20
  -1   3  -2 1267.57   30.60
  -2  -1  -2 1306.87   31.60
  -3   2   2 1336.47   29.90
   2   1   2 1294.97   32.10
   1  -3   2 1310.97   33.40
   1  -3   2 1309.47   31.40
   1  -3   2 1392.36   31.90
   1  -3   2 1349.56   33.40
  -3   2   2 1283.17   29.80
   2   1   2 1306.27   31.30
   0   3  -2  171.48    5.30
   0   3  -2  174.58    5.60
  -3   0  -2  166.38    6.50
   0   3  -2  158.08    7.50
   3  -3  -2  166.58    4.50
   0   3  -2  154.58    5.50
  -3   3   2  168.98    5.80
   3   0   2  160.68    6.70
   0  -3   2  177.48    6.50
  -3   3   2  168.88    6.30
   0  -3   2  165.28    7.70
  -3   3   2  163.28    5.90
   0  -3   2  168.68    7.70
   3   0   2  164.78    6.40
  -3   3   2  161.78    5.50
   0  -3   2  161.48    6.10
  -4   1  -2  144.19    6.40
   1   3  -2  148.69    4.60
   1   3  -2  149.99    7.60
   1   3  -2  143.59    7.40
   1   3  -2  140.09    5.10
   3  -4  -2  155.48    4.80
   4  -1   2  146.19    6.10
   4  -1   2  143.69    6.50
  -1  -3   2  145.59    7.40
  -1  -3   2  149.19    6.20
  -3   4   2  149.99    6.00
  -1  -3   2  143.39    5.90
  -3   4   2  140.09    5.90
  -3   4   2  146.19    5.50
  -3   4   2  133.49    5.90
  -5   2  -2 1314.57   33.60
   2   3  -2 1378.06   36.00
   2   3  -2 1308.87   35.80
   2   3  -2 1351.46   31.10
   5  -2   2 1311.47   32.80
  -3   5   2 1353.16   32.80
  -3   5   2 1254.17   33.30
   5  -2   2 1337.37   33.70
  -2  -3   2 1290.27   32.50
  -3   5   2 1322.47   32.20
  -6   3  -2  285.57   12.60
  -6   3  -2  289.47   11.50
   3  -6  -2  302.37   10.80
   3   3  -2  300.17    9.20
   3   3  -2  298.87   13.30
   6  -3   2  308.47   11.00
  -3   6   2  302.27   10.60
  -3   6   2  293.17   10.80
  -3   6   2  287.77   11.60
  -3  -3   2  288.57   10.70
   6  -3   2  305.37   11.50
   4   3  -2  116.49    5.10
  -7   4  -2  110.19    7.10
  -3   7   2  111.09    7.30
   7  -4   2  106.89    6.30
  -4  -3   2  112.79    6.60
  -3   7   2  110.69    6.40
   4   2  -2 3687.23   81.79
   2  -6  -2 3701.03   84.59
  -6   4  -2 3790.02   86.39
  -6   4  -2 3621.24   88.09
   4   2  -2 3646.24   89.19
  -2   6   2 3772.32   84.79
  -2   6   2 3730.43   84.69
  -4  -2   2 3593.94   84.39
   6  -4   2 3747.32   85.79
  -2   6   2 3794.42   86.69
   6  -4   2 3650.93   84.69
   1  -5  -2  184.28    7.60
   1  -5  -2  190.28    7.50
  -5   4  -2  185.98    8.20
  -5   4  -2  188.58    9.30
   4   1  -2  189.28    5.70
   4   1  -2  175.28    9.30
  -1   5   2  186.68    7.60
  -4  -1   2  186.98    7.20
  -1   5   2  196.78    6.80
   5  -4   2  181.28    7.60
  -1   5   2  178.88    7.30
  -1   5   2  198.18    8.60
   5  -4   2  176.68    8.00
   4   0  -2 4425.06   96.09
  -4   4  -2 4392.36   97.69
   0  -4  -2 4468.65   97.19
   4   0  -2 4251.27   99.59
  -4   4  -2 4310.77   99.59
   0  -4  -2 4225.98   96.39
  -4   0   2 4565.94   99.89
   0   4   2 4374.56  103.69
  -4   0   2 4223.18  101.69
   0   4   2 4184.18   96.79
   0   4   2 4213.88   97.99
   4  -4   2 4297.27   97.69
   4  -4   2 4229.08   96.79
   0   4   2 4311.37   96.29
  -4   0   2 4544.25   96.09
  -3   4  -2 1130.79   30.60
   4  -1  -2 1121.79   30.00
  -3   4  -2 1178.18   28.90
  -3   4  -2 1129.49   28.10
  -1  -3  -2 1156.88   28.70
  -1  -3  -2 1182.78   28.50
   3  -4   2 1185.98   31.00
   1   3   2 1155.28   28.50
  -4   1   2 1123.79   27.10
   1   3   2 1121.09   29.40
   1   3   2 1151.68   29.30
   3  -4   2 1108.69   28.90
  -4   1   2 1197.08   27.20
   4  -2  -2 4654.73  112.49
  -2  -2  -2 4733.73  103.39
  -2  -2  -2 4704.83  108.29
  -2   4  -2 4754.32  106.69
  -2   4  -2 4622.64  102.49
  -2   4  -2 4416.16  105.29
  -4   2   2 4728.43  103.39
   2   2   2 4780.92  103.09
   2  -4   2 4701.63  105.59
  -4   2   2 4638.64  103.79
   2   2   2 4354.86  103.69
   2  -4   2 4475.35  103.29
   2  -4   2 4770.82  105.49
   4  -3  -2  147.99    5.40
  -3  -1  -2  148.49    6.40
  -1   4  -2  141.49    5.60
  -1   4  -2  144.49    7.50
  -1   4  -2  149.19    5.80
   1  -4   2  149.79    7.60
  -4   3   2  163.08    5.70
   3   1   2  149.99    6.20
   3   1   2  150.28    6.70
   1  -4   2  142.89    6.20
   1  -4   2  151.28    7.50
   3   1   2  138.59    6.50
  -4   3   2  133.39    5.50
   0   4  -2 4729.03  108.49
  -4   0  -2 4592.94  105.89
   0   4  -2 4601.64  104.29
   0   4  -2 4826.02  108.59
   4   0   2 4560.04  105.39
   4   0   2 4790.62  106.59
  -4   4   2 4857.41  104.39
   0  -4   2 4951.40  108.89
   0  -4   2 4624.64  105.69
  -4   4   2 4772.12  106.09
  -4   4   2 5037.80  105.39
  -4   4   2 4498.75  105.19
  -5   1  -2  552.64   17.10
   1   4  -2  567.04   15.30
   1   4  -2  563.94   19.00
   1   4  -2  569.74   18.90
  -4   5   2  528.85   16.60
  -1  -4   2  529.95   16.30
  -4   5   2  572.44   16.90
   5  -1   2  553.64   17.20
   5  -1   2  557.84   16.50
  -4   5   2  566.94   15.70
   2   4  -2 2684.83   62.09
   2   4  -2 2728.43   67.99
   2   4  -2 2827.22   68.09
  -6   2  -2 2749.43   65.49
   6  -2   2 2698.13   64.09
  -4   6   2 2789.32   63.59
  -4   6   2 2722.93   64.59
   6  -2   2 2753.62   64.89
  -2  -4   2 2678.33   64.29
  -4   6   2 2685.33   65.19
  -7   3  -2  518.05   17.90
   3   4  -2  504.05   14.80
   3   4  -2  501.55   22.20
  -4   7   2  515.15   18.10
  -3  -4   2  508.45   17.00
   7  -3   2  521.95   16.90
  -4   7   2  539.75   18.90
  -4   7   2  510.15   16.50
  -8   4  -2 1895.91   49.30
   4   4  -2 1605.14   43.40
   8  -4   2 1897.61   46.90
  -4   8   2 1898.01   47.10
  -4   8   2 1892.21   49.40
  -4  -4   2 1865.41   47.80
  -8   5  -2  390.06   15.60
   5   3  -2  352.16   11.10
  -5  -3   2  352.46   14.20
  -3   8   2  340.17   15.10
  -3   8   2  359.36   13.90
   8  -5   2  355.36   13.80
   5   2  -2  503.05   13.70
  -7   5  -2  520.75   18.00
  -2   7   2  495.15   18.10
   7  -5   2  486.45   16.50
  -2   7   2  512.55   16.70
  -5  -2   2  489.35   16.60
   5   1  -2  189.28   10.70
   5   1  -2  200.88    6.40
  -6   5  -2  198.58    9.40
   6  -5   2  205.48    9.30
  -1   6   2  196.08    8.60
  -5  -1   2  188.38    8.30
  -1   6   2  204.18    8.70
  -1   6   2  200.28    9.60
   0  -5  -2  668.03   19.60
   5   0  -2  683.23   22.30
  -5   5  -2  673.13   22.00
   5   0  -2  669.23   16.20
  -5   5  -2  658.63   20.10
   0  -5  -2  665.93   19.30
   0   5   2  657.03   19.10
   5  -5   2  680.93   20.20
   0   5   2  679.03   19.40
   0   5   2  682.03   19.20
  -5   0   2  661.23   18.50
   0   5   2  679.83   20.60
  -4   5  -2  184.98    8.10
  -1  -4  -2  200.58    8.20
  -4   5  -2  181.68    7.50
   5  -1  -2  184.78    9.10
  -1  -4  -2  184.28    7.80
  -4   5  -2  194.28    9.60
  -5   1   2  185.08    7.10
   1   4   2  175.98    8.00
   1   4   2  183.98    7.80
   4  -5   2  198.98    8.40
   1   4   2  182.98    8.50
  -3   5  -2   38.20    3.30
  -3   5  -2   38.80    4.20
   5  -2  -2   35.60    3.40
  -3   5  -2   41.50    3.20
  -2  -3  -2   35.70    3.20
  -2  -3  -2   37.10    3.30
   3  -5   2   41.80    3.50
   2   3   2   37.60    3.70
   2   3   2   34.90    3.10
   2   3   2   48.50    3.90
  -5   2   2   38.80    2.80
  -2   5  -2 1317.37   32.80
  -2   5  -2 1354.86   33.40
   5  -3  -2 1277.27   33.20
  -2   5  -2 1354.66   36.30
  -3  -2  -2 1393.76   34.30
  -3  -2  -2 1367.66   34.60
  -5   3   2 1299.17   32.60
   3   2   2 1356.56   33.60
   3   2   2 1377.26   34.60
   2  -5   2 1348.77   34.10
  -1   5  -2  557.44   19.00
  -4  -1  -2  573.84   17.20
   5  -4  -2  547.45   14.90
  -1   5  -2  551.34   15.80
  -1   5  -2  580.64   16.90
   4   1   2  578.14   17.40
   1  -5   2  554.34   16.90
  -5   4   2  538.55   16.20
   4   1   2  558.24   16.60
  -5   4   2  554.64   17.50
   0   5  -2  100.39    6.90
  -5   0  -2  102.29    5.90
   0   5  -2   98.59    5.00
   0  -5   2   91.19    5.60
  -5   5   2   93.89    5.90
  -5   5   2   97.29    5.60
   5   0   2   88.79    5.60
   5   0   2  103.59    5.60
  -5   5   2   99.59    5.00
   1   5  -2  527.45   15.60
   1   5  -2  526.05   19.30
  -6   1  -2  537.65   17.80
  -5   6   2  514.25   17.40
  -5   6   2  569.44   18.00
  -5   6   2  550.84   16.30
   6  -1   2  518.65   17.10
  -1  -5   2  551.94   17.40
   6  -1   2  531.55   16.80
  -7   2  -2   89.09    6.50
   2   5  -2   90.29    5.00
   7  -2   2   87.79    5.80
  -5   7   2   90.89    6.60
  -5   7   2   90.29    6.50
  -5   7   2   88.49    5.60
  -2  -5   2   88.99    6.20
   3   5  -2  212.88    8.60
  -8   3  -2  218.38   11.20
  -5   8   2  226.78   11.60
   8  -3   2  212.28   10.00
  -3  -5   2  212.48   10.50
  -5   8   2  209.98   10.00
  -8   6  -2 1596.64   43.20
   6   2  -2 1532.75   36.70
  -2   8   2 1563.14   43.50
  -6  -2   2 1506.75   41.40
  -2   8   2 1572.74   41.40
   6   1  -2  555.44   14.80
  -7   6  -2  562.14   19.50
  -6  -1   2  552.84   18.30
  -1   7   2  575.64   18.60
  -1   7   2  568.64   20.00
   6   0  -2 2229.38   51.49
  -6   6  -2 2344.97   57.39
   6   0  -2 2338.17   60.49
  -6   6  -2 2329.37   55.99
   0   6   2 2328.07   57.69
   0   6   2 2312.77   55.99
   0   6   2 2284.27   56.09
  -6   0   2 2247.88   55.39
   6  -6   2 2330.67   56.99
  -1  -5  -2  223.38    9.60
  -1  -5  -2  202.58    9.20
   6  -1  -2  205.08   10.70
  -5   6  -2  190.98    8.60
  -5   6  -2  209.68    9.50
   1   5   2  200.28    9.00
   5  -6   2  202.48    9.30
   1   5   2  214.28    9.70
  -6   1   2  203.48    8.60
   1   5   2  200.38    9.70
  -2  -4  -2 3836.02   87.39
  -4   6  -2 3857.51   86.99
  -4   6  -2 3779.22   90.09
   6  -2  -2 3718.73   88.69
  -2  -4  -2 3700.93   86.79
  -4   6  -2 3693.53   85.89
   2   4   2 3657.33   87.79
   2   4   2 3689.53   87.49
   4  -6   2 3791.82   87.09
  -6   2   2 3776.72   85.49
   2   4   2 3817.92   86.39
  -3  -3  -2  312.97   12.10
  -3   6  -2  298.57   10.80
  -3  -3  -2  293.17   11.50
  -3   6  -2  315.17   13.60
   6  -3  -2  285.57   11.50
  -3   6  -2  311.27   11.30
  -6   3   2  294.97   10.70
   3  -6   2  294.57   11.50
   3   3   2  300.57   11.90
   3   3   2  300.07   11.20
   3   3   2  301.17   12.70
  -2   6  -2 2802.02   67.69
   6  -4  -2 2679.13   62.99
  -2   6  -2 2659.33   62.89
  -4  -2  -2 2686.13   64.39
   2  -6   2 2761.92   64.79
   4   2   2 2764.62   64.79
   4   2   2 2628.24   63.49
  -6   4   2 2574.04   63.19
   4   2   2 2751.72   64.79
  -1   6  -2  527.95   16.10
  -5  -1  -2  528.35   17.50
  -6   5   2  549.35   18.40
   1  -6   2  541.85   17.80
   5   1   2  539.45   16.90
  -6   5   2  517.05   17.00
   5   1   2  546.35   17.60
   0   6  -2 2598.64   61.49
  -6   0  -2 2626.94   64.09
   0   6  -2 2662.63   66.69
  -6   6   2 2635.34   63.69
  -6   6   2 2639.54   64.59
   0  -6   2 2585.64   63.79
   6   0   2 2630.84   62.79
  -6   6   2 2668.73   61.89
  -7   1  -2  106.79    7.40
   1   6  -2  118.39    6.20
  -1  -6   2  123.09    7.60
   7  -1   2  103.59    6.60
  -6   7   2  122.59   11.00
  -6   7   2  118.89    6.70
  -6   7   2  121.09    7.70
   2   6  -2 2219.28   53.19
  -8   2  -2 2175.08   57.29
   8  -2   2 2211.28   54.99
  -2  -6   2 2206.98   56.49
  -6   8   2 2225.58   57.49
  -8   7  -2  167.58    9.40
  -7  -1   2  158.88    9.20
  -1   8   2  155.28    9.00
  -1   8   2  164.28   10.20
  -7   7  -2   28.60    3.80
   7   0  -2   29.30    2.20
  -7   0   2   31.90    3.90
   0   7   2   28.70    4.20
   0   7   2   28.60    3.90
  -6   7  -2  500.85   17.60
   1   6   2  556.74   19.60
   6  -7   2  562.94   18.90
   1   6   2  554.04   18.20
  -7   1   2  538.15   17.90
  -2  -5  -2  501.05   17.80
  -5   7  -2  487.55   16.50
   7  -2  -2  505.95   19.10
   5  -7   2  489.15   17.30
   2   5   2  506.45   17.90
   2   5   2  487.15   16.70
  -7   2   2  473.55   16.20
   2   5   2  515.35   18.40
  -3  -4  -2  118.89    7.20
   7  -3  -2  117.49    7.60
  -4   7  -2  110.59    6.40
  -7   3   2  106.49    6.50
   3   4   2  110.29    7.70
   3   4   2  113.59    7.20
   4  -7   2  116.09    7.20
   3   4   2  127.99    7.10
  -3   7  -2  504.35   16.40
  -4  -3  -2  529.35   17.90
   3  -7   2  513.35   17.80
   4   3   2  517.35   19.50
   4   3   2  508.65   16.90
   4   3   2  520.75   17.70
  -7   4   2  508.85   16.90
   4   3   2  503.85   17.60
  -2   7  -2   86.89    5.60
  -5  -2  -2   84.19    6.20
  -7   5   2   93.39    6.20
   2  -7   2   89.79    6.50
   5   2   2   93.89    6.10
  -6  -1  -2  112.39    7.30
  -1   7  -2  126.79    6.80
   1  -7   2  103.69    7.20
   6   1   2  108.09    6.70
  -7   6   2  108.79    7.20
  -7   0  -2  723.53   23.50
   0   7  -2  701.53   21.00
   0  -7   2  633.14   22.50
   7   0   2  732.23   22.10
  -7   7   2  718.93   23.50
   1   7  -2  213.38    9.70
  -7   8   2  231.48   12.10
  -1  -7   2  237.08   11.90
   8  -1   2  224.48   10.60
  -7   8  -2  163.58    9.30
   1   7   2  169.58    9.40
  -8   1   2  164.98    9.30
  -6   8  -2 1556.74   42.10
  -8   2   2 1632.34   42.80
   2   6   2 1585.04   42.40
  -5   8  -2  362.76   14.00
  -8   3   2  351.66   14.30
   5  -8   2  364.16   15.00
   3   5   2  360.26   14.20
  -4  -4  -2 1848.02   51.79
  -4   8  -2 1924.01   48.50
  -8   4   2 1881.01   49.40
   4  -8   2 1984.00   50.69
   4   4   2 1960.70   49.30
  -3   8  -2  219.08   10.10
  -5  -3  -2  218.08   11.10
  -8   5   2  213.78   10.80
   3  -8   2  221.98   11.40
   5   3   2  218.48   10.40
  -6  -2  -2 2258.77   57.19
  -2   8  -2 2165.48   54.59
   2  -8   2 2261.87   57.39
   6   2   2 2185.18   55.29
  -8   6   2 2158.08   56.59
  -1   8  -2  217.38   10.10
  -7  -1  -2  226.88   11.60
   7   1   2  233.28   10.90
  -8   7   2  223.08   11.70
   1  -8   2  220.78   11.70
   0   0  -3 3836.72   90.39
   0   0   3 3981.90   88.89
   0   0   3 4122.99   91.59
   0   0   3 3832.22   90.49
   0   0   3 4167.38   90.09
   1   0  -3   55.09    3.10
  -1   1  -3   49.10    3.10
   1  -1   3   49.30    2.70
  -1   0   3   56.09    3.10
   0   1   3   53.39    2.60
  -1   0   3   57.49    3.80
   0   1   3   51.39    2.60
   1  -1   3   50.89    2.80
   1  -1   3   52.69    2.60
   1  -1   3   57.49    3.40
   0   1   3   53.99    2.50
  -1   0  -3    6.90    1.20
  -1   0  -3    4.70    0.90
   0   1  -3   12.90    1.80
   0  -1   3    5.60    0.90
  -1   1   3    7.10    1.50
   1   0   3   10.80    1.40
   0  -1   3    4.60    1.70
  -1   1   3    7.60    0.90
   1   0   3    5.20    1.10
   0  -1   3    6.20    1.50
   0  -1   3    5.30    0.80
  -1   1   3    6.80    0.80
  -2   1  -3  581.64   14.70
   1   1  -3  580.54   16.40
  -2   1  -3  574.34   15.80
  -1   2   3  589.34   14.50
   2  -1   3  560.04   15.00
  -1   2   3  586.84   14.30
  -1  -1   3  543.15   17.20
  -1  -1   3  566.74   16.30
  -1   2   3  572.94   14.50
   2  -1   3  616.04   15.90
   2  -1   3  582.24   15.70
   2   1  -3   23.30    2.90
  -3   2  -3   24.20    2.20
   1  -3  -3   23.70    1.60
   2   1  -3   28.00    2.90
  -3   2  -3   19.80    2.50
  -1   3   3   22.40    2.10
  -2  -1   3   22.20    1.30
  -1   3   3   21.70    2.10
  -2  -1   3   23.30    2.70
  -2  -1   3   23.00    1.30
  -2  -1   3   20.90    2.80
   3  -2   3   23.80    2.50
   3  -2   3   27.20    2.30
  -1   3   3   20.90    1.90
  -2   2  -3 2489.55   56.79
   0  -2  -3 2477.15   54.79
   2   0  -3 2359.76   57.59
  -2   2  -3 2470.05   55.19
  -2   2  -3 2426.96   57.29
   0  -2  -3 2603.24   53.99
  -2   0   3 2456.05   57.89
   2  -2   3 2352.66   56.19
  -2   0   3 2430.66   56.69
   2  -2   3 2482.65   55.69
   0   2   3 2455.45   55.39
   2  -2   3 2633.14   56.69
   0   2   3 2546.95   56.09
   2  -2   3 2483.85   57.59
   0   2   3 2381.36   55.99
  -1   2  -3  586.24   14.30
  -1   2  -3  567.14   16.70
  -1  -1  -3  586.64   14.30
  -1  -1  -3  599.64   14.50
  -1  -1  -3  604.34   14.80
  -1   2  -3  579.04   14.20
   1   1   3  617.94   15.80
  -2   1   3  570.74   15.10
   1  -2   3  582.94   16.70
  -2   1   3  579.24   16.10
   1  -2   3  605.24   15.30
   1  -2   3  604.54   14.90
   1   1   3  559.74   15.70
   1  -2   3  568.64   15.10
   1  -2   3  582.54   18.00
   1   1   3  586.34   15.10
   0   2  -3 5464.85  118.89
   0   2  -3 5270.17  118.29
  -2   0  -3 5494.95  120.29
  -2   0  -3 5581.84  120.19
  -2   0  -3 5337.87  128.69
   0   2  -3 5196.78  119.99
   0  -2   3 5517.55  125.19
  -2   2   3 5389.16  119.89
   2   0   3 5241.38  125.09
  -2   2   3 5490.25  121.89
   0  -2   3 5089.49  121.29
  -2   2   3 5325.17  120.99
   2   0   3 5450.25  122.49
  -2   2   3 5607.24  120.89
   0  -2   3 5478.45  120.39
  -2   2   3 5394.06  123.19
   0  -2   3 5429.46  124.99
  -3   1  -3   27.50    2.70
   1   2  -3   30.60    3.40
  -3   1  -3   30.80    2.50
   1   2  -3   29.20    3.10
  -2   3   3   29.40    2.00
  -1  -2   3   31.10    2.00
  -2   3   3   28.40    2.10
  -2   3   3   31.90    1.50
  -1  -2   3   33.50    2.10
  -1  -2   3   28.80    3.00
  -2   3   3   31.10    1.50
   3  -1   3   28.30    2.70
   3  -1   3   28.30    2.40
  -1  -2   3   29.70    5.00
  -2   3   3   26.80    2.10
  -4   2  -3 3076.89   71.79
   2   2  -3 2994.10   72.29
  -4   2  -3 3041.60   70.09
   2   2  -3 3068.49   73.19
  -2  -2   3 3076.49   72.39
  -2   4   3 3127.29   67.19
  -2  -2   3 3065.99   68.29
  -2   4   3 2927.71   69.69
   4  -2   3 3046.80   69.99
  -2   4   3 3032.30   68.79
   4  -2   3 3161.38   71.29
  -2  -2   3 3152.28   68.59
  -5   3  -3   94.29    5.50
  -5   3  -3   92.69    6.30
   3   2  -3   98.49    7.10
  -2   5   3   91.69    4.10
  -2   5   3   95.39    5.00
  -2   5   3   88.19    5.40
  -3  -2   3   91.19    4.50
   5  -3   3   92.79    5.80
   5  -3   3   90.79    5.30
   3   1  -3   12.80    2.60
   1  -4  -3   11.60    1.10
  -4   3  -3    9.30    2.20
  -4   3  -3   10.30    1.80
  -3  -1   3    9.60    2.10
   4  -3   3   10.80    2.10
  -1   4   3    8.20    1.80
  -3  -1   3    9.70    1.30
   4  -3   3    8.60    1.90
  -3  -1   3    9.60    1.20
  -1   4   3   10.30    1.60
   3   0  -3  729.63   21.90
  -3   3  -3  758.22   21.90
   0  -3  -3  766.72   17.60
   0  -3  -3  789.22   19.30
  -3   3  -3  777.52   20.00
   3  -3   3  764.62   20.00
  -3   0   3  779.42   22.00
  -3   0   3  766.12   17.30
   0   3   3  776.42   20.70
  -3   0   3  762.22   17.20
   3  -3   3  755.72   22.00
   3  -3   3  773.82   20.80
  -3   0   3  726.43   21.10
   0   3   3  774.92   19.80
  -2   3  -3   20.90    2.70
  -1  -2  -3   25.70    2.50
  -2   3  -3   18.50    1.80
  -2   3  -3   23.00    1.80
  -1  -2  -3   23.40    1.60
   3  -1  -3   25.70    2.50
   2  -3   3   25.40    2.40
  -3   1   3   23.40    2.50
   2  -3   3   22.60    2.80
   1   2   3   25.30    2.20
   1   2   3   17.50    2.10
   2  -3   3   22.20    2.10
  -1   3  -3   29.60    1.90
  -1   3  -3   26.70    3.00
  -1   3  -3   28.00    1.90
   3  -2  -3   29.90    2.30
  -2  -1  -3   32.00    2.40
   1  -3   3   32.80    2.60
  -3   2   3   29.30    1.40
   2   1   3   28.20    2.40
   1  -3   3   31.00    2.40
  -3   2   3   27.70    2.30
  -3   2   3   27.50    2.30
  -3   2   3   34.70    1.50
   1  -3   3   25.60    3.00
   2   1   3   29.70    2.70
   0   3  -3  322.47   12.10
  -3   0  -3  329.77   10.50
   0   3  -3  325.27    8.90
   3   0   3  303.67   11.00
  -3   3   3  324.77    9.00
   0  -3   3  333.07   10.10
   3   0   3  317.67   11.20
   0  -3   3  344.87   10.30
   0  -3   3  328.47   12.30
  -3   3   3  334.37    9.70
  -3   3   3  326.07    9.40
   3   0   3  336.27   10.70
  -3   3   3  352.66    9.50
   1   3  -3  114.39    3.90
  -4   1  -3  105.79    6.00
   1   3  -3  115.29    6.90
  -4   1  -3  110.49    5.60
   1   3  -3  104.99    6.90
  -3   4   3  110.79    4.60
  -1  -3   3  111.29    5.00
  -3   4   3  118.69    4.80
  -1  -3   3  121.29    7.00
   4  -1   3  106.19    5.40
   4  -1   3  117.09    6.20
  -3   4   3  109.89    5.20
   2   3  -3   53.39    5.20
   2   3  -3   50.79    5.00
  -5   2  -3   51.59    4.10
   2   3  -3   55.19    2.40
  -5   2  -3   49.30    4.60
  -3   5   3   57.19    3.30
   5  -2   3   59.29    4.20
  -3   5   3   51.59    3.50
  -2  -3   3   52.69    3.60
   5  -2   3   50.19    4.30
  -3   5   3   56.39    4.10
  -6   3  -3  207.18    9.40
   3   3  -3  203.88   11.20
   3   3  -3  203.28    5.90
   6  -3   3  210.48    9.80
  -3   6   3  202.18    8.40
   6  -3   3  198.68    8.90
  -3   6   3  203.08    9.40
  -3  -3   3  199.88    8.40
  -3   7   3   23.80    3.20
  -4  -3   3   24.60    3.10
   7  -4   3   27.70    3.80
   7  -4   3   28.90    3.60
  -3   7   3   41.10    4.60
   4   2  -3 1372.06   39.10
  -6   4  -3 1344.97   35.80
  -4  -2   3 1321.17   33.80
  -2   6   3 1351.16   34.50
   6  -4   3 1368.96   36.40
  -2   6   3 1367.36   36.30
   6  -4   3 1350.46   35.10
   4   1  -3  213.48   10.80
  -5   4  -3  220.08   10.60
  -5   4  -3  223.88    9.20
   5  -4   3  215.78    8.90
  -1   5   3  218.58    8.60
  -4  -1   3  220.98    7.80
  -1   5   3  222.98    7.70
  -1   5   3  219.68    9.60
   5  -4   3  220.98    9.60
   4   0  -3 3203.68   75.89
  -4   4  -3 3073.69   75.69
  -4   4  -3 3293.37   73.29
   0  -4  -3 3090.39   70.69
   4  -4   3 3171.38   73.89
  -4   0   3 3121.09   70.49
   0   4   3 3223.08   72.39
  -4   0   3 3177.48   70.99
   0   4   3 3219.68   74.19
   4  -4   3 3242.58   73.09
  -4   0   3 3212.48   75.29
   0   4   3 3203.18   72.69
  -3   4  -3    6.20    2.10
  -1  -3  -3    8.70    1.30
  -3   4  -3   11.80    1.70
  -1  -3  -3    7.60    1.40
   4  -1  -3    9.40    1.90
  -3   4  -3    9.60    1.60
   1   3   3    5.40    1.50
  -4   1   3   10.20    1.10
  -4   1   3   11.10    1.10
  -4   1   3    9.80    2.00
   3  -4   3    9.40    2.30
   3  -4   3   10.70    1.90
  -4   1   3    8.80    2.00
   1   3   3   12.20    2.10
  -2  -2  -3 3113.49   70.39
  -2   4  -3 3070.09   69.39
   4  -2  -3 3063.99   70.69
  -2  -2  -3 3163.38   70.09
  -4   2   3 3115.09   71.29
  -4   2   3 3102.29   69.69
   2   2   3 3019.90   70.39
   2   2   3 3061.09   71.69
   2  -4   3 3011.20   70.79
  -4   2   3 3191.98   67.99
   2  -4   3 3117.89   73.39
   4  -3  -3  114.09    4.70
  -1   4  -3  118.79    4.80
  -3  -1  -3  120.89    5.70
  -1   4  -3  114.69    6.90
   3   1   3  105.79    6.00
   3   1   3  118.29    5.70
  -4   3   3  118.09    4.60
   1  -4   3  107.49    5.50
  -4   3   3  109.19    4.50
  -4   0  -3 1733.83   41.20
   0   4  -3 1665.63   38.50
   0   4  -3 1673.33   43.50
   4   0   3 1688.33   41.90
  -4   4   3 1677.23   40.00
  -4   4   3 1673.63   38.80
  -4   4   3 1630.94   39.60
   0  -4   3 1613.34   40.20
   4   0   3 1655.23   40.60
   1   4  -3  411.76   11.60
  -5   1  -3  426.56   14.30
   1   4  -3  428.36   16.30
   1   4  -3  431.56   16.70
  -4   5   3  416.66   13.00
   5  -1   3  429.66   14.00
  -4   5   3  427.56   12.70
  -4   5   3  392.66   13.40
   5  -1   3  407.96   14.70
  -1  -4   3  434.66   13.70
  -6   2  -3 2175.38   53.69
   2   4  -3 2190.98   57.19
   2   4  -3 2172.08   49.30
  -6   2  -3 2184.88   55.89
  -4   6   3 2122.49   53.19
   6  -2   3 2182.88   53.09
   6  -2   3 2205.18   54.29
  -4   6   3 2237.78   51.89
  -2  -4   3 2111.59   52.39
   3   4  -3    7.80    1.30
  -4   7   3    3.10    1.90
  -4   7   3    4.60    1.90
  -3  -4   3    7.90    2.30
   7  -3   3    4.90    2.10
   7  -3   3    5.90    2.00
  -4  -4   3 1583.74   42.10
   8  -4   3 1600.14   42.30
  -4   8   3 1583.84   44.00
  -5  -3   3   14.90    2.90
   8  -5   3   10.60    2.90
  -3   8   3   13.10    3.50
  -3   8   3   20.50    3.40
  -5  -2   3  385.66   14.10
   7  -5   3  413.66   15.20
  -2   7   3  406.36   16.10
  -2   7   3  409.06   14.60
   7  -5   3  425.96   16.00
   5   1  -3  106.09    8.10
  -1   6   3  105.19    6.90
  -5  -1   3  110.69    5.80
   6  -5   3   99.29    6.70
  -1   6   3  101.69    6.10
   6  -5   3   96.39    6.20
  -5   5  -3   26.40    2.90
   5   0  -3   24.80    3.80
   0   5   3   24.20    3.00
  -5   0   3   28.70    2.60
   0   5   3   27.00    3.00
   5  -5   3   23.80    3.30
   0   5   3   27.20    3.50
  -4   5  -3  218.68    8.50
  -4   5  -3  213.28   10.70
   5  -1  -3  200.98    9.90
   1   4   3  216.78    9.10
  -5   1   3  223.78    7.60
   1   4   3  220.18    8.90
   4  -5   3  212.68    9.30
   1   4   3  220.08    9.70
  -3   5  -3   94.99    5.00
  -2  -3  -3   93.19    5.30
  -3   5  -3   99.09    6.90
  -2  -3  -3  100.09    5.20
   5  -2  -3   97.19    5.90
   3  -5   3   94.59    5.70
   2   3   3   94.29    6.00
  -5   2   3  100.89    6.20
  -5   2   3   98.99    4.50
   2   3   3  100.59    5.50
  -3  -2  -3   57.09    4.10
  -2   5  -3   53.99    3.50
   5  -3  -3   48.70    3.50
  -2   5  -3   52.39    5.10
  -3  -2  -3   54.19    4.10
   3   2   3   58.99    4.20
   2  -5   3   52.09    4.10
  -5   3   3   52.99    3.30
   3   2   3   61.69    4.80
  -1   5  -3  412.16   12.40
  -1   5  -3  421.66   16.30
  -4  -1  -3  434.66   14.30
  -5   4   3  421.96   14.10
   4   1   3  424.26   14.90
   1  -5   3  412.76   14.00
   4   1   3  423.86   14.00
  -5   4   3  415.76   12.90
  -5   0  -3    7.80    2.20
   0   5  -3    6.80    1.50
   5   0   3    5.60    1.70
  -5   5   3    7.80    2.00
   5   0   3    7.10    2.20
  -5   5   3   10.50    2.00
   0  -5   3    6.00    1.90
   1   5  -3    7.50    1.60
  -6   1  -3    2.90    1.60
   1   5  -3    1.80    1.60
  -5   6   3    3.90    1.70
   6  -1   3    2.50    1.50
  -1  -5   3    3.20    1.50
   6  -1   3    2.20    1.50
   2   5  -3  169.08    6.70
  -5   7   3  182.18    9.50
   7  -2   3  157.58    8.60
   7  -2   3  208.18   15.10
  -2  -5   3  177.38    9.00
   3   5  -3  163.78    6.40
   8  -3   3  153.58    8.80
  -3  -5   3  150.28    8.80
  -5   8   3  155.88    9.60
  -6  -2   3 1136.79   32.60
  -2   8   3 1181.18   35.30
  -2   8   3 1146.79   32.80
  -6  -1   3   27.80    3.30
  -1   7   3   29.20    3.70
   7  -6   3   21.50    3.70
  -1   7   3   30.50    4.30
  -6   6  -3 1816.32   46.30
   6   0  -3 1870.81   54.39
   0   6   3 1926.31   47.10
   0   6   3 1895.01   48.80
   6  -6   3 1846.12   48.10
  -6   0   3 1812.52   45.60
   6  -1  -3  102.39    7.50
  -5   6  -3  105.19    6.10
   1   5   3  112.09    7.40
   1   5   3  101.49    6.20
   1   5   3   98.19    6.80
   5  -6   3  100.79    6.70
  -6   1   3   98.39    5.50
  -4   6  -3 1325.97   34.40
   6  -2  -3 1342.17   36.80
   2   4   3 1398.86   36.90
   2   4   3 1358.66   35.20
  -6   2   3 1382.96   33.70
   4  -6   3 1300.97   35.90
   2   4   3 1345.67   36.60
  -3   6  -3  201.88    8.30
   6  -3  -3  206.88    9.00
   3   3   3  209.48    9.90
  -6   3   3  200.58    8.00
   3   3   3  189.28    8.70
   3  -6   3  182.18    9.10
  -4  -2  -3 2145.99   53.49
  -2   6  -3 2157.68   51.39
  -6   4   3 2201.38   51.79
   4   2   3 2138.39   54.19
   4   2   3 2135.39   54.09
   4   2   3 2252.97   53.19
   2  -6   3 2146.29   53.49
  -5  -1  -3    5.70    2.10
  -1   6  -3    5.90    1.70
   5   1   3    5.50    2.00
   5   1   3    6.90    2.30
  -6   5   3    2.80    1.70
  -6   5   3    3.50    1.60
   1  -6   3    5.10    2.10
   0   6  -3 1994.20   46.90
   6   0   3 1957.40   49.20
   0  -6   3 1942.41   49.90
   6   0   3 1970.70   50.59
  -6   6   3 1949.60   49.30
   1   6  -3  117.19    5.80
  -1  -6   3  104.69    7.20
   7  -1   3  112.39    7.10
  -6   7   3  100.09    7.10
   2   6  -3  752.92   20.30
   8  -2   3  712.63   23.20
  -6   8   3  711.33   24.30
  -2  -6   3  731.73   24.10
  -7   7  -3   71.89    5.70
  -7   0   3   72.69    5.70
   0   7   3   72.39    6.70
   0   7   3   72.39    6.00
  -6   7  -3   20.30    3.20
   6  -7   3   27.30    3.90
   1   6   3   27.50    3.80
  -7   1   3   24.40    3.30
   1   6   3   33.00    4.60
   7  -2  -3  396.96   16.70
  -5   7  -3  408.26   14.60
   2   5   3  412.66   15.20
  -7   2   3  416.66   14.20
   5  -7   3  393.46   15.60
   2   5   3  419.36   16.40
  -4   7  -3   21.40    3.00
   3   4   3   22.20    3.40
  -7   3   3   23.80    3.10
   3   4   3   28.80    4.30
   4  -7   3   22.60    3.60
   3   4   3   23.30    3.70
  -3   7  -3    5.60    1.90
   4   3   3    5.50    2.10
   4   3   3    7.90    2.50
   4   3   3    6.80    3.00
   3  -7   3    4.70    2.10
   4   3   3    9.60    2.80
  -7   4   3    4.90    1.80
  -2   7  -3  175.28    8.00
   2  -7   3  166.18    9.30
  -7   5   3  165.98    8.50
   5   2   3  162.48    8.80
   5   2   3  179.58    9.70
  -1   7  -3  101.69    5.90
   6   1   3  107.49    7.00
  -7   6   3  108.49    7.00
   1  -7   3  102.79    7.40
   0   7  -3   65.39    4.80
   0  -7   3   71.19    6.30
  -7   7   3   72.49    6.20
   7   0   3   67.59    5.80
  -6   8  -3 1152.58   32.70
   2   6   3 1129.99   35.10
   2   6   3 1143.49   33.30
  -8   2   3 1171.48   32.70
   6  -8   3 1193.98   34.70
  -5   8  -3   14.10    3.10
  -8   3   3   18.00    3.10
   5  -8   3   14.20    3.60
   3   5   3   19.60    6.00
   3   5   3   13.70    3.30
  -4   8  -3 1582.14   41.70
   4   4   3 1601.24   43.10
   4  -8   3 1710.03   44.80
  -8   4   3 1573.84   42.40
  -3   8  -3  160.68    8.30
   5   3   3  163.38    9.30
   3  -8   3  160.48    9.80
  -8   5   3  161.88    9.00
  -2   8  -3  753.42   22.90
  -8   6   3  821.22   25.20
   2  -8   3  746.53   25.80
   6   2   3  788.82   24.90
   0   0  -4 1893.61   43.30
   0   0   4 1884.71   42.60
   0   0   4 1896.81   43.30
   0   0   4 1961.30   42.70
   0   0   4 1889.11   42.50
  -1   1  -4  906.61   20.10
  -1   1  -4  868.21   22.70
   1   0  -4  876.61   22.20
  -1   1  -4  855.51   20.00
   1  -1   4  918.91   22.00
   1  -1   4  838.52   21.80
  -1   0   4  896.51   24.70
   0   1   4  897.71   21.20
   0   1   4  929.21   21.70
  -1   0   4  889.91   22.20
  -1   0   4  892.91   19.90
   1  -1   4  913.11   22.90
   1  -1   4  894.61   21.50
   0   1   4  838.62   21.50
   0   1  -4  498.25   14.60
  -1   0  -4  501.35   13.40
   1   0   4  516.05   13.90
  -1   1   4  499.15   11.90
   1   0   4  513.75   13.50
  -1   1   4  513.15   12.20
   1   0   4  498.25   13.90
   0  -1   4  493.55   14.60
  -1   1   4  504.75   15.20
  -1   1   4  535.05   12.00
   0  -1   4  510.15   12.60
   0  -1   4  466.95   12.60
   0  -1   4  503.35   16.60
   0  -1   4  520.55   12.70
  -1   1   4  510.15   12.30
  -2   1  -4  158.18    6.60
  -2   1  -4  160.38    5.50
   1   1  -4  162.58    7.10
  -1   2   4  161.78    5.60
  -1   2   4  156.48    5.60
  -1   2   4  158.98    5.30
   2  -1   4  150.18    6.50
   2  -1   4  162.28    6.60
  -1   2   4  163.68    6.60
  -1  -1   4  158.98    7.00
  -1  -1   4  167.68    4.40
   2  -1   4  163.38    6.20
   2   1  -4  465.25   14.70
  -3   2  -4  375.56   13.80
   3  -2   4  419.96   12.90
  -1   3   4  428.76   12.80
   3  -2   4  433.06   14.00
  -2  -1   4  430.16   10.20
  -1   3   4  441.66   12.20
  -2  -1   4  436.96   14.40
  -2   2  -4 5094.99  112.49
  -2   2  -4 5005.20  115.39
  -2   2  -4 5146.08  112.49
   0   2   4 5342.87  114.09
  -2   0   4 5168.78  116.79
   0   2   4 5036.70  119.09
  -2   0   4 5179.48  114.79
   0   2   4 5148.39  113.09
   2  -2   4 5244.68  115.79
   2  -2   4 4863.11  114.39
   2  -2   4 5269.77  113.59
   2  -2   4 5395.46  116.19
  -1  -1  -4  157.28    4.80
  -1   2  -4  165.08    7.30
  -1  -1  -4  162.48    5.30
  -1   2  -4  155.48    4.50
  -1   2  -4  163.98    4.70
   1   1   4  156.08    6.40
   1  -2   4  167.08    5.80
   1   1   4  158.78    6.00
   1   1   4  165.98    6.50
   1  -2   4  159.58    6.10
  -2   1   4  160.58    5.90
   1  -2   4  166.28    6.20
  -2   1   4  156.78    7.20
   1  -2   4  161.38    7.20
  -2   0  -4 5390.46  122.19
   0   2  -4 5307.37  121.89
  -2   0  -4 5456.15  119.19
  -2   2   4 5356.86  126.59
  -2   2   4 5401.66  120.99
   0  -2   4 5306.57  122.89
   2   0   4 5326.27  130.99
   0  -2   4 5578.24  122.29
  -2   2   4 5462.15  120.09
   2   0   4 5596.54  120.19
  -2   2   4 5600.84  120.09
  -2   2   4 5485.95  119.79
   0  -2   4 5565.74  121.29
  -3   1  -4  282.77   10.20
   1   2  -4  295.57   11.30
  -1  -2   4  290.17    8.40
  -1  -2   4  288.17   11.20
   3  -1   4  288.07    9.70
  -1  -2   4  283.17    8.30
  -2   3   4  287.17    8.60
   3  -1   4  272.67   10.40
  -2   3   4  287.17    8.50
  -2   3   4  271.27    8.80
   2   2  -4 1724.63   42.90
  -4   2  -4 1600.34   41.70
   2   2  -4 1670.83   44.40
  -2   4   4 1666.93   39.00
   4  -2   4 1670.93   41.90
   4  -2   4 1641.94   40.40
  -2   4   4 1568.84   39.60
  -2  -2   4 1648.24   38.10
   3   2  -4  754.42   25.20
  -5   3  -4  746.13   23.80
  -2   5   4  808.62   22.80
  -3  -2   4  749.62   19.80
  -2   5   4  740.13   22.00
   5  -3   4  752.22   21.90
   5  -3   4  783.92   23.40
   3   1  -4  450.45   16.60
  -4   3  -4  441.66   15.70
  -1   4   4  420.56   14.10
  -3  -1   4  427.16   11.40
   4  -3   4  439.86   15.00
   4  -3   4  450.55   14.10
  -1   4   4  441.46   13.30
  -3   3  -4  158.88    6.20
  -3   3  -4  166.38    8.30
   3   0  -4  164.18    8.40
   0   3   4  167.78    6.60
   3  -3   4  165.48    7.50
   0   3   4  149.59    7.00
  -3   0   4  166.08    7.70
   3  -3   4  170.18    8.30
   3  -3   4  165.38    6.90
  -2   3  -4  444.16   11.90
  -2   3  -4  448.86   15.10
   2  -3   4  431.36   12.80
  -3   1   4  436.26   13.40
   1   2   4  411.46   13.60
   2  -3   4  446.86   15.10
   2  -3   4  409.46   13.30
   1   2   4  441.76   12.90
  -3   1   4  476.65   14.80
  -1   3  -4  273.77   11.20
  -1   3  -4  293.67    7.90
  -2  -1  -4  288.77    8.90
   1  -3   4  301.07   11.60
   2   1   4  280.47   10.40
   2   1   4  288.97    9.60
   1  -3   4  279.27    9.50
  -3   2   4  285.17    9.00
  -3   2   4  283.47    9.80
  -3   0  -4  179.58    7.50
   0   3  -4  181.98    8.90
  -3   3   4  179.78    5.80
  -3   3   4  183.28    6.20
   3   0   4  184.38    7.60
   3   0   4  188.78    8.40
   0  -3   4  198.08    9.30
   0  -3   4  176.38    6.90
  -3   3   4  215.18    6.60
  -3   3   4  186.78    5.90
   3   0   4  183.68    8.30
   1   3  -4  697.03   21.80
  -4   1  -4  680.03   20.30
  -3   4   4  677.03   18.50
   4  -1   4  664.33   20.50
   4  -1   4  679.13   19.50
  -1  -3   4  675.83   18.20
   2   3  -4  415.06   16.30
  -5   2  -4  415.76   15.30
   2   3  -4  402.36   17.00
   5  -2   4  428.06   14.30
   5  -2   4  413.86   15.20
  -3   5   4  399.46   13.60
  -2  -3   4  407.56   12.80
   6  -3   4   50.99    5.10
  -3   6   4   53.59    4.70
   6  -3   4   65.59    5.10
  -3  -3   4   54.79    4.10
  -3   7   4  196.38   10.40
   7  -4   4  203.58   10.90
  -4  -3   4  197.08    9.10
   7  -4   4  203.98   10.10
   6  -4   4 2480.15   60.89
   6  -4   4 2572.54   62.69
  -2   6   4 2465.45   61.59
  -4  -2   4 2525.85   58.79
   4   1  -4  104.69    7.70
  -1   5   4   97.59    6.30
   5  -4   4   95.59    6.50
   5  -4   4  112.79    6.30
  -1   5   4  107.09    5.80
  -4  -1   4  115.69    5.00
   4   0  -4 3574.94   85.49
  -4   4  -4 3626.04   85.89
  -4   4  -4 3535.45   81.49
   4  -4   4 3760.32   82.79
  -4   0   4 3585.64   78.99
   4  -4   4 3604.24   83.89
   0   4   4 3503.75   83.49
   0   4   4 3621.04   82.19
   4  -1  -4  433.66   15.00
  -3   4  -4  441.86   12.80
  -3   4  -4  429.56   15.90
   3  -4   4  423.36   14.30
   1   3   4  412.66   14.50
   1   3   4  453.25   13.70
  -4   1   4  422.86   14.40
   3  -4   4  452.95   13.80
  -2   4  -4 1656.73   43.20
  -2   4  -4 1666.83   38.60
   2   2   4 1640.84   41.60
  -4   2   4 1609.74   36.70
  -4   2   4 1678.33   40.50
  -4   2   4 1659.53   40.90
   2   2   4 1668.93   40.30
  -4   2   4 1696.43   36.80
   2  -4   4 1616.34   40.70
  -1   4  -4  715.63   22.30
  -1   4  -4  684.83   17.30
  -3  -1  -4  686.23   19.20
   1  -4   4  652.13   19.40
   3   1   4  692.63   20.90
   3   1   4  725.43   19.90
  -4   3   4  693.23   17.40
  -4   3   4  701.43   18.90
  -4   0  -4 3363.96   77.89
   0   4  -4 3403.66   73.49
   0   4  -4 3341.87   80.49
   4   0   4 3268.37   78.69
   4   0   4 3436.16   77.59
   0  -4   4 3338.67   76.69
  -4   4   4 3292.37   75.59
  -5   1  -4  100.79    6.70
   5  -1   4   93.59    5.90
   5  -1   4  102.99    6.80
  -1  -4   4  104.59    5.70
  -4   5   4   94.49    5.50
   6  -2   4 2762.52   67.09
   6  -2   4 2731.03   65.39
  -2  -4   4 2696.93   64.19
  -4   6   4 2659.33   65.19
   7  -3   4  157.58    9.50
  -4   7   4  160.58    9.10
   7  -3   4  159.28    8.80
  -3  -4   4  162.38    8.30
   7  -5   4  115.79    7.60
   7  -5   4  116.39    8.20
  -2   7   4  115.19    8.00
  -5  -2   4  112.59    6.50
  -5  -1   4  362.86   12.30
  -1   6   4  380.46   13.70
   6  -5   4  409.46   14.70
  -1   6   4  368.16   14.90
   6  -5   4  391.76   15.40
   5   0  -4  132.69    8.70
  -5   5  -4  128.79    6.60
   5  -5   4  135.39    7.30
   5  -5   4  125.39    7.70
  -5   0   4  134.99    5.70
   0   5   4  128.29    7.00
   0   5   4  122.79    7.50
   5  -1  -4  104.59    6.90
  -4   5  -4  101.99    5.50
   1   4   4  100.99    6.70
   4  -5   4  100.39    6.50
   1   4   4  110.29    6.10
  -5   1   4  108.69    4.50
  -3   5  -4  743.33   20.20
   5  -2  -4  727.53   22.00
   2   3   4  782.32   21.70
  -5   2   4  757.42   18.90
   2   3   4  765.02   23.10
  -5   2   4  763.02   22.60
   3  -5   4  736.03   22.30
  -2   5  -4  415.46   12.30
  -5   3   4  415.16   11.80
   3   2   4  415.76   13.90
   3   2   4  409.56   15.10
   2  -5   4  396.36   14.10
  -1   5  -4  103.39    4.70
   1  -5   4  100.99    6.10
  -5   4   4   98.99    5.10
   4   1   4  106.19    6.20
   4   1   4   99.89    6.70
   0   5  -4  188.48    6.60
  -5   0  -4  197.88    9.70
   5   0   4  192.28    9.00
   0  -5   4  188.08    8.80
   5   0   4  194.98    9.90
  -5   5   4  190.08    8.30
   1   5  -4  307.27    8.60
   6  -1   4  313.97   13.70
   6  -1   4  301.07   12.30
  -1  -5   4  297.07   12.10
  -5   6   4  279.07   11.70
  -2  -5   4  138.39    8.00
   7  -2   4  141.29    9.00
  -5   7   4  135.89    8.30
   7  -2   4  128.89    8.00
  -7   6  -4  278.57   12.00
  -6  -1   4  274.07   11.30
  -1   7   4  289.17   13.70
   7  -6   4  305.87   14.00
  -6   6  -4 1239.48   33.00
  -6   0   4 1183.18   31.50
   6  -6   4 1261.07   35.70
   0   6   4 1242.18   33.70
   0   6   4 1217.88   35.40
  -5   6  -4  378.56   13.30
   6  -1  -4  366.06   15.90
   1   5   4  380.06   14.00
   5  -6   4  389.96   15.30
  -6   1   4  360.46   12.00
   1   5   4  376.06   15.30
  -4   6  -4 2454.95   58.99
   4  -6   4 2438.36   61.69
   2   4   4 2492.75   62.49
   2   4   4 2579.14   60.69
   2   4   4 2544.05   62.29
  -6   2   4 2497.65   57.79
  -3   6  -4   55.99    4.00
  -6   3   4   53.79    3.70
   3   3   4   69.19    5.10
   3  -6   4   48.70    4.70
   3   3   4   47.30    4.90
  -2   6  -4 2789.92   63.79
   4   2   4 2767.22   68.09
   4   2   4 2742.73   68.09
   4   2   4 2819.22   66.49
   2  -6   4 2763.62   67.09
  -6   4   4 2706.83   64.19
  -1   6  -4  292.27   10.00
   5   1   4  294.57   13.30
   5   1   4  300.87   12.20
  -6   5   4  297.47   11.30
   1  -6   4  302.57   12.50
   0   6  -4 1164.98   29.00
   6   0   4 1207.48   34.80
   0  -6   4 1174.18   33.40
   6   0   4 1201.58   33.10
  -6   6   4 1158.18   32.30
  -1  -6   4  448.26   17.10
   7  -1   4  443.86   16.90
  -6   7   4  458.15   17.10
  -6   7  -4  278.57   11.90
   6  -7   4  295.07   13.80
   1   6   4  274.67   12.40
   1   6   4  288.97   13.90
  -7   1   4  300.37   11.50
  -5   7  -4  118.29    6.90
  -7   2   4  118.99    6.40
   5  -7   4  115.09    8.00
   2   5   4  129.29    8.70
   2   5   4  109.09    7.30
  -4   7  -4  207.28    9.20
  -7   3   4  201.98    8.90
   3   4   4  208.18   11.30
   3   4   4  216.58   10.40
   4  -7   4  223.28   11.20
  -3   7  -4  153.98    7.60
  -7   4   4  160.68    7.80
   4   3   4  168.68   10.00
   3  -7   4  164.88    9.50
   4   3   4  166.38    9.00
  -2   7  -4  132.19    6.70
   2  -7   4  138.19    8.60
   5   2   4  146.79    9.30
   5   2   4  140.39    8.40
  -7   5   4  137.19    7.50
  -1   7  -4  445.86   14.00
   6   1   4  406.46   18.20
   1  -7   4  424.36   17.20
  -7   6   4  446.86   16.00
   6   1   4  452.05   16.70
   0   0  -5 1975.60   45.10
   0   0   5 2027.10   45.20
   0   0   5 1903.01   44.70
  -1   1  -5    7.10    1.60
   1  -1   5   10.60    1.60
  -1   0   5    7.20    0.80
  -1   0   5    7.20    1.50
   1  -1   5    7.70    1.70
   0   1   5    7.30    1.40
  -1   0   5    7.20    0.80
  -1   0  -5  108.39    4.50
   0   1  -5  100.19    5.30
  -1   1   5  102.99    6.20
   0  -1   5  109.89    5.50
  -1   1   5  103.49    3.90
   1   0   5  122.09    5.30
   1   0   5  102.99    5.10
   0  -1   5  100.99    4.30
  -1   1   5  106.49    3.90
   1   1  -5  184.38    8.00
  -2   1  -5  184.08    7.70
  -1  -1   5  187.78    5.50
  -1  -1   5  184.28    8.00
   2  -1   5  176.48    7.00
  -1   2   5  171.88    6.50
   2  -1   5  168.78    7.50
  -1  -1   5  190.08    5.60
  -1   2   5  181.68    7.90
  -3   2  -5   18.60    2.80
  -2  -1   5   14.60    2.70
   3  -2   5   17.80    2.70
   3  -2   5   20.20    2.50
  -2  -1   5   18.10    1.30
  -2   2  -5 3337.37   75.99
  -2   2  -5 3331.17   71.69
   2  -2   5 3304.87   75.79
   0   2   5 3155.08   74.09
  -2   0   5 3303.47   74.79
   2  -2   5 3235.08   73.59
   2  -2   5 3131.99   74.79
  -1   2  -5  176.88    8.10
   1   1   5  177.78    7.40
   1  -2   5  179.58    8.20
   1   1   5  186.48    7.00
   1  -2   5  183.58    7.20
   0   2  -5  944.61   25.90
   0  -2   5  980.90   26.30
   2   0   5  876.81   24.80
   0  -2   5  921.11   23.20
   2   0   5  985.50   24.20
  -2   2   5  924.41   25.30
  -2   2   5  931.61   22.00
   2   0   5  879.11   24.80
   1   2  -5  117.29    6.90
  -3   1  -5  114.19    6.10
   3  -1   5  113.19    6.40
  -1  -2   5  118.49    4.80
   3  -1   5  121.19    6.00
  -2   3   5  105.69    5.00
  -4   2  -5 1659.43   42.20
   2   2  -5 1624.24   42.80
   4  -2   5 1638.34   42.30
   4  -2   5 1646.74   40.50
  -2  -2   5 1582.34   37.70
  -2   4   5 1575.44   39.80
   5  -3   5   45.40    4.20
  -3  -2   5   43.10    3.10
   5  -3   5   37.80    4.50
  -2   5   5   45.80    4.20
  -4   3  -5  133.39    8.10
   4  -3   5  137.39    7.70
   4  -3   5  142.79    7.10
  -1   4   5  128.99    6.90
  -3  -1   5  142.79    4.70
  -3   3  -5   98.49    6.60
  -3   3  -5  103.79    4.60
   3  -3   5   94.39    5.30
   3  -3   5   94.69    5.90
  -3   0   5   95.49    6.40
   0   3   5   91.99    5.60
  -2   3  -5   21.50    3.30
  -2   3  -5   19.70    1.60
   2  -3   5   13.80    2.30
   1   2   5   13.00    2.20
   1   2   5   19.80    2.40
  -1   3  -5  106.29    6.80
   1  -3   5  111.99    5.60
   2   1   5  104.69    6.10
   2   1   5  112.99    5.70
   0   3  -5  284.37   12.00
   0  -3   5  278.37    9.70
  -3   3   5  284.27    8.70
   3   0   5  291.17   10.50
   3   0   5  277.27   11.20
   1   3  -5    4.70    2.20
   4  -1   5    5.10    1.80
   4  -1   5    4.60    1.90
  -1  -3   5    4.40    1.40
  -3   4   5    4.60    1.50
  -5   2  -5   68.69    6.60
  -2  -3   5   68.29    4.30
   5  -2   5   69.79    6.00
  -3   5   5   67.99    4.90
   5  -2   5   74.59    5.40
   6  -3   5   88.59    6.30
  -3  -3   5   88.89    5.40
   6  -3   5   89.49    7.10
  -3   6   5   87.99    6.30
   6  -4   5 1574.14   43.10
   6  -4   5 1546.05   41.10
  -4  -2   5 1559.74   38.20
  -2   6   5 1544.25   41.60
  -1   5   5  174.78    8.90
  -4  -1   5  166.88    6.30
   5  -4   5  173.58    8.50
   5  -4   5  175.78    9.50
  -4   4  -5  708.03   19.90
   4  -4   5  726.53   22.60
   0   4   5  724.63   22.20
  -4   0   5  747.03   17.40
   4  -4   5  743.23   21.40
  -3   4  -5  143.19    5.90
  -3   4  -5  157.38    9.00
   3  -4   5  142.39    7.60
   1   3   5  138.39    7.60
  -2   4  -5 1667.13   37.50
  -2   4  -5 1609.64   43.50
   2   2   5 1674.33   40.40
   2   2   5 1604.84   41.90
   2  -4   5 1576.44   40.80
   1  -4   5    4.50    1.60
   3   1   5    3.40    1.80
  -4   3   5    5.90    1.20
   3   1   5    6.30    1.90
   3   1   5    3.40    1.60
  -4   4   5 2153.88   50.99
   4   0   5 2202.18   55.19
   0  -4   5 2142.49   52.59
   4   0   5 2269.67   53.39
  -4   5   5   80.69    5.20
  -1  -4   5   77.69    5.10
   5  -1   5   80.99    5.70
  -2  -4   5  692.13   21.40
   6  -2   5  780.32   23.10
  -4   6   5  683.83   22.00
   6  -2   5  754.02   24.60
  -6   5  -5   10.70    2.70
   6  -5   5    5.60    2.40
   6  -5   5    3.30    2.20
  -5  -1   5    5.10    1.60
  -1   6   5    5.70    2.40
  -5   5  -5   68.89    4.80
  -5   0   5   73.09    3.80
   5  -5   5   72.29    5.60
   0   5   5   74.99    6.10
   5  -5   5   78.49    6.40
   5  -1  -5  173.58    9.80
  -4   5  -5  181.38    7.60
   1   4   5  171.38    9.30
   4  -5   5  175.88    9.40
  -5   1   5  167.28    5.80
  -3   5  -5   41.10    3.20
   2   3   5   43.90    4.10
   3  -5   5   47.40    4.60
   2   3   5   43.20    4.60
  -5   2   5   39.10    2.30
  -2   5  -5   75.09    3.80
  -5   3   5   74.09    3.70
   3   2   5   76.39    5.40
   3   2   5   72.79    6.00
   2  -5   5   74.69    5.50
   4   1   5   82.29    5.80
  -5   4   5   81.89    4.60
   1  -5   5   85.49    5.90
   4   1   5   87.89    6.70
  -5   5   5   19.60    2.70
   5   0   5   21.90    3.30
   0  -5   5   17.20    2.90
   5   0   5   22.60    3.80
   6  -1   5  155.78    8.80
  -5   6   5  148.79    8.00
  -1  -5   5  153.58    8.40
   0   6   5 1178.88   35.10
  -6   0   5 1160.68   30.20
   6  -6   5 1209.58   35.80
  -5   6  -5    2.90    1.60
   5  -6   5    3.90    2.30
  -6   1   5    6.10    1.60
   1   5   5    8.10    2.80
  -4   6  -5 1632.14   40.10
   2   4   5 1636.74   42.30
  -6   2   5 1608.84   38.40
   2   4   5 1628.64   44.30
   4  -6   5 1598.04   43.80
  -3   6  -5   88.09    5.00
  -6   3   5   88.09    4.60
   3   3   5   84.49    6.20
   3   3   5   90.99    7.20
   3  -6   5   94.09    6.90
  -2   6  -5  715.53   18.90
  -6   4   5  692.73   19.70
   2  -6   5  700.53   22.90
   4   2   5  697.73   23.90
   4   2   5  703.43   23.90
   4   2   5  752.12   22.70
  -6   5   5  155.98    7.60
   1  -6   5  154.18    8.90
   5   1   5  155.88    9.80
   5   1   5  164.58    8.90
   0  -6   5 1037.10   30.60
   6   0   5 1003.30   32.00
  -6   6   5 1024.60   29.10
   0   0   6 2697.63   61.49
  -1   0   6  596.34   15.00
   1  -1   6  580.14   17.00
   0   1   6  582.24   16.60
  -1   1   6   17.50    1.80
   1   0   6   15.40    2.30
   1   0   6   16.10    2.30
   0  -1   6   19.10    2.10
  -1   2   6  323.97   10.70
  -1  -1   6  332.97    9.60
   2  -1   6  342.57   12.30
  -3   2  -6  441.36   11.80
  -1   3   6  418.26   13.90
  -2  -1   6  424.66   11.10
   3  -2   6  406.46   15.10
   2  -2   6 1710.13   43.00
   0   2   6 1733.73   42.30
   1  -2   6  314.77   11.20
  -2   1   6  341.67    8.70
   1   1   6  335.27   11.90
   0  -2   6 1844.62   43.40
   2   0   6 1812.92   45.70
  -2   2   6 1860.21   42.30
   2   0   6 1813.02   45.70
  -1  -2   6   70.19    3.90
   3  -1   6   73.49    5.50
  -2   3   6   73.19    4.40
   4  -2   6 2045.50   52.59
  -2   4   6 2010.10   49.90
  -2  -2   6 2085.29   47.50
  -3  -2   6  471.95   13.70
   5  -3   6  438.56   17.60
  -2   5   6  451.65   16.20
  -4   3  -6   46.00    3.30
  -3  -1   6   40.20    2.40
  -1   4   6   39.60    4.00
   4  -3   6   29.30    4.10
  -3   3  -6  193.88    6.40
   0   3   6  186.28    8.80
   3  -3   6  181.28    9.10
   1   2   6  418.26   14.50
   2  -3   6  406.26   14.30
   1  -3   6   67.99    4.70
   2   1   6   72.19    5.40
  -3   2   6   69.29    2.90
   0  -3   6  406.86   13.20
  -3   3   6  415.46   12.10
   3   0   6  407.86   15.20
  -1  -3   6  380.36   12.60
  -3   4   6  376.86   12.70
   4  -1   6  389.76   15.30
  -2  -3   6    8.20    1.90
   5  -2   6    9.80    3.20
  -3   5   6    6.70    2.20
  -5   4  -6  334.57   11.60
   5  -4   6  317.77   14.30
  -4  -1   6  326.07    9.90
  -1   5   6  318.77   13.50
  -4   4  -6 1593.94   37.50
   4  -4   6 1497.65   41.60
   0   4   6 1552.14   41.30
  -3   4  -6   41.00    2.60
   3  -4   6   42.30    4.40
   1   3   6   46.30    4.70
   2   2   6 2012.60   50.69
   2  -4   6 1964.20   49.50
  -4   3   6  374.76   10.70
   1  -4   6  375.06   13.60
   3   1   6  355.66   14.50
   3   1   6  371.76   14.70
  -4   4   6 1289.87   32.30
   0  -4   6 1291.77   34.00
   4   0   6 1281.97   36.50
  -1  -4   6  183.18    8.60
  -4   5   6  181.38    8.50
   5  -1   6  182.98   10.60
  -4   5  -6  332.97   11.00
   1   4   6  321.47   14.10
   4  -5   6  337.27   14.50
  -5   1   6  336.97   10.80
   2   3   6  472.25   17.80
   3  -5   6  469.85   17.50
   2  -5   6   11.20    2.90
   3   2   6    3.40    2.00
   3   2   6    6.30    2.40
  -5   3   6    6.10    1.40
   1  -5   6  181.78    9.40
  -5   4   6  188.98    7.60
   4   1   6  188.78   10.60
   0   0   7  907.91   24.30
  -1   0   7   88.19    4.40
   0   1   7   90.99    5.40
   1  -1   7   80.09    5.30
   0  -1   7  105.29    5.50
  -1   1   7  103.59    5.20
   1   0   7  113.99    6.40
   2  -1   7   10.30    2.40
  -1   2   7    7.50    1.90
  -1  -1   7    6.10    1.50
   3  -2   7  102.29    7.00
  -2  -1   7  101.99    4.40
  -1   3   7  109.99    6.40
   0   2   7 1158.58   31.50
  -2   0   7 1206.28   27.70
   2  -2   7 1187.88   32.30
   1   1   7   10.20    2.40
  -2   1   7    8.20    1.40
   1  -2   7    5.50    1.80
   0  -2   7  708.93   20.20
  -2   2   7  742.33   19.30
   2   0   7  707.03   22.20
   3  -1   7  194.88   10.10
  -1  -2   7  192.98    7.70
  -2   3   7  196.28    8.20
   3  -3   7   14.00    3.00
   0   3   7   13.10    2.80
   2  -3   7   98.39    6.50
   1   2   7  101.49    6.70
   2   1   7  207.08   10.10
   2   1   7  184.48    9.70
   1  -3   7  201.28    9.10
  -3   2   7  204.18    6.70
   0  -3   7    5.80    1.90
  -3   3   7    6.20    1.60
   3   0   7    4.20    2.10
   0   0   0    0.00    0.00
;
_shelx_hkl_checksum              61005
loop_
_space_group_symop_operation_xyz
'x, y, z'
'-y, x-y, z'
'-x+y, -x, z'
'y, x, -z'
'x-y, -y, -z'
'-x, -x+y, -z'
'-x, -y, -z'
'y, -x+y, -z'
'x-y, x, -z'
'-y, -x, z'
'-x+y, y, z'
'x, x-y, z'
loop_
_atom_site_label
_atom_site_type_symbol
_atom_site_fract_x
_atom_site_fract_y
_atom_site_fract_z
_atom_site_U_iso_or_equiv
_atom_site_adp_type
_atom_site_occupancy
_atom_site_site_symmetry_order
_atom_site_calc_flag
_atom_site_refinement_flags_posn
_atom_site_refinement_flags_adp
_atom_site_refinement_flags_occupancy
Gd1 Gd 0.0000 0.0000 0.5000 0.00520(11) Uani 1 12 d S T P
Cu1 Cu 0.5000 0.5000 0.5000 0.00491(12) Uani 1 4 d S T P
Cl1 Cl 0.3333 0.6667 0.86398(16) 0.0116(2) Uani 1 6 d S T P
Cl2 Cl 0.0000 0.0000 0.0000 0.0096(3) Uani 1 12 d S T P
O1 O 0.19269(14) 0.3854(3) 0.3672(3) 0.0051(3) Uani 1 2 d DS T P
H1 H 0.199(3) 0.398(6) 0.226(3) 0.021(9) Uiso 1 2 d DS . P
loop_
_atom_site_aniso_label
_atom_site_aniso_U_11
_atom_site_aniso_U_22
_atom_site_aniso_U_33
_atom_site_aniso_U_23
_atom_site_aniso_U_13
_atom_site_aniso_U_12
Gd1 0.00290(12) 0.00290(12) 0.00982(16) 0.000 0.000 0.00145(6)
Cu1 0.00271(15) 0.00271(15) 0.0081(2) 0.00097(6) -0.00097(6) 0.00043(13)
Cl1 0.0142(3) 0.0142(3) 0.0064(4) 0.000 0.000 0.00711(15)
Cl2 0.0116(4) 0.0116(4) 0.0056(5) 0.000 0.000 0.00581(19)
O1 0.0049(5) 0.0058(7) 0.0049(7) 0.0003(6) 0.0002(3) 0.0029(4)
loop_
_atom_type_symbol
_atom_type_description
_atom_type_scat_dispersion_real
_atom_type_scat_dispersion_imag
_atom_type_scat_source
O O 0.0106 0.0060 'International Tables Vol C Tables 4.2.6.8 and 6.1.1.4'
H H 0.0000 0.0000 'International Tables Vol C Tables 4.2.6.8 and 6.1.1.4'
Cl Cl 0.1484 0.1585 'International Tables Vol C Tables 4.2.6.8 and 6.1.1.4'
Cu Cu 0.3201 1.2651 'International Tables Vol C Tables 4.2.6.8 and 6.1.1.4'
Gd Gd -0.1653 3.9035 'International Tables Vol C Tables 4.2.6.8 and 6.1.1.4'
loop_
_geom_angle_atom_site_label_1
_geom_angle_atom_site_label_2
_geom_angle_atom_site_label_3
_geom_angle
_geom_angle_site_symmetry_1
_geom_angle_site_symmetry_3
O1 Gd1 O1 180.0 8_556 2
O1 Gd1 O1 110.74(4) 8_556 7_556
O1 Gd1 O1 69.26(4) 2 7_556
O1 Gd1 O1 69.26(4) 8_556 .
O1 Gd1 O1 110.74(4) 2 .
O1 Gd1 O1 180.0 7_556 .
O1 Gd1 O1 110.74(4) 8_556 9_556
O1 Gd1 O1 69.26(4) 2 9_556
O1 Gd1 O1 110.74(4) 7_556 9_556
O1 Gd1 O1 69.26(4) . 9_556
O1 Gd1 O1 69.26(4) 8_556 3
O1 Gd1 O1 110.74(4) 2 3
O1 Gd1 O1 69.26(4) 7_556 3
O1 Gd1 O1 110.74(4) . 3
O1 Gd1 O1 180.0 9_556 3
O1 Gd1 Cl2 108.17(4) 8_556 .
O1 Gd1 Cl2 71.83(4) 2 .
O1 Gd1 Cl2 108.17(4) 7_556 .
O1 Gd1 Cl2 71.83(4) . .
O1 Gd1 Cl2 108.17(4) 9_556 .
O1 Gd1 Cl2 71.83(4) 3 .
O1 Gd1 Cl2 71.83(4) 8_556 1_556
O1 Gd1 Cl2 108.17(4) 2 1_556
O1 Gd1 Cl2 71.83(4) 7_556 1_556
O1 Gd1 Cl2 108.17(4) . 1_556
O1 Gd1 Cl2 71.83(4) 9_556 1_556
O1 Gd1 Cl2 108.17(4) 3 1_556
Cl2 Gd1 Cl2 180.0 . 1_556
O1 Gd1 Cu1 34.629(18) 8_556 .
O1 Gd1 Cu1 145.371(18) 2 .
O1 Gd1 Cu1 145.371(18) 7_556 .
O1 Gd1 Cu1 34.629(18) . .
O1 Gd1 Cu1 90.0 9_556 .
O1 Gd1 Cu1 90.0 3 .
Cl2 Gd1 Cu1 90.0 . .
Cl2 Gd1 Cu1 90.0 1_556 .
O1 Gd1 Cu1 145.371(18) 8_556 1_445
O1 Gd1 Cu1 34.629(18) 2 1_445
O1 Gd1 Cu1 34.629(18) 7_556 1_445
O1 Gd1 Cu1 145.371(18) . 1_445
O1 Gd1 Cu1 90.0 9_556 1_445
O1 Gd1 Cu1 90.0 3 1_445
Cl2 Gd1 Cu1 90.0 . 1_445
Cl2 Gd1 Cu1 90.0 1_556 1_445
Cu1 Gd1 Cu1 180.0 . 1_445
O1 Gd1 Cu1 145.370(18) 8_556 2
O1 Gd1 Cu1 34.630(18) 2 2
O1 Gd1 Cu1 90.0 7_556 2
O1 Gd1 Cu1 90.0 . 2
O1 Gd1 Cu1 34.629(18) 9_556 2
O1 Gd1 Cu1 145.371(18) 3 2
Cl2 Gd1 Cu1 90.0 . 2
Cl2 Gd1 Cu1 90.0 1_556 2
Cu1 Gd1 Cu1 120.0 . 2
Cu1 Gd1 Cu1 60.0 1_445 2
O1 Gd1 Cu1 90.0 8_556 3
O1 Gd1 Cu1 90.0 2 3
O1 Gd1 Cu1 34.630(18) 7_556 3
O1 Gd1 Cu1 145.371(18) . 3
O1 Gd1 Cu1 145.371(18) 9_556 3
O1 Gd1 Cu1 34.629(18) 3 3
Cl2 Gd1 Cu1 90.0 . 3
Cl2 Gd1 Cu1 90.0 1_556 3
Cu1 Gd1 Cu1 120.0 . 3
Cu1 Gd1 Cu1 60.0 1_445 3
Cu1 Gd1 Cu1 120.0 2 3
O1 Cu1 O1 93.17(10) 7_666 8_556
O1 Cu1 O1 86.83(10) 7_666 2_665
O1 Cu1 O1 180.0 8_556 2_665
O1 Cu1 O1 180.0 7_666 .
O1 Cu1 O1 86.83(10) 8_556 .
O1 Cu1 O1 93.17(10) 2_665 .
O1 Cu1 Gd1 136.59(5) 7_666 .
O1 Cu1 Gd1 43.41(5) 8_556 .
O1 Cu1 Gd1 136.59(5) 2_665 .
O1 Cu1 Gd1 43.41(5) . .
O1 Cu1 Gd1 43.41(5) 7_666 1_665
O1 Cu1 Gd1 136.59(5) 8_556 1_665
O1 Cu1 Gd1 43.41(5) 2_665 1_665
O1 Cu1 Gd1 136.59(5) . 1_665
Gd1 Cu1 Gd1 180.0 . 1_665
Gd1 Cl2 Gd1 180.0 1_554 .
Cu1 O1 Cu1 118.81(8) . 3_565
Cu1 O1 Gd1 101.96(5) . .
Cu1 O1 Gd1 101.96(5) 3_565 .
Cu1 O1 H1 110.1(11) . .
Cu1 O1 H1 110.1(11) 3_565 .
Gd1 O1 H1 114(3) . .
loop_
_geom_bond_atom_site_label_1
_geom_bond_atom_site_label_2
_geom_bond_distance
_geom_bond_site_symmetry_2
Gd1 O1 2.3879(17) 8_556
Gd1 O1 2.3879(17) 2
Gd1 O1 2.3879(17) 7_556
Gd1 O1 2.3879(17) .
Gd1 O1 2.3879(17) 9_556
Gd1 O1 2.3879(17) 3
Gd1 Cl2 2.80310(15) .
Gd1 Cl2 2.80310(15) 1_556
Gd1 Cu1 3.3991(2) .
Gd1 Cu1 3.3991(2) 1_445
Gd1 Cu1 3.3991(2) 2
Gd1 Cu1 3.39910(19) 3
Cu1 O1 1.9744(8) 7_666
Cu1 O1 1.9744(8) 8_556
Cu1 O1 1.9744(8) 2_665
Cu1 O1 1.9744(8) .
Cu1 Gd1 3.3991(2) 1_665
Cl2 Gd1 2.80310(15) 1_554
O1 Cu1 1.9744(8) 3_565
O1 H1 0.796(18) .
loop_
_geom_hbond_atom_site_label_D
_geom_hbond_atom_site_label_H
_geom_hbond_atom_site_label_A
_geom_hbond_distance_DH
_geom_hbond_distance_HA
_geom_hbond_distance_DA
_geom_hbond_angle_DHA
_geom_hbond_site_symmetry_A
O1 H1 Cl1 0.796(18) 2.57(3) 3.2712(18) 147(4) 1_554
O1 H1 Cl2 0.796(18) 2.66(4) 3.0635(16) 113(3) .
