#------------------------------------------------------------------------------
#$Date: 2017-07-27 05:26:58 +0300 (Thu, 27 Jul 2017) $
#$Revision: 199360 $
#$URL: file:///home/coder/svn-repositories/cod/cif/7/04/38/7043830.cif $
#------------------------------------------------------------------------------
#
# This file is available in the Crystallography Open Database (COD),
# http://www.crystallography.net/
#
# All data on this site have been placed in the public domain by the
# contributors.
#
data_7043830
loop_
_publ_author_name
'JIN, GENG BANG'
'Malliakas, Christos D.'
'Lin, Jian'
_publ_section_title
;
 Thorium Copper Phosphides: More Diverse Metal--Phosphorus and
 Phosphorus--Phosphorus Interactions than U analogues
;
_journal_name_full               'Dalton Trans.'
_journal_paper_doi               10.1039/C7DT02145C
_journal_year                    2017
_chemical_formula_moiety         'Th Cu2 P2'
_chemical_formula_sum            'Cu2 P2 Th'
_chemical_formula_weight         421.06
_chemical_name_common            'thorium dicopper(I) diphosphide'
_space_group_crystal_system      orthorhombic
_space_group_IT_number           62
_space_group_name_Hall           '-P 2ac 2n'
_space_group_name_H-M_alt        'P n m a'
_symmetry_space_group_name_Hall  '-P 2ac 2n'
_symmetry_space_group_name_H-M   'P n m a'
_audit_creation_method           SHELXL-2014/7
_cell_angle_alpha                90
_cell_angle_beta                 90
_cell_angle_gamma                90
_cell_formula_units_Z            4
_cell_length_a                   8.9882(5)
_cell_length_b                   3.8726(2)
_cell_length_c                   9.8376(6)
_cell_measurement_reflns_used    4275
_cell_measurement_temperature    100(2)
_cell_measurement_theta_max      32.85
_cell_measurement_theta_min      2.27
_cell_volume                     342.42(3)
_computing_cell_refinement       'Bruker SAINT'
_computing_data_collection       'Bruker APEX2'
_computing_data_reduction        'Bruker SAINT'
_computing_molecular_graphics    'CrystalMaker for Windows ver. 2.5.2 (2011)'
_computing_publication_material  'Bruker SHELXTL'
_computing_structure_refinement  'SHELXL-2014/7 (Sheldrick, 2014)'
_computing_structure_solution    'SHELXS-97 (Sheldrick 2008)'
_diffrn_ambient_temperature      100(2)
_diffrn_measured_fraction_theta_full 1.000
_diffrn_measured_fraction_theta_max 0.960
_diffrn_measurement_device_type  'Bruker APEX-II CCD'
_diffrn_measurement_method       '\f and \w scans'
_diffrn_radiation_type           MoK\a
_diffrn_radiation_wavelength     0.71073
_diffrn_reflns_av_R_equivalents  0.0166
_diffrn_reflns_av_unetI/netI     0.0099
_diffrn_reflns_Laue_measured_fraction_full 1.000
_diffrn_reflns_Laue_measured_fraction_max 0.960
_diffrn_reflns_limit_h_max       13
_diffrn_reflns_limit_h_min       -13
_diffrn_reflns_limit_k_max       5
_diffrn_reflns_limit_k_min       -5
_diffrn_reflns_limit_l_max       14
_diffrn_reflns_limit_l_min       -14
_diffrn_reflns_number            5351
_diffrn_reflns_point_group_measured_fraction_full 1.000
_diffrn_reflns_point_group_measured_fraction_max 0.960
_diffrn_reflns_theta_full        25.242
_diffrn_reflns_theta_max         32.941
_diffrn_reflns_theta_min         3.070
_diffrn_source                   'fine-focus sealed tube'
_exptl_absorpt_coefficient_mu    56.281
_exptl_absorpt_correction_T_max  0.509
_exptl_absorpt_correction_T_min  0.132
_exptl_absorpt_correction_type   multi-scan
_exptl_absorpt_process_details   SADABS
_exptl_crystal_colour            black
_exptl_crystal_density_diffrn    8.167
_exptl_crystal_density_meas      ?
_exptl_crystal_density_method    'not measured'
_exptl_crystal_description       prism
_exptl_crystal_F_000             712
_exptl_crystal_size_max          0.220
_exptl_crystal_size_mid          0.032
_exptl_crystal_size_min          0.012
_refine_diff_density_max         2.001
_refine_diff_density_min         -2.084
_refine_diff_density_rms         0.479
_refine_ls_extinction_method     none
_refine_ls_goodness_of_fit_ref   1.271
_refine_ls_hydrogen_treatment    undef
_refine_ls_matrix_type           full
_refine_ls_number_parameters     31
_refine_ls_number_reflns         689
_refine_ls_number_restraints     0
_refine_ls_restrained_S_all      1.271
_refine_ls_R_factor_all          0.0147
_refine_ls_R_factor_gt           0.0144
_refine_ls_shift/su_max          0.000
_refine_ls_shift/su_mean         0.000
_refine_ls_structure_factor_coef Fsqd
_refine_ls_weighting_details
'w=1/[\s^2^(Fo^2^)+(0.0165P)^2^+0.9778P] where P=(Fo^2^+2Fc^2^)/3'
_refine_ls_weighting_scheme      calc
_refine_ls_wR_factor_gt          0.0350
_refine_ls_wR_factor_ref         0.0351
_reflns_Friedel_coverage         0.000
_reflns_number_gt                677
_reflns_number_total             689
_reflns_threshold_expression     'I > 2\s(I)'
_cod_data_source_file            c7dt02145c2.cif
_cod_data_source_block           compound2
_cod_depositor_comments
;
The following automatic conversions were performed:

'_exptl_crystal_density_meas' value 'not measured' was changed to '?'
- the value is perceived as not measured.

Automatic conversion script
Id: cif_fix_values 4973 2017-02-22 13:04:09Z antanas 
;
_cod_database_code               7043830
_shelx_shelxl_version_number     2014/7
_shelx_space_group_comment
;
The symmetry employed for this shelxl refinement is uniquely defined
by the following loop, which should always be used as a source of
symmetry information in preference to the above space-group names.
They are only intended as comments.
;
_shelx_estimated_absorpt_t_min   0.3740
_shelx_estimated_absorpt_t_max   0.7465
_shelx_res_file
;

    largemu.res created by SHELXL-2014/7


TITL LargeMu in Pnma
CELL 0.71073   8.98820   3.87260   9.83760  90.0000  90.0000  90.0000
ZERR    4.00   0.00050   0.00020   0.00060   0.0000   0.0000   0.0000
LATT  1
SYMM 0.5-X, -Y, 0.5+Z
SYMM -X, 0.5+Y, -Z
SYMM 0.5+X, 0.5-Y, 0.5-Z
SFAC P CU TH
UNIT 8 8 4
TEMP -173.000

L.S. 10
BOND
ACTA
CONN $TH 40 4.5
CONN $CU 40 4.5
CONN $P  40 4.0
FMAP 2
PLAN 20

WGHT    0.016500    0.977800
FVAR       0.06956
TH1   3    0.250306    0.250000    0.313640    10.50000    0.00611    0.00512 =
         0.00658    0.00000    0.00006    0.00000
CU1   2    0.056306    0.250000    0.595726    10.50000    0.00701    0.00657 =
         0.00833    0.00000    0.00040    0.00000
CU2   2    0.069584    0.250000    0.047641    10.50000    0.00668    0.00604 =
         0.00768    0.00000   -0.00039    0.00000
P1    1    0.324275    0.250000    0.024875    10.50000    0.00643    0.00648 =
         0.00710    0.00000    0.00027    0.00000
P2    1    0.475028    0.250000    0.682005    10.50000    0.00731    0.00669 =
         0.00741    0.00000   -0.00026    0.00000
HKLF 4

REM  LargeMu in Pnma
REM R1 =  0.0144 for     677 Fo > 4sig(Fo)  and  0.0147 for all     689 data
REM     31 parameters refined using      0 restraints

END

WGHT      0.0168      0.8868

REM Highest difference peak  2.001,  deepest hole -2.084,  1-sigma level  0.479
Q1    1   0.3036  0.2500  0.2632  10.50000  0.05    2.00
Q2    1   0.1955  0.2500  0.2607  10.50000  0.05    1.55
Q3    1   0.2992  0.2500  0.3686  10.50000  0.05    1.31
Q4    1   0.1996  0.2500  0.3708  10.50000  0.05    1.08
Q5    1   0.2499  0.0593  0.3138  11.00000  0.05    0.99
Q6    1   0.3840 -0.0264  0.7565  11.00000  0.05    0.86
Q7    1   0.5940  0.0053  0.6245  11.00000  0.05    0.84
Q8    1   0.2645  0.0314  0.1467  11.00000  0.05    0.80
Q9    1   0.3817  0.0161  0.2666  11.00000  0.05    0.78
Q10   1   0.2595 -0.0236 -0.0369  11.00000  0.05    0.77
Q11   1   0.1192  0.0113  0.3733  11.00000  0.05    0.77
Q12   1   0.3156 -0.0082  0.0194  11.00000  0.05    0.74
Q13   1   0.1896 -0.0365  0.2212  11.00000  0.05    0.74
Q14   1   0.1007 -0.0124 -0.0380  11.00000  0.05    0.73
Q15   1   0.2280 -0.0070  0.0623  11.00000  0.05    0.73
Q16   1   0.3159  0.0277  0.1566  11.00000  0.05    0.73
Q17   1   0.4475  0.0018  0.6911  11.00000  0.05    0.73
Q18   1  -0.1008 -0.0145  0.6043  11.00000  0.05    0.73
Q19   1   0.2943  0.0055  0.4163  11.00000  0.05    0.72
Q20   1   0.3250 -0.0360  0.3825  11.00000  0.05    0.72
;
_shelx_res_checksum              6023
_shelx_hkl_file
;
   0  -1   0    0.02    0.02
   0  -1   0    0.03    0.02
   0  -2   0 1000.00   21.32
   0  -2   0  908.38   20.03
   0  -2   0  895.46   21.11
   0  -3   0    0.02    0.03
   0  -3   0    0.03    0.03
   0  -3   0    0.04    0.03
   0  -4   0  458.33    8.97
   0  -4   0  451.18    8.99
   0  -4   0  456.69    9.08
   0   5   0    0.13    0.07
   1   0   0    0.11    0.01
   1   0   0    0.14    0.02
   1  -1   0    0.03    0.02
  -1  -1   0    0.01    0.02
  -1  -1   0    0.09    0.02
   1   1   0    0.07    0.02
   1  -1   0    0.03    0.02
  -1  -1   0    0.01    0.01
   1  -1   0    0.08    0.02
   1  -2   0    0.08    0.03
   1  -2   0    0.07    0.03
  -1  -2   0    0.07    0.03
  -1  -2   0    0.12    0.04
  -1  -2   0    0.20    0.03
  -1  -2   0    0.03    0.02
   1  -2   0    0.20    0.04
   1  -3   0    0.03    0.03
   1  -3   0    0.04    0.03
   1  -3   0    0.08    0.04
  -1  -3   0    0.03    0.04
  -1  -3   0    0.03    0.03
   1  -4   0    0.24    0.06
   1   4   0    0.08    0.05
   1  -4   0    0.03    0.04
  -1  -4   0    0.20    0.06
   1  -4   0    0.10    0.05
   2   0   0   89.05    1.81
   2   0   0   93.24    1.80
  -2   0   0   94.74    1.80
  -2  -1   0   39.70    0.81
  -2   1   0   39.39    0.81
   2  -1   0   40.88    0.81
   2  -1   0   38.91    0.80
   2   1   0   39.56    0.81
  -2  -1   0   41.58    0.83
   2  -2   0   71.07    1.40
   2  -2   0   69.94    1.41
  -2  -2   0   70.37    1.42
  -2   2   0   69.15    1.42
  -2  -2   0   70.69    1.43
   2   2   0   68.22    1.40
  -2  -2   0   70.91    1.37
   2  -2   0   70.82    1.39
   2   3   0   15.27    0.38
   2  -3   0   15.33    0.37
   2  -3   0   15.88    0.39
   2  -3   0   15.87    0.38
  -2  -3   0   15.56    0.41
  -2   3   0   15.84    0.40
  -2  -3   0   15.78    0.36
   2  -4   0   44.02    0.92
   2  -4   0   41.93    0.93
  -2   4   0   43.97    0.95
  -2  -4   0   41.94    0.96
   2   4   0   42.26    0.92
   2  -5   0    4.44    0.20
   3   0   0    0.25    0.04
   3   0   0    0.24    0.03
  -3   0   0    0.41    0.05
   3  -1   0    0.06    0.03
  -3  -1   0    0.03    0.02
   3   1   0    0.03    0.02
  -3   1   0    0.02    0.02
   3  -1   0    0.00    0.02
  -3  -1   0    0.01    0.03
   3  -2   0    0.12    0.04
  -3   2   0    0.09    0.02
   3   2   0    0.06    0.02
   3   2   0    0.12    0.03
  -3  -2   0    0.07    0.03
   3   3   0    0.01    0.03
  -3  -3   0    0.02    0.04
  -3  -3   0    0.02    0.04
  -3   3   0    0.04    0.03
  -3   3   0    0.03    0.03
   3  -3   0   -0.01    0.03
   3  -3   0    0.02    0.04
   3  -4   0    0.09    0.05
  -3   4   0    0.04    0.05
   3  -4   0    0.16    0.06
  -3  -4   0    0.17    0.06
   3   4   0    0.17    0.06
  -3  -5   0   -0.01    0.05
   3  -5   0    0.04    0.05
   4   0   0  360.22    7.04
  -4   0   0  352.35    7.34
   4   0   0  356.65    7.15
  -4   0   0  375.79    7.05
   4   1   0  156.88    3.06
  -4  -1   0  159.59    3.07
  -4  -1   0  156.29    3.18
   4  -1   0  160.56    3.06
  -4   1   0  154.74    3.15
   4  -1   0  153.67    3.08
  -4  -2   0  261.44    5.31
   4  -2   0  266.71    5.28
   4  -2   0  279.54    5.33
  -4   2   0  261.80    5.45
  -4  -2   0  269.46    5.45
   4   2   0  260.13    5.29
   4  -3   0   71.79    1.49
   4   3   0   70.21    1.47
  -4  -3   0   72.30    1.51
   4  -3   0   73.37    1.48
  -4   3   0   71.46    1.50
  -4  -3   0   73.79    1.53
   4   4   0  136.82    2.73
  -4   4   0  137.44    2.76
   4  -4   0  137.02    2.73
   4  -4   0  136.59    2.75
  -4  -4   0  134.79    2.77
   4  -5   0   25.36    0.64
  -4  -5   0   26.01    0.67
   5   0   0    0.08    0.02
  -5   0   0    0.15    0.03
  -5   0   0    0.05    0.03
   5   1   0    0.01    0.03
   5  -1   0    0.02    0.03
  -5  -1   0    0.12    0.05
   5  -1   0   -0.03    0.03
  -5  -1   0    0.05    0.03
  -5   1   0    0.00    0.03
   5  -2   0    0.12    0.04
  -5  -2   0    0.19    0.06
  -5   2   0    0.05    0.04
  -5  -2   0    0.11    0.04
   5   2   0    0.18    0.04
  -5  -3   0    0.06    0.05
   5  -3   0    0.09    0.05
   5  -3   0    0.02    0.04
   5   3   0    0.01    0.04
  -5   3   0    0.07    0.05
  -5  -3   0    0.02    0.05
  -5  -4   0    0.06    0.06
   5  -4   0    0.21    0.07
  -5  -4   0    0.05    0.06
  -5   4   0    0.14    0.06
   5  -4   0    0.05    0.05
   5   4   0    0.14    0.06
  -5  -5   0    0.01    0.06
   5  -5   0    0.09    0.06
  -6   0   0  353.50    6.81
   6   0   0  360.34    6.80
  -6   0   0  341.07    7.18
   6   0   0  339.91    6.79
  -6  -1   0   14.22    0.41
  -6   1   0   14.75    0.39
  -6  -1   0   14.67    0.36
   6  -1   0   14.73    0.35
   6   1   0   14.35    0.36
   6  -1   0   14.31    0.38
   6  -2   0  251.15    5.04
   6  -2   0  259.57    5.04
  -6  -2   0  258.49    5.06
  -6  -2   0  258.68    5.09
   6   2   0  256.81    5.00
  -6   2   0  252.84    5.17
  -6  -3   0    6.13    0.24
  -6  -3   0    6.50    0.27
   6  -3   0    6.58    0.24
  -6   3   0    6.61    0.24
   6   3   0    6.40    0.22
   6  -3   0    6.33    0.22
   6   4   0  139.09    2.74
  -6  -4   0  137.74    2.82
   6  -4   0  133.64    2.76
  -6   4   0  139.33    2.77
   6  -4   0  133.77    2.75
  -6  -4   0  133.58    2.78
   6  -5   0    2.36    0.16
  -7   0   0    0.23    0.04
   7   0   0    0.15    0.05
  -7   0   0    0.33    0.07
   7   0   0    0.21    0.04
  -7   1   0    0.02    0.04
  -7  -1   0    0.01    0.05
   7   1   0   -0.02    0.04
   7  -1   0   -0.02    0.03
   7  -1   0    0.06    0.05
  -7  -1   0    0.01    0.03
  -7   2   0    0.09    0.05
   7  -2   0    0.12    0.06
   7   2   0    0.15    0.05
  -7  -2   0    0.09    0.05
  -7  -2   0    0.16    0.08
  -7   3   0    0.00    0.05
   7  -3   0    0.03    0.05
  -7  -3   0    0.08    0.07
   7  -3   0    0.04    0.05
   7   3   0   -0.01    0.05
  -7  -3   0    0.00    0.05
  -7  -4   0    0.03    0.06
   7  -4   0    0.07    0.06
  -7   4   0    0.03    0.05
  -7  -4   0   -0.03    0.07
   7   4   0    0.09    0.06
   7  -4   0    0.05    0.06
  -8   0   0   22.44    0.59
   8   0   0   23.06    0.49
   8   0   0   22.30    0.55
  -8   1   0    7.12    0.26
   8  -1   0    6.97    0.24
  -8  -1   0    7.07    0.22
   8   1   0    6.81    0.24
   8  -1   0    6.86    0.21
  -8  -1   0    7.21    0.28
  -8   2   0   20.87    0.54
  -8  -2   0   21.37    0.62
   8  -2   0   20.45    0.55
   8  -2   0   20.59    0.50
  -8  -2   0   20.52    0.51
   8   2   0   20.94    0.52
  -8  -3   0    4.34    0.26
  -8   3   0    4.40    0.20
   8   3   0    4.37    0.19
   8  -3   0    4.26    0.19
   8  -3   0    4.26    0.22
  -8  -3   0    4.39    0.20
   8   4   0   16.92    0.45
  -8  -4   0   15.48    0.54
  -8  -4   0   15.64    0.47
   8  -4   0   16.78    0.50
  -8   4   0   15.66    0.46
   8  -4   0   15.74    0.45
   9   0   0    0.24    0.07
  -9   0   0    0.09    0.06
   9  -1   0    0.02    0.05
  -9  -1   0   -0.02    0.04
  -9  -1   0    0.10    0.07
   9  -1   0   -0.04    0.04
   9   1   0    0.02    0.05
  -9   1   0    0.22    0.07
  -9  -2   0    0.04    0.05
  -9  -2   0    0.23    0.09
   9   2   0    0.10    0.06
   9  -2   0    0.19    0.06
   9  -2   0    0.20    0.08
  -9   2   0    0.11    0.06
  -9  -3   0    0.04    0.09
   9  -3   0   -0.04    0.05
   9   3   0   -0.03    0.05
  -9   3   0    0.04    0.06
   9  -3   0    0.04    0.07
  -9  -3   0   -0.02    0.05
  -9   4   0    0.27    0.09
  -9  -4   0    0.18    0.10
   9  -4   0    0.00    0.06
   9   4   0    0.01    0.06
  -9  -4   0    0.00    0.06
  10   0   0  207.37    4.06
 -10   0   0  200.85    4.11
 -10  -1   0   15.76    0.50
  10  -1   0   16.11    0.42
 -10   1   0   15.86    0.49
  10   1   0   15.65    0.44
  10  -1   0   16.00    0.45
 -10  -2   0  167.39    3.32
 -10  -2   0  166.24    3.47
  10  -2   0  167.02    3.37
  10   2   0  165.20    3.34
 -10   2   0  163.24    3.38
  10  -2   0  168.71    3.31
  10   3   0    9.92    0.33
 -10  -3   0    9.90    0.45
 -10   3   0   10.27    0.36
  10  -3   0   10.18    0.32
 -10  -3   0   10.10    0.33
  10  -3   0    9.17    0.38
  10   4   0   98.84    2.02
 -10   4   0   99.76    2.06
 -10  -4   0   88.93    2.31
 -11   0   0    0.30    0.09
  11   0   0    0.21    0.07
  11   1   0    0.07    0.07
 -11   1   0    0.06    0.07
  11  -1   0    0.04    0.06
 -11  -1   0   -0.06    0.06
  11  -2   0    0.15    0.06
 -11  -2   0    0.13    0.09
  11   2   0    0.28    0.08
  11  -2   0    0.01    0.07
 -11   3   0    0.05    0.07
  11   3   0    0.00    0.07
 -11  -3   0   -0.02    0.10
  11  -3   0    0.02    0.09
  11  -3   0    0.11    0.07
 -12   0   0   89.44    1.98
  12   0   0   93.25    1.93
 -12   1   0   31.13    0.81
  12  -1   0   31.10    0.76
 -12  -1   0   30.38    0.82
  12   1   0   29.45    0.75
 -12  -2   0   77.71    1.78
 -12   2   0   79.52    1.73
  12   2   0   76.55    1.66
  12  -2   0   76.46    1.68
  13   0   0    0.71    0.12
 -13  -1   0    0.12    0.09
  13   1   0   -0.04    0.07
 -13   1   0    0.03    0.08
  13  -1   0    0.08    0.07
   0  -1   1  218.13    4.32
   0  -1   1  212.32    4.34
   0  -1  -1  221.57    4.70
   0  -1   1  226.15    4.35
   0  -1  -1  212.36    4.31
   0  -2   1    0.00    0.02
   0  -2   1    0.00    0.02
   0  -2  -1    0.03    0.03
   0  -2  -1    0.04    0.02
   0  -2   1    0.06    0.03
   0  -3   1  113.42    2.23
   0  -3  -1  113.67    2.21
   0  -3   1  112.12    2.25
   0  -3  -1  112.02    2.22
   0  -3   1  111.60    2.22
   0  -3  -1  110.49    2.24
   0  -4  -1   -0.02    0.03
   0  -4   1    0.16    0.05
   0  -4   1    0.02    0.04
   0   4   1    0.10    0.06
   0   5  -1   57.02    1.21
   0   5   1   53.13    1.22
  -1   0   1    0.40    0.02
  -1   0  -1    0.38    0.03
  -1   0   1    0.41    0.02
   1   0   1    0.37    0.03
   1   0   1    0.38    0.03
   1   0  -1    0.41    0.02
  -1   0  -1    0.43    0.03
   1   0  -1    0.42    0.02
   1  -1  -1   21.08    0.41
  -1   1  -1   19.57    0.42
  -1  -1   1   21.08    0.42
  -1  -1   1   19.69    0.43
   1  -1  -1   19.58    0.42
  -1  -1   1   19.90    0.42
   1   1   1   20.13    0.41
   1  -1   1   20.30    0.43
  -1  -1  -1   20.66    0.44
   1  -1   1   20.80    0.41
   1  -1   1   20.12    0.43
  -1   1   1   19.88    0.42
  -1  -1  -1   20.16    0.43
  -1  -1  -1   20.30    0.41
   1   1  -1   20.56    0.41
   1  -2  -1    0.30    0.04
  -1  -2   1    0.24    0.03
   1   2   1    0.32    0.04
  -1  -2   1    0.30    0.05
   1  -2  -1    0.36    0.04
  -1  -2   1    0.20    0.04
  -1  -2   1    0.30    0.04
   1  -2   1    0.32    0.04
   1  -2   1    0.30    0.04
   1  -2   1    0.29    0.04
  -1  -2  -1    0.28    0.05
  -1  -2  -1    0.30    0.04
  -1  -2  -1    0.27    0.05
  -1  -3   1   12.56    0.31
  -1  -3   1   11.65    0.33
   1  -3  -1   12.13    0.29
   1   3   1   11.70    0.30
   1  -3  -1   11.84    0.31
  -1  -3  -1   12.53    0.30
  -1  -3  -1   12.18    0.33
   1  -3   1   12.03    0.31
   1  -3   1   12.30    0.31
   1  -3   1   11.88    0.31
  -1  -4   1    0.13    0.05
   1   4   1    0.14    0.05
   1  -4  -1    0.14    0.05
   1  -4   1    0.09    0.05
   1  -4   1    0.14    0.05
  -1   4   1    0.14    0.06
   1   4  -1    0.08    0.05
   1  -4   1    0.14    0.05
   1   4  -1    0.14    0.05
   1   5   1    5.75    0.25
  -1  -5   1    5.79    0.24
  -1   5  -1    6.18    0.26
  -1   5   1    6.28    0.26
   1   5  -1    5.87    0.23
   2   0  -1    0.36    0.02
  -2   0   1    0.38    0.04
  -2   0   1    0.36    0.03
   2   0  -1    0.35    0.03
  -2   0  -1    0.40    0.04
  -2   0  -1    0.36    0.03
  -2  -1   1  485.59    9.56
   2   1   1  492.48    9.49
  -2   1  -1  467.99   11.33
  -2  -1   1  470.83    9.63
   2  -1  -1  504.33    9.53
   2  -1  -1  449.65    9.50
  -2   1   1  488.73    9.63
  -2  -1  -1  503.40    9.69
  -2  -1  -1  493.27    9.58
   2   1  -1  485.86    9.53
   2  -1   1  506.44    9.55
   2  -1   1  485.45    9.39
  -2  -1  -1  490.05    9.36
  -2   1   1  473.05    9.44
   2   1  -1  480.05    9.39
   2  -1   1  496.41    9.58
   2  -2  -1    0.24    0.04
  -2  -2   1    0.37    0.05
  -2   2  -1    0.29    0.04
   2   2   1    0.25    0.04
  -2  -2   1    0.25    0.05
   2  -2  -1    0.32    0.04
   2   2  -1    0.32    0.04
   2  -2   1    0.23    0.04
  -2   2   1    0.29    0.04
  -2  -2  -1    0.22    0.04
  -2  -2  -1    0.31    0.05
   2  -2   1    0.35    0.04
  -2   2   1    0.37    0.05
   2   2  -1    0.27    0.05
   2  -2   1    0.40    0.05
  -2  -2  -1    0.31    0.03
   2  -3  -1  245.80    4.93
   2  -3  -1  252.14    4.88
   2   3   1  246.99    4.94
  -2  -3   1  244.34    4.92
  -2   3  -1  246.51    5.02
   2  -3   1  251.39    4.89
  -2   3   1  248.16    4.90
   2   3  -1  251.24    4.89
   2  -3   1  248.08    4.93
  -2  -3  -1  247.98    4.98
   2   3  -1  250.23    4.81
   2  -3   1  247.05    4.88
  -2  -3  -1  248.91    4.80
  -2   4  -1    0.29    0.06
  -2  -4   1    0.06    0.05
   2   4   1    0.15    0.05
   2  -4  -1    0.39    0.07
   2   4  -1    0.06    0.05
   2  -4   1    0.29    0.06
   2  -4   1    0.13    0.05
  -2  -4  -1    0.11    0.05
  -2   4   1    0.19    0.06
  -2   5  -1  106.76    2.25
   2   5   1  107.22    2.28
  -2  -5   1  108.82    2.27
   2  -5  -1  110.82    2.23
   2   5  -1  109.06    2.22
  -2   5   1  110.92    2.27
  -3   0   1    9.40    0.21
   3   0  -1    9.26    0.21
  -3   0   1    9.13    0.24
   3   0  -1    9.68    0.23
   3   0   1    9.67    0.23
  -3   0  -1    9.63    0.22
   3   0   1    9.55    0.21
   3  -1  -1   57.04    1.14
   3   1   1   57.30    1.13
  -3  -1   1   55.95    1.14
  -3  -1   1   58.03    1.17
   3  -1  -1   55.51    1.13
  -3   1  -1   57.27    1.14
   3   1  -1   55.29    1.13
  -3  -1  -1   56.56    1.14
  -3  -1  -1   54.55    1.09
   3   1  -1   57.95    1.09
   3  -1   1   56.20    1.15
  -3   1   1   58.30    1.09
  -3  -1  -1   56.11    1.17
  -3   1   1   55.62    1.15
   3  -1   1   56.02    1.13
   3  -2  -1    4.96    0.16
  -3   2  -1    4.75    0.16
   3   2   1    5.03    0.15
  -3  -2   1    5.13    0.17
  -3  -2   1    4.99    0.17
   3  -2  -1    4.96    0.15
   3  -2   1    4.81    0.16
  -3   2   1    5.03    0.17
  -3  -2  -1    4.82    0.17
   3  -2   1    5.05    0.16
   3   2  -1    4.98    0.12
   3   2  -1    4.66    0.16
  -3   2   1    4.94    0.13
  -3  -2  -1    4.80    0.18
  -3  -2  -1    4.98    0.12
   3  -2   1    4.85    0.13
   3   3   1   30.90    0.66
  -3  -3   1   30.13    0.70
   3  -3  -1   31.07    0.66
   3  -3  -1   30.15    0.68
  -3  -3   1   31.19    0.70
  -3   3  -1   30.25    0.68
  -3   3   1   29.61    0.65
   3  -3   1   30.19    0.68
   3  -3   1   29.82    0.68
   3   3  -1   30.03    0.67
  -3   3   1   29.73    0.70
  -3  -3  -1   29.78    0.70
  -3  -3  -1   31.66    0.72
  -3   4  -1    2.62    0.14
   3  -4  -1    2.45    0.14
  -3  -4   1    2.35    0.15
   3   4   1    2.43    0.12
   3  -4   1    2.43    0.14
   3   4  -1    2.55    0.14
   3  -4   1    2.40    0.13
  -3  -4  -1    2.52    0.15
  -3   4   1    2.46    0.15
   3  -5  -1   14.47    0.42
  -3  -5   1   14.10    0.44
   3   5   1   14.33    0.45
   3   5  -1   14.11    0.40
  -3   5   1   14.43    0.43
   4   0   1    0.18    0.04
   4   0  -1    0.13    0.02
  -4   0  -1    0.09    0.04
   4   0  -1    0.13    0.03
  -4   0   1    0.20    0.03
   4   0   1    0.11    0.03
  -4   0   1    0.25    0.05
  -4  -1   1  169.35    3.39
   4   1   1  175.06    3.38
   4  -1  -1  172.31    3.44
   4  -1  -1  166.40    3.37
  -4   1  -1  173.72    3.48
  -4  -1   1  170.61    3.47
  -4  -1  -1  174.93    3.42
   4  -1   1  174.01    3.41
   4   1  -1  170.99    3.31
  -4   1   1  167.84    3.46
   4  -1   1  174.65    3.43
  -4  -1  -1  182.62    3.55
   4   1  -1  168.47    3.42
  -4  -2   1    0.12    0.04
   4  -2  -1    0.17    0.04
  -4   2  -1    0.09    0.04
   4  -2  -1    0.27    0.05
  -4  -2   1    0.14    0.05
   4   2   1    0.11    0.04
  -4  -2  -1    0.06    0.04
  -4   2   1    0.11    0.04
   4  -2   1    0.19    0.05
   4  -2   1    0.06    0.04
  -4  -2  -1    0.12    0.05
  -4   2   1    0.18    0.02
   4   2  -1    0.11    0.04
   4   3   1   99.30    2.01
  -4  -3   1   99.65    2.05
   4  -3  -1   99.03    2.03
  -4  -3   1  102.39    2.06
   4  -3  -1  103.92    2.02
  -4   3  -1  100.83    2.03
  -4  -3  -1  100.67    2.06
   4  -3   1   98.74    2.04
   4  -3   1   99.96    2.03
  -4  -3  -1  102.24    2.08
  -4   3   1   98.32    2.05
   4   3  -1  102.16    2.03
   4  -4  -1    0.13    0.06
  -4   4  -1    0.14    0.05
  -4  -4   1    0.12    0.06
   4   4   1    0.27    0.06
   4  -4   1    0.07    0.05
  -4  -4  -1    0.41    0.08
   4   4  -1    0.21    0.06
  -4   4   1    0.11    0.06
   4  -4   1    0.15    0.06
   4   5   1   50.98    1.17
  -4  -5   1   51.04    1.16
   4  -5  -1   49.68    1.12
  -4   5   1   50.49    1.14
   4   5  -1   50.18    1.11
   5   0   1   10.29    0.26
   5   0  -1    9.36    0.26
   5   0   1    9.96    0.23
   5   0  -1    9.66    0.22
  -5   0   1    9.76    0.23
  -5   0   1    9.62    0.28
  -5   0  -1    9.32    0.28
   5   1   1   72.97    1.45
   5  -1  -1   72.77    1.44
   5  -1  -1   70.90    1.47
  -5   1  -1   73.01    1.47
  -5  -1   1   71.94    1.51
  -5  -1   1   72.54    1.45
  -5  -1  -1   68.45    1.39
  -5  -1  -1   72.91    1.45
   5   1  -1   73.70    1.39
   5  -1   1   72.51    1.44
  -5   1   1   71.96    1.47
  -5  -1  -1   70.89    1.51
   5   1  -1   70.99    1.45
   5  -1   1   70.74    1.47
  -5   2  -1    6.23    0.21
   5   2   1    6.30    0.19
  -5  -2   1    6.48    0.21
  -5  -2   1    6.65    0.25
   5  -2  -1    6.65    0.20
   5  -2  -1    6.64    0.22
  -5  -2  -1    6.49    0.21
   5  -2   1    6.24    0.20
   5   2  -1    6.71    0.21
  -5  -2  -1    6.43    0.25
  -5   2   1    6.52    0.22
   5  -2   1    6.83    0.23
   5  -3  -1   44.79    0.93
   5   3   1   42.90    0.91
  -5  -3   1   41.79    0.95
   5  -3  -1   42.26    0.93
  -5   3  -1   43.21    0.94
  -5  -3   1   42.86    0.97
  -5   3   1   42.72    0.95
   5   3  -1   42.07    0.93
   5  -3   1   42.17    0.93
   5  -3   1   43.21    0.95
  -5  -3  -1   42.50    0.95
  -5  -3  -1   43.20    0.99
   5  -4  -1    2.71    0.15
  -5  -4   1    2.85    0.17
  -5  -4   1    2.94    0.18
   5   4   1    2.90    0.15
  -5   4  -1    2.84    0.15
   5   4  -1    2.87    0.15
   5  -4   1    2.76    0.15
   5  -4   1    2.92    0.16
  -5  -4  -1    2.80    0.17
  -5   4   1    2.86    0.16
  -5  -4  -1    2.80    0.18
   5   5   1   20.16    0.58
   5  -5  -1   19.94    0.54
  -5  -5   1   19.99    0.57
   5   5  -1   19.88    0.52
  -5   5   1   20.71    0.56
  -6   0  -1    0.20    0.06
   6   0   1    0.22    0.04
  -6   0   1    0.18    0.03
   6   0   1    0.27    0.04
   6   0  -1    0.13    0.04
  -6   0   1    0.14    0.05
   6   0  -1    0.17    0.03
   6   1   1  198.19    3.87
   6  -1  -1  197.34    3.89
  -6   1  -1  202.32    4.02
   6  -1  -1  197.50    3.85
  -6  -1   1  196.27    3.95
  -6  -1   1  200.67    3.87
   6  -1   1  202.10    3.86
  -6  -1  -1  199.61    3.87
  -6   1   1  198.47    3.97
   6   1  -1  193.51    3.88
  -6  -1  -1  192.75    3.94
   6  -1   1  197.00    3.90
  -6  -2   1    0.22    0.07
   6   2   1    0.09    0.05
   6  -2   1    0.30    0.07
  -6   2   1    0.11    0.05
  -6  -2  -1    0.11    0.05
   6   2  -1    0.46    0.07
  -6  -2  -1    0.34    0.09
   6   3   1  124.26    2.48
   6  -3  -1  122.93    2.50
  -6   3  -1  124.63    2.51
   6  -3  -1  125.66    2.52
  -6  -3   1  122.44    2.57
  -6  -3   1  122.06    2.52
   6   3  -1  125.66    2.50
  -6  -3  -1  124.98    2.52
  -6  -3  -1  124.38    2.58
  -6   3   1  124.81    2.53
   6  -3   1  124.62    2.50
   6  -3   1  125.40    2.53
   6  -4  -1    0.03    0.06
  -6  -4   1    0.11    0.07
  -6   4  -1    0.08    0.05
   6   4   1    0.03    0.05
  -6  -4   1    0.07    0.06
   6  -4   1    0.07    0.06
  -6  -4  -1    0.09    0.06
   6   4  -1    0.16    0.07
  -6  -4  -1    0.13    0.08
   6  -4   1    0.05    0.06
  -6   4   1    0.07    0.06
   6  -5  -1   64.63    1.41
   6   5   1   65.15    1.46
  -6  -5   1   65.01    1.45
   6   5  -1   63.70    1.40
  -6   5   1   64.51    1.43
   7   0  -1    1.75    0.08
   7   0  -1    1.64    0.11
  -7   0  -1    1.61    0.12
  -7   0   1    1.75    0.12
   7   0   1    1.60    0.10
  -7   0   1    1.79    0.08
  -7   0  -1    1.83    0.09
   7   0   1    1.83    0.09
   7   1   1   21.57    0.51
   7  -1  -1   21.19    0.48
  -7  -1   1   20.91    0.57
   7  -1  -1   21.24    0.52
  -7   1  -1   21.53    0.54
  -7  -1   1   21.78    0.49
   7  -1   1   20.93    0.48
  -7   1   1   21.04    0.54
  -7  -1  -1   22.29    0.49
   7  -1   1   20.72    0.52
  -7  -1  -1   19.85    0.56
   7   1  -1   21.47    0.51
   7   2   1    1.17    0.09
  -7  -2   1    1.31    0.14
  -7   2  -1    1.29    0.11
   7  -2  -1    1.01    0.09
   7  -2  -1    1.12    0.11
  -7  -2   1    1.23    0.10
  -7   2   1    1.18    0.11
   7  -2   1    1.31    0.12
  -7  -2  -1    1.13    0.10
   7  -2   1    1.21    0.10
   7   2  -1    1.08    0.10
  -7  -2  -1    1.30    0.14
  -7   3  -1   14.87    0.41
   7  -3  -1   14.78    0.40
   7  -3  -1   15.01    0.43
  -7  -3   1   15.18    0.42
   7   3   1   15.01    0.39
  -7  -3   1   14.74    0.48
   7  -3   1   14.64    0.44
   7   3  -1   14.24    0.40
  -7  -3  -1   14.71    0.42
   7  -3   1   14.35    0.40
  -7   3   1   14.31    0.42
  -7  -3  -1   15.39    0.49
  -7  -4   1    0.61    0.10
   7   4   1    0.71    0.09
  -7   4  -1    0.73    0.10
  -7  -4   1    0.65    0.12
   7  -4  -1    0.62    0.09
   7  -4   1    0.71    0.11
  -7  -4  -1    0.72    0.14
   7   4  -1    0.58    0.09
  -7   4   1    0.58    0.10
   7  -4   1    0.54    0.09
  -7   5   1    8.53    0.32
   8   0  -1    0.32    0.07
  -8   0   1    0.28    0.07
   8   0   1    0.25    0.06
   8   0  -1    0.34    0.05
  -8   0  -1    0.59    0.09
  -8   1  -1  138.21    2.77
  -8  -1   1  133.76    2.79
  -8  -1   1  136.37    2.69
   8  -1  -1  135.48    2.68
   8   1   1  135.79    2.71
   8  -1  -1  134.48    2.73
  -8   1   1  136.74    2.76
  -8  -1  -1  133.60    2.79
   8  -1   1  138.39    2.68
   8  -1   1  133.27    2.73
   8   1  -1  134.97    2.71
   8  -2  -1    0.26    0.08
  -8  -2   1    0.35    0.10
  -8   2  -1    0.33    0.07
   8  -2  -1    0.33    0.07
  -8  -2   1    0.23    0.06
   8   2   1    0.32    0.07
  -8  -2  -1    0.25    0.09
   8  -2   1    0.33    0.08
  -8   2   1    0.27    0.07
  -8  -2  -1    0.31    0.07
   8  -2   1    0.24    0.06
  -8  -3   1   88.64    1.85
   8  -3  -1   85.95    1.89
   8   3   1   91.24    1.82
  -8   3  -1   90.89    1.85
   8  -3  -1   88.28    1.83
  -8  -3   1   86.22    1.97
   8  -3   1   86.93    1.90
  -8   3   1   88.12    1.86
   8  -3   1   88.12    1.82
   8   3  -1   88.78    1.83
  -8  -3  -1   87.27    1.97
  -8  -3  -1   88.41    1.84
   8   4   1    0.29    0.07
  -8  -4   1    0.24    0.10
  -8   4  -1    0.21    0.08
   8  -4  -1    0.10    0.07
  -8  -4   1    0.17    0.07
   8   4  -1    0.20    0.07
   8  -4   1    0.16    0.07
  -8   4   1    0.19    0.08
  -8  -4  -1    0.17    0.10
   8  -4   1    0.27    0.09
   9   0  -1    4.17    0.19
   9   0   1    4.41    0.19
  -9   0  -1    4.46    0.22
  -9   0   1    4.16    0.21
   9  -1  -1   63.61    1.35
   9  -1  -1   63.50    1.30
   9   1   1   63.19    1.34
  -9   1  -1   61.76    1.39
  -9  -1   1   62.29    1.41
  -9  -1   1   62.96    1.31
   9  -1   1   63.93    1.30
   9  -1   1   63.08    1.35
  -9   1   1   63.12    1.39
  -9  -1  -1   62.46    1.41
   9   1  -1   64.49    1.35
   9   2   1    3.34    0.17
  -9  -2   1    3.66    0.24
   9  -2  -1    3.45    0.20
  -9   2  -1    3.63    0.19
   9  -2  -1    3.38    0.16
  -9  -2   1    3.56    0.17
   9  -2   1    3.78    0.20
  -9   2   1    3.37    0.19
   9  -2   1    3.51    0.16
   9   2  -1    3.30    0.17
  -9  -2  -1    3.42    0.23
  -9  -3   1   37.85    1.07
   9  -3  -1   40.36    0.91
  -9  -3   1   40.60    0.93
   9   3   1   42.08    0.92
  -9   3  -1   41.74    0.95
   9  -3  -1   38.06    1.00
   9  -3   1   40.95    0.91
  -9   3   1   39.92    0.95
  -9  -3  -1   39.77    1.06
   9  -3   1   40.61    0.99
   9   3  -1   40.45    0.92
   9   4   1    1.91    0.17
  -9  -4   1    1.79    0.16
   9  -4  -1    1.73    0.15
   9   4   1    1.89    0.14
  -9  -4   1    1.60    0.22
  -9   4  -1    1.80    0.15
  -9  -4  -1    1.80    0.21
   9   4  -1    1.89    0.15
  -9   4   1    1.82    0.16
   9  -4   1    1.62    0.19
  10   0   1    1.43    0.12
 -10   0   1    1.42    0.14
  10   0  -1    1.53    0.13
 -10   0  -1    1.70    0.15
 -10   1  -1   73.14    1.56
 -10  -1   1   69.97    1.57
  10  -1  -1   69.89    1.50
  10   1   1   71.03    1.50
  10   1  -1   70.83    1.50
 -10   1   1   70.47    1.57
  10  -1   1   69.70    1.50
 -10  -1  -1   69.05    1.57
  10   2   1    1.15    0.12
  10  -2  -1    1.06    0.11
 -10   2  -1    1.13    0.12
 -10  -2   1    1.06    0.11
  10   2   1    0.98    0.11
  10  -2  -1    1.27    0.14
 -10  -2   1    1.12    0.17
 -10   2   1    1.08    0.13
 -10  -2  -1    1.24    0.16
  10  -2   1    1.03    0.13
  10   2  -1    1.17    0.12
  10  -2   1    0.88    0.10
 -10   3  -1   51.02    1.14
  10  -3  -1   50.99    1.10
  10  -3  -1   45.62    1.19
 -10  -3   1   52.25    1.12
 -10  -3   1   45.89    1.29
  10   3   1   51.90    1.11
  10   3   1   50.81    1.13
 -10  -3  -1   49.87    1.28
  10  -3   1   49.00    1.18
 -10   3   1   49.80    1.15
  10   3  -1   48.94    1.11
  10   4   1    0.74    0.11
 -10   4  -1    0.61    0.12
  10  -4   1    0.56    0.14
  11   0   1    0.21    0.07
 -11   0   1    0.29    0.09
  11   0  -1    0.21    0.08
 -11   0  -1    0.35    0.09
 -11  -1   1    3.14    0.21
  11  -1  -1    2.88    0.18
 -11   1  -1    3.08    0.20
  11   1   1    2.92    0.17
  11  -1   1    2.95    0.17
 -11   1   1    3.01    0.20
 -11  -1  -1    2.84    0.20
  11   1  -1    2.85    0.18
  11  -2  -1    0.29    0.09
 -11  -2   1    0.17    0.10
 -11   2  -1    0.30    0.09
  11   2   1    0.14    0.07
 -11   2  -1    0.25    0.07
  11  -2  -1    0.18    0.07
  11   2  -1    0.21    0.08
 -11  -2  -1    0.13    0.09
 -11   2   1    0.25    0.09
  11  -2   1    0.25    0.08
 -11   3  -1    2.43    0.17
  11   3   1    2.37    0.18
 -11   3  -1    2.42    0.17
 -11  -3   1    2.41    0.26
  11   3   1    2.43    0.17
  11  -3  -1    2.08    0.21
 -11  -3   1    2.44    0.16
  11  -3  -1    2.51    0.16
  11  -3   1    2.32    0.20
 -11   3   1    2.33    0.18
 -11  -3  -1    2.35    0.24
  11   3  -1    2.54    0.17
  12   0   1    2.76    0.18
  12   0  -1    2.61    0.18
 -12   0   1    2.62    0.20
 -12   0  -1    2.74    0.20
  12  -1  -1   85.45    1.82
  12   1   1   86.20    1.82
 -12  -1   1   84.99    1.90
 -12   1  -1   83.99    1.87
  12  -1   1   85.26    1.82
 -12  -1  -1   85.46    1.90
  12   1  -1   86.86    1.82
 -12   1   1   87.99    1.89
 -12  -2   1    2.30    0.22
 -12   2  -1    2.19    0.18
  12  -2  -1    2.42    0.18
  12   2   1    2.22    0.17
  12  -2   1    2.38    0.18
 -12   2   1    2.30    0.19
  12   2  -1    2.06    0.16
 -12  -2  -1    2.29    0.21
  13   0  -1    3.75    0.21
  13   0   1    3.78    0.21
 -13   0  -1    3.95    0.24
 -13   0   1    3.72    0.24
  13  -1  -1    3.89    0.22
 -13   1  -1    3.79    0.24
 -13  -1   1    4.35    0.26
  13   1   1    3.85    0.22
 -13   1   1    3.75    0.27
  13  -1   1    3.92    0.23
   0   0   2   23.74    0.50
   0   0   2   24.79    0.48
   0   0  -2   24.50    0.49
   0   1  -2    0.05    0.02
   0   1   2    0.03    0.02
   0  -1   2    0.19    0.03
   0  -2   2   21.89    0.47
   0   2  -2   20.94    0.47
   0  -2   2   20.31    0.47
   0  -2  -2   21.38    0.46
   0  -2  -2   21.55    0.44
   0   2   2   21.02    0.48
   0   3   2    0.05    0.04
   0  -3   2    0.02    0.04
   0  -3  -2    0.15    0.04
   0  -3   2    0.07    0.04
   0   3  -2    0.26    0.05
   0   4   2   14.27    0.41
   0  -4  -2   15.18    0.38
   0  -4   2   14.91    0.40
   0  -4   2   14.33    0.38
   0   4  -2   14.48    0.39
   0   5   2    0.05    0.06
   0   5  -2   -0.02    0.06
  -1   0   2   88.68    1.80
  -1   0  -2   95.49    1.81
   1   0   2   88.26    1.79
  -1   0  -2   90.30    1.81
   1   0   2   87.51    1.77
   1   0  -2   89.86    1.75
   1   0  -2   90.74    1.76
  -1   0   2   89.89    1.80
  -1  -1   2   50.00    0.93
   1   1   2   47.86    0.92
   1  -1  -2   47.83    0.92
   1   1   2   45.48    0.96
  -1  -1   2   46.01    0.95
  -1   1  -2   48.94    0.93
  -1  -1   2   47.53    0.95
  -1   1  -2   45.67    0.96
   1  -1  -2   47.71    0.94
  -1  -1  -2   45.96    0.96
  -1   1   2   46.87    0.95
   1   1  -2   47.71    0.94
   1  -1   2   47.21    0.95
  -1  -1  -2   47.40    0.93
   1  -1   2   46.84    0.94
  -1   2  -2   66.89    1.31
   1  -2  -2   66.03    1.29
  -1  -2   2   65.76    1.32
   1  -2  -2   66.53    1.32
  -1  -2   2   65.19    1.33
   1   2   2   63.77    1.34
   1   2   2   65.49    1.30
   1  -2   2   66.87    1.33
   1   2  -2   63.98    1.31
  -1   2   2   65.73    1.33
  -1  -2  -2   66.90    1.30
   1  -2   2   66.52    1.32
   1   3   2   17.79    0.46
  -1  -3   2   18.92    0.44
  -1  -3   2   18.77    0.46
   1   3   2   18.45    0.41
   1  -3  -2   18.40    0.41
   1  -3  -2   18.24    0.43
   1   3  -2   18.29    0.43
   1  -3   2   18.71    0.44
  -1   3   2   18.15    0.45
   1  -3   2   18.58    0.44
  -1  -3  -2   18.49    0.42
   1  -4  -2   34.68    0.78
  -1  -4   2   34.87    0.80
   1   4   2   34.53    0.81
  -1   4  -2   35.31    0.79
   1   4  -2   34.95    0.78
  -1   4   2   34.41    0.79
   1  -4   2   34.36    0.78
   1  -4   2   34.75    0.79
  -1  -5   2    5.77    0.24
   1   5   2    5.39    0.24
   1  -5   2    5.66    0.22
   1   5  -2    5.67    0.23
  -2   0   2  247.24    4.90
   2   0   2  248.27    4.93
   2   0   2  249.90    4.96
   2   0  -2  251.90    4.87
   2   0  -2  249.91    4.89
  -2   0  -2  253.53    5.00
  -2   0   2  242.68    4.95
  -2   0  -2  249.29    4.93
   2  -1  -2   16.61    0.37
   2   1   2   17.47    0.36
   2   1   2   16.76    0.39
  -2  -1   2   16.82    0.38
  -2   1  -2   17.44    0.36
  -2   1  -2   16.41    0.38
   2  -1  -2   17.45    0.36
  -2  -1   2   17.37    0.38
   2   1  -2   17.17    0.35
  -2  -1  -2   16.67    0.40
  -2   1   2   17.16    0.36
   2  -1   2   16.90    0.38
   2   1  -2   16.67    0.37
  -2   1   2   16.53    0.38
   2  -1   2   17.22    0.35
  -2  -1  -2   17.19    0.35
  -2  -2   2  177.19    3.48
   2   2   2  168.17    3.38
  -2   2  -2  166.00    3.45
  -2  -2   2  174.82    3.47
   2  -2  -2  177.51    3.38
   2  -2   2  177.45    3.37
   2   2  -2  173.92    3.37
   2  -2   2  170.41    3.39
  -2  -2  -2  172.44    3.35
   2  -2   2  173.09    3.41
   2   2  -2  169.04    3.37
  -2  -2  -2  170.11    3.40
  -2   2   2  168.09    3.43
   2  -3  -2    7.11    0.19
  -2  -3   2    6.63    0.23
   2  -3  -2    6.74    0.21
   2   3   2    6.92    0.19
  -2   3  -2    6.78    0.21
  -2   3   2    6.97    0.21
   2   3  -2    6.89    0.20
   2  -3   2    6.64    0.22
   2  -3   2    6.78    0.22
  -2  -3  -2    6.92    0.19
   2   3  -2    6.68    0.22
   2  -3   2    6.90    0.21
  -2   4  -2   73.22    1.56
   2  -4  -2   75.20    1.55
   2   4   2   75.43    1.59
  -2  -4   2   73.56    1.57
   2   4  -2   74.64    1.55
  -2   4   2   73.15    1.58
   2  -4   2   75.54    1.55
  -2   5  -2    2.10    0.15
  -2  -5   2    2.25    0.16
   2   5   2    2.21    0.17
   2  -5  -2    2.31    0.15
  -2   5   2    2.16    0.16
   2  -5   2    2.23    0.14
   2   5  -2    2.09    0.15
   3   0   2  495.72    9.98
  -3   0  -2  498.74   10.15
  -3   0   2  520.06    9.95
  -3   0   2  504.63   10.08
   3   0  -2  526.57    9.92
   3   0  -2  503.22   10.00
   3   0   2  520.03    9.99
  -3   0  -2  512.52    9.99
   3   1   2    6.81    0.20
   3   1   2    7.13    0.18
  -3  -1   2    6.77    0.19
  -3  -1   2    6.96    0.21
  -3   1  -2    7.21    0.19
   3  -1  -2    6.70    0.18
   3  -1  -2    6.86    0.19
  -3   1   2    7.02    0.16
  -3  -1  -2    7.20    0.16
  -3   1   2    6.86    0.20
   3   1  -2    6.75    0.19
   3   1  -2    7.24    0.16
   3  -1   2    6.84    0.16
   3  -1   2    6.97    0.19
  -3  -1  -2    6.75    0.21
  -3  -2   2  361.08    7.06
  -3   2  -2  346.13    7.03
   3  -2  -2  366.00    6.91
   3   2   2  345.49    6.89
   3  -2  -2  345.26    6.90
  -3  -2   2  355.39    6.99
   3   2  -2  333.08    6.82
   3  -2   2  344.69    6.96
  -3   2   2  345.99    7.14
  -3  -2  -2  355.05    7.10
  -3   2   2  350.43    6.94
   3   2  -2  352.36    6.96
   3  -2   2  349.78    7.04
  -3  -2  -2  348.25    6.79
   3  -2   2  357.85    6.84
   3  -3  -2    2.88    0.11
   3  -3  -2    2.89    0.13
  -3  -3   2    2.71    0.14
  -3   3  -2    2.84    0.12
  -3  -3   2    2.76    0.13
   3   3   2    2.81    0.11
  -3   3   2    3.02    0.15
   3  -3   2    2.70    0.13
  -3   3   2    2.80    0.12
   3  -3   2    3.00    0.14
  -3  -3  -2    2.84    0.16
   3   3  -2    2.81    0.13
   3  -4  -2  154.80    3.12
  -3  -4   2  157.63    3.15
   3   4   2  160.98    3.17
   3   4  -2  154.60    3.12
   3  -4   2  156.48    3.13
  -3   4   2  154.16    3.15
  -3  -5   2    1.04    0.13
   3  -5  -2    1.02    0.12
   3   5   2    0.96    0.13
  -3   5  -2    1.03    0.12
   3   5  -2    0.91    0.11
  -3   5   2    1.03    0.12
   3  -5   2    1.03    0.11
  -4   0   2  207.95    4.17
   4   0   2  220.79    4.17
  -4   0  -2  209.54    4.35
   4   0  -2  215.13    4.17
   4   0  -2  219.64    4.17
   4   0   2  206.45    4.22
  -4   0   2  208.21    4.34
  -4   0  -2  212.78    4.17
   4   1   2   88.51    1.77
  -4   1  -2   92.63    1.79
   4  -1  -2   87.99    1.77
   4  -1  -2   87.31    1.79
  -4  -1   2   89.34    1.83
  -4  -1   2   87.73    1.78
   4   1   2   89.69    1.79
   4   1  -2   87.92    1.78
  -4  -1  -2   88.23    1.83
  -4   1   2   93.37    1.74
   4  -1   2   89.82    1.74
  -4   1   2   88.42    1.80
   4   1  -2   93.59    1.73
  -4  -1  -2   88.94    1.74
   4  -1   2   90.05    1.80
  -4  -2   2  153.99    3.10
   4  -2  -2  159.12    3.08
  -4  -2   2  156.26    3.12
   4  -2  -2  154.86    3.09
   4   2   2  155.40    3.07
  -4   2  -2  156.00    3.09
  -4   2   2  153.28    3.18
   4  -2   2  159.78    3.11
  -4  -2  -2  155.19    3.11
  -4   2   2  160.23    3.06
   4   2  -2  157.60    3.10
   4  -2   2  157.26    3.09
   4   2  -2  164.74    3.03
  -4  -2  -2  157.60    3.15
   4   3   2   44.76    0.94
  -4  -3   2   45.97    0.99
   4  -3  -2   46.84    0.95
   4  -3  -2   43.93    0.97
  -4   3  -2   44.41    0.96
  -4  -3   2   43.87    0.99
   4  -3   2   44.88    0.97
   4  -3   2   44.74    0.98
  -4  -3  -2   45.94    1.03
   4   3  -2   45.92    0.98
  -4   3   2   45.10    1.00
   4  -4  -2   78.08    1.65
  -4  -4   2   79.94    1.68
   4   4   2   78.96    1.69
  -4   4   2   81.18    1.69
   4  -4   2   80.38    1.66
   4   4  -2   77.06    1.65
   4   5   2   16.51    0.51
   4  -5  -2   16.04    0.46
  -4   5  -2   16.53    0.48
  -4  -5   2   16.90    0.50
   4  -5   2   16.82    0.46
  -4   5   2   16.69    0.49
   4   5  -2   17.14    0.47
  -5   0  -2   13.58    0.32
   5   0  -2   13.75    0.30
  -5   0  -2   13.44    0.36
   5   0  -2   14.07    0.34
  -5   0   2   13.58    0.36
   5   0   2   13.91    0.32
   5   0   2   13.29    0.34
  -5   0   2   13.39    0.31
   5   1   2   17.65    0.41
  -5   1  -2   17.30    0.42
   5  -1  -2   17.13    0.42
  -5  -1   2   17.33    0.46
   5   1   2   17.36    0.41
  -5  -1   2   16.96    0.40
   5  -1  -2   17.20    0.39
  -5  -1  -2   17.37    0.46
   5  -1   2   17.41    0.42
  -5   1   2   17.64    0.35
  -5  -1  -2   16.36    0.37
   5   1  -2   16.77    0.41
   5   1  -2   17.74    0.35
  -5   1   2   16.93    0.43
  -5   2  -2   12.59    0.33
  -5  -2   2   12.95    0.37
  -5  -2   2   12.10    0.34
   5   2   2   12.95    0.32
   5  -2  -2   12.71    0.33
   5  -2  -2   12.97    0.34
   5   2  -2   12.75    0.33
   5  -2   2   12.54    0.35
   5  -2   2   12.71    0.33
  -5   2   2   12.07    0.34
  -5  -2  -2   12.73    0.38
  -5   3  -2    9.25    0.28
  -5  -3   2    9.31    0.30
   5  -3  -2    9.45    0.27
   5  -3  -2    8.98    0.28
  -5  -3   2    8.78    0.29
   5   3   2    9.27    0.26
  -5  -3  -2    8.72    0.32
  -5   3   2    9.30    0.30
   5  -3   2    9.57    0.30
   5   3  -2    8.96    0.28
   5  -3   2    9.22    0.28
   5   4   2   10.04    0.35
   5  -4  -2    9.98    0.32
  -5  -4   2    9.97    0.34
   5   4  -2   10.14    0.31
  -5  -4  -2    9.89    0.36
   5  -4   2   10.25    0.33
  -5   4   2   10.21    0.34
  -5   5  -2    3.67    0.20
   5  -5  -2    3.36    0.19
   5   5   2    3.60    0.22
  -5  -5   2    3.26    0.20
   5  -5   2    3.55    0.19
  -5   5   2    3.59    0.20
   5   5  -2    3.43    0.18
   6   0   2   53.32    1.04
   6   0   2   50.35    1.07
  -6   0   2   50.04    1.03
  -6   0  -2   50.08    1.10
  -6   0   2   49.94    1.10
   6   0  -2   50.69    1.02
   6   0  -2   51.37    1.07
  -6   0  -2   51.36    1.04
  -6  -1   2   14.58    0.43
  -6  -1   2   13.98    0.35
   6  -1  -2   15.02    0.38
   6   1   2   14.66    0.37
   6   1   2   14.26    0.36
  -6   1  -2   14.36    0.39
   6  -1  -2   14.12    0.35
   6  -1   2   14.84    0.39
   6   1  -2   14.49    0.37
  -6  -1  -2   14.53    0.42
  -6   1   2   14.90    0.39
  -6   2  -2   42.15    0.92
  -6  -2   2   42.82    0.99
  -6  -2   2   42.09    0.92
   6  -2  -2   41.77    0.93
   6  -2  -2   41.19    0.90
   6   2   2   41.41    0.89
   6  -2   2   41.67    0.90
   6  -2   2   42.95    0.94
  -6  -2  -2   41.52    0.98
  -6   2   2   41.42    0.93
   6   2  -2   42.54    0.91
   6   3   2    7.78    0.24
  -6  -3   2    7.50    0.27
   6  -3  -2    7.81    0.25
   6  -3  -2    7.58    0.25
  -6  -3   2    7.91    0.29
  -6   3  -2    7.72    0.25
   6   3  -2    7.44    0.25
   6  -3   2    7.48    0.25
  -6   3   2    7.92    0.27
  -6  -3  -2    7.60    0.31
   6  -3   2    7.83    0.28
   6   4   2   25.80    0.67
  -6  -4   2   25.28    0.66
   6  -4  -2   26.28    0.64
   6   4  -2   26.19    0.64
   6  -4   2   25.88    0.66
  -6  -4  -2   25.66    0.71
  -6   4   2   26.84    0.67
   6  -5  -2    3.05    0.18
  -6   5  -2    3.52    0.20
  -6  -5   2    2.83    0.20
   6   5   2    3.12    0.21
   6  -5   2    2.84    0.20
   6   5  -2    3.22    0.18
  -6   5   2    3.08    0.19
   7   0   2  204.56    4.04
  -7   0  -2  215.06    4.00
  -7   0   2  210.58    3.99
   7   0   2  208.93    4.00
  -7   0  -2  198.68    4.08
  -7   0   2  195.68    4.09
   7   0  -2  209.10    3.99
   7   0  -2  202.13    4.04
  -7   1  -2   37.21    0.86
   7   1   2   37.38    0.82
  -7  -1   2   38.31    0.81
  -7   1  -2   36.76    0.81
  -7  -1   2   37.54    0.90
   7  -1  -2   36.74    0.79
   7   1   2   38.13    0.82
   7  -1  -2   38.07    0.84
  -7   1   2   37.85    0.85
   7   1  -2   36.86    0.82
  -7  -1  -2   36.99    0.88
   7  -1   2   36.89    0.84
  -7   2  -2  155.44    3.12
   7   2   2  158.49    3.09
  -7  -2   2  158.55    3.11
   7   2   2  156.96    3.12
   7  -2  -2  157.73    3.09
   7  -2  -2  147.91    3.14
  -7  -2   2  151.64    3.22
  -7   2   2  158.31    3.14
   7   2  -2  159.65    3.11
  -7  -2  -2  155.28    3.20
   7  -2   2  155.39    3.14
   7  -2   2  159.46    3.10
   7   3   2   20.20    0.54
   7  -3  -2   20.83    0.54
  -7   3  -2   20.59    0.53
  -7  -3   2   20.79    0.54
   7   3   2   20.77    0.50
   7  -3  -2   20.32    0.52
  -7  -3   2   20.36    0.59
   7   3  -2   20.96    0.52
  -7  -3  -2   20.18    0.60
   7  -3   2   20.77    0.56
   7  -3   2   20.47    0.52
  -7   3   2   20.96    0.55
  -7  -4   2   85.08    1.84
  -7   4  -2   87.35    1.84
   7   4   2   85.07    1.85
   7  -4  -2   86.48    1.82
  -7  -4  -2   86.50    1.93
   7  -4   2   84.83    1.86
  -7   4   2   87.68    1.85
   7   4  -2   90.08    1.82
   7   5  -2    8.41    0.31
   8   0  -2  208.18    4.18
  -8   0   2  212.46    4.24
  -8   0  -2  207.47    4.23
   8   0   2  212.98    4.18
   8   0  -2  220.49    4.12
   8  -1  -2    0.35    0.06
  -8  -1   2    0.39    0.06
  -8   1  -2    0.53    0.07
  -8  -1   2    0.47    0.10
  -8   1  -2    0.46    0.09
   8   1   2    0.40    0.07
   8  -1  -2    0.46    0.08
   8   1   2    0.42    0.07
   8   1  -2    0.32    0.07
  -8   1   2    0.46    0.08
   8  -1   2    0.51    0.08
  -8  -1  -2    0.35    0.08
   8  -2  -2  167.68    3.31
   8   2   2  171.61    3.32
   8   2   2  168.17    3.34
   8  -2  -2  164.94    3.38
  -8   2  -2  167.51    3.35
  -8  -2   2  163.33    3.47
  -8  -2   2  170.96    3.33
   8   2  -2  166.34    3.33
  -8   2   2  168.40    3.36
  -8  -2  -2  161.92    3.43
   8  -2   2  167.38    3.37
  -8  -3   2    0.23    0.07
  -8  -3   2    0.24    0.10
   8  -3  -2    0.22    0.07
  -8   3  -2    0.33    0.08
   8  -3  -2    0.35    0.09
   8   3   2    0.22    0.07
   8   3   2    0.23    0.07
   8  -3   2    0.29    0.09
  -8   3   2    0.25    0.07
  -8  -3  -2    0.32    0.11
   8   3  -2    0.35    0.08
   8   4   2   93.27    1.98
   8  -4  -2   92.88    1.94
  -8   4  -2   94.64    1.97
  -8  -4   2   92.01    1.97
   8  -4   2   88.88    2.00
  -8   4   2   94.98    1.99
  -8  -4  -2   90.93    2.08
   8   4  -2   95.71    1.94
   9   0   2   79.78    1.60
  -9   0  -2   75.55    1.64
  -9   0   2   75.30    1.65
   9   0  -2   74.17    1.59
  -9  -1   2   14.50    0.38
  -9   1  -2   14.82    0.39
   9  -1  -2   14.54    0.41
  -9   1  -2   15.35    0.45
   9   1   2   14.02    0.40
   9  -1  -2   15.35    0.38
  -9  -1   2   15.09    0.47
   9   1  -2   15.07    0.41
  -9  -1  -2   15.31    0.47
  -9   1   2   14.63    0.44
   9  -1   2   14.71    0.41
   9   2   2   62.77    1.35
  -9   2  -2   62.79    1.34
  -9  -2   2   65.33    1.51
   9  -2  -2   65.56    1.40
  -9  -2   2   62.22    1.34
   9   2   2   64.22    1.34
   9  -2  -2   63.64    1.33
  -9   2  -2   61.48    1.39
  -9   2   2   61.47    1.38
   9   2  -2   60.89    1.34
   9  -2   2   63.32    1.38
  -9  -2  -2   62.98    1.45
  -9  -3   2    8.09    0.40
  -9   3  -2    9.20    0.32
   9   3   2    9.22    0.29
  -9  -3   2    9.04    0.31
   9   3   2    8.87    0.32
   9  -3  -2    8.84    0.29
   9  -3  -2    7.48    0.34
  -9   3  -2    8.90    0.31
   9  -3   2    8.98    0.35
   9   3  -2    8.95    0.30
  -9  -3  -2    8.74    0.39
  -9   3   2    9.15    0.33
   9   4   2   37.72    0.94
   9  -4  -2   39.36    0.91
  -9  -4   2   39.24    0.93
  -9   4  -2   38.28    0.92
   9  -4   2   36.88    0.97
  -9   4   2   39.96    0.94
   9   4  -2   39.94    0.91
  -9  -4  -2   36.96    1.05
 -10   0   2   32.16    0.82
  10   0  -2   32.66    0.77
 -10   0  -2   32.57    0.81
  10   0   2   32.05    0.76
  10  -1  -2    0.11    0.07
 -10   1  -2    0.22    0.08
  10   1   2    0.11    0.06
 -10  -1   2    0.12    0.08
 -10  -1  -2    0.19    0.08
  10   1  -2    0.10    0.07
  10  -1   2    0.10    0.06
 -10   1   2    0.17    0.07
 -10   2  -2   27.30    0.66
  10   2   2   26.96    0.67
 -10  -2   2   27.21    0.66
 -10   2  -2   26.62    0.71
 -10  -2   2   28.61    0.81
  10  -2  -2   27.61    0.65
  10   2   2   27.67    0.67
  10  -2  -2   28.83    0.72
  10  -2   2   28.32    0.70
 -10  -2  -2   26.55    0.76
  10   2  -2   27.09    0.67
 -10   2   2   26.65    0.71
 -10   3  -2    0.17    0.08
 -10   3  -2    0.05    0.06
 -10  -3   2    0.11    0.11
  10  -3  -2    0.06    0.06
  10   3   2    0.05    0.07
  10   3   2    0.13    0.07
 -10  -3   2    0.09    0.07
 -10  -3  -2    0.22    0.11
  10  -3   2    0.07    0.08
  10   3  -2    0.13    0.07
 -10   3   2    0.15    0.08
  11   0  -2   21.43    0.57
 -11   0   2   21.44    0.61
  11   0   2   21.51    0.56
 -11   0  -2   21.36    0.60
  11   1   2    3.96    0.20
 -11   1  -2    3.96    0.22
 -11  -1   2    3.71    0.23
  11  -1  -2    3.95    0.20
 -11   1   2    3.81    0.22
 -11  -1  -2    3.73    0.23
  11  -1   2    3.79    0.20
  11   1  -2    3.61    0.19
  11   2   2   18.50    0.50
 -11   2  -2   18.64    0.50
  11  -2  -2   20.10    0.56
 -11   2  -2   18.47    0.55
 -11  -2   2   20.11    0.64
  11  -2  -2   19.35    0.49
 -11   2   2   18.83    0.55
  11  -2   2   18.43    0.53
  11   2  -2   18.28    0.52
 -11  -2  -2   18.09    0.59
 -11  -3   2    2.12    0.26
  11  -3  -2    2.54    0.16
 -11   3  -2    2.66    0.17
 -11  -3   2    2.67    0.17
  11   3   2    2.64    0.18
  11   3   2    2.59    0.17
 -11   3  -2    2.60    0.18
  11   3  -2    2.51    0.17
 -11   3   2    2.45    0.19
 -11  -3  -2    2.48    0.24
  11  -3   2    2.69    0.20
 -12   0   2   20.00    0.60
  12   0   2   19.84    0.54
 -12   0  -2   19.64    0.59
  12   0  -2   20.34    0.55
  12   1   2    5.84    0.25
 -12  -1   2    5.35    0.29
 -12   1  -2    5.80    0.28
  12  -1  -2    5.85    0.25
  12   1  -2    5.94    0.26
 -12  -1  -2    5.70    0.29
 -12   1   2    5.98    0.29
  12  -1   2    6.23    0.26
 -12   2  -2   17.38    0.53
 -12  -2   2   17.95    0.60
  12   2   2   16.61    0.49
  12  -2  -2   18.11    0.53
  12  -2   2   17.74    0.52
  12   2  -2   17.74    0.50
 -12  -2  -2   17.68    0.58
  13   0   2   55.02    1.22
  13   0  -2   54.58    1.23
 -13   0  -2   53.66    1.29
 -13   0   2   53.73    1.29
 -13  -1   2    1.70    0.20
 -13   1  -2    1.41    0.16
  13  -1  -2    1.75    0.16
   0   0   3    0.02    0.01
   0   0  -3    0.04    0.02
   0   0   3    0.03    0.02
   0  -1   3   36.40    0.74
   0  -1   3   36.28    0.74
   0   1  -3   35.99    0.74
   0  -1  -3   35.40    0.72
   0   1   3   34.95    0.75
   0  -2   3    0.02    0.03
   0  -2   3    0.03    0.03
   0   2  -3    0.04    0.03
   0  -2  -3    0.02    0.03
   0   2   3    0.05    0.02
   0   2   3    0.02    0.03
   0   3  -3   19.36    0.47
   0  -3  -3   20.32    0.46
   0  -3   3   20.06    0.47
   0   3   3   19.02    0.48
   0  -3   3   19.49    0.48
   0   4   3    0.00    0.05
   0   4  -3    0.02    0.04
   0  -4  -3   -0.03    0.04
   0  -4   3   -0.01    0.05
   0  -4   3    0.02    0.05
   0   5   3    8.65    0.31
   1   0   3    1.18    0.06
  -1   0   3    1.22    0.06
  -1   0  -3    1.23    0.06
   1   0   3    1.24    0.05
   1   0  -3    1.16    0.05
   1   0  -3    1.21    0.05
  -1   0  -3    1.21    0.05
  -1  -1   3  482.33    9.32
  -1  -1   3  476.77    9.36
  -1   1  -3  475.26    9.41
  -1  -1   3  474.61    9.16
   1   1   3  479.71    9.14
   1  -1  -3  485.67    9.10
  -1   1  -3  471.67    9.17
   1   1   3  470.12    9.42
   1  -1  -3  481.19    9.32
  -1  -1  -3  484.96    9.44
   1  -1   3  477.94    9.30
  -1  -1  -3  459.42    9.27
  -1   1   3  455.68    9.37
   1  -1   3  458.94    9.31
   1   1  -3  470.78    9.30
   1   2   3    1.21    0.05
  -1   2  -3    1.13    0.05
  -1   2  -3    1.19    0.08
  -1  -2   3    1.13    0.07
  -1  -2   3    1.27    0.08
   1   2   3    1.21    0.08
   1  -2  -3    1.27    0.07
   1  -2  -3    1.13    0.05
   1   2  -3    1.27    0.07
  -1   2   3    1.18    0.08
   1  -2   3    1.13    0.08
  -1  -2  -3    1.12    0.06
   1  -2   3    1.43    0.08
  -1  -3   3  257.86    5.01
   1   3   3  255.23    5.00
  -1  -3   3  254.10    5.09
   1   3   3  266.78    4.99
  -1   3  -3  253.72    4.98
   1  -3  -3  252.54    5.00
  -1   3  -3  255.48    5.01
   1  -3   3  249.71    5.01
   1  -3   3  255.45    4.96
  -1   3   3  250.00    4.97
   1   3  -3  249.23    4.95
  -1  -3  -3  254.59    4.97
  -1  -4   3    0.15    0.06
   1   4   3    0.20    0.06
   1  -4  -3    0.21    0.06
  -1   4  -3    0.15    0.06
   1   4  -3    0.19    0.05
  -1   4   3    0.25    0.06
   1  -4   3    0.45    0.08
   1  -4   3    0.18    0.06
  -1  -5   3  112.98    2.34
   1   5   3  109.96    2.34
   1   5  -3  115.89    2.32
   1  -5   3  110.87    2.29
   2   0  -3    2.45    0.08
  -2   0   3    2.63    0.09
   2   0   3    2.40    0.10
   2   0   3    2.90    0.09
   2   0  -3    2.34    0.08
  -2   0  -3    2.53    0.10
  -2   0  -3    2.50    0.09
  -2   0   3    2.55    0.09
   2  -1  -3   26.58    0.55
   2   1   3   27.03    0.54
  -2  -1   3   26.99    0.56
  -2   1  -3   27.03    0.58
   2   1   3   25.89    0.58
  -2   1  -3   28.32    0.55
   2  -1  -3   27.50    0.56
  -2  -1   3   25.99    0.57
   2  -1   3   27.06    0.56
   2  -1   3   26.41    0.57
  -2  -1  -3   26.70    0.59
  -2  -1  -3   26.43    0.55
  -2   1   3   25.98    0.58
  -2   1   3   27.12    0.56
   2   1  -3   26.13    0.57
   2   1  -3   25.96    0.55
   2  -2  -3    1.50    0.06
   2   2   3    1.38    0.09
  -2  -2   3    1.35    0.09
  -2   2  -3    1.26    0.09
   2  -2  -3    1.36    0.08
  -2   2  -3    1.62    0.07
  -2  -2   3    1.43    0.07
   2   2   3    1.40    0.06
   2   2  -3    1.46    0.09
   2  -2   3    1.32    0.07
  -2  -2  -3    1.28    0.09
  -2  -2  -3    1.36    0.06
   2   2  -3    1.38    0.07
  -2   2   3    1.43    0.08
   2  -2   3    1.28    0.08
   2   3   3   16.10    0.43
  -2  -3   3   16.16    0.42
  -2   3  -3   16.11    0.42
  -2   3  -3   15.89    0.38
   2  -3  -3   16.45    0.40
   2   3   3   15.50    0.36
  -2   3   3   15.63    0.40
   2   3  -3   15.58    0.38
   2  -3   3   15.91    0.41
  -2  -3  -3   16.33    0.37
   2   3  -3   15.73    0.41
   2  -3   3   16.27    0.39
  -2  -4   3    0.71    0.10
  -2   4  -3    0.60    0.09
   2  -4  -3    0.66    0.09
   2   4   3    0.51    0.09
   2   4  -3    0.58    0.09
   2  -4   3    0.69    0.09
   2   5   3    7.92    0.31
   2  -5  -3    8.12    0.28
  -2   5  -3    7.85    0.29
  -2  -5   3    8.11    0.31
   2  -5   3    8.21    0.28
   2   5  -3    7.90    0.29
  -2   5   3    7.90    0.31
  -3   0  -3    3.53    0.13
  -3   0   3    3.43    0.11
  -3   0  -3    3.39    0.12
   3   0  -3    3.50    0.10
   3   0   3    3.42    0.12
  -3   0   3    3.50    0.12
   3   0  -3    3.49    0.11
   3   0   3    3.43    0.12
   3  -1  -3  115.51    2.25
   3  -1  -3  111.30    2.25
   3   1   3  114.52    2.27
  -3   1  -3  118.87    2.26
  -3  -1   3  112.19    2.29
  -3   1  -3  114.13    2.27
  -3  -1   3  112.14    2.26
   3   1   3  116.41    2.24
  -3   1   3  109.15    2.27
  -3  -1  -3  113.64    2.23
  -3   1   3  115.29    2.25
   3   1  -3  113.61    2.26
   3   1  -3  117.56    2.23
   3  -1   3  120.61    2.28
   3  -1   3  113.11    2.24
  -3  -1  -3  117.73    2.30
   3  -2  -3    2.12    0.10
   3   2   3    2.19    0.12
  -3  -2   3    2.25    0.10
  -3   2  -3    2.35    0.12
  -3  -2   3    2.23    0.11
   3   2   3    2.20    0.09
   3  -2  -3    2.33    0.09
  -3   2  -3    2.41    0.09
   3  -2   3    2.24    0.09
  -3   2   3    2.04    0.11
  -3  -2  -3    2.21    0.13
  -3   2   3    2.22    0.09
   3   2  -3    2.18    0.08
  -3  -2  -3    2.16    0.08
   3  -2   3    1.96    0.11
   3   2  -3    2.16    0.11
   3  -3  -3   72.23    1.51
   3   3   3   72.68    1.46
  -3   3  -3   73.20    1.53
  -3  -3   3   77.63    1.50
  -3   3  -3   74.58    1.48
  -3  -3   3   73.87    1.53
   3   3   3   74.04    1.55
   3   3  -3   72.44    1.52
  -3   3   3   71.35    1.49
  -3   3   3   71.89    1.54
   3  -3   3   72.47    1.52
  -3  -3  -3   73.15    1.56
   3  -4  -3    0.86    0.10
   3   4   3    0.92    0.11
  -3  -4   3    0.92    0.12
  -3   4  -3    0.96    0.11
  -3   4   3    1.02    0.11
   3  -4   3    0.90    0.10
   3   4  -3    0.85    0.10
  -3  -5   3   38.36    0.94
   3   5   3   38.75    0.94
  -3   5  -3   38.68    0.92
   3  -5  -3   39.03    0.90
   3   5  -3   40.20    0.91
   3  -5   3   39.21    0.91
  -3   5   3   39.65    0.95
  -4   0   3    0.19    0.04
   4   0  -3    0.23    0.04
  -4   0  -3    0.35    0.05
   4   0   3    0.33    0.05
  -4   0  -3    0.28    0.05
  -4   0   3    0.31    0.04
   4   0   3    0.24    0.04
   4   0  -3    0.31    0.04
   4  -1  -3   52.69    1.08
  -4  -1   3   49.92    1.12
   4   1   3   52.33    1.09
  -4   1  -3   53.89    1.09
   4  -1  -3   51.43    1.06
   4   1   3   51.72    1.06
  -4   1  -3   54.29    1.09
  -4  -1   3   50.94    1.07
  -4  -1  -3   51.66    1.12
   4  -1   3   53.69    1.05
   4   1  -3   52.36    1.03
  -4  -1  -3   52.73    1.05
   4   1  -3   52.21    1.08
  -4   1   3   51.74    1.09
   4  -1   3   52.56    1.09
  -4   1   3   53.64    1.04
   4   2   3    0.15    0.05
   4  -2  -3    0.15    0.04
  -4   2  -3    0.20    0.05
   4  -2  -3    0.25    0.04
  -4   2  -3    0.13    0.04
  -4  -2   3    0.19    0.05
  -4  -2   3    0.28    0.06
  -4   2   3    0.22    0.03
   4   2  -3    0.12    0.04
  -4   2   3    0.18    0.05
   4  -2   3    0.13    0.04
  -4  -2  -3    0.12    0.05
  -4  -3   3   31.03    0.68
   4   3   3   29.76    0.64
  -4  -3   3   29.31    0.70
   4   3   3   29.59    0.71
   4  -3  -3   29.66    0.68
  -4   3  -3   29.73    0.70
  -4   3  -3   29.97    0.67
  -4  -3  -3   29.70    0.74
   4   3  -3   30.39    0.69
   4  -3   3   29.92    0.70
  -4   3   3   29.83    0.72
  -4  -4   3    0.00    0.06
  -4   4  -3   -0.01    0.05
   4  -4  -3    0.08    0.05
   4   4   3    0.03    0.06
  -4   4   3    0.08    0.06
   4  -4   3    0.05    0.06
   4   4  -3    0.01    0.05
  -4  -5   3   14.00    0.44
  -4   5  -3   13.61    0.43
   4   5   3   14.05    0.45
   4  -5  -3   13.49    0.41
   4   5  -3   14.08    0.42
  -4   5   3   13.79    0.44
   4  -5   3   13.66    0.41
   5   0  -3   27.05    0.59
   5   0  -3   26.60    0.56
   5   0   3   27.55    0.58
   5   0   3   26.26    0.59
  -5   0   3   26.31    0.61
  -5   0   3   26.44    0.57
  -5   0  -3   27.08    0.58
  -5   0  -3   26.95    0.62
   5  -1  -3  308.44    6.15
   5  -1  -3  315.93    6.11
   5   1   3  319.43    6.18
  -5   1  -3  315.33    6.28
   5   1   3  314.76    6.09
  -5  -1   3  279.93    6.08
  -5  -1   3  308.66    6.17
  -5   1  -3  301.60    6.07
  -5   1   3  332.79    6.06
   5   1  -3  309.00    6.12
   5  -1   3  304.49    6.24
  -5  -1  -3  318.88    6.33
  -5   1   3  314.77    6.26
  -5  -1  -3  297.82    6.00
   5   1  -3  319.37    6.02
  -5  -2   3   19.50    0.50
   5   2   3   18.92    0.44
  -5   2  -3   19.46    0.48
   5  -2  -3   19.33    0.46
   5  -2  -3   19.05    0.45
  -5  -2   3   18.40    0.47
   5   2   3   19.38    0.48
  -5   2  -3   19.61    0.46
  -5  -2  -3   18.98    0.52
   5  -2   3   18.90    0.48
   5   2  -3   19.55    0.47
  -5   2   3   18.93    0.48
  -5   3  -3  184.65    3.64
  -5   3  -3  186.00    3.68
   5   3   3  186.32    3.62
  -5  -3   3  184.47    3.67
  -5  -3   3  185.17    3.68
   5  -3  -3  182.65    3.65
   5   3   3  187.66    3.70
  -5  -3  -3  184.76    3.74
   5  -3   3  181.05    3.68
   5   3  -3  187.44    3.67
  -5   3   3  184.38    3.69
  -5  -4   3    8.72    0.32
   5   4   3    8.78    0.33
   5  -4  -3    9.28    0.30
  -5   4  -3    8.66    0.31
  -5   4   3    9.04    0.32
  -5  -4  -3    9.07    0.35
   5   4  -3    9.01    0.30
   5  -4   3    9.31    0.31
  -5  -5   3   90.24    1.93
   5   5   3   90.38    1.94
   5  -5  -3   90.16    1.89
  -5   5  -3   91.20    1.92
   5  -5   3   88.00    1.90
  -5   5   3   89.57    1.92
   5   5  -3   88.86    1.88
   6   0   3    7.46    0.23
   6   0   3    7.59    0.21
  -6   0   3    7.53    0.20
  -6   0  -3    7.81    0.22
   6   0  -3    7.46    0.23
  -6   0   3    7.50    0.25
  -6   0  -3    7.29    0.25
   6   0  -3    7.72    0.20
  -6  -1   3   30.41    0.66
  -6   1  -3   31.31    0.70
   6   1   3   29.86    0.67
   6  -1  -3   29.33    0.65
  -6   1  -3   30.62    0.68
   6   1   3   30.43    0.68
   6  -1  -3   30.62    0.69
  -6  -1   3   30.72    0.75
   6   1  -3   30.54    0.67
   6   1  -3   31.36    0.62
  -6   1   3   30.74    0.70
  -6  -1  -3   28.83    0.72
   6  -1   3   28.96    0.69
  -6   1   3   30.40    0.62
   6   2   3    5.44    0.21
   6  -2  -3    5.70    0.19
   6   2   3    5.41    0.18
  -6   2  -3    5.50    0.20
  -6   2  -3    5.27    0.20
  -6  -2   3    5.48    0.20
   6  -2   3    5.80    0.22
  -6   2   3    5.43    0.21
   6   2  -3    5.55    0.20
  -6  -2  -3    5.58    0.25
  -6  -3   3   19.89    0.53
  -6  -3   3   20.05    0.54
   6   3   3   21.32    0.54
  -6   3  -3   20.28    0.50
   6  -3  -3   20.19    0.50
   6   3   3   20.02    0.48
  -6   3  -3   20.01    0.52
  -6   3   3   20.19    0.54
   6  -3   3   20.16    0.54
  -6  -3  -3   19.63    0.58
   6   3  -3   20.46    0.51
   6  -4  -3    2.37    0.15
  -6  -4   3    2.48    0.17
   6   4   3    2.48    0.17
  -6   4  -3    2.29    0.16
  -6  -4  -3    2.29    0.19
   6  -4   3    2.26    0.16
  -6   4   3    2.32    0.16
   6   4  -3    2.36    0.15
   6   5  -3   10.02    0.34
   6  -5   3    9.97    0.36
  -6   5   3   10.30    0.37
  -7   0  -3   18.00    0.47
  -7   0   3   17.86    0.48
  -7   0   3   17.38    0.40
   7   0  -3   17.38    0.44
   7   0   3   18.27    0.41
  -7   0  -3   17.75    0.42
   7   0   3   17.48    0.44
   7   0  -3   17.61    0.40
  -7   1  -3   69.01    1.46
  -7  -1   3   70.46    1.52
   7   1   3   70.58    1.43
   7  -1  -3   70.53    1.45
   7  -1  -3   67.99    1.40
  -7  -1   3   69.60    1.42
  -7   1  -3   69.29    1.43
   7   1   3   66.78    1.42
   7   1  -3   68.45    1.43
   7  -1   3   69.89    1.45
  -7  -1  -3   68.41    1.49
  -7   1   3   67.91    1.47
   7   2   3   13.25    0.35
   7   2   3   13.12    0.37
  -7   2  -3   12.61    0.36
  -7   2  -3   12.91    0.36
  -7  -2   3   12.74    0.36
  -7  -2   3   11.87    0.44
   7  -2  -3   13.03    0.34
   7  -2  -3   12.01    0.39
   7  -2   3   12.93    0.38
  -7  -2  -3   13.45    0.42
   7   2  -3   13.01    0.36
  -7   2   3   12.53    0.38
  -7   3  -3   46.97    1.04
  -7  -3   3   48.25    1.07
   7   3   3   47.81    1.07
  -7  -3   3   47.21    1.11
   7  -3  -3   47.23    1.04
  -7   3  -3   48.08    1.06
   7   3   3   47.81    1.01
  -7   3   3   47.23    1.07
   7   3  -3   46.71    1.05
   7  -3   3   46.75    1.09
  -7  -3  -3   46.42    1.13
   7  -4  -3    5.95    0.24
   7   4   3    5.82    0.27
  -7   4  -3    6.41    0.26
  -7  -4   3    6.20    0.26
  -7   4   3    6.13    0.27
   7   4  -3    6.28    0.25
   7  -4   3    5.83    0.27
  -7  -4  -3    5.87    0.31
   8   0  -3    9.26    0.29
  -8   0   3    8.98    0.32
   8   0  -3    9.12    0.24
  -8   0  -3    9.30    0.31
   8   0   3    9.12    0.28
   8  -1  -3   17.70    0.42
  -8   1  -3   17.94    0.44
   8  -1  -3   17.15    0.46
  -8  -1   3   17.77    0.52
  -8   1  -3   17.96    0.48
  -8  -1   3   17.66    0.44
   8   1   3   17.26    0.45
   8   1   3   17.70    0.44
   8  -1   3   17.31    0.46
  -8   1   3   17.51    0.48
  -8  -1  -3   17.66    0.51
   8   1  -3   17.55    0.45
  -8  -2   3    6.56    0.33
  -8  -2   3    7.14    0.25
   8   2   3    7.04    0.25
   8   2   3    6.96    0.23
  -8   2  -3    6.76    0.24
   8  -2  -3    6.78    0.28
   8  -2  -3    7.03    0.23
  -8   2  -3    6.95    0.26
  -8  -2  -3    6.79    0.30
  -8   2   3    6.83    0.26
   8  -2   3    6.76    0.26
   8   2  -3    7.01    0.24
  -8   3  -3   12.15    0.37
  -8   3  -3   12.09    0.38
   8   3   3   12.30    0.39
  -8  -3   3   12.01    0.45
  -8  -3   3   12.04    0.38
   8   3   3   12.22    0.35
   8  -3  -3   12.00    0.36
   8  -3   3   12.45    0.41
   8   3  -3   12.61    0.37
  -8  -3  -3   12.86    0.45
  -8   3   3   12.38    0.39
  -8   4  -3    3.39    0.20
  -8  -4   3    3.57    0.20
   8  -4  -3    3.53    0.19
   8   4   3    3.63    0.21
   8  -4   3    3.29    0.22
  -8   4   3    3.52    0.21
  -8  -4  -3    3.52    0.26
   8   4  -3    3.66    0.20
   9   0  -3    1.81    0.13
  -9   0   3    1.92    0.15
   9   0   3    1.78    0.13
  -9   0  -3    1.74    0.14
   9  -1  -3   93.23    1.90
   9   1   3   89.25    1.89
  -9   1  -3   92.34    1.87
  -9  -1   3   92.86    1.87
  -9  -1   3   91.46    1.98
  -9   1  -3   89.18    1.93
   9  -1  -3   90.70    1.85
   9   1  -3   92.52    1.90
   9  -1   3   89.94    1.90
  -9   1   3   93.10    1.94
  -9  -1  -3   94.73    1.97
   9   2   3    1.56    0.12
   9   2   3    1.57    0.13
   9  -2  -3    1.48    0.12
  -9  -2   3    1.48    0.19
  -9  -2   3    1.36    0.12
   9  -2  -3    1.91    0.17
  -9   2  -3    1.56    0.12
  -9   2  -3    1.48    0.13
  -9  -2  -3    1.45    0.16
  -9   2   3    1.33    0.13
   9   2  -3    1.39    0.12
   9  -2   3    1.27    0.13
  -9   3  -3   65.76    1.41
  -9  -3   3   64.69    1.40
   9   3   3   65.71    1.37
   9   3   3   65.31    1.41
  -9   3  -3   60.92    1.40
   9  -3  -3   63.68    1.38
   9   3  -3   65.42    1.39
   9  -3   3   64.93    1.45
  -9   3   3   64.58    1.42
  -9  -3  -3   62.70    1.51
  -9   4  -3    0.73    0.12
   9   4   3    0.90    0.12
  -9  -4   3    0.73    0.12
   9  -4  -3    0.92    0.12
   9   4  -3    0.88    0.12
   9  -4   3    0.84    0.14
  -9  -4  -3    0.84    0.16
  -9   4   3    0.83    0.13
  10   0  -3    0.61    0.09
  10   0   3    0.57    0.09
 -10   0  -3    0.61    0.11
  10   1   3   29.83    0.71
 -10  -1   3   29.03    0.78
  10  -1  -3   30.37    0.72
 -10   1  -3   29.69    0.75
 -10  -1  -3   29.01    0.77
  10   1  -3   30.77    0.73
  10  -1   3   29.61    0.72
 -10   1   3   30.11    0.77
  10   2   3    0.50    0.09
 -10  -2   3    0.49    0.14
 -10  -2   3    0.47    0.08
 -10   2  -3    0.49    0.09
 -10   2  -3    0.62    0.11
  10  -2  -3    0.69    0.12
  10  -2  -3    0.46    0.08
  10   2   3    0.46    0.09
 -10   2   3    0.48    0.10
  10  -2   3    0.43    0.09
  10   2  -3    0.37    0.08
 -10  -2  -3    0.51    0.12
 -10   3  -3   20.64    0.58
  10   3   3   21.32    0.57
  10  -3  -3   20.53    0.54
 -10  -3   3   20.54    0.55
 -10   3  -3   20.45    0.56
  10   3   3   20.31    0.53
  10  -3   3   19.99    0.60
 -10  -3  -3   19.80    0.65
 -10   3   3   21.06    0.59
  10   3  -3   20.92    0.55
  11   0  -3    1.13    0.12
 -11   0  -3    1.03    0.15
 -11   0   3    1.16    0.14
  11   0   3    0.79    0.11
  11  -1  -3   99.52    2.04
 -11   1  -3   96.32    2.07
  11   1   3   97.09    2.02
 -11  -1   3   96.51    2.11
 -11   1   3   95.87    2.11
 -11  -1  -3   97.57    2.10
  11  -1   3   99.12    2.03
  11   1  -3   96.44    2.03
  11  -2  -3    0.71    0.09
 -11   2  -3    0.72    0.11
 -11  -2   3    0.84    0.16
  11  -2  -3    0.81    0.13
  11   2   3    0.53    0.09
 -11   2  -3    0.66    0.10
 -11   2   3    0.70    0.12
 -11  -2  -3    0.73    0.14
  11   2  -3    0.93    0.12
  11  -2   3    0.66    0.11
 -11   3  -3   70.47    1.52
  11  -3  -3   71.89    1.50
 -11  -3   3   72.07    1.53
  11   3   3   70.86    1.53
  11   3   3   69.05    1.50
  11  -3   3   66.52    1.62
  12   0  -3    0.11    0.08
 -12   0   3    0.09    0.08
 -12   0  -3    0.24    0.09
  12   0   3    0.08    0.07
  12  -1  -3    1.28    0.14
 -12   1  -3    0.97    0.14
 -12  -1   3    1.15    0.16
  12   1   3    0.98    0.12
 -12  -1  -3    0.89    0.14
  12   1  -3    0.94    0.13
  12  -1   3    0.91    0.12
 -12   1   3    1.55    0.17
  12  -2  -3   -0.01    0.08
 -12   2  -3    0.09    0.07
 -12  -2   3    0.14    0.11
  12   2   3    0.05    0.07
  12  -2   3   -0.02    0.06
  12   2  -3    0.13    0.08
 -12  -2  -3    0.12    0.09
 -12   2   3    0.15    0.09
 -13   0   3    2.28    0.22
  13   0  -3    1.97    0.17
 -13   0  -3    1.99    0.19
  13  -1  -3   55.70    1.28
   0   0   4    1.02    0.06
   0   0   4    1.08    0.05
   0   0  -4    1.16    0.06
   0  -1   4    0.02    0.02
   0  -1  -4    0.03    0.02
   0   1  -4    0.05    0.03
   0   1   4    0.08    0.03
   0  -1   4    0.01    0.02
   0   2  -4    0.89    0.04
   0  -2   4    0.91    0.07
   0  -2  -4    0.93    0.06
   0  -2   4    1.04    0.07
   0   2  -4    0.84    0.07
   0   3   4    0.01    0.04
   0  -3   4    0.00    0.04
   0  -3   4    0.10    0.05
   0   3  -4    0.05    0.04
   0  -3  -4    0.04    0.03
   0  -4   4    0.40    0.08
   0   4   4    0.35    0.08
   0  -4   4    0.53    0.08
   0  -4  -4    0.36    0.07
   0   5   4    0.07    0.06
   1   0   4  524.34    9.93
  -1   0   4  484.64   10.04
  -1   0  -4  500.06   10.02
   1   0  -4  522.80    9.89
  -1   0   4  523.01    9.95
   1   0  -4  500.05    9.99
  -1   0  -4  520.05    9.97
   1   0   4  501.20   10.10
   1   1   4  109.95    2.18
   1   1   4  111.73    2.11
   1  -1  -4  108.62    2.15
  -1  -1   4  112.85    2.16
  -1   1  -4  109.68    2.17
  -1  -1   4  108.91    2.15
  -1   1   4  106.89    2.16
   1  -1   4  107.23    2.15
   1  -1   4  108.92    2.15
  -1  -1  -4  112.86    2.17
   1   1  -4  106.80    2.16
  -1  -1  -4  110.26    2.15
   1  -2  -4  367.77    7.32
   1   2   4  375.00    7.12
  -1   2  -4  365.59    7.36
  -1  -2   4  385.77    7.34
  -1   2  -4  386.18    7.18
   1   2   4  360.02    7.37
  -1  -2   4  364.12    7.40
   1   2  -4  366.88    7.33
  -1   2   4  362.00    7.36
   1  -2   4  365.94    7.37
  -1  -2  -4  353.85    7.29
   1  -2   4  375.74    7.37
   1   3   4   50.32    1.11
  -1  -3   4   51.71    1.10
  -1   3  -4   50.87    1.09
   1  -3  -4   50.92    1.07
  -1  -3   4   52.40    1.09
  -1   3   4   50.41    1.09
   1  -3   4   50.29    1.08
   1  -3   4   50.69    1.09
   1   3  -4   51.08    1.08
  -1  -3  -4   52.97    1.06
   1   4   4  178.51    3.58
  -1   4  -4  176.48    3.56
   1  -4  -4  181.17    3.54
  -1  -4   4  177.39    3.58
  -1  -4   4  181.68    3.55
   1  -4   4  174.47    3.56
   1   4  -4  178.62    3.54
  -1   4   4  180.84    3.57
   1  -4   4  179.55    3.56
   1   5   4   17.95    0.52
  -1  -5   4   18.21    0.52
   1   5  -4   18.92    0.52
   1  -5   4   18.23    0.49
   2   0  -4   10.07    0.24
  -2   0  -4    9.83    0.25
  -2   0  -4    9.96    0.24
  -2   0   4    9.88    0.24
   2   0   4    9.83    0.26
  -2   0   4    9.74    0.24
   2   0  -4   10.01    0.23
   2   0   4    9.81    0.23
  -2   1  -4    6.87    0.21
  -2  -1   4    6.98    0.20
   2   1   4    7.10    0.17
   2  -1  -4    7.09    0.19
   2   1   4    6.81    0.21
  -2  -1   4    7.18    0.19
  -2   1  -4    7.36    0.17
  -2  -1  -4    6.70    0.21
  -2   1   4    6.91    0.20
   2  -1   4    7.06    0.20
  -2  -1  -4    6.81    0.18
  -2   1   4    6.81    0.19
   2  -1   4    7.03    0.19
   2   1  -4    6.88    0.19
   2   1  -4    6.96    0.18
   2  -2  -4    6.34    0.19
  -2   2  -4    6.23    0.21
   2   2   4    6.33    0.15
   2  -2  -4    6.52    0.15
  -2  -2   4    6.54    0.20
   2   2   4    6.14    0.21
  -2   2  -4    6.24    0.16
  -2  -2   4    6.21    0.16
  -2  -2  -4    6.07    0.22
   2  -2   4    6.08    0.20
  -2  -2  -4    6.07    0.17
   2  -2   4    6.24    0.18
  -2   2   4    6.24    0.19
   2   2  -4    6.27    0.18
  -2   3  -4    3.65    0.16
  -2  -3   4    3.44    0.16
   2  -3  -4    3.39    0.15
   2   3   4    3.34    0.17
   2   3  -4    3.44    0.14
   2  -3   4    3.69    0.15
  -2   3   4    3.51    0.15
   2  -3   4    3.70    0.16
   2   3  -4    3.64    0.16
  -2  -3  -4    3.43    0.13
   2  -4  -4    2.68    0.14
  -2   4  -4    2.54    0.15
   2   4   4    2.59    0.16
  -2  -4   4    2.66    0.16
   2  -4   4    2.54    0.15
   2   4  -4    2.46    0.15
   2  -5  -4    1.34    0.13
   2   5   4    1.20    0.14
  -2  -5   4    1.47    0.14
  -2   5  -4    1.39    0.13
   2  -5   4    1.35    0.13
  -2   5   4    1.31    0.14
   2   5  -4    1.32    0.13
  -3   0   4   99.36    1.98
  -3   0   4   98.73    1.97
  -3   0  -4   98.84    1.98
   3   0  -4   98.67    1.96
   3   0  -4  103.13    1.96
   3   0   4   98.74    1.97
   3   0   4  100.98    1.99
  -3   0  -4  100.24    1.98
  -3   1  -4   42.99    0.87
  -3  -1   4   43.70    0.89
   3  -1  -4   42.72    0.87
  -3  -1   4   38.98    0.90
  -3   1  -4   41.62    0.90
   3   1   4   42.01    0.86
   3   1   4   42.68    0.90
   3  -1  -4   42.70    0.88
   3   1  -4   43.11    0.86
  -3   1   4   42.92    0.87
   3   1  -4   42.06    0.88
  -3  -1  -4   42.15    0.91
  -3   1   4   42.16    0.90
   3  -1   4   42.44    0.89
  -3  -1  -4   42.48    0.87
   3  -1   4   43.27    0.88
   3  -2  -4   79.71    1.61
   3  -2  -4   82.09    1.57
  -3   2  -4   82.15    1.59
  -3   2  -4   77.02    1.63
   3   2   4   82.34    1.58
  -3  -2   4   82.25    1.60
  -3  -2   4   79.91    1.63
   3   2   4   80.36    1.65
  -3  -2  -4   79.10    1.66
  -3   2   4   79.09    1.60
   3  -2   4   78.39    1.59
   3   2  -4   79.36    1.63
   3   2  -4   79.36    1.58
  -3   2   4   81.41    1.65
   3  -2   4   79.22    1.63
  -3  -2  -4   77.21    1.58
   3   3   4   22.55    0.57
  -3  -3   4   22.75    0.56
   3  -3  -4   22.44    0.54
  -3   3  -4   22.51    0.56
   3   3  -4   22.67    0.55
  -3   3   4   22.70    0.52
  -3   3   4   23.06    0.57
   3  -3   4   22.37    0.55
  -3  -3  -4   22.32    0.59
  -3  -4   4   49.38    1.12
   3  -4  -4   49.75    1.09
   3   4   4   50.79    1.13
  -3   4  -4   50.74    1.11
   3   4  -4   50.25    1.10
  -3   4   4   49.16    1.13
   3  -4   4   49.90    1.10
   3  -5  -4    8.76    0.30
   3   5   4    8.78    0.33
  -3  -5   4    9.15    0.33
  -3   5  -4    8.16    0.31
   3  -5   4    8.53    0.31
   3   5  -4    8.70    0.31
  -3   5   4    8.70    0.33
  -4   0  -4    5.23    0.18
   4   0   4    4.90    0.16
   4   0  -4    5.04    0.15
   4   0  -4    5.01    0.14
   4   0   4    5.09    0.17
  -4   0   4    5.19    0.15
  -4   0   4    4.92    0.17
  -4   0  -4    5.01    0.16
  -4  -1   4    0.03    0.03
   4  -1  -4    0.10    0.04
   4  -1  -4    0.03    0.03
   4   1   4    0.07    0.03
  -4  -1   4    0.09    0.05
  -4   1  -4    0.01    0.03
   4   1   4    0.04    0.03
  -4   1  -4   -0.02    0.03
  -4   1   4    0.11    0.03
  -4  -1  -4    0.18    0.04
   4   1  -4    0.06    0.02
   4   1  -4    0.03    0.03
  -4   1   4    0.03    0.03
  -4  -1  -4    0.06    0.04
   4  -1   4    0.05    0.03
   4  -1   4    0.06    0.04
   4  -2  -4    3.49    0.12
  -4  -2   4    3.59    0.14
   4   2   4    3.58    0.16
  -4  -2   4    3.44    0.15
  -4   2  -4    3.59    0.13
  -4   2  -4    3.69    0.16
   4  -2  -4    3.58    0.14
   4   2   4    3.40    0.12
   4   2  -4    3.45    0.15
  -4   2   4    3.46    0.16
  -4  -2  -4    3.56    0.11
   4   2  -4    3.85    0.11
  -4  -2  -4    3.50    0.17
   4  -2   4    3.64    0.12
   4  -2   4    3.34    0.15
  -4   3  -4    0.07    0.05
   4   3   4    0.09    0.05
  -4  -3   4    0.04    0.05
   4  -3  -4    0.04    0.05
  -4  -3  -4    0.02    0.06
   4   3  -4    0.08    0.05
   4  -3   4    0.02    0.05
  -4   3   4    0.01    0.04
   4  -4  -4    1.81    0.13
  -4   4  -4    1.45    0.13
   4   4   4    1.75    0.15
  -4  -4   4    1.64    0.14
   4  -4   4    1.90    0.14
  -4   4   4    1.61    0.14
   4   4  -4    1.79    0.14
  -4   5  -4    0.09    0.07
   4   5   4   -0.04    0.06
   4  -5  -4    0.06    0.06
  -4  -5   4    0.04    0.06
  -4   5   4    0.02    0.06
   4  -5   4    0.04    0.06
   4   5  -4    0.06    0.06
  -5   0   4  374.59    7.39
   5   0   4  374.99    7.42
   5   0  -4  381.85    7.35
   5   0  -4  379.29    7.36
   5   0   4  379.61    7.42
  -5   0   4  367.34    7.53
  -5   0  -4  358.83    7.52
  -5   0  -4  385.15    7.43
   5  -1  -4    7.12    0.20
   5   1   4    6.83    0.20
   5  -1  -4    7.43    0.22
  -5   1  -4    6.65    0.22
  -5  -1   4    6.73    0.26
   5   1   4    6.89    0.22
  -5  -1   4    6.99    0.21
  -5   1  -4    7.24    0.22
   5   1  -4    6.88    0.18
  -5  -1  -4    8.37    0.26
  -5   1   4    7.13    0.18
   5   1  -4    7.13    0.22
  -5  -1  -4    7.01    0.21
   5  -1   4    7.16    0.23
  -5   1   4    7.12    0.23
  -5   2  -4  280.79    5.53
   5  -2  -4  285.85    5.48
  -5  -2   4  282.11    5.50
  -5   2  -4  280.68    5.53
  -5  -2   4  278.22    5.48
   5   2   4  277.89    5.47
   5   2   4  281.44    5.44
   5  -2  -4  280.54    5.43
   5  -2   4  271.10    5.47
   5   2  -4  272.14    5.45
  -5  -2  -4  284.72    5.51
  -5   2   4  275.89    5.59
   5  -3  -4    3.33    0.16
   5   3   4    3.43    0.18
  -5   3  -4    3.64    0.18
  -5  -3   4    3.45    0.17
   5  -3   4    3.34    0.17
  -5  -3  -4    3.45    0.20
   5   3  -4    3.39    0.17
  -5   3   4    3.52    0.18
   5  -4  -4  147.94    2.94
  -5   4  -4  146.74    2.97
  -5  -4   4  143.59    2.98
   5   4   4  146.85    2.98
   5  -4   4  144.38    2.97
  -5   4   4  145.96    2.99
   5   4  -4  146.16    2.96
   5  -5  -4    1.38    0.14
  -5  -5   4    1.41    0.15
   5   5   4    1.39    0.16
  -5   5  -4    1.28    0.14
   5   5  -4    1.32    0.14
   5  -5   4    1.53    0.15
  -5   5   4    1.47    0.15
   6   0  -4    4.32    0.16
  -6   0   4    4.28    0.18
  -6   0   4    5.28    0.15
  -6   0  -4    4.39    0.16
   6   0   4    4.52    0.16
   6   0   4    4.54    0.17
   6   0  -4    4.59    0.14
  -6   0  -4    4.40    0.19
   6  -1  -4    4.73    0.18
   6   1   4    4.52    0.16
  -6   1  -4    4.63    0.18
  -6  -1   4    4.76    0.17
  -6   1  -4    4.72    0.18
   6  -1  -4    4.69    0.16
   6   1   4    4.59    0.18
  -6  -1   4    4.80    0.22
   6   1  -4    4.55    0.17
   6  -1   4    4.53    0.18
  -6  -1  -4    4.59    0.20
  -6   1   4    4.61    0.14
   6   1  -4    4.79    0.13
  -6   1   4    4.69    0.19
   6   2   4    3.31    0.16
  -6  -2   4    3.31    0.16
   6  -2  -4    3.13    0.16
   6   2   4    3.49    0.14
  -6  -2   4    3.15    0.19
   6  -2  -4    3.28    0.15
  -6   2  -4    3.42    0.15
  -6   2  -4    3.40    0.16
   6  -2   4    3.82    0.17
  -6  -2  -4    3.39    0.19
  -6   2   4    3.88    0.17
   6   2  -4    3.39    0.15
   6   3   4    2.57    0.16
  -6   3  -4    2.79    0.16
   6  -3  -4    2.71    0.15
  -6  -3   4    2.62    0.16
   6   3  -4    2.66    0.15
  -6  -3  -4    2.84    0.19
   6  -3   4    2.63    0.17
  -6   3   4    2.73    0.16
   6  -4  -4    1.67    0.14
   6   4   4    1.90    0.15
  -6   4  -4    1.65    0.14
  -6  -4   4    1.68    0.15
   6  -4   4    1.59    0.15
  -6  -4  -4    1.68    0.17
   6   4  -4    2.03    0.15
  -6   4   4    1.60    0.15
   7   0  -4  133.08    2.63
  -7   0   4  133.10    2.72
  -7   0  -4  133.33    2.66
  -7   0  -4  133.45    2.72
   7   0   4  140.94    2.66
   7   0  -4  131.53    2.68
  -7   0   4  132.17    2.64
   7   0   4  136.62    2.68
   7   1   4   21.36    0.51
   7  -1  -4   22.01    0.54
  -7  -1   4   21.80    0.51
  -7   1  -4   21.41    0.54
   7  -1  -4   20.92    0.49
   7   1   4   21.27    0.52
  -7   1  -4   21.76    0.52
  -7  -1   4   21.99    0.59
  -7   1   4   21.71    0.55
   7   1  -4   21.04    0.52
  -7  -1  -4   20.79    0.57
   7  -1   4   21.69    0.53
   7  -2  -4  109.24    2.14
  -7  -2   4   91.04    2.26
  -7   2  -4  109.97    2.17
   7   2   4  110.20    2.13
   7  -2  -4   90.64    2.18
  -7  -2   4  108.47    2.16
  -7   2  -4  108.33    2.17
   7   2   4  107.80    2.17
   7   2  -4  106.57    2.15
  -7   2   4  105.50    2.19
  -7  -2  -4  110.93    2.25
   7  -2   4  112.18    2.20
   7   3   4   11.75    0.37
  -7   3  -4   11.68    0.37
  -7  -3   4   11.45    0.37
   7  -3  -4   11.77    0.35
   7   3  -4   11.73    0.36
  -7   3   4   11.79    0.38
   7  -3   4   11.90    0.39
  -7  -3  -4   12.01    0.43
  -7   4  -4   64.64    1.43
   7  -4  -4   65.84    1.41
   7   4   4   64.61    1.44
  -7  -4   4   67.53    1.45
   7  -4   4   63.75    1.46
  -7  -4  -4   63.91    1.52
   7   4  -4   65.63    1.41
  -7   4   4   64.85    1.45
   8   0   4    0.32    0.07
   8   0  -4    0.13    0.04
  -8   0  -4    0.30    0.08
   8   0  -4    0.27    0.07
   8  -1  -4    3.01    0.16
  -8   1  -4    3.29    0.15
   8   1   4    3.21    0.15
  -8  -1   4    2.94    0.14
   8  -1  -4    2.96    0.13
  -8   1  -4    3.07    0.17
   8   1   4    3.01    0.15
  -8  -1   4    3.03    0.19
   8   1  -4    2.96    0.15
  -8   1   4    3.11    0.17
  -8  -1  -4    3.12    0.19
   8  -1   4    2.92    0.16
  -8   2  -4    0.30    0.07
   8   2   4    0.10    0.06
   8  -2  -4    0.11    0.05
   8  -2  -4    0.09    0.07
  -8  -2   4    0.16    0.06
  -8  -2   4    0.18    0.10
  -8   2  -4    0.27    0.07
   8   2   4    0.48    0.08
  -8  -2  -4    0.25    0.09
   8   2  -4    0.11    0.06
   8  -2   4    0.27    0.08
  -8   2   4    0.33    0.08
   8  -3  -4    1.84    0.13
   8   3   4    1.94    0.15
  -8   3  -4    1.79    0.14
  -8  -3   4    1.85    0.15
  -8  -3  -4    1.62    0.18
   8   3  -4    1.94    0.14
  -8   3   4    1.92    0.15
   8  -3   4    1.85    0.16
   8  -4  -4    0.16    0.07
  -8   4  -4    0.06    0.07
   8   4   4    0.04    0.07
  -8  -4   4    0.19    0.08
   8   4  -4    0.33    0.09
   8  -4   4    0.31    0.10
  -8  -4  -4    0.18    0.10
  -8   4   4    0.07    0.07
   9   0  -4   48.53    1.09
  -9   0   4   49.75    1.15
   9   0   4   50.61    1.09
  -9   0  -4   50.40    1.14
  -9  -1   4   10.33    0.30
  -9  -1   4   10.48    0.38
  -9   1  -4   10.45    0.34
   9  -1  -4   10.66    0.33
  -9   1  -4   10.12    0.31
   9  -1  -4    9.97    0.29
   9   1   4   10.17    0.31
   9   1  -4    9.92    0.32
  -9   1   4   10.31    0.35
   9  -1   4   10.01    0.32
  -9  -1  -4   10.09    0.36
  -9   2  -4   43.07    0.97
   9   2   4   43.10    0.96
  -9   2  -4   42.67    0.95
  -9  -2   4   42.65    0.95
   9  -2  -4   41.49    1.01
  -9  -2   4   37.64    1.09
   9   2   4   41.70    0.93
   9  -2  -4   42.34    0.93
  -9  -2  -4   41.95    1.04
  -9   2   4   42.77    0.99
   9   2  -4   41.76    0.95
   9  -2   4   42.95    0.98
   9   3   4    6.28    0.26
  -9  -3   4    6.31    0.26
   9  -3  -4    6.18    0.24
  -9   3  -4    6.04    0.25
   9   3  -4    6.37    0.25
  -9   3   4    6.31    0.27
   9  -3   4    5.83    0.28
  -9  -3  -4    6.01    0.31
 -10   0   4    4.02    0.22
  10   0   4    3.60    0.18
  10   0  -4    3.90    0.19
 -10   0  -4    3.57    0.21
  10   1   4    1.36    0.12
  10  -1  -4    1.25    0.13
 -10  -1   4    1.23    0.15
 -10   1  -4    1.41    0.14
 -10  -1  -4    1.24    0.14
  10  -1   4    1.22    0.12
 -10   1   4    1.32    0.14
  10   1  -4    1.34    0.13
 -10   2  -4    3.29    0.17
 -10   2  -4    2.72    0.17
  10   2   4    2.92    0.16
  10   2   4    3.20    0.17
 -10  -2   4    2.80    0.25
 -10  -2   4    2.76    0.17
  10  -2  -4    2.70    0.15
 -10   2   4    2.84    0.19
  10   2  -4    2.84    0.17
  10  -2   4    2.87    0.19
 -10  -2  -4    3.10    0.22
 -10   3  -4    0.89    0.12
 -10  -3   4    0.76    0.11
  10  -3  -4    0.83    0.11
  10   3   4    0.86    0.12
  10   3  -4    0.72    0.11
 -10  -3  -4    0.85    0.15
 -10   3   4    0.78    0.13
  10  -3   4    0.76    0.13
 -11   0  -4  196.38    3.98
 -11   0   4  196.42    4.00
  11   0   4  200.02    3.92
  11   0  -4  192.56    3.92
 -11   1  -4    2.48    0.18
  11  -1  -4    2.69    0.17
 -11  -1   4    2.61    0.20
  11   1   4    2.87    0.17
 -11  -1  -4    2.89    0.20
  11   1  -4    2.64    0.18
  11  -1   4    2.64    0.17
 -11   2  -4  166.38    3.32
 -11   2  -4  164.07    3.36
 -11  -2   4  176.10    3.53
  11  -2  -4  161.01    3.29
  11   2   4  164.48    3.31
 -11  -2  -4  161.21    3.42
 -11   2   4  164.69    3.39
  11  -2   4  160.68    3.35
  11   2  -4  165.95    3.34
 -11  -3   4    1.84    0.15
  11  -3  -4    1.66    0.15
 -11   3  -4    1.70    0.16
  11   3   4    1.62    0.15
  12   0  -4    3.39    0.20
 -12   0  -4    2.85    0.21
 -12   0   4    2.93    0.21
  12   0   4    2.73    0.18
 -12  -1   4    0.15    0.09
  12   1   4    0.18    0.08
 -12   1  -4    0.11    0.08
  12  -1  -4    0.08    0.08
 -12  -1  -4    0.15    0.09
  12  -1   4    0.08    0.07
 -12   1   4    0.09    0.07
  12   1  -4    0.21    0.08
 -12   2  -4    2.40    0.18
  12   2   4    2.45    0.17
 -12  -2   4    2.37    0.24
   0   0  -5    0.08    0.03
   0   0   5    0.02    0.03
   0   0   5    0.01    0.02
   0   1   5    1.20    0.08
   0   1  -5    1.25    0.08
   0  -1   5    1.21    0.08
   0  -1   5    1.20    0.07
   0  -1  -5    1.37    0.07
   0  -2   5    0.02    0.03
   0   2   5    0.16    0.05
   0   2  -5   -0.01    0.03
   0  -2   5    0.03    0.03
   0  -2  -5    0.04    0.03
   0  -3   5    0.84    0.09
   0   3   5    0.76    0.09
   0  -3   5    0.54    0.08
   0  -3  -5    0.97    0.08
   0   3  -5    0.69    0.08
   0  -4   5    0.02    0.05
   0  -4  -5    0.05    0.05
   0   4   5    0.02    0.05
   0  -4   5    0.05    0.05
   0   4  -5    0.09    0.05
   0   5   5    0.44    0.09
  -1   0  -5   48.33    0.99
  -1   0   5   47.70    0.97
   1   0  -5   47.39    0.96
   1   0   5   46.53    1.00
   1   0   5   49.05    0.96
   1   0  -5   48.05    0.98
  -1   0   5   49.09    0.99
  -1   0  -5   47.57    0.97
  -1  -1   5  133.49    2.70
   1   1   5  136.65    2.72
   1  -1  -5  135.00    2.68
   1   1   5  145.19    2.64
  -1  -1   5  133.73    2.68
  -1   1  -5  137.54    2.71
  -1   1   5  134.41    2.70
   1  -1   5  138.35    2.69
  -1  -1  -5  137.69    2.68
   1   1  -5  139.02    2.69
   1  -1   5  136.41    2.70
   1  -2  -5   32.02    0.69
  -1  -2   5   32.55    0.71
  -1   2  -5   31.80    0.71
   1   2   5   31.20    0.72
  -1  -2   5   32.26    0.70
   1   2  -5   31.65    0.69
  -1  -2  -5   31.49    0.68
   1  -2   5   31.76    0.70
  -1   2   5   31.89    0.71
   1  -2   5   31.75    0.70
  -1   3  -5   83.26    1.73
   1  -3  -5   83.77    1.70
  -1  -3   5   84.56    1.74
   1   3   5   84.67    1.75
  -1  -3   5   82.95    1.72
   1  -3   5   84.19    1.72
  -1  -3  -5   84.21    1.69
   1  -3   5   83.67    1.72
   1   3  -5   83.71    1.71
  -1   3   5   83.76    1.73
  -1  -4   5   13.00    0.39
  -1  -4   5   13.01    0.37
   1  -4  -5   13.23    0.37
   1   4   5   13.30    0.40
  -1   4  -5   12.80    0.38
   1  -4   5   12.60    0.37
  -1   4   5   12.72    0.38
   1  -4   5   13.02    0.38
   1   4  -5   13.26    0.37
  -1  -5   5   45.27    1.05
   1   5   5   45.08    1.05
   1   5  -5   44.84    1.03
   1  -5   5   43.27    1.01
   2   0  -5    4.42    0.13
   2   0   5    4.41    0.13
  -2   0   5    4.23    0.13
  -2   0  -5    4.33    0.14
  -2   0  -5    4.30    0.15
  -2   0   5    4.44    0.14
   2   0   5    4.37    0.16
   2   0  -5    4.29    0.13
   2   1   5   89.88    1.86
  -2   1  -5   94.74    1.79
   2   1   5   93.28    1.78
  -2   1  -5   92.25    1.85
   2  -1  -5   88.25    1.79
  -2  -1   5   91.66    1.83
  -2  -1   5   86.99    1.81
   2  -1  -5   94.39    1.82
   2  -1   5   92.95    1.84
   2   1  -5   91.61    1.81
   2   1  -5   91.61    1.82
   2  -1   5   90.25    1.82
  -2  -1  -5   91.32    1.82
  -2   1   5   90.49    1.82
  -2  -1  -5   91.98    1.85
  -2   1   5   91.93    1.84
   2  -2  -5    2.65    0.12
   2   2   5    2.57    0.13
  -2  -2   5    2.70    0.13
  -2   2  -5    2.39    0.13
   2  -2   5    2.67    0.12
  -2  -2  -5    2.61    0.14
  -2   2   5    2.61    0.12
  -2  -2  -5    2.59    0.11
   2  -2   5    2.61    0.12
   2   2  -5    2.56    0.11
  -2   3  -5   51.74    1.13
   2  -3  -5   52.59    1.10
  -2  -3   5   51.57    1.12
   2   3   5   51.43    1.14
   2   3  -5   51.74    1.12
   2  -3   5   50.61    1.11
  -2   3   5   51.90    1.11
   2  -3   5   52.58    1.10
   2   3  -5   51.85    1.08
  -2  -3  -5   51.10    1.07
  -2  -4   5    0.74    0.11
   2   4   5    0.86    0.11
  -2   4  -5    0.87    0.11
   2  -4  -5    0.97    0.11
   2   4  -5    0.91    0.11
   2  -4   5    1.01    0.11
  -2   5  -5   24.39    0.63
   2   5   5   24.90    0.66
   2  -5  -5   24.48    0.62
  -2  -5   5   23.71    0.65
   2  -5   5   23.49    0.62
  -2   5   5   23.49    0.66
   2   5  -5   24.00    0.63
  -3   0  -5   34.38    0.74
   3   0   5   34.17    0.74
  -3   0   5   33.78    0.72
   3   0  -5   35.32    0.71
   3   0   5   33.99    0.72
   3   0  -5   34.48    0.72
  -3   0   5   33.20    0.72
  -3   0  -5   33.67    0.73
   3  -1  -5  295.05    5.81
   3   1   5  294.85    6.04
   3  -1  -5  303.73    5.94
  -3   1  -5  293.53    5.89
  -3  -1   5  304.35    5.98
  -3   1  -5  315.76    5.93
   3   1   5  310.10    5.87
   3   1  -5  297.00    5.91
   3  -1   5  302.52    5.92
   3  -1   5  298.52    5.90
  -3  -1  -5  302.85    6.05
  -3  -1  -5  297.12    5.87
   3   1  -5  304.70    5.90
  -3   1   5  291.03    5.94
  -3   1   5  298.35    6.05
  -3   2  -5   23.99    0.58
   3   2   5   23.88    0.58
  -3  -2   5   24.37    0.57
   3  -2  -5   24.13    0.55
  -3   2   5   23.70    0.54
  -3   2   5   24.25    0.58
  -3  -2  -5   24.07    0.53
   3  -2   5   24.24    0.57
   3   2  -5   24.64    0.52
   3  -2   5   24.54    0.55
  -3  -2  -5   23.96    0.60
   3   2  -5   24.10    0.56
  -3   3  -5  175.75    3.49
   3  -3  -5  175.17    3.46
  -3  -3   5  175.22    3.49
   3   3   5  175.27    3.50
  -3   3   5  169.56    3.44
   3  -3   5  173.29    3.48
   3   3  -5  176.96    3.48
  -3   3   5  177.80    3.51
   3   4   5   10.89    0.36
  -3   4  -5   10.67    0.35
  -3  -4   5   11.10    0.36
   3  -4  -5   10.60    0.33
   3  -4   5   10.90    0.34
  -3   4   5   10.36    0.36
   3   4  -5   10.74    0.34
  -3  -5   5   84.49    1.83
   3   5   5   87.56    1.84
  -3   5  -5   82.98    1.81
   3  -5  -5   83.65    1.78
  -3   5   5   83.37    1.83
   3   5  -5   85.13    1.79
   3  -5   5   83.68    1.80
   4   0  -5   23.97    0.52
  -4   0   5   24.02    0.55
  -4   0   5   24.16    0.53
   4   0   5   23.07    0.53
  -4   0  -5   24.95    0.55
  -4   0  -5   23.80    0.55
   4   0  -5   24.53    0.53
   4   0   5   23.04    0.55
   4   1   5   43.74    0.88
   4   1   5   42.57    0.92
  -4   1  -5   44.35    0.90
   4  -1  -5   43.79    0.90
  -4  -1   5   39.80    0.95
   4  -1  -5   43.58    0.90
  -4  -1   5   43.52    0.91
  -4   1  -5   43.32    0.92
   4  -1   5   42.29    0.91
  -4  -1  -5   43.33    0.90
  -4   1   5   42.80    0.92
  -4  -1  -5   43.15    0.94
  -4   1   5   42.08    0.88
   4   1  -5   43.03    0.87
   4  -1   5   40.06    0.92
   4   1  -5   42.68    0.90
   4   2   5   16.86    0.37
   4  -2  -5   16.83    0.41
  -4  -2   5   16.85    0.43
  -4   2  -5   16.45    0.43
   4   2   5   16.78    0.44
   4  -2   5   16.45    0.43
   4  -2   5   16.05    0.39
  -4  -2  -5   16.31    0.46
  -4   2   5   16.44    0.38
  -4  -2  -5   16.25    0.38
  -4   2   5   16.26    0.43
   4   2  -5   16.09    0.42
   4   2  -5   16.59    0.37
  -4   3  -5   25.72    0.64
   4   3   5   26.21    0.65
   4  -3  -5   27.35    0.62
  -4  -3   5   26.05    0.64
  -4  -3  -5   25.69    0.68
   4   3  -5   27.13    0.64
  -4   3   5   25.30    0.66
   4  -3   5   26.12    0.64
   4   4   5    7.15    0.29
  -4   4  -5    7.20    0.28
  -4  -4   5    7.23    0.29
   4  -4  -5    7.29    0.26
   4   4  -5    6.99    0.27
  -4   4   5    7.48    0.29
   4  -4   5    7.32    0.27
  -4  -5   5   13.10    0.44
   4  -5  -5   13.33    0.41
   4   5   5   13.53    0.44
  -4   5  -5   13.36    0.43
   4  -5   5   12.69    0.41
  -4   5   5   13.49    0.44
   4   5  -5   13.50    0.42
   5   0  -5    0.79    0.06
  -5   0  -5    0.59    0.07
   5   0   5    0.69    0.07
   5   0  -5    0.71    0.07
   5   0   5    0.78    0.07
  -5   0  -5    0.71    0.07
  -5   0   5    0.74    0.07
  -5   0   5    0.67    0.08
  -5  -1   5  106.86    2.20
   5  -1  -5  105.88    2.11
  -5  -1   5  103.57    2.12
   5  -1  -5  107.76    2.13
  -5   1  -5  107.69    2.13
  -5   1  -5  106.85    2.14
   5   1   5  106.06    2.14
   5   1   5  106.27    2.10
  -5   1   5  103.42    2.15
  -5  -1  -5  108.36    2.18
   5  -1   5  108.24    2.15
   5   1  -5  102.69    2.12
  -5   1   5  103.93    2.09
   5   1  -5  110.25    2.08
  -5  -1  -5  104.03    2.12
  -5   2  -5    0.58    0.07
  -5  -2   5    0.46    0.07
   5   2   5    0.39    0.05
   5   2   5    0.44    0.08
  -5   2  -5    0.46    0.07
   5  -2  -5    0.49    0.07
   5  -2   5    0.37    0.07
  -5  -2  -5    0.67    0.10
   5   2  -5    0.43    0.07
  -5   2   5    0.47    0.08
  -5  -3   5   72.86    1.56
   5  -3  -5   74.82    1.53
  -5   3  -5   71.87    1.55
   5   3   5   73.33    1.57
   5  -3   5   73.62    1.56
   5   3  -5   72.13    1.55
  -5  -3  -5   73.21    1.61
  -5   3   5   73.21    1.57
  -5   4  -5    0.17    0.07
  -5  -4   5    0.37    0.09
   5   4   5    0.29    0.08
   5  -4  -5    0.17    0.07
   5  -4   5    0.37    0.09
  -5   4   5    0.29    0.08
   5   4  -5    0.19    0.07
   6   0   5    0.20    0.05
  -6   0   5    0.31    0.07
  -6   0   5    0.36    0.05
  -6   0  -5    0.16    0.05
   6   0   5    0.20    0.05
   6   0  -5    0.14    0.04
  -6   0  -5    0.18    0.06
   6   0  -5    0.17    0.05
  -6   1  -5   16.25    0.42
  -6  -1   5   16.77    0.48
   6  -1  -5   16.39    0.40
   6   1   5   16.31    0.42
   6   1   5   16.50    0.40
  -6   1  -5   16.66    0.42
   6  -1  -5   16.66    0.42
  -6  -1   5   16.23    0.41
  -6   1   5   16.56    0.44
   6   1  -5   16.56    0.37
   6   1  -5   15.89    0.41
  -6  -1  -5   15.95    0.46
   6  -1   5   16.16    0.43
  -6  -1  -5   16.67    0.42
  -6   1   5   17.30    0.38
   6   2   5    0.09    0.06
  -6   2  -5    0.23    0.06
   6   2   5    0.09    0.04
  -6   2  -5    0.10    0.05
  -6  -2   5    0.12    0.05
   6  -2  -5    0.03    0.04
   6  -2   5    0.12    0.06
  -6  -2  -5    0.07    0.06
   6   2  -5    0.08    0.05
  -6   2   5    0.21    0.06
   6  -3  -5   11.94    0.35
  -6   3  -5   12.42    0.38
  -6  -3   5   12.75    0.38
   6   3   5   12.40    0.38
   6  -3   5   11.17    0.38
  -6   3   5   12.11    0.39
   6   3  -5   12.43    0.37
  -6  -3  -5   12.47    0.43
  -6  -4   5    0.04    0.06
  -6   4  -5    0.13    0.07
   6  -4  -5    0.03    0.06
   6   4   5    0.12    0.07
   6  -4   5    0.03    0.07
  -6   4   5    0.05    0.07
  -6  -4  -5    0.09    0.08
   6   4  -5   -0.05    0.06
  -7   0   5    7.52    0.22
   7   0  -5    7.71    0.24
  -7   0   5    7.26    0.27
   7   0  -5    7.48    0.21
  -7   0  -5    7.65    0.24
   7   0   5    7.87    0.25
   7   0   5    7.86    0.23
  -7   0  -5    7.95    0.28
  -7  -1   5  181.40    3.50
   7   1   5  174.07    3.40
  -7  -1   5  168.25    3.39
   7   1   5  175.37    3.38
   7  -1  -5  169.61    3.41
   7  -1  -5  169.38    3.37
  -7   1  -5  173.67    3.41
  -7   1  -5  173.04    3.41
  -7  -1  -5  168.16    3.46
   7  -1   5  165.83    3.41
  -7   1   5  169.60    3.43
   7   1  -5  169.38    3.40
   7  -2  -5    5.57    0.21
  -7   2  -5    5.92    0.23
   7   2   5    5.66    0.19
  -7  -2   5    5.71    0.22
   7   2   5    5.43    0.22
  -7   2  -5    5.37    0.21
   7  -2   5    5.33    0.23
  -7   2   5    5.44    0.23
   7   2  -5    5.35    0.21
  -7  -2  -5    5.46    0.26
  -7   3  -5  112.56    2.32
   7   3   5  112.70    2.32
   7  -3  -5  112.75    2.29
  -7  -3   5  110.65    2.32
  -7   3   5  111.68    2.34
  -7  -3  -5  111.14    2.39
   7   3  -5  114.10    2.30
   7  -3   5  111.21    2.34
  -7  -4   5    2.76    0.19
   7  -4  -5    2.68    0.17
  -7   4  -5    2.50    0.17
   7   4   5    2.58    0.18
   7  -4   5    2.45    0.19
  -7  -4  -5    2.65    0.22
  -7   4   5    2.63    0.18
   7   4  -5    2.94    0.18
  -8   0   5    8.18    0.30
   8   0  -5    8.33    0.23
   8   0  -5    8.11    0.27
   8   0   5    8.22    0.27
  -8   0  -5    8.32    0.30
  -8   1  -5   64.24    1.37
   8   1   5   64.97    1.33
   8   1   5   64.58    1.34
   8  -1  -5   66.35    1.37
  -8  -1   5   61.89    1.32
  -8   1  -5   63.92    1.35
   8  -1  -5   64.13    1.32
  -8   1   5   62.83    1.38
   8  -1   5   61.98    1.35
   8   1  -5   63.23    1.35
  -8  -1  -5   60.77    1.40
  -8   2  -5    6.52    0.24
   8  -2  -5    6.27    0.22
  -8  -2   5    6.39    0.24
   8   2   5    6.31    0.22
  -8   2  -5    6.30    0.24
   8   2   5    6.35    0.25
   8   2  -5    6.28    0.24
  -8  -2  -5    6.08    0.28
  -8   2   5    6.18    0.25
   8  -2   5    6.13    0.25
  -8   3  -5   40.97    0.96
  -8  -3   5   41.28    0.96
   8  -3  -5   41.94    0.94
   8   3   5   40.51    0.96
   8  -3   5   40.30    0.98
  -8  -3  -5   41.66    1.05
   8   3  -5   41.04    0.94
  -8   3   5   40.71    0.98
   8  -4  -5    3.28    0.19
   8   4   5    3.12    0.20
  -8  -4   5    3.35    0.21
  -8   4  -5    3.32    0.20
  -8  -4  -5    3.27    0.25
  -8   4   5    3.56    0.22
   8  -4   5    2.94    0.21
   8   4  -5    3.71    0.21
  -9   0   5    3.24    0.20
   9   0   5    3.72    0.18
   9   0  -5    3.21    0.17
  -9   0  -5    3.40    0.20
  -9  -1   5  134.30    2.74
   9  -1  -5  131.38    2.65
   9  -1  -5  126.49    2.60
  -9   1  -5  132.83    2.67
  -9  -1   5  130.04    2.61
   9   1   5  131.52    2.62
  -9   1  -5  129.70    2.63
  -9  -1  -5  130.07    2.71
   9  -1   5  127.94    2.64
  -9   1   5  129.32    2.68
   9  -2  -5    2.41    0.15
   9   2   5    2.58    0.16
   9   2   5    2.53    0.14
  -9   2  -5    2.53    0.16
  -9  -2   5    2.57    0.16
  -9   2  -5    2.25    0.15
   9  -2   5    2.42    0.17
  -9   2   5    2.27    0.17
   9   2  -5    2.62    0.16
  -9  -2  -5    2.34    0.19
   9   3   5   87.15    1.89
  -9  -3   5   90.15    1.89
  -9   3  -5   89.99    1.89
   9  -3  -5   89.95    1.86
   9   3  -5   91.07    1.88
  -9  -3  -5   87.76    1.98
   9  -3   5   88.51    1.92
  -9   3   5   89.58    1.92
  10   0  -5    4.22    0.20
  10   0   5    4.55    0.21
 -10   0  -5    4.66    0.24
 -10   0   5    4.42    0.24
  10  -1  -5   13.21    0.39
 -10  -1   5   13.05    0.45
  10   1   5   12.77    0.37
 -10   1  -5   12.41    0.40
 -10   1   5   12.20    0.41
  10  -1   5   12.26    0.38
 -10  -1  -5   11.98    0.42
  10   1  -5   12.74    0.38
 -10   2  -5    3.58    0.19
  10   2   5    3.41    0.19
  10  -2  -5    3.40    0.17
  10   2   5    3.47    0.17
 -10  -2   5    3.59    0.18
 -10   2   5    3.36    0.20
  10  -2   5    3.44    0.20
 -10  -2  -5    3.40    0.23
  10   2  -5    3.47    0.19
 -10  -3   5    8.99    0.33
 -10   3  -5    9.28    0.33
  10   3   5    9.08    0.33
  10  -3  -5    8.94    0.31
  10  -3   5    9.55    0.36
 -10  -3  -5    8.87    0.39
 -10   3   5    9.50    0.36
  10   3  -5    8.94    0.33
  11   0   5    7.95    0.29
 -11   0   5    7.60    0.33
 -11   0  -5    7.72    0.32
  11   0  -5    7.41    0.29
 -11   1  -5   26.03    0.69
  11   1   5   25.79    0.64
  11  -1  -5   26.20    0.66
 -11  -1   5   26.95    0.73
  11  -1   5   26.11    0.66
  11   1  -5   25.17    0.66
 -11  -1  -5   25.57    0.71
 -11   2  -5    6.06    0.25
  11   2   5    6.31    0.24
  11  -2  -5    6.22    0.24
  11  -2   5    5.61    0.27
 -11  -2  -5    6.14    0.31
 -11   2   5    6.21    0.28
  11   2  -5    5.82    0.25
  12   0  -5    7.67    0.29
 -12   0  -5    7.34    0.32
  12   0   5    7.39    0.28
 -12   0   5    7.25    0.33
 -12   1  -5    3.42    0.21
  12   1   5    3.38    0.19
  12  -1  -5    2.99    0.20
 -12  -1   5    3.51    0.24
  12   1  -5    3.77    0.21
 -12  -1  -5    3.89    0.24
 -12   1   5    3.47    0.23
  12  -1   5    3.64    0.20
  12   2   5    5.81    0.24
   0   0  -6   77.94    1.62
   0   0   6   82.73    1.59
   0   0   6   82.26    1.64
   0  -1  -6    0.02    0.03
   0  -1   6    0.19    0.04
   0  -1   6    0.03    0.03
   0   1   6    0.05    0.03
   0   1  -6    0.05    0.04
   0  -2   6   66.64    1.37
   0   2   6   65.56    1.38
   0  -2  -6   66.69    1.34
   0  -2   6   64.57    1.36
   0   2  -6   65.55    1.36
   0   3  -6    0.06    0.05
   0  -3   6    0.06    0.05
   0   3   6    0.20    0.06
   0  -3   6    0.02    0.04
   0  -3  -6    0.01    0.04
   0  -4  -6   40.92    0.91
   0   4   6   41.52    0.95
   0  -4   6   41.71    0.95
   0   4  -6   41.51    0.93
   0  -4   6   39.55    0.92
   0   5   6    0.07    0.06
   1   0  -6   56.67    1.17
   1   0   6   58.17    1.15
  -1   0  -6   57.62    1.18
  -1   0   6   57.94    1.19
  -1   0   6   57.01    1.15
   1   0   6   56.83    1.20
   1   0  -6   57.74    1.15
   1  -1  -6    0.11    0.03
  -1  -1   6    0.15    0.04
   1   1   6    0.17    0.05
   1   1   6    0.17    0.02
  -1   1  -6    0.24    0.05
  -1  -1   6    0.21    0.04
   1   1  -6    0.20    0.04
   1  -1   6    0.27    0.05
  -1  -1  -6    0.17    0.04
   1  -1   6    0.15    0.04
  -1   1   6    0.18    0.04
  -1   2  -6   45.38    0.96
  -1  -2   6   44.01    0.95
   1   2   6   44.02    0.98
   1  -2  -6   43.26    0.93
  -1  -2   6   44.75    0.94
   1   2  -6   44.19    0.94
   1  -2   6   44.83    0.95
  -1   2   6   44.62    0.96
  -1  -2  -6   43.08    0.93
   1  -2   6   43.41    0.94
  -1  -3   6    0.11    0.05
   1   3   6    0.17    0.06
  -1   3  -6    0.08    0.05
  -1  -3   6    0.03    0.05
   1  -3  -6    0.14    0.05
   1  -3   6    0.04    0.04
   1  -3   6    0.02    0.04
  -1   3   6    0.05    0.04
   1   3  -6    0.05    0.04
  -1  -3  -6    0.02    0.04
   1  -4  -6   26.49    0.63
  -1  -4   6   25.70    0.66
  -1  -4   6   25.55    0.64
  -1   4  -6   27.09    0.65
   1   4   6   26.45    0.66
   1  -4   6   25.91    0.65
   1  -4   6   26.03    0.64
  -1   4   6   26.04    0.66
   1   5   6    0.11    0.07
  -1  -5   6    0.02    0.07
   1   5  -6   -0.08    0.06
   1  -5   6    0.02    0.06
  -2   0   6  209.67    4.07
  -2   0   6  202.88    4.15
  -2   0  -6  207.30    4.05
   2   0   6  206.88    4.02
  -2   0  -6  207.73    4.08
   2   0   6  205.26    4.07
   2   0  -6  208.27    4.01
   2   0  -6  209.84    4.09
  -2  -1   6   26.88    0.60
  -2   1  -6   26.47    0.61
  -2   1  -6   26.84    0.54
   2  -1  -6   26.66    0.58
   2   1   6   26.37    0.54
   2   1   6   26.30    0.61
   2  -1   6   26.30    0.58
   2  -1   6   27.55    0.61
   2   1  -6   26.33    0.58
  -2  -1  -6   25.79    0.59
   2   1  -6   25.77    0.58
  -2  -1  -6   25.43    0.60
  -2   1   6   25.56    0.59
  -2   1   6   26.07    0.60
   2  -2  -6  154.98    3.03
  -2   2  -6  153.16    3.06
  -2  -2   6  154.82    3.05
   2   2   6  153.42    3.07
  -2  -2  -6  152.19    3.02
   2  -2   6  153.21    3.04
   2  -2   6  153.89    3.04
   2   2  -6  154.00    3.02
  -2   2   6  151.30    3.03
   2   3   6   14.07    0.41
   2  -3  -6   14.23    0.38
  -2   3  -6   13.98    0.40
  -2  -3   6   14.34    0.40
  -2   3   6   14.11    0.38
  -2  -3  -6   14.33    0.36
   2   3  -6   14.21    0.40
   2  -3   6   14.38    0.39
   2   3  -6   13.91    0.37
   2  -3   6   13.75    0.39
  -2  -4   6   80.63    1.70
  -2   4  -6   80.06    1.68
   2   4   6   78.47    1.70
   2  -4  -6   77.58    1.65
   2  -4   6   79.14    1.67
   2   4  -6   79.60    1.68
  -2  -5   6    5.81    0.27
   2   5   6    5.59    0.26
  -2   5  -6    5.54    0.25
   2  -5  -6    5.51    0.24
   2   5  -6    5.94    0.26
  -2   5   6    5.52    0.27
   2  -5   6    5.59    0.24
  -3   0   6  165.18    3.28
  -3   0  -6  168.41    3.28
   3   0   6  167.59    3.26
   3   0  -6  169.34    3.27
   3   0  -6  166.21    3.26
  -3   0   6  164.62    3.28
   3   0   6  168.01    3.31
  -3   0  -6  168.64    3.30
   3  -1  -6    0.65    0.07
  -3  -1   6    0.51    0.06
  -3   1  -6    0.48    0.07
   3   1   6    0.72    0.05
  -3   1  -6    0.62    0.05
   3   1   6    0.67    0.08
  -3  -1   6    0.51    0.07
   3  -1  -6    0.60    0.06
  -3  -1  -6    0.60    0.08
   3  -1   6    0.65    0.08
  -3   1   6    0.50    0.06
   3  -1   6    0.63    0.07
   3   1  -6    0.64    0.07
  -3  -1  -6    0.66    0.07
   3   1  -6    0.57    0.06
  -3   1   6    0.53    0.06
  -3   2  -6  123.98    2.54
  -3  -2   6  124.03    2.53
   3  -2  -6  127.04    2.51
   3   2   6  124.01    2.55
   3  -2   6  125.93    2.53
  -3  -2  -6  125.22    2.56
  -3  -2  -6  127.57    2.50
   3   2  -6  128.35    2.49
   3   2  -6  128.06    2.53
  -3   2   6  124.22    2.55
   3  -2   6  129.23    2.53
  -3   2   6  126.31    2.50
   3  -3  -6    0.42    0.07
  -3  -3   6    0.34    0.07
   3   3   6    0.33    0.08
  -3   3  -6    0.42    0.08
  -3   3   6    0.31    0.06
  -3   3   6    0.39    0.08
   3  -3   6    0.33    0.07
   3   3  -6    0.36    0.08
  -3   4  -6   67.11    1.46
   3   4   6   67.68    1.48
  -3  -4   6   68.35    1.48
   3  -4  -6   66.15    1.43
   3  -4   6   67.84    1.45
  -3   4   6   65.51    1.48
   3   4  -6   67.64    1.45
  -3   5  -6    0.16    0.08
   3   5   6    0.20    0.08
   3  -5  -6    0.17    0.07
  -3  -5   6    0.10    0.08
  -3   5   6    0.14    0.08
   3   5  -6    0.14    0.08
   3  -5   6    0.14    0.07
  -4   0  -6  125.42    2.48
  -4   0   6  123.39    2.46
  -4   0   6  125.36    2.47
   4   0   6  121.42    2.45
  -4   0  -6  126.46    2.47
   4   0  -6  126.30    2.45
   4   0   6  122.77    2.48
   4   0  -6  121.47    2.44
  -4  -1   6   18.34    0.51
  -4   1  -6   20.49    0.46
   4   1   6   20.04    0.44
   4  -1  -6   20.46    0.47
   4   1   6   19.67    0.50
  -4   1  -6   19.45    0.49
   4  -1  -6   20.79    0.47
  -4  -1   6   20.27    0.48
   4  -1   6   18.42    0.49
  -4   1   6   19.55    0.45
  -4  -1  -6   20.72    0.50
   4   1  -6   20.48    0.45
  -4  -1  -6   19.92    0.48
   4   1  -6   19.75    0.47
   4  -1   6   20.15    0.48
  -4   1   6   20.13    0.49
  -4   2  -6   95.91    1.95
  -4  -2   6   93.63    1.94
   4   2   6   94.12    1.95
   4  -2  -6   96.69    1.92
  -4  -2  -6   94.36    1.98
   4  -2   6   95.27    1.94
   4   2  -6   96.62    1.88
   4   2  -6   92.29    1.93
  -4   2   6   95.50    1.89
  -4  -2  -6   94.27    1.90
  -4   2   6   94.13    1.95
   4  -2   6   94.61    1.92
  -4   3  -6   10.57    0.34
   4   3   6   10.10    0.34
  -4  -3   6   10.34    0.33
   4  -3  -6   10.11    0.31
  -4  -3  -6   10.41    0.36
  -4   3   6   10.06    0.34
   4  -3   6   10.34    0.33
   4   3  -6   10.81    0.33
  -4   4  -6   56.00    1.23
   4  -4  -6   54.03    1.20
  -4  -4   6   54.56    1.23
   4   4   6   54.62    1.24
   4  -4   6   54.10    1.22
   4   4  -6   53.93    1.21
   4  -5  -6    4.30    0.22
  -4   5  -6    4.39    0.23
  -5   0   6   64.01    1.33
  -5   0  -6   65.24    1.36
   5   0  -6   65.71    1.33
   5   0   6   64.66    1.35
   5   0  -6   64.63    1.32
  -5   0  -6   66.95    1.36
  -5   0   6   64.73    1.36
   5   0   6   63.84    1.33
  -5  -1   6   13.05    0.40
  -5  -1   6   13.36    0.35
   5  -1  -6   13.60    0.34
   5   1   6   12.44    0.36
  -5   1  -6   13.18    0.34
   5   1   6   13.25    0.32
   5  -1  -6   13.04    0.33
  -5   1  -6   12.46    0.35
   5  -1   6   12.53    0.35
  -5  -1  -6   12.72    0.37
   5   1  -6   12.42    0.34
  -5   1   6   12.65    0.36
  -5  -1  -6   12.75    0.35
  -5   1   6   12.92    0.32
   5  -1   6   11.27    0.35
   5   1  -6   13.02    0.31
   5  -2  -6   52.48    1.11
  -5  -2   6   51.13    1.13
   5   2   6   51.73    1.14
  -5   2  -6   53.29    1.14
   5   2  -6   52.19    1.12
   5  -2   6   52.22    1.14
  -5   2   6   50.96    1.14
  -5   2   6   53.83    1.08
  -5  -2  -6   52.15    1.18
  -5   3  -6    7.34    0.28
   5   3   6    7.54    0.28
   5  -3  -6    7.78    0.26
  -5  -3   6    7.51    0.28
  -5  -3  -6    7.50    0.31
   5  -3   6    7.61    0.28
  -5   3   6    7.44    0.28
   5   3  -6    7.20    0.27
   5  -4  -6   31.28    0.75
  -5   4  -6   30.44    0.78
   5   4   6   32.05    0.79
  -5  -4   6   30.64    0.78
   5  -4   6   30.16    0.78
   5   4  -6   30.79    0.76
  -5   4   6   31.97    0.79
   6   0   6   25.22    0.60
  -6   0  -6   25.86    0.63
   6   0   6   26.73    0.60
  -6   0   6   25.87    0.59
  -6   0  -6   26.97    0.61
   6   0  -6   26.34    0.58
  -6   0   6   26.16    0.63
   6   0  -6   26.00    0.60
   6   1   6   23.75    0.54
  -6   1  -6   23.01    0.57
   6   1   6   23.16    0.58
  -6  -1   6   23.17    0.56
  -6  -1   6   24.42    0.64
  -6   1  -6   23.73    0.56
   6  -1  -6   23.09    0.54
   6  -1  -6   24.29    0.57
  -6  -1  -6   24.17    0.56
  -6   1   6   23.15    0.58
   6   1  -6   22.86    0.55
  -6  -1  -6   23.43    0.60
   6  -1   6   23.78    0.58
   6   1  -6   23.61    0.51
  -6   1   6   23.66    0.53
   6   2   6   22.11    0.57
  -6  -2   6   22.60    0.56
  -6   2  -6   21.80    0.56
   6  -2  -6   22.56    0.54
  -6   2   6   21.18    0.56
   6   2  -6   22.50    0.55
   6  -2   6   21.95    0.56
  -6  -2  -6   22.39    0.60
   6  -3  -6   13.48    0.39
   6   3   6   13.05    0.41
  -6   3  -6   14.18    0.42
  -6  -3   6   13.60    0.41
  -6  -3  -6   13.53    0.46
   6   3  -6   13.95    0.40
  -6   3   6   13.03    0.42
   6  -3   6   13.54    0.42
   6  -4  -6   15.00    0.44
  -6   4  -6   14.67    0.46
  -6  -4   6   14.50    0.46
   6   4   6   14.60    0.46
   6  -4   6   15.07    0.47
   6   4  -6   15.85    0.45
  -6   4   6   14.79    0.47
   7   0   6   91.31    1.83
  -7   0   6   92.02    1.82
   7   0  -6   90.36    1.81
  -7   0   6   89.48    1.88
  -7   0  -6   88.47    1.84
   7   0  -6   91.15    1.84
   7   0   6   89.27    1.84
  -7   0  -6   90.38    1.88
  -7  -1   6    7.42    0.25
   7   1   6    7.26    0.25
  -7   1  -6    7.19    0.25
   7  -1  -6    7.19    0.23
  -7   1  -6    7.95    0.26
   7   1   6    7.57    0.24
  -7  -1   6    8.16    0.32
   7  -1  -6    7.66    0.26
  -7  -1  -6    7.70    0.29
  -7   1   6    7.42    0.27
   7   1  -6    7.23    0.25
   7  -1   6    7.23    0.26
  -7  -2   6   74.49    1.54
  -7   2  -6   72.66    1.55
   7  -2  -6   74.09    1.52
   7   2   6   73.82    1.56
   7   2  -6   69.99    1.53
   7  -2   6   73.65    1.56
  -7   2   6   71.79    1.57
  -7  -2  -6   73.63    1.60
  -7   3  -6    4.32    0.22
   7   3   6    4.57    0.22
  -7  -3   6    4.39    0.22
   7  -3  -6    4.78    0.21
   7  -3   6    4.72    0.23
  -7   3   6    4.47    0.22
   7   3  -6    4.87    0.22
  -7  -3  -6    4.76    0.26
   7  -4  -6   44.35    1.01
  -7  -4   6   43.87    1.05
   7   4   6   43.16    1.04
  -7   4  -6   43.65    1.04
   7   4  -6   43.72    1.02
   7  -4   6   42.73    1.05
  -7  -4  -6   43.68    1.11
  -7   4   6   44.52    1.05
  -8   0  -6  123.63    2.52
   8   0   6  121.28    2.47
  -8   0   6  121.55    2.52
   8   0  -6  124.52    2.43
   8   0  -6  122.50    2.47
  -8   0   6  121.27    2.45
  -8   1  -6    4.71    0.20
  -8   1  -6    5.29    0.22
   8   1   6    4.64    0.20
   8   1   6    4.70    0.19
  -8  -1   6    4.67    0.25
   8  -1  -6    4.97    0.21
   8  -1  -6    4.66    0.18
  -8  -1   6    4.79    0.19
   8   1  -6    4.83    0.20
   8  -1   6    4.81    0.21
  -8   1   6    4.60    0.22
  -8  -1  -6    4.66    0.23
   8  -2  -6  100.29    2.02
  -8  -2   6   97.72    2.04
  -8   2  -6   99.85    2.05
   8   2   6   99.01    2.05
   8   2  -6   98.61    2.03
  -8  -2  -6   99.50    2.12
   8  -2   6   97.95    2.06
  -8   2   6   96.29    2.07
   8   3   6    3.00    0.19
   8  -3  -6    2.85    0.17
  -8   3  -6    2.89    0.18
  -8  -3   6    3.02    0.19
   8  -3   6    2.80    0.19
  -8  -3  -6    3.00    0.22
  -8   3   6    2.99    0.19
   8   3  -6    3.03    0.18
   9   0   6   76.50    1.57
  -9   0  -6   74.03    1.61
   9   0  -6   73.85    1.57
  -9   0   6   74.10    1.64
  -9   1  -6    0.16    0.06
  -9  -1   6    0.09    0.06
  -9  -1   6    0.12    0.08
   9  -1  -6    0.14    0.06
   9   1   6    0.11    0.06
  -9   1  -6    0.06    0.06
   9  -1  -6    0.17    0.08
  -9   1   6    0.21    0.08
  -9  -1  -6    0.28    0.09
   9  -1   6    0.11    0.06
   9   1  -6    0.09    0.06
  -9  -2   6   62.73    1.33
   9   2   6   61.80    1.33
   9  -2  -6   62.01    1.30
  -9   2  -6   61.14    1.33
  -9  -2  -6   60.16    1.40
   9  -2   6   57.99    1.34
  -9   2   6   61.88    1.36
   9   2  -6   59.83    1.32
  -9  -3   6    0.07    0.07
   9   3   6    0.15    0.07
  -9   3  -6    0.04    0.06
   9  -3  -6    0.15    0.07
   9  -3   6    0.18    0.09
  -9  -3  -6    0.11    0.09
  -9   3   6    0.01    0.07
   9   3  -6    0.05    0.07
  10   0  -6   22.15    0.57
 -10   0  -6   21.74    0.61
  10   0   6   21.73    0.56
 -10   0   6   22.74    0.63
  10   1   6    1.13    0.12
 -10  -1   6    1.04    0.15
 -10   1  -6    0.99    0.12
  10  -1   6    1.00    0.12
 -10   1   6    1.04    0.14
  10   1  -6    0.94    0.12
 -10  -1  -6    1.11    0.15
 -10   2  -6   19.34    0.51
  10  -2  -6   18.68    0.49
 -10  -2   6   18.99    0.51
  10   2  -6   18.77    0.51
  10  -2   6   17.74    0.52
 -10   2   6   18.93    0.55
 -10  -2  -6   18.22    0.58
 -10  -3   6    0.58    0.11
 -10   3  -6    0.70    0.11
  10  -3  -6    0.62    0.10
  10   3   6    0.59    0.10
 -11   0   6   23.69    0.66
  11   0   6   21.74    0.57
  11   0  -6   20.57    0.57
 -11   0  -6   22.10    0.62
  11   1   6    0.05    0.06
 -11   1  -6    0.05    0.07
 -11  -1   6   -0.05    0.07
  11   1  -6    0.00    0.07
 -11  -1  -6    0.11    0.08
 -11   1   6   -0.01    0.07
  11  -1   6    0.06    0.07
  11  -2  -6   18.82    0.49
 -11   2   6   18.13    0.55
 -11  -2  -6   18.19    0.58
  11  -2   6   18.14    0.53
 -12   0   6   46.39    1.12
  12   0   6   45.70    1.04
 -12   0  -6   44.96    1.09
 -12   1  -6    1.03    0.14
  12   1   6    0.98    0.12
 -12  -1  -6    0.99    0.16
  12   1  -6    0.86    0.12
 -12   1   6    0.86    0.15
   0   0  -7    0.06    0.04
   0   0   7    0.05    0.04
   0   0   7    0.03    0.03
   0   1  -7  433.01    8.29
   0  -1   7  414.36    8.28
   0  -1  -7  419.57    8.24
   0   1   7  419.73    8.45
   0  -1   7  416.44    8.38
   0  -2   7    0.04    0.04
   0   2   7    0.04    0.04
   0  -2   7    0.04    0.04
   0  -2  -7    0.05    0.04
   0   2  -7    0.11    0.04
   0  -3   7  251.06    4.95
   0  -3  -7  251.20    4.93
   0  -3   7  257.90    4.98
   0   3  -7  251.17    4.95
   0   3   7  248.64    4.97
   0  -4  -7    0.06    0.05
   0   4  -7    0.01    0.05
   0  -4   7    0.17    0.07
   0  -4   7   -0.01    0.06
   0   4   7    0.00    0.05
   1   0  -7    0.65    0.07
   1   0   7    0.57    0.05
  -1   0   7    0.65    0.07
  -1   0   7    0.65    0.06
   1   0   7    0.67    0.08
   1   0  -7    0.67    0.05
  -1   0  -7    0.49    0.07
  -1  -1   7   29.07    0.63
  -1   1  -7   29.47    0.67
   1  -1  -7   29.55    0.65
  -1  -1   7   29.58    0.66
   1   1   7   29.44    0.67
   1  -1   7   28.80    0.64
  -1   1   7   28.55    0.66
  -1  -1  -7   29.74    0.65
   1  -1   7   28.75    0.67
   1   1  -7   29.26    0.65
   1  -2  -7    0.48    0.07
  -1  -2   7    0.47    0.07
  -1   2  -7    0.54    0.08
  -1  -2   7    0.65    0.08
   1   2   7    0.45    0.07
   1   2  -7    0.49    0.07
  -1   2   7    0.44    0.07
  -1  -2  -7    0.52    0.07
   1  -2   7    0.58    0.08
   1  -2   7    0.47    0.07
  -1  -3   7   18.63    0.47
   1  -3  -7   18.67    0.47
  -1   3  -7   18.45    0.49
   1   3   7   18.63    0.51
  -1  -3   7   18.73    0.50
   1  -3   7   19.33    0.50
   1  -3   7   18.26    0.48
  -1   3   7   18.24    0.48
  -1  -3  -7   18.56    0.46
   1   3  -7   18.42    0.47
  -1  -4   7    0.28    0.08
   1  -4  -7    0.29    0.07
   1   4   7    0.20    0.08
  -1   4  -7    0.21    0.07
   1  -4   7    0.37    0.09
   1  -4   7    0.25    0.07
  -1   4   7    0.25    0.07
   1   5   7   11.04    0.38
   1   5  -7    9.74    0.40
  -2   0  -7   21.70    0.49
   2   0   7   21.79    0.48
   2   0  -7   21.73    0.50
  -2   0   7   22.26    0.49
  -2   0  -7   22.40    0.52
   2   0  -7   21.62    0.48
   2   0   7   21.89    0.53
  -2   0   7   21.43    0.51
  -2   1  -7  112.23    2.27
   2   1   7  110.47    2.27
   2  -1  -7  113.69    2.24
  -2  -1   7  112.52    2.26
  -2  -1  -7  113.97    2.25
   2  -1   7  112.97    2.24
  -2   1   7  110.27    2.25
   2   1  -7  114.41    2.24
   2   1  -7  110.79    2.23
  -2   1   7  113.81    2.26
   2  -1   7  111.56    2.28
   2   2   7   15.23    0.42
   2  -2  -7   14.88    0.38
  -2   2  -7   14.21    0.40
  -2  -2   7   14.44    0.40
   2  -2   7   15.42    0.41
   2   2  -7   14.67    0.39
  -2  -2  -7   15.17    0.38
  -2   2   7   14.89    0.39
   2  -2   7   14.58    0.39
   2   2  -7   14.90    0.37
   2   3   7   79.10    1.68
   2  -3  -7   77.17    1.63
  -2  -3   7   78.61    1.67
  -2   3  -7   82.75    1.67
  -2  -3  -7   78.67    1.62
   2  -3   7   79.15    1.66
   2  -3   7   78.58    1.65
  -2   3   7   77.64    1.64
   2   3  -7   80.98    1.62
   2   3  -7   77.69    1.65
   2   4   7    6.29    0.27
  -2  -4   7    6.60    0.28
   2  -4  -7    6.46    0.25
  -2   4  -7    6.54    0.26
   2  -4   7    6.38    0.26
   2   4  -7    6.42    0.26
  -2  -5   7   42.66    1.06
  -2   5  -7   43.69    1.02
   2   5   7   44.30    1.05
   2  -5  -7   43.42    1.01
  -3   0  -7    1.20    0.09
   3   0   7    1.24    0.10
   3   0  -7    1.20    0.08
  -3   0   7    1.02    0.08
  -3   0   7    1.26    0.08
  -3   0  -7    1.24    0.08
   3   0   7    1.22    0.08
   3   0  -7    1.18    0.08
  -3  -1   7   23.02    0.54
  -3   1  -7   22.27    0.55
   3   1   7   22.90    0.56
   3  -1  -7   23.19    0.53
  -3   1   7   22.88    0.53
  -3  -1  -7   22.94    0.54
   3   1  -7   22.61    0.52
  -3  -1  -7   22.67    0.55
   3  -1   7   21.63    0.56
  -3   1   7   23.04    0.54
   3   1  -7   23.77    0.52
   3  -1   7   23.25    0.53
  -3   2  -7    0.82    0.10
   3  -2  -7    0.89    0.09
   3   2   7    0.93    0.10
  -3  -2   7    0.95    0.10
  -3  -2  -7    0.81    0.09
   3   2  -7    1.03    0.10
  -3  -2  -7    0.88    0.11
   3  -2   7    1.02    0.11
   3   2  -7    0.97    0.08
  -3   2   7    0.98    0.10
  -3   2   7    0.82    0.08
   3  -2   7    0.96    0.09
  -3   3  -7   14.87    0.43
   3   3   7   15.60    0.44
   3  -3  -7   14.92    0.41
  -3  -3   7   15.26    0.44
   3  -3   7   14.53    0.42
   3   3  -7   14.77    0.42
  -3   3   7   15.28    0.40
  -3   3   7   15.57    0.45
   3  -4  -7    0.55    0.09
  -3   4  -7    0.70    0.11
   3   4   7    0.46    0.10
  -3  -4   7    0.40    0.09
  -3   4   7    0.45    0.10
   3   4  -7    0.46    0.10
   3  -4   7    0.51    0.09
  -3   5  -7    8.38    0.32
   3  -5  -7    7.71    0.33
   4   0  -7   93.74    1.90
  -4   0  -7   93.35    1.92
  -4   0   7   94.80    1.92
   4   0   7   95.38    1.90
   4   0   7   96.42    1.94
   4   0  -7   96.04    1.90
  -4   0  -7   95.37    1.93
  -4   0   7   95.87    1.92
  -4   1  -7  101.94    2.09
  -4  -1   7  102.16    2.08
   4   1   7  105.33    2.03
   4  -1  -7  105.00    2.06
   4   1   7  102.41    2.10
  -4   1   7  103.66    2.09
  -4  -1  -7  102.09    2.10
   4  -1   7  104.57    2.08
   4  -1   7   96.51    2.11
  -4  -1  -7  105.93    2.09
  -4   1   7  101.66    2.05
   4   1  -7  101.57    2.07
   4   1  -7  103.84    2.04
  -4   2  -7   68.82    1.47
   4  -2  -7   70.04    1.43
  -4  -2   7   67.78    1.45
   4   2   7   69.13    1.48
  -4   2   7   69.27    1.47
  -4   2   7   68.45    1.41
   4   2  -7   69.89    1.45
   4   2  -7   69.20    1.39
  -4  -2  -7   69.26    1.44
   4  -2   7   69.56    1.45
   4  -2   7   66.53    1.46
  -4  -2  -7   69.67    1.49
   4   3   7   70.95    1.51
   4  -3  -7   69.95    1.47
  -4  -3   7   69.86    1.50
  -4   3  -7   70.13    1.50
   4  -3   7   68.67    1.49
   4   3  -7   68.75    1.48
  -4   3   7   68.71    1.51
   4   4   7   34.49    0.84
  -4  -4   7   32.87    0.83
  -4   4  -7   33.75    0.82
   4  -4  -7   33.01    0.80
   4   4  -7   33.79    0.81
   4  -4   7   33.62    0.82
  -4   4   7   33.19    0.84
   5   0   7    0.06    0.04
  -5   0  -7    0.03    0.05
   5   0  -7    0.06    0.04
   5   0  -7    0.03    0.04
   5   0   7    0.02    0.04
  -5   0   7    0.01    0.04
  -5   0   7    0.04    0.04
  -5   0  -7   -0.01    0.04
  -5   1  -7   16.24    0.43
   5  -1  -7   15.94    0.40
   5   1   7   16.67    0.43
   5   1   7   17.02    0.39
  -5  -1   7   16.01    0.42
   5  -1   7   14.74    0.43
  -5   1   7   15.44    0.39
   5   1  -7   17.05    0.39
  -5  -1  -7   17.16    0.43
  -5  -1  -7   15.82    0.44
   5   1  -7   16.62    0.41
   5  -1   7   15.78    0.42
  -5   1   7   15.78    0.43
   5  -2  -7   -0.03    0.04
   5   2   7    0.24    0.07
  -5   2  -7    0.09    0.06
  -5  -2   7    0.02    0.05
   5   2  -7   -0.01    0.05
   5  -2   7    0.14    0.06
  -5   2   7    0.07    0.04
  -5  -2  -7    0.03    0.06
  -5   2   7    0.02    0.05
  -5   3  -7   11.17    0.36
   5  -3  -7   10.66    0.34
  -5  -3   7   11.05    0.36
   5   3   7   11.24    0.36
   5  -3   7   10.74    0.36
  -5   3   7   11.45    0.37
  -5  -3  -7   10.85    0.39
   5   3  -7   10.80    0.35
   5  -4  -7    0.10    0.07
  -5  -4   7    0.02    0.06
   5   4   7    0.06    0.07
  -5   4  -7    0.05    0.07
   5   4  -7    0.03    0.06
  -5   4   7   -0.03    0.06
   5  -4   7    0.08    0.07
   6   0   7   23.40    0.55
  -6   0  -7   23.85    0.58
  -6   0  -7   24.13    0.57
   6   0  -7   23.16    0.55
   6   0   7   24.14    0.57
  -6   0   7   23.69    0.55
  -6   0   7   23.04    0.58
   6   0  -7   23.40    0.54
  -6   1  -7  206.72    4.26
  -6  -1   7  215.94    4.25
   6   1   7  217.78    4.21
   6   1   7  218.17    4.26
   6  -1  -7  216.03    4.23
   6   1  -7  213.11    4.24
   6   1  -7  217.43    4.20
  -6  -1  -7  217.53    4.25
   6  -1   7  215.77    4.25
  -6   1   7  215.94    4.28
  -6   1   7  216.36    4.21
  -6  -1  -7  216.48    4.29
   6   2   7   17.03    0.47
  -6   2  -7   16.85    0.47
   6  -2  -7   17.39    0.45
  -6  -2   7   17.34    0.47
  -6   2   7   17.24    0.48
   6  -2   7   17.32    0.47
   6   2  -7   17.21    0.46
  -6  -2  -7   17.12    0.51
  -6  -3   7  141.89    2.91
   6   3   7  144.59    2.92
  -6   3  -7  139.88    2.91
  -6  -3  -7  141.52    2.97
   6  -3   7  142.17    2.92
  -6   3   7  145.25    2.93
   6   3  -7  142.39    2.89
  -6  -4   7    8.66    0.34
  -6   4  -7    8.66    0.33
   6  -4  -7    9.04    0.32
   6   4   7    8.56    0.34
  -6   4   7    8.99    0.34
   6  -4   7    8.64    0.34
   6   4  -7    9.02    0.32
  -7   0   7    0.12    0.05
   7   0   7    0.15    0.05
   7   0  -7    0.09    0.05
   7   0  -7    0.13    0.05
  -7   0   7    0.17    0.07
  -7   0  -7    0.13    0.06
   7   0   7    0.25    0.06
  -7   0  -7    0.13    0.06
   7   1   7    4.39    0.19
  -7  -1   7    4.21    0.18
   7   1   7    4.13    0.17
   7  -1  -7    4.22    0.17
  -7   1  -7    4.44    0.19
  -7   1   7    4.25    0.20
   7  -1   7    4.51    0.19
  -7  -1  -7    4.47    0.22
   7   1  -7    4.24    0.18
   7   2   7    0.27    0.07
   7  -2  -7    0.07    0.05
  -7  -2   7    0.05    0.06
  -7   2  -7    0.02    0.05
  -7   2   7    0.10    0.06
  -7  -2  -7    0.11    0.07
   7  -2   7    0.06    0.06
   7   2  -7    0.06    0.06
   7   3   7    3.40    0.19
  -7   3  -7    3.53    0.20
   7  -3  -7    3.66    0.19
  -7  -3   7    3.54    0.20
   7  -3   7    3.90    0.21
   7   3  -7    3.43    0.19
  -7   3   7    3.25    0.20
  -7  -3  -7    3.31    0.23
   8   0   7    0.55    0.08
   8   0  -7    0.45    0.07
   8   0  -7    0.52    0.09
  -8   0   7    0.57    0.10
  -8   0  -7    0.54    0.10
  -8   0   7    0.68    0.08
   8   1   7   14.12    0.38
   8   1   7   14.84    0.41
  -8   1  -7   15.65    0.42
  -8  -1   7   14.68    0.40
   8  -1  -7   14.49    0.39
  -8  -1  -7   14.22    0.45
   8   1  -7   13.89    0.40
   8  -1   7   14.70    0.42
  -8   1   7   14.47    0.44
  -8  -2   7    0.47    0.09
   8  -2  -7    0.52    0.09
  -8   2  -7    0.31    0.08
   8   2   7    0.36    0.08
   8  -2   7    0.35    0.09
  -8  -2  -7    0.35    0.10
  -8   2   7    0.40    0.09
   8   2  -7    0.35    0.08
   8   3   7   12.28    0.40
   8  -3  -7   12.57    0.38
  -8  -3   7   12.01    0.40
  -8   3  -7   12.47    0.40
   8  -3   7   11.89    0.41
   8   3  -7   12.32    0.39
  -8  -3  -7   12.29    0.45
  -8   3   7   12.29    0.42
  -9   0  -7    0.07    0.07
   9   0   7    0.05    0.05
   9   0  -7    0.10    0.07
  -9   0   7    0.01    0.06
  -9  -1   7   15.77    0.43
  -9   1  -7   16.16    0.45
   9  -1  -7   16.53    0.42
   9   1   7   16.32    0.43
  -9   1   7   16.01    0.48
   9  -1   7   16.25    0.46
  -9  -1  -7   16.12    0.50
   9   1  -7   15.87    0.44
   9  -2  -7    0.03    0.06
  -9   2  -7   -0.02    0.06
   9   2   7    0.04    0.06
  -9  -2   7    0.12    0.07
   9  -2   7    0.01    0.06
  -9  -2  -7    0.01    0.08
   9   2  -7    0.13    0.07
  -9   2   7    0.01    0.06
  -9   3  -7   11.64    0.39
   9   3   7   11.68    0.39
   9  -3  -7   11.64    0.37
  -9  -3   7   11.92    0.39
  -9   3   7   11.39    0.40
  -9  -3  -7   11.57    0.45
   9   3  -7   11.87    0.38
   9  -3   7   11.20    0.40
 -10   0  -7    0.64    0.12
 -10   0   7    0.61    0.11
  10   0   7    0.60    0.10
  10   0  -7    0.91    0.12
  10   1   7  119.76    2.40
  10  -1   7  117.76    2.44
 -10   1   7  116.55    2.48
 -10  -1  -7  121.57    2.50
  10   1  -7  116.39    2.43
 -10   2  -7    0.69    0.10
 -10  -2   7    0.59    0.10
  10  -2  -7    0.52    0.09
 -10  -2  -7    0.59    0.13
  10   2  -7    0.54    0.10
  10  -2   7    0.59    0.11
 -10   2   7    0.62    0.12
  11   0  -7    1.67    0.15
  11   0   7    1.66    0.14
 -11   0   7    1.85    0.18
 -11   0  -7    1.65    0.16
  11   1   7    5.98    0.24
 -11   1   7    6.15    0.29
  11  -1   7    6.19    0.26
 -11  -1  -7    6.24    0.30
  11   1  -7    6.05    0.26
  11  -2  -7    1.56    0.14
 -12   0   7    6.21    0.30
 -12   0  -7    6.31    0.29
   0   0   8  295.53    5.63
   0   0  -8  290.44    5.67
   0   0   8  279.79    5.75
   0  -1   8    0.06    0.04
   0   1  -8    0.07    0.05
   0  -1  -8    0.07    0.04
   0   1   8    0.03    0.04
   0  -1   8    0.01    0.04
   0  -2  -8  228.92    4.50
   0   2   8  226.52    4.53
   0  -2   8  232.49    4.54
   0  -2   8  233.19    4.50
   0   2  -8  227.24    4.51
   0   3   8    0.10    0.06
   0  -3   8    0.04    0.06
   0  -3  -8    0.07    0.05
   0  -3   8    0.11    0.06
   0   3  -8    0.04    0.04
   0  -4   8  129.59    2.65
   0   4  -8  130.99    2.65
   0   4   8  131.03    2.67
   0  -4   8  133.13    2.71
   0  -4  -8  126.38    2.65
  -1   0   8    0.92    0.07
   1   0  -8    0.65    0.06
   1   0   8    0.78    0.06
   1   0   8    0.63    0.08
   1   0  -8    0.54    0.07
  -1  -1   8    6.22    0.19
   1   1   8    6.22    0.23
  -1  -1   8    5.99    0.22
  -1   1  -8    6.25    0.22
   1  -1  -8    6.45    0.21
   1  -1   8    6.51    0.20
   1  -1   8    6.17    0.23
  -1  -1  -8    6.30    0.21
  -1   1   8    6.43    0.22
   1   1  -8    6.43    0.21
  -1  -2   8    0.53    0.08
  -1  -2   8    0.47    0.07
   1   2   8    0.42    0.07
   1  -2  -8    0.48    0.07
  -1   2  -8    0.50    0.08
   1  -2   8    0.49    0.07
  -1   2   8    0.42    0.07
   1   2  -8    0.70    0.08
  -1  -2  -8    0.67    0.08
  -1  -3   8    3.71    0.17
   1   3   8    3.50    0.18
  -1   3  -8    3.58    0.18
  -1  -3   8    3.83    0.19
   1  -3  -8    3.66    0.17
  -1   3   8    3.73    0.18
   1  -3   8    3.93    0.20
  -1  -3  -8    3.78    0.17
   1  -3   8    3.62    0.18
   1   3  -8    3.71    0.17
   1  -4  -8    0.28    0.07
  -1  -4   8    0.21    0.08
   1   4   8    0.15    0.07
  -1   4  -8    0.29    0.08
   1  -4   8    0.21    0.07
  -1   4   8    0.32    0.08
   2   0   8   90.31    1.89
   2   0  -8   93.84    1.83
   2   0   8   90.91    1.83
  -2   0   8   94.92    1.84
  -2   0  -8   92.12    1.88
  -2   0   8   89.58    1.87
   2   0  -8   92.27    1.85
   2  -1  -8    3.24    0.14
  -2   1  -8    3.22    0.15
  -2  -1   8    3.19    0.15
   2   1   8    3.08    0.16
  -2   1   8    3.32    0.15
   2  -1   8    3.13    0.16
  -2   1   8    3.32    0.15
   2  -1   8    3.16    0.14
  -2  -1  -8    3.32    0.15
   2   1  -8    3.24    0.14
   2   1  -8    2.97    0.13
  -2   2  -8   74.07    1.56
  -2  -2   8   72.95    1.56
   2   2   8   72.46    1.56
   2  -2  -8   73.63    1.53
   2   2  -8   74.17    1.54
   2   2  -8   74.38    1.52
  -2   2   8   73.61    1.54
   2  -2   8   74.14    1.54
   2  -2   8   76.05    1.59
  -2  -2  -8   75.52    1.54
   2   3   8    1.79    0.14
   2  -3  -8    1.62    0.12
  -2   3  -8    1.88    0.14
  -2  -3   8    2.27    0.15
  -2   3   8    1.90    0.13
  -2  -3  -8    2.00    0.13
   2   3  -8    2.11    0.12
   2   3  -8    1.75    0.14
   2  -3   8    1.60    0.14
   2  -3   8    1.87    0.13
  -2   4  -8   46.61    1.05
   2  -4  -8   44.28    1.03
  -2  -4   8   45.28    1.07
   2   4   8   46.24    1.08
   2  -4   8   45.20    1.04
   2   4  -8   46.00    1.05
  -2   4   8   45.74    1.08
   3   0  -8    0.14    0.05
  -3   0   8    0.11    0.04
   3   0  -8    0.24    0.05
   3   0   8    0.19    0.04
  -3   0  -8    0.11    0.05
  -3   0   8    0.23    0.05
   3   0   8    0.08    0.05
   3   1   8    0.12    0.05
  -3   1  -8    0.05    0.04
  -3  -1   8    0.11    0.05
   3  -1  -8    0.05    0.04
   3   1  -8    0.12    0.05
  -3  -1  -8    0.04    0.05
  -3   1   8    0.01    0.04
   3  -1   8    0.34    0.08
   3   1  -8    0.04    0.04
  -3  -1  -8    0.01    0.05
  -3   1   8    0.11    0.04
   3  -1   8    0.07    0.04
   3   2   8    0.14    0.06
   3  -2  -8    0.22    0.06
  -3  -2   8    0.02    0.05
   3   2  -8    0.21    0.05
  -3  -2  -8    0.62    0.09
   3   2  -8    0.01    0.05
   3  -2   8    0.25    0.06
  -3   2   8    0.07    0.05
   3  -2   8    0.29    0.08
  -3   2   8    0.23    0.07
  -3   3  -8    0.05    0.05
   3   3   8    0.01    0.05
   3  -3  -8    0.15    0.06
  -3  -3   8   -0.03    0.05
  -3   3   8    0.05    0.04
   3  -3   8    0.06    0.05
  -3   3   8    0.04    0.06
   3   3  -8    0.03    0.06
   3   4   8    0.46    0.10
   3  -4  -8    0.21    0.07
  -3  -4   8    0.14    0.08
  -3   4  -8    0.31    0.09
  -3   4   8    0.14    0.07
   3   4  -8    0.05    0.07
   3  -4   8    0.10    0.07
   4   0   8  181.00    3.60
  -4   0   8  183.74    3.58
  -4   0  -8  184.14    3.58
   4   0  -8  182.76    3.56
   4   0   8  183.12    3.56
   4   0  -8  179.91    3.56
  -4   0  -8  180.82    3.59
  -4   0   8  176.27    3.58
   4   1   8    0.81    0.10
   4  -1  -8    0.72    0.08
  -4   1  -8    0.64    0.08
  -4  -1   8    0.82    0.09
  -4   1   8    0.99    0.09
  -4  -1  -8    0.75    0.09
   4   1  -8    0.77    0.08
   4  -1   8    0.77    0.08
   4  -1   8    0.80    0.10
  -4  -1  -8    1.07    0.10
   4   1  -8    0.73    0.08
  -4   1   8    0.90    0.09
  -4  -2   8  138.34    2.83
   4   2   8  141.99    2.85
   4  -2  -8  142.95    2.81
  -4   2  -8  139.51    2.84
   4   2  -8  145.34    2.77
   4  -2   8  142.41    2.82
   4   2  -8  144.54    2.82
  -4   2   8  144.43    2.84
  -4   2   8  142.46    2.79
   4  -2   8  118.31    2.85
  -4  -2  -8  144.01    2.86
  -4  -2  -8  138.97    2.83
  -4   3  -8    0.36    0.09
   4   3   8    0.45    0.09
  -4  -3   8    0.41    0.09
   4  -3  -8    0.55    0.09
   4   3  -8    0.53    0.09
  -4   3   8    0.34    0.09
   4  -3   8    0.35    0.08
   4  -4  -8   85.07    1.81
  -4   4  -8   85.20    1.84
   4   4   8   87.19    1.86
  -4  -4   8   86.84    1.86
   4  -4   8   85.11    1.84
  -4   4   8   85.99    1.87
   4   4  -8   85.93    1.83
   5   0  -8    8.73    0.25
   5   0   8    8.61    0.26
   5   0   8    8.70    0.28
  -5   0   8    8.72    0.27
  -5   0   8    8.57    0.27
   5   0  -8    8.65    0.25
  -5   0  -8    8.55    0.27
  -5   0  -8    9.31    0.28
   5  -1  -8    4.37    0.17
  -5   1  -8    4.37    0.19
   5   1   8    4.21    0.19
  -5  -1   8    4.36    0.18
  -5   1   8    4.56    0.17
  -5  -1  -8    4.32    0.20
   5  -1   8    4.08    0.20
  -5   1   8    4.25    0.18
   5  -1   8    4.23    0.18
   5   1  -8    4.33    0.16
   5   1  -8    4.38    0.18
  -5  -1  -8    4.14    0.19
  -5   2  -8    6.32    0.25
   5  -2  -8    6.80    0.24
  -5  -2   8    6.52    0.25
   5   2   8    6.42    0.26
   5   2  -8    6.29    0.24
  -5   2   8    6.43    0.25
  -5  -2  -8    6.90    0.28
   5  -2   8    6.36    0.25
  -5   2   8    6.68    0.21
   5   3   8    2.94    0.18
  -5  -3   8    2.70    0.18
  -5   3  -8    2.89    0.18
   5  -3  -8    2.69    0.16
  -5   3   8    2.83    0.18
   5  -3   8    2.65    0.17
   5   3  -8    2.68    0.17
   5   4   8    3.80    0.22
  -5   4  -8    3.83    0.21
   5  -4  -8    3.61    0.20
  -5  -4   8    3.42    0.21
  -5   4   8    3.38    0.21
   5   4  -8    3.68    0.21
   5  -4   8    3.48    0.21
  -6   0   8  161.62    3.21
  -6   0  -8  161.04    3.23
  -6   0  -8  161.92    3.22
   6   0  -8  161.60    3.19
   6   0  -8  162.34    3.20
  -6   0   8  162.91    3.24
   6   0   8  160.23    3.22
   6   0   8  162.34    3.20
  -6   1  -8    0.12    0.06
   6  -1  -8    0.06    0.05
  -6  -1   8    0.11    0.06
   6   1   8    0.11    0.06
   6   1  -8    0.09    0.04
  -6   1   8    0.08    0.05
   6  -1   8    0.07    0.06
  -6  -1  -8    0.25    0.08
  -6   1   8    0.09    0.05
  -6  -1  -8    0.11    0.06
  -6   2  -8  129.82    2.67
   6  -2  -8  134.95    2.64
  -6  -2   8  134.39    2.67
   6   2   8  126.86    2.67
   6   2  -8  129.40    2.64
  -6  -2  -8  129.71    2.71
  -6   2   8  130.42    2.67
   6  -2   8  129.90    2.66
   6  -3  -8    0.09    0.06
  -6   3  -8    0.19    0.07
   6   3   8    0.15    0.07
   6   3  -8    0.08    0.07
  -6   3   8    0.10    0.07
   6  -3   8    0.09    0.07
  -6   4  -8   80.99    1.82
   7   0  -8    0.60    0.08
   7   0   8    0.48    0.08
  -7   0   8    0.48    0.08
   7   0   8    0.57    0.08
  -7   0  -8    0.68    0.09
  -7   0   8    0.62    0.10
   7   0  -8    0.54    0.07
  -7   0  -8    0.76    0.11
  -7   1  -8    0.25    0.07
   7   1   8    0.04    0.05
  -7  -1   8    0.00    0.05
   7  -1  -8    0.11    0.06
  -7  -1  -8    0.00    0.06
   7  -1   8    0.05    0.05
  -7   1   8    0.02    0.05
   7   1  -8    0.02    0.05
   7  -2  -8    0.37    0.08
   7   2   8    0.29    0.07
  -7  -2   8    0.52    0.10
  -7   2  -8    0.39    0.09
   7  -2   8    0.58    0.10
  -7   2   8    0.42    0.09
  -7  -2  -8    0.56    0.11
   7   2  -8    0.77    0.10
   7  -3  -8    0.09    0.07
  -7   3  -8   -0.01    0.06
  -7  -3   8    0.01    0.06
   7   3   8    0.10    0.07
  -7   3   8    0.28    0.09
   7  -3   8   -0.05    0.06
   7   3  -8    0.00    0.06
  -7  -3  -8    0.07    0.08
  -8   0  -8   86.47    1.79
   8   0   8   85.28    1.75
   8   0  -8   85.77    1.72
   8   0  -8   80.24    1.77
  -8   0   8   86.43    1.81
  -8   0   8   83.36    1.74
  -8  -1   8    2.31    0.15
  -8   1  -8    2.63    0.16
   8  -1  -8    2.58    0.14
   8   1   8    2.32    0.15
  -8   1   8    2.50    0.17
   8  -1   8    2.62    0.16
  -8  -1  -8    2.44    0.18
   8   1  -8    2.41    0.15
  -8   2  -8   70.04    1.53
   8  -2  -8   70.59    1.50
  -8  -2   8   73.89    1.53
   8   2   8   71.69    1.53
  -8   2   8   70.01    1.55
   8   2  -8   69.26    1.51
  -8  -2  -8   70.59    1.59
   8  -2   8   69.72    1.53
   8   3   8    1.67    0.16
   8  -3  -8    1.77    0.15
  -8  -3   8    1.43    0.15
  -8   3  -8    1.69    0.15
   8   3  -8    1.78    0.16
   8  -3   8    1.47    0.15
  -8   3   8    1.79    0.16
  -8  -3  -8    1.28    0.17
  -9   0   8    3.63    0.21
  -9   0  -8    3.76    0.21
   9   0   8    3.64    0.18
   9  -1  -8    5.13    0.20
  -9  -1   8    5.01    0.21
  -9   1  -8    4.56    0.21
   9   1  -8    5.08    0.22
   9  -1   8    4.80    0.22
  -9  -1  -8    5.16    0.25
  -9   1   8    4.86    0.24
  -9  -2   8    3.17    0.18
  -9   2  -8    2.83    0.18
   9   2   8    2.95    0.18
   9  -2  -8    2.86    0.17
  -9   2   8    2.83    0.19
  -9  -2  -8    3.03    0.21
   9  -2   8    2.75    0.18
   9   2  -8    2.98    0.18
  10   0   8   81.20    1.72
 -10   0  -8   82.30    1.77
 -10  -1  -8    8.53    0.34
  10  -1   8    8.39    0.31
  10   1  -8    8.43    0.30
 -10   1   8    8.81    0.34
 -10  -2   8   71.37    1.51
 -10   2  -8   68.36    1.51
  10  -2  -8   70.97    1.49
  10  -2   8   68.46    1.52
 -10  -2  -8   70.05    1.58
  10   2  -8   67.71    1.50
 -10   2   8   69.53    1.55
  11   0   8    0.23    0.08
 -11   1   8    0.63    0.12
  11   1  -8    0.46    0.10
  11  -1   8    0.63    0.11
 -11  -1  -8    0.59    0.12
   0   0  -9    0.04    0.04
   0   0   9    0.08    0.05
   0  -1   9   14.55    0.37
   0   1   9   15.09    0.41
   0   1  -9   15.02    0.40
   0  -1   9   15.23    0.42
   0  -1  -9   15.18    0.40
   0   2   9    0.03    0.04
   0  -2   9    0.03    0.04
   0  -2   9    0.00    0.05
   0  -2  -9    0.01    0.05
   0   2  -9    0.03    0.05
   0   3   9   13.04    0.39
   0  -3   9   13.02    0.42
   0   3  -9   12.93    0.37
   0  -3  -9   12.40    0.38
   0  -3   9   12.71    0.37
   0   4   9    0.00    0.05
   0   4  -9    0.04    0.06
   0  -4   9    0.01    0.06
   0  -4   9    0.15    0.08
   0  -4  -9    0.04    0.06
   1   0   9   39.83    0.90
  -1   0   9   39.34    0.89
  -1   0  -9   39.76    0.88
   1   0  -9   40.33    0.87
   1   1   9   12.96    0.37
  -1  -1   9   12.97    0.38
  -1   1  -9   13.17    0.36
   1  -1  -9   12.84    0.36
  -1   1   9   13.34    0.37
   1  -1   9   13.12    0.39
  -1  -1  -9   12.93    0.36
   1  -1   9   12.60    0.34
   1   1  -9   13.26    0.35
   1  -2  -9   30.28    0.70
  -1  -2   9   29.63    0.73
   1   2   9   30.38    0.73
  -1  -2   9   30.70    0.69
  -1   2  -9   30.75    0.72
  -1   2   9   30.19    0.72
   1  -2   9   30.61    0.75
  -1  -2  -9   31.10    0.71
   1  -2   9   29.22    0.70
   1   2  -9   31.08    0.70
   1  -3  -9    9.40    0.31
  -1   3  -9    9.68    0.32
  -1  -3   9    9.80    0.31
   1   3   9   10.12    0.33
  -1  -3   9    9.58    0.34
   1  -3   9    9.42    0.31
   1  -3   9   10.06    0.36
   1   3  -9    9.61    0.30
  -1   3   9    9.72    0.32
  -1  -3  -9    9.91    0.32
   1  -4  -9   15.52    0.45
  -1   4  -9   15.72    0.45
  -1  -4   9   15.50    0.49
   1   4   9   15.69    0.46
   1  -4   9   14.53    0.44
   1   4  -9   15.04    0.46
  -1   4   9   15.00    0.44
   2   0   9    1.64    0.12
   2   0  -9    1.63    0.11
  -2   0  -9    1.66    0.12
   2   0   9    1.77    0.10
  -2   0   9    1.58    0.11
   2  -1  -9  187.01    3.70
  -2   1  -9  187.10    3.72
   2   1   9  194.65    3.74
  -2  -1   9  185.33    3.73
  -2   1   9  184.98    3.71
  -2   1   9  188.09    3.71
  -2  -1  -9  192.94    3.72
   2  -1   9  182.46    3.75
   2  -1   9  188.51    3.69
   2   1  -9  185.92    3.70
   2   1  -9  188.51    3.69
   2  -2  -9    1.03    0.10
  -2  -2   9    1.11    0.12
   2   2   9    0.98    0.11
  -2   2  -9    1.38    0.12
   2  -2   9    0.94    0.10
   2   2  -9    1.16    0.10
  -2   2   9    1.18    0.11
   2   2  -9    1.16    0.11
  -2   2   9    0.99    0.11
  -2  -2  -9    1.23    0.12
   2  -2   9    1.69    0.15
   2  -3  -9  121.48    2.50
   2   3   9  125.22    2.54
  -2  -3   9  122.73    2.54
  -2   3  -9  125.13    2.52
  -2   3   9  125.21    2.50
  -2  -3  -9  120.78    2.51
   2   3  -9  125.19    2.52
   2  -3   9  119.26    2.56
   2   3  -9  124.21    2.47
   2  -3   9  122.94    2.50
  -2   3   9  120.00    2.54
   2  -4  -9    0.46    0.09
  -2  -4   9    0.51    0.11
  -2   4  -9    0.47    0.10
   2   4   9    0.53    0.10
   2   4  -9    0.43    0.10
  -2   4   9    0.49    0.11
   2  -4   9    0.56    0.10
  -3   0  -9    6.36    0.23
  -3   0   9    6.24    0.22
   3   0  -9    6.38    0.21
   3   0   9    6.57    0.20
   3   0   9    6.62    0.24
  -3   1  -9   86.64    1.82
   3  -1  -9   89.30    1.80
   3   1   9   86.18    1.83
  -3  -1   9   88.89    1.83
  -3   1   9   90.74    1.81
   3  -1   9   87.04    1.85
  -3   1   9   89.14    1.81
   3  -1   9   88.93    1.79
   3   1  -9   84.57    1.79
  -3  -1  -9   89.42    1.83
   3   1  -9   88.43    1.79
   3  -2  -9    4.57    0.19
   3   2   9    4.74    0.21
  -3  -2   9    4.98    0.21
  -3   2  -9    4.57    0.21
   3  -2   9    4.78    0.20
  -3   2   9    4.83    0.19
  -3   2   9    4.88    0.21
   3  -2   9    4.36    0.24
   3   2  -9    4.85    0.20
   3   2  -9    4.72    0.18
  -3  -2  -9    4.96    0.21
   3  -3  -9   55.02    1.23
  -3  -3   9   54.02    1.26
  -3   3  -9   56.78    1.25
   3   3   9   56.53    1.26
   3   3  -9   58.85    1.25
  -3   3   9   56.68    1.27
  -3   3   9   56.81    1.21
   3  -3   9   57.06    1.24
  -3  -4   9    2.56    0.19
   3   4   9    2.46    0.18
  -3   4  -9    2.30    0.17
   3  -4  -9    2.31    0.16
  -3   4   9    2.52    0.18
   3   4  -9    2.56    0.18
   3  -4   9    2.35    0.17
   4   0   9   21.47    0.50
   4   0  -9   21.37    0.51
  -4   0   9   21.30    0.53
   4   0   9   21.18    0.54
  -4   0  -9   21.34    0.53
   4  -1  -9   88.34    1.83
  -4   1  -9   87.49    1.86
   4   1   9   90.27    1.87
  -4  -1   9   86.25    1.85
  -4  -1  -9   89.26    1.86
   4   1  -9   90.74    1.83
   4  -1   9   90.79    1.83
  -4   1   9   91.13    1.85
   4  -1   9   90.14    1.89
  -4  -1  -9   91.77    1.87
  -4   1   9   88.97    1.83
   4   1  -9   91.42    1.81
   4  -2  -9   15.60    0.43
  -4   2  -9   16.00    0.45
  -4  -2   9   16.30    0.45
   4   2   9   15.93    0.46
   4   2  -9   16.07    0.43
  -4  -2  -9   14.79    0.45
  -4   2   9   16.45    0.45
  -4   2   9   16.45    0.42
   4   2  -9   16.48    0.40
   4  -2   9   15.77    0.44
   4   3   9   62.73    1.38
  -4   3  -9   63.90    1.37
  -4  -3   9   60.47    1.37
   4  -3  -9   59.92    1.33
   4   3  -9   61.85    1.35
   4  -3   9   62.23    1.35
  -4   3   9   61.97    1.38
   4  -4  -9    8.27    0.31
   4   4   9    8.35    0.33
  -4   4  -9    8.46    0.33
  -4  -4   9    8.41    0.34
   4   4  -9    8.52    0.32
  -4   4   9    8.70    0.34
   4  -4   9    8.37    0.32
   5   0   9    1.17    0.10
  -5   0  -9    1.28    0.11
   5   0   9    1.34    0.12
  -5   0   9    1.27    0.11
   5   0  -9    1.35    0.10
   5  -1  -9    1.61    0.11
  -5  -1   9    2.05    0.14
  -5   1  -9    1.56    0.13
   5   1   9    1.65    0.13
  -5  -1  -9    1.47    0.13
   5   1  -9    1.64    0.10
   5   1  -9    1.49    0.12
   5  -1   9    1.71    0.14
  -5   1   9    1.67    0.11
  -5   1   9    1.57    0.12
  -5  -1  -9    1.75    0.13
  -5  -2   9    0.79    0.11
   5  -2  -9    0.83    0.10
  -5   2  -9    1.00    0.12
   5   2   9    1.01    0.12
  -5   2   9    1.08    0.10
   5   2  -9    0.84    0.10
  -5  -2  -9    1.02    0.13
  -5   2   9    0.91    0.11
   5  -2   9    1.01    0.12
  -5  -3   9    1.54    0.15
   5  -3  -9    1.67    0.14
  -5   3  -9    2.09    0.16
   5   3   9    1.59    0.15
   5   3  -9    1.70    0.14
   5  -3   9    1.73    0.15
  -5   3   9    1.66    0.15
  -6   0   9    1.62    0.12
   6   0   9    1.63    0.12
   6   0   9    1.68    0.11
   6   0  -9    1.73    0.11
  -6   0  -9    1.57    0.13
   6  -1  -9   82.21    1.70
  -6  -1   9   81.76    1.72
  -6   1  -9   82.62    1.73
   6   1   9   81.86    1.73
  -6   1   9   83.85    1.69
   6   1  -9   81.45    1.70
  -6   1   9   83.33    1.74
  -6  -1  -9   83.09    1.73
  -6  -1  -9   81.30    1.75
   6  -1   9   81.64    1.71
   6   1  -9   83.71    1.67
   6   2   9    1.15    0.13
   6  -2  -9    1.27    0.12
  -6  -2   9    1.24    0.13
  -6   2  -9    1.35    0.13
   6   2  -9    1.20    0.12
  -6   2   9    1.08    0.12
  -6  -2  -9    1.00    0.14
   6  -2   9    1.39    0.13
   6   3   9   58.31    1.33
  -6  -3   9   57.34    1.32
  -6   3  -9   59.06    1.32
   6   3  -9   59.87    1.30
  -6   3   9   60.04    1.33
   6  -3   9   57.78    1.31
   7   0  -9   11.53    0.33
   7   0   9   12.39    0.34
   7   0   9   11.59    0.36
  -7   0   9   12.20    0.35
  -7   0  -9   12.26    0.35
  -7   1  -9   20.61    0.55
  -7  -1   9   20.78    0.54
   7   1   9   21.83    0.55
   7  -1  -9   20.91    0.52
   7   1  -9   20.74    0.52
   7  -1   9   20.95    0.54
  -7   1   9   20.60    0.55
  -7  -1  -9   21.09    0.57
  -7   2  -9    9.34    0.33
   7  -2  -9    9.69    0.31
  -7  -2   9    9.71    0.34
   7   2   9    9.59    0.33
   7  -2   9    9.45    0.33
  -7  -2  -9    9.57    0.36
   7   2  -9    8.93    0.31
  -7   2   9    9.36    0.34
  -7   3  -9   15.25    0.47
  -7  -3   9   15.26    0.47
   7  -3  -9   14.96    0.44
   7   3   9   14.88    0.47
   7  -3   9   14.79    0.46
   7   3  -9   15.29    0.45
  -7  -3  -9   14.78    0.50
  -8   0   9    2.20    0.15
   8   0  -9    2.23    0.13
   8   0   9    2.20    0.14
   8  -1  -9  136.87    2.74
  -8   1  -9  137.20    2.78
   8   1   9  137.46    2.77
  -8  -1   9  133.49    2.77
   8   1  -9  132.58    2.75
  -8  -1  -9  140.77    2.82
   8  -1   9  136.68    2.77
  -8   1   9  138.49    2.81
  -8   2  -9    1.95    0.15
  -8  -2   9    1.91    0.16
   8   2   9    1.88    0.15
   8  -2  -9    1.93    0.14
   8  -2   9    1.78    0.15
   8   2  -9    1.95    0.15
  -8  -2  -9    1.83    0.18
  -8   2   9    1.92    0.16
   9   0   9    8.57    0.29
   9  -1  -9   35.78    0.81
  -9  -1   9   36.60    0.84
  -9   1  -9   35.54    0.84
  -9   1   9   35.10    0.87
   9  -1   9   34.80    0.84
   9   1  -9   34.71    0.83
  -9  -1  -9   35.92    0.88
   9   2   9    6.89    0.28
  -9  -2   9    7.16    0.28
  -9   2  -9    7.11    0.28
  -9  -2  -9    6.90    0.32
   9  -2   9    6.82    0.28
  -9   2   9    6.80    0.29
  10   0   9    1.29    0.14
 -10   1   9   31.82    0.82
 -10  -1  -9   31.95    0.82
  10  -1   9   31.91    0.78
 -10  -2   9    1.17    0.15
   0   0 -10   63.51    1.37
   0   0  10   66.26    1.40
   0   1 -10   -0.02    0.05
   0   1  10    0.06    0.05
   0  -1  10    0.22    0.07
   0  -1 -10    0.04    0.05
   0  -1  10    0.08    0.04
   0  -2  10   53.48    1.15
   0   2  10   54.02    1.18
   0  -2  10   54.21    1.22
   0   2 -10   53.24    1.16
   0  -2 -10   53.47    1.17
   0   3  10    0.00    0.05
   0  -3 -10    0.04    0.06
   0   3 -10    0.22    0.07
   0  -3  10    0.04    0.06
   0  -3  10    0.00    0.06
   0  -4  10   32.60    0.79
   0   4 -10   32.79    0.78
   0   4  10   32.42    0.80
   0  -4 -10   33.38    0.82
   0  -4  10   32.25    0.88
  -1   0 -10   91.66    1.91
   1   0  10   97.51    1.95
  -1   0  10   90.61    1.92
   1   0 -10   92.32    1.90
   1  -1 -10    0.15    0.05
   1   1  10    0.13    0.06
  -1  -1  10    0.25    0.07
  -1   1 -10    0.19    0.06
   1   1 -10    0.10    0.05
   1  -1  10    0.15    0.05
   1  -1  10    0.11    0.06
   1   1 -10    0.26    0.06
  -1   1  10    0.14    0.06
   1  -2 -10   75.93    1.60
  -1   2 -10   77.41    1.61
  -1  -2  10   74.27    1.64
   1   2  10   75.79    1.62
   1  -2  10   77.78    1.59
   1  -2  10   76.68    1.67
  -1   2  10   76.14    1.61
  -1  -2 -10   76.95    1.62
   1   2 -10   77.11    1.59
  -1   3 -10    0.22    0.07
  -1  -3  10    0.23    0.09
   1   3  10    0.14    0.06
   1  -3 -10    0.06    0.06
   1  -3  10    0.07    0.06
  -1  -3 -10    0.05    0.06
   1   3 -10    0.08    0.06
   1  -3  10    0.25    0.09
  -1   3  10    0.07    0.06
   1   4  10   47.11    1.08
   1  -4 -10   45.46    1.07
  -1  -4  10   48.08    1.15
  -1   4 -10   46.79    1.06
   1   4 -10   45.37    1.07
  -1   4  10   45.65    1.06
   1  -4  10   46.60    1.06
  -2   0 -10   40.99    0.92
  -2   0  10   39.72    0.91
   2   0 -10   41.10    0.90
   2   0  10   41.45    0.93
   2   1  10    0.72    0.09
   2  -1 -10    0.45    0.08
  -2  -1  10    0.81    0.10
  -2   1 -10    0.50    0.08
   2   1 -10    0.45    0.07
   2  -1  10    0.52    0.07
   2  -1  10    0.60    0.10
  -2  -1 -10    0.39    0.08
  -2   1  10    0.49    0.08
   2   1 -10    0.50    0.07
  -2  -2  10   33.68    0.82
  -2   2 -10   35.14    0.81
   2   2  10   35.30    0.82
   2  -2 -10   34.14    0.79
   2   2 -10   34.55    0.80
  -2   2  10   34.46    0.80
   2  -2  10   33.35    0.87
  -2  -2 -10   34.75    0.82
  -2   2  10   34.45    0.81
   2  -2  10   35.23    0.79
   2   2 -10   35.05    0.78
   2   3  10    0.34    0.08
  -2   3 -10    0.33    0.08
  -2  -3  10    0.31    0.09
   2  -3 -10    0.40    0.08
  -2  -3 -10    0.27    0.08
  -2   3  10    0.29    0.07
   2  -3  10    0.27    0.08
   2  -3  10    0.38    0.11
   2   3 -10    0.30    0.08
  -2   3  10    0.29    0.09
   2   3 -10    0.29    0.07
  -2   4 -10   22.96    0.61
  -2  -4  10   22.70    0.65
   2  -4 -10   21.68    0.60
   2   4  10   22.73    0.61
  -2   4  10   22.31    0.63
   2   4 -10   21.86    0.60
   2  -4  10   21.85    0.60
   3   0 -10   89.54    1.83
  -3   0 -10   90.78    1.86
  -3   0  10   87.44    1.85
   3   0  10   91.06    1.87
  -3   1 -10    6.35    0.23
  -3  -1  10    5.92    0.23
   3  -1 -10    5.37    0.21
   3   1  10    5.85    0.23
  -3   1  10    5.72    0.22
   3  -1  10    5.32    0.24
   3  -1  10    5.59    0.20
   3   1 -10    5.68    0.20
   3   1 -10    5.85    0.21
  -3  -1 -10    5.90    0.23
   3  -2 -10   70.25    1.50
  -3  -2  10   71.39    1.53
  -3   2 -10   71.58    1.52
   3   2  10   71.59    1.52
  -3  -2 -10   70.37    1.53
   3  -2  10   73.75    1.50
   3   2 -10   73.52    1.50
  -3   2  10   71.93    1.49
  -3   2  10   72.80    1.53
   3  -2  10   62.26    1.58
   3   2 -10   70.76    1.47
  -3  -3  10    3.75    0.22
   3   3  10    3.72    0.20
  -3   3 -10    3.54    0.19
   3  -3 -10    3.68    0.19
  -3   3  10    3.67    0.18
  -3   3  10    3.67    0.20
   3   3 -10    3.72    0.20
   3  -3  10    3.50    0.19
  -3   4 -10   44.86    1.06
  -4   0  10   72.39    1.53
   4   0 -10   72.38    1.51
   4   0  10   73.03    1.54
  -4   0 -10   72.91    1.53
  -4  -1  10    0.22    0.07
   4  -1 -10    0.27    0.07
   4   1  10    0.16    0.06
  -4   1 -10    0.19    0.07
   4   1 -10    0.23    0.06
   4  -1  10    0.24    0.06
  -4   1  10    0.14    0.06
  -4  -1 -10    0.11    0.07
   4   1 -10    0.17    0.06
   4  -1  10    0.21    0.08
  -4  -2  10   59.54    1.30
   4  -2 -10   57.42    1.27
   4   2  10   59.21    1.29
  -4   2 -10   59.74    1.30
  -4   2  10   59.79    1.26
   4   2 -10   58.96    1.27
   4  -2  10   58.04    1.27
  -4   2  10   60.62    1.29
   4   2 -10   58.53    1.23
  -4  -2 -10   55.62    1.31
   4  -3 -10    0.10    0.07
  -4   3 -10    0.16    0.07
   4   3  10    0.20    0.08
  -4  -3  10    0.15    0.08
   4   3 -10    0.13    0.07
   4  -3  10    0.14    0.07
  -4   3  10    0.05    0.07
   5   0 -10   31.05    0.70
  -5   0  10   30.83    0.73
  -5   0 -10   31.72    0.73
   5   0  10   30.35    0.73
   5   1  10    0.16    0.06
  -5  -1  10    0.08    0.06
  -5   1 -10    0.04    0.06
   5  -1 -10    0.18    0.06
  -5  -1 -10    0.02    0.06
  -5   1  10    0.33    0.07
   5   1 -10    0.19    0.06
   5  -1  10    0.16    0.07
   5  -1  10    0.18    0.07
  -5  -1 -10    0.13    0.07
   5   1 -10    0.11    0.06
  -5  -2  10   24.92    0.66
   5  -2 -10   27.34    0.65
   5   2  10   26.30    0.67
  -5   2 -10   25.38    0.67
   5  -2  10   26.32    0.65
   5   2 -10   26.61    0.64
  -5   2  10   25.81    0.62
  -5   2  10   26.45    0.67
  -5  -3  10    0.05    0.07
   5   3  10    0.05    0.07
  -5   3 -10    0.31    0.09
   5  -3 -10    0.06    0.07
  -5   3  10    0.07    0.07
   5  -3  10    0.10    0.07
   5   3 -10    0.14    0.07
   6   0 -10   26.89    0.63
  -6   0 -10   27.35    0.66
  -6   0  10   26.64    0.65
   6   0  10   27.48    0.66
   6  -1 -10    0.13    0.06
  -6  -1  10    0.16    0.07
   6   1  10    0.10    0.06
  -6   1 -10    0.18    0.07
   6   1 -10    0.10    0.06
  -6  -1 -10    0.38    0.09
   6  -1  10    0.12    0.06
   6   1 -10    0.09    0.06
  -6   1  10    0.13    0.06
  -6  -1 -10    0.13    0.08
  -6  -2  10   22.77    0.61
   6   2  10   23.37    0.61
   6  -2 -10   22.85    0.58
  -6   2 -10   22.23    0.60
   6   2 -10   23.04    0.58
  -6   2  10   22.47    0.61
  -6  -2 -10   23.25    0.63
   6  -2  10   23.02    0.59
  -6   3 -10    0.17    0.08
   6  -3 -10    0.12    0.08
  -6  -3  10    0.09    0.08
   6   3  10    0.23    0.08
  -6   3  10    0.11    0.08
   6  -3  10    0.06    0.07
   6   3 -10    0.09    0.07
   7   0 -10   54.16    1.14
  -7   0  10   52.71    1.15
  -7   0 -10   52.88    1.16
   7  -1 -10    0.34    0.08
   7   1  10    0.42    0.08
  -7   1 -10    0.39    0.09
  -7  -1  10    0.31    0.08
   7  -1  10    0.35    0.08
  -7  -2  10   43.61    1.03
   7   2  10   44.40    1.02
   7  -2  10   46.28    1.03
  -7   2  10   43.99    1.04
  -7  -2 -10   44.36    1.06
   7   2 -10   44.00    1.01
  -7   3  10    0.16    0.09
  -8   1 -10    0.99    0.12
   8  -1 -10    0.91    0.11
  -8  -1  10    0.85    0.11
   8   1  10    1.01    0.11
   8  -1  10    1.13    0.12
   8  -2 -10   31.31    0.75
   8   2  10   31.25    0.77
  -8  -2  10   31.75    0.78
  -8  -2 -10   31.92    0.82
  -8   2  10   30.81    0.78
   8  -2  10   29.80    0.77
   8   2 -10   30.48    0.75
   9  -1 -10    1.89    0.14
  -9  -1  10    1.96    0.15
  -9   1 -10    1.73    0.15
   9  -1  10    1.77    0.15
   9   2  10   19.16    0.52
  -9  -2 -10   18.80    0.58
  -9   2  10   17.75    0.58
  10  -1  10    0.46    0.10
   0   0 -11    0.12    0.06
   0   0  11    0.04    0.05
   0  -1 -11   10.44    0.33
   0   1  11   10.74    0.34
   0  -1  11   10.01    0.35
   0   1 -11   10.41    0.32
   0   2 -11    0.06    0.06
   0   2  11   -0.02    0.05
   0  -2  11   -0.01    0.05
   0  -2  11    0.00    0.06
   0  -2 -11    0.01    0.06
   0   3  11    7.41    0.29
   0  -3  11    7.58    0.28
   0   3 -11    7.91    0.28
   0  -3 -11    7.23    0.30
   0  -3  11    8.86    0.36
   0  -4  11    0.02    0.09
   0   4 -11    0.02    0.06
  -1   0 -11   12.51    0.37
   1   0 -11   13.17    0.37
   1   0  11   13.39    0.40
  -1   0  11   12.49    0.38
   1  -1 -11  147.78    2.96
  -1  -1  11  148.10    2.99
   1   1  11  147.54    2.98
  -1   1 -11  146.88    2.96
  -1   1  11  146.32    2.97
   1   1 -11  144.99    2.94
  -1  -1 -11  147.07    2.96
   1  -1  11  147.07    3.00
  -1  -2  11   10.08    0.36
  -1   2 -11    9.81    0.32
   1   2  11   10.18    0.33
   1  -2 -11    9.90    0.33
   1   2 -11    9.68    0.31
   1  -2  11   10.19    0.31
  -1   2  11   10.06    0.33
  -1  -2 -11   10.38    0.34
   1  -2  11    9.88    0.37
   1   2 -11    9.83    0.32
   1  -3 -11  102.60    2.13
   1   3  11  101.65    2.13
  -1  -3  11  102.43    2.18
  -1   3 -11   99.92    2.10
   1   3 -11  103.15    2.11
   1  -3  11   95.07    2.21
   1  -3  11  103.32    2.10
  -1   3  11  101.88    2.10
   1   3 -11  101.65    2.08
  -1   4  11    5.73    0.26
   2   0  11    4.34    0.21
   2   0 -11    4.24    0.18
  -2   0 -11    4.26    0.19
  -2   0  11    4.10    0.19
  -2  -1  11   24.22    0.62
  -2   1 -11   23.61    0.60
   2  -1 -11   23.91    0.59
   2   1  11   24.28    0.62
  -2  -1 -11   23.92    0.61
   2  -1  11   24.63    0.64
   2   1 -11   23.29    0.58
  -2   1  11   24.83    0.61
  -2  -2  11    3.45    0.20
   2  -2 -11    3.27    0.17
   2   2  11    3.23    0.18
  -2   2 -11    3.28    0.18
  -2   2  11    3.26    0.18
  -2   2  11    3.21    0.17
   2  -2  11    3.30    0.17
   2   2 -11    3.31    0.17
   2  -2  11    2.94    0.22
   2   2 -11    3.59    0.17
  -2  -2 -11    3.38    0.19
   2   3  11   16.49    0.48
   2  -3 -11   16.40    0.47
  -2   3 -11   16.08    0.47
  -2  -3  11   17.08    0.52
  -2   3  11   16.33    0.46
  -2   3  11   16.98    0.50
   2   3 -11   16.23    0.47
   2   3 -11   16.61    0.44
   2  -3  11   16.45    0.47
   3   0  11    0.91    0.11
  -3   0  11    0.93    0.10
   3   0 -11    0.81    0.10
  -3   0 -11    1.17    0.12
   3  -1 -11   16.77    0.46
  -3  -1  11   18.01    0.50
  -3   1 -11   17.63    0.48
   3   1  11   17.77    0.49
   3  -1  11   18.52    0.52
   3   1 -11   17.19    0.45
  -3  -1 -11   18.12    0.49
  -3   1  11   18.02    0.48
  -3  -2  11    0.70    0.11
   3   2  11    0.69    0.10
   3  -2 -11    0.85    0.11
   3  -2  11    0.73    0.10
   3  -2  11    0.69    0.14
  -3   2  11    0.72    0.11
  -3  -2 -11    0.81    0.12
   3   2 -11    0.73    0.09
  -3   2  11    1.19    0.12
   3   2 -11    0.77    0.10
   3   3  11   14.56    0.45
  -3   3 -11   15.06    0.44
   3  -3 -11   14.45    0.44
  -3   3  11   14.26    0.41
   3  -3  11   14.90    0.43
   3   3 -11   15.01    0.44
  -4   0 -11    0.04    0.06
   4   0 -11    0.03    0.05
   4   0  11    0.05    0.06
  -4   0  11    0.04    0.05
   4   1  11    6.83    0.26
  -4  -1  11    6.69    0.26
  -4   1 -11    6.95    0.26
   4  -1 -11    6.74    0.25
  -4  -1 -11    6.68    0.27
   4  -1  11    6.94    0.26
   4   1 -11    6.93    0.24
   4  -1  11    7.39    0.29
  -4   1  11    6.68    0.25
   4   2  11    0.06    0.06
  -4  -2  11    0.06    0.07
  -4   2 -11    0.14    0.07
   4  -2 -11    0.02    0.05
   4  -2  11    0.00    0.06
  -4   2  11    0.07    0.06
   4   2 -11    0.03    0.05
  -4  -2 -11    0.01    0.07
   4   2 -11    0.08    0.06
  -4   2  11    0.00    0.05
   4   3  11    5.07    0.24
  -4   3 -11    4.84    0.24
  -4  -3  11    4.89    0.25
   4  -3 -11    4.89    0.23
   4  -3  11    4.80    0.23
  -4   3  11    5.07    0.24
   4   3 -11    4.88    0.23
  -5   0  11    9.52    0.31
  -5   0 -11    9.12    0.31
   5   0 -11    9.18    0.29
   5   0  11    8.95    0.31
   5   1  11  192.12    3.80
  -5  -1  11  186.06    3.79
  -5   1 -11  185.56    3.78
   5  -1 -11  190.92    3.77
  -5   1  11  183.54    3.76
   5  -1  11  194.99    3.82
  -5  -1 -11  192.89    3.80
   5   1 -11  191.79    3.75
   5  -2 -11    7.45    0.27
   5   2  11    7.40    0.29
  -5   2 -11    7.19    0.28
  -5  -2  11    7.50    0.29
   5   2 -11    7.51    0.27
  -5   2  11    7.58    0.29
   5  -2  11    7.38    0.28
  -5   3 -11  129.40    2.77
  -5  -3  11  132.82    2.83
   5   3  11  138.26    2.81
   5  -3 -11  129.93    2.76
  -5   3  11  133.17    2.76
   5   3 -11  134.08    2.73
   5  -3  11  134.69    2.74
  -6   0  11    1.51    0.13
   6   0  11    1.37    0.13
  -6   0 -11    1.42    0.13
   6   0 -11    1.67    0.12
   6   1  11    1.12    0.12
  -6   1 -11    1.29    0.13
   6  -1 -11    1.27    0.12
  -6  -1  11    1.13    0.13
  -6   1  11    1.21    0.12
   6   1 -11    1.24    0.11
  -6   2 -11    1.23    0.13
  -6  -2  11    1.21    0.14
   6   2  11    1.24    0.13
   6  -2 -11    1.05    0.12
   6   2 -11    1.27    0.13
   6  -2  11    1.23    0.13
  -6   2  11    1.18    0.13
   7   0 -11   18.62    0.48
  -7   0  11   18.34    0.50
  -7   0 -11   18.99    0.50
   7   1  11   33.09    0.78
  -7   1 -11   31.53    0.77
  -7  -1  11   33.31    0.79
   7  -1 -11   31.67    0.76
   7  -2 -11   15.60    0.44
  -7   2 -11   15.19    0.46
   7   2  11   15.42    0.46
  -7  -2  11   14.74    0.46
   7   2 -11   15.24    0.44
  -7  -2 -11   15.55    0.49
  -7   2  11   15.14    0.48
   7  -2  11   15.49    0.45
  -8  -1  11    7.31    0.28
   8  -1 -11    7.27    0.26
  -8   1 -11    7.05    0.27
   8   2 -11    0.33    0.09
  -8  -2 -11    0.34    0.11
  -9  -1  11   44.78    1.10
   9  -1 -11   45.99    1.02
   0   0  12    0.16    0.07
   0   0 -12    0.06    0.06
   0   1  12    0.03    0.05
   0  -1  12    0.17    0.08
   0  -1 -12   -0.01    0.05
   0   1 -12    0.03    0.05
   0   2  12    0.08    0.06
   0   2 -12    0.26    0.08
   0  -2 -12    0.10    0.07
   0  -2  12    0.09    0.08
   0   3  12   -0.03    0.06
   0  -3  12    0.00    0.07
   0  -3 -12    0.12    0.08
   0   3 -12    0.00    0.06
   1   0  12   68.10    1.44
  -1   0 -12   63.51    1.41
  -1   0  12   66.48    1.43
   1   0 -12   64.17    1.40
  -1   1 -12    0.46    0.08
   1   1  12    0.56    0.09
   1  -1 -12    0.73    0.10
  -1  -1  12    0.59    0.10
   1   1 -12    0.54    0.09
   1  -1  12    0.87    0.12
  -1  -1 -12    0.60    0.10
  -1   1  12    0.68    0.10
   1   2  12   56.71    1.24
   1  -2 -12   56.42    1.24
  -1   2 -12   55.70    1.22
  -1  -2  12   55.36    1.28
   1  -2  12   54.77    1.30
   1   2 -12   53.70    1.20
   1   2 -12   54.73    1.21
  -1   2  12   55.46    1.23
   1  -2  12   55.83    1.20
  -1  -2 -12   57.21    1.26
   1   3  12    0.36    0.08
  -1   3 -12    0.68    0.11
  -1  -3  12    0.42    0.11
   1  -3 -12    0.28    0.09
  -1   3  12    0.47    0.09
  -1   3  12    0.47    0.10
   1   3 -12    0.48    0.10
   1   3 -12    0.48    0.09
   1  -3  12    0.53    0.09
   1  -3  12    0.39    0.13
  -1  -3 -12    0.37    0.10
   2   0 -12    0.21    0.07
  -2   0 -12    0.45    0.09
   2   0  12    0.32    0.08
  -2   0  12    0.26    0.07
  -2   1 -12    0.40    0.09
   2  -1 -12    0.38    0.08
  -2  -1  12    0.37    0.09
   2   1  12    0.35    0.08
   2  -1  12    0.41    0.10
  -2   1  12    0.46    0.09
  -2  -1 -12    0.40    0.09
   2   1 -12    0.47    0.08
  -2   2 -12    0.14    0.07
  -2  -2  12    0.15    0.08
   2  -2 -12    0.21    0.08
  -2  -2 -12    0.31    0.09
   2  -2  12    0.23    0.07
  -2   2  12    0.23    0.07
   2  -2  12    0.25    0.10
   2   2 -12    0.19    0.08
   2   2 -12    0.25    0.07
   2   3  12    0.25    0.08
   2  -3 -12    0.27    0.09
  -2  -3  12    0.21    0.09
  -2   3 -12    0.28    0.08
  -2   3  12    0.29    0.08
   2  -3  12    0.31    0.08
   2   3 -12    0.31    0.07
  -2   3  12    0.30    0.09
   2   3 -12    0.31    0.09
   3   0 -12  103.47    2.18
   3   0  12  110.00    2.23
  -3   0 -12  107.90    2.20
  -3   0  12  105.44    2.21
  -3  -1  12    0.57    0.10
   3   1  12    0.65    0.10
  -3   1 -12    0.52    0.09
   3  -1 -12    0.54    0.09
   3   1 -12    0.48    0.08
  -3  -1 -12    0.71    0.11
   3  -1  12    0.63    0.11
  -3   1  12    0.66    0.10
  -3  -2  12   88.33    1.89
   3  -2 -12   85.20    1.85
  -3   2 -12   87.15    1.85
   3   2  12   88.06    1.87
   3   2 -12   88.58    1.82
   3  -2  12   86.79    1.95
  -3   2  12   91.83    1.85
   3  -2  12   88.89    1.83
  -3  -2 -12   87.86    1.89
  -3   3  12    0.43    0.10
  -3   3  12    0.42    0.08
   3  -3  12    0.41    0.09
   3   3 -12    0.43    0.09
   4   0  12    3.85    0.21
  -4   0 -12    3.64    0.19
  -4   0  12    3.95    0.20
   4   0 -12    4.05    0.19
   4   1  12    1.66    0.14
  -4  -1  12    1.84    0.15
  -4   1 -12    1.57    0.14
   4  -1 -12    1.63    0.13
  -4  -1 -12    1.57    0.15
   4  -1  12    1.60    0.15
  -4   1  12    1.63    0.13
   4   1 -12    1.69    0.13
  -4  -2  12    3.04    0.20
   4   2  12    3.10    0.19
  -4   2 -12    3.18    0.19
  -4   2  12    3.06    0.17
   4   2 -12    3.02    0.16
   4  -2  12    3.14    0.18
  -4   3  12    1.19    0.14
   4   3 -12    1.11    0.14
  -5   0 -12   60.17    1.36
   5   0  12   64.09    1.38
   5   0 -12   61.86    1.34
  -5   0  12   66.02    1.39
  -5  -1  12    1.56    0.15
   5  -1 -12    1.56    0.13
  -5   1 -12    1.61    0.14
   5   1  12    1.72    0.14
  -5   1  12    1.46    0.13
   5   1 -12    1.63    0.13
   5  -1  12    1.71    0.15
  -5  -1 -12    1.72    0.15
   5   2  12   53.29    1.20
  -5  -2  12   53.81    1.21
  -5   2 -12   51.74    1.19
   5  -2 -12   53.59    1.18
   5  -2  12   52.79    1.18
  -6   0  12    0.26    0.08
   6   0 -12    0.09    0.06
  -6   0 -12    0.20    0.07
   6   0  12    0.57    0.10
   6   1  12   -0.05    0.05
  -6  -1  12    0.04    0.07
  -6   1 -12    0.12    0.07
   6  -1 -12   -0.02    0.05
   6   1 -12    0.18    0.07
  -6   1  12    0.05    0.06
   6   2  12    0.11    0.07
   6  -2  12    0.22    0.08
  -7   0 -12  111.76    2.35
   7   0 -12  116.44    2.34
  -7   0  12  116.26    2.36
   7   1  12    1.14    0.13
  -7   1 -12    1.14    0.13
   7  -1 -12    0.87    0.11
  -7  -1  12    1.09    0.13
   0   0 -13    0.01    0.06
   0   0  13    0.02    0.06
   0  -1 -13    0.39    0.09
   0   1  13    0.50    0.09
   0  -1  13    0.52    0.11
   0   1 -13    0.44    0.09
   0   2  13   -0.03    0.05
   0  -2 -13   -0.03    0.06
   0   2 -13    0.03    0.06
   0  -2  13    0.12    0.09
  -1   0  13    4.71    0.23
   1   0  13    4.72    0.23
  -1   0 -13    4.69    0.22
   1   0 -13    4.63    0.21
   1  -1 -13   42.31    1.01
  -1  -1  13   46.29    1.06
  -1   1 -13   42.31    1.01
   1   1  13   47.59    1.04
  -1   1  13   44.30    1.03
   1  -1  13   46.33    1.07
  -1  -1 -13   43.68    1.03
   1   1 -13   44.12    1.01
   1  -2 -13    3.39    0.20
   1   2  13    3.69    0.20
  -1   2 -13    3.84    0.20
  -1  -2 -13    3.65    0.21
   1   2 -13    4.10    0.19
  -1   2  13    3.59    0.19
   1  -2  13    3.65    0.24
   2   0  13   10.37    0.36
  -2   0 -13   10.35    0.34
   2   0 -13   10.63    0.34
  -2   0  13   10.47    0.35
  -2  -1  13   62.79    1.41
   2   1  13   62.56    1.37
  -2   1 -13   61.10    1.35
   2  -1 -13   59.66    1.35
   2  -1  13   63.70    1.40
   2   1 -13   61.55    1.34
  -2  -1 -13   64.03    1.37
  -2   1  13   62.40    1.37
  -2   2 -13    7.99    0.30
  -2  -2  13    8.31    0.34
   2   2  13    8.53    0.31
   2  -2 -13    8.36    0.31
  -2   2  13    8.45    0.31
   2  -2  13    8.51    0.36
   2   2 -13    8.27    0.29
  -2  -2 -13    8.65    0.33
   3   0  13    2.70    0.18
  -3   0  13    2.87    0.18
  -3   0 -13    2.38    0.17
   3   0 -13    2.79    0.17
   3   1  13   73.72    1.59
   3  -1 -13   72.05    1.57
  -3   1 -13   71.53    1.58
  -3  -1  13   73.79    1.61
   3  -1  13   75.30    1.62
  -3  -1 -13   76.48    1.60
   3   1 -13   73.77    1.56
  -3   1  13   73.65    1.58
  -3   2 -13    2.03    0.16
  -3  -2  13    1.99    0.18
   3   2  13    1.94    0.16
   3  -2 -13    2.01    0.16
  -3  -2 -13    2.10    0.18
   3   2 -13    2.10    0.14
  -3   2  13    2.01    0.15
   3  -2  13    2.13    0.20
  -4   0 -13    4.06    0.21
  -4   0  13    4.36    0.22
   4   0 -13    4.41    0.20
   4   0  13    4.52    0.22
   4   1  13    8.53    0.31
  -4   1 -13    8.38    0.31
   4  -1 -13    8.83    0.30
  -4  -1  13    8.35    0.32
  -4   1  13    9.01    0.31
   4  -1  13    8.67    0.33
  -4  -1 -13    8.74    0.32
   4   1 -13    8.03    0.28
  -4   2  13    3.93    0.20
   4   2 -13    3.65    0.19
  -5   0 -13    0.54    0.10
   5   0 -13    0.42    0.09
  -5   0  13    0.74    0.11
   5   0  13    0.43    0.09
   5  -1 -13   43.96    1.00
  -5  -1  13   43.41    1.03
  -5   1 -13   42.76    1.01
   5   1  13   43.97    1.02
  -5  -1 -13   44.55    1.02
   5   1 -13   45.14    0.98
  -5   1  13   44.84    1.01
   6   0  13    4.56    0.22
  -6   0  13    4.80    0.22
  -6   0 -13    4.26    0.21
   6   0 -13    4.15    0.20
   6   1  13    1.24    0.14
  -6   1  13    1.63    0.14
   0   0 -14   97.05    2.08
   0   0  14  102.99    2.12
   0   1 -14    0.08    0.07
   0  -1  14    0.07    0.08
   0  -1 -14    0.07    0.07
   0   1  14    0.03    0.06
   1   0 -14   33.19    0.79
  -1   0 -14   31.63    0.79
   1   0  14   32.97    0.82
  -1   0  14   32.83    0.82
   1   1  14    0.10    0.07
   1  -1 -14    0.01    0.07
  -1  -1  14    0.04    0.08
  -1   1 -14   -0.01    0.06
   1  -1  14   -0.01    0.07
  -1  -1 -14    0.01    0.07
   1   1 -14    0.10    0.07
  -1   1  14    0.04    0.06
   2   0 -14   17.08    0.50
  -2   0 -14   17.55    0.50
   2   0  14   18.57    0.53
  -2   0  14   19.13    0.53
  -2  -1  14    0.68    0.12
  -2   1 -14    0.80    0.11
   2  -1 -14    0.46    0.10
   2   1  14    0.71    0.11
  -2   1  14    0.46    0.09
   2   1 -14    0.43    0.09
   2  -1  14    0.50    0.11
  -2  -1 -14    0.46    0.10
  -3   0 -14   29.78    0.75
  -3   0  14   30.96    0.77
   3   0  14   30.88    0.78
   3   0 -14   31.17    0.74
   3   1 -14    2.03    0.15
   3  -1  14    2.23    0.18
  -3  -1 -14    2.03    0.17
  -3   1  14    2.11    0.16
   4   0  14   42.07    0.98
   4   0 -14   40.17    0.98
   4   1 -14    3.54    0.21
   4  -1  14    3.71    0.21
   0   0   0    0.00    0.00
;
_shelx_hkl_checksum              54169
loop_
_space_group_symop_operation_xyz
'x, y, z'
'-x+1/2, -y, z+1/2'
'-x, y+1/2, -z'
'x+1/2, -y+1/2, -z+1/2'
'-x, -y, -z'
'x-1/2, y, -z-1/2'
'x, -y-1/2, z'
'-x-1/2, y-1/2, z-1/2'
loop_
_atom_site_label
_atom_site_type_symbol
_atom_site_fract_x
_atom_site_fract_y
_atom_site_fract_z
_atom_site_U_iso_or_equiv
_atom_site_adp_type
_atom_site_occupancy
_atom_site_site_symmetry_order
_atom_site_calc_flag
_atom_site_refinement_flags_posn
_atom_site_refinement_flags_adp
_atom_site_refinement_flags_occupancy
Th1 Th 0.25031(2) 0.2500 0.31364(2) 0.00594(6) Uani 1 2 d S T P
Cu1 Cu 0.05631(5) 0.2500 0.59573(5) 0.00730(9) Uani 1 2 d S T P
Cu2 Cu 0.06958(5) 0.2500 0.04764(5) 0.00680(9) Uani 1 2 d S T P
P1 P 0.32428(10) 0.2500 0.02488(9) 0.00667(16) Uani 1 2 d S T P
P2 P 0.47503(11) 0.2500 0.68201(9) 0.00714(17) Uani 1 2 d S T P
loop_
_atom_site_aniso_label
_atom_site_aniso_U_11
_atom_site_aniso_U_22
_atom_site_aniso_U_33
_atom_site_aniso_U_23
_atom_site_aniso_U_13
_atom_site_aniso_U_12
Th1 0.00611(8) 0.00512(9) 0.00658(9) 0.000 0.00006(4) 0.000
Cu1 0.00701(18) 0.00657(19) 0.0083(2) 0.000 0.00040(14) 0.000
Cu2 0.00668(18) 0.00604(19) 0.00768(19) 0.000 -0.00039(13) 0.000
P1 0.0064(3) 0.0065(4) 0.0071(4) 0.000 0.0003(3) 0.000
P2 0.0073(4) 0.0067(4) 0.0074(4) 0.000 -0.0003(3) 0.000
loop_
_atom_type_symbol
_atom_type_description
_atom_type_scat_dispersion_real
_atom_type_scat_dispersion_imag
_atom_type_scat_source
P P 0.1023 0.0942 'International Tables Vol C Tables 4.2.6.8 and 6.1.1.4'
Cu Cu 0.3201 1.2651 'International Tables Vol C Tables 4.2.6.8 and 6.1.1.4'
Th Th -7.2400 8.8979 'International Tables Vol C Tables 4.2.6.8 and 6.1.1.4'
loop_
_geom_angle_atom_site_label_1
_geom_angle_atom_site_label_2
_geom_angle_atom_site_label_3
_geom_angle
_geom_angle_site_symmetry_1
_geom_angle_site_symmetry_3
P1 Th1 P1 138.217(13) . 2_565
P1 Th1 P1 138.217(13) . 2
P1 Th1 P1 83.13(2) 2_565 2
P1 Th1 Cu2 45.00(2) . .
P1 Th1 Cu2 118.937(18) 2_565 .
P1 Th1 Cu2 118.937(18) 2 .
P1 Th1 P2 74.99(2) . 2_554
P1 Th1 P2 124.35(2) 2_565 2_554
P1 Th1 P2 74.44(2) 2 2_554
Cu2 Th1 P2 45.373(14) . 2_554
P1 Th1 P2 74.99(2) . 2_564
P1 Th1 P2 74.44(2) 2_565 2_564
P1 Th1 P2 124.35(2) 2 2_564
Cu2 Th1 P2 45.373(14) . 2_564
P2 Th1 P2 77.70(2) 2_554 2_564
P1 Th1 P2 80.45(2) . 5_666
P1 Th1 P2 76.21(2) 2_565 5_666
P1 Th1 P2 125.48(2) 2 5_666
Cu2 Th1 P2 115.249(17) . 5_666
P2 Th1 P2 155.374(12) 2_554 5_666
P2 Th1 P2 97.751(8) 2_564 5_666
P1 Th1 P2 80.45(2) . 5_656
P1 Th1 P2 125.48(2) 2_565 5_656
P1 Th1 P2 76.21(2) 2 5_656
Cu2 Th1 P2 115.249(17) . 5_656
P2 Th1 P2 97.751(8) 2_554 5_656
P2 Th1 P2 155.374(12) 2_564 5_656
P2 Th1 P2 76.21(2) 5_666 5_656
P1 Th1 Cu2 102.26(2) . 6_656
P1 Th1 Cu2 84.355(19) 2_565 6_656
P1 Th1 Cu2 84.355(19) 2 6_656
Cu2 Th1 Cu2 147.262(12) . 6_656
P2 Th1 Cu2 140.598(12) 2_554 6_656
P2 Th1 Cu2 140.598(12) 2_564 6_656
P2 Th1 Cu2 44.242(14) 5_666 6_656
P2 Th1 Cu2 44.242(14) 5_656 6_656
P1 Th1 Cu1 161.03(2) . .
P1 Th1 Cu1 43.521(13) 2_565 .
P1 Th1 Cu1 43.521(13) 2 .
Cu2 Th1 Cu1 116.027(13) . .
P2 Th1 Cu1 90.352(19) 2_554 .
P2 Th1 Cu1 90.352(19) 2_564 .
P2 Th1 Cu1 114.018(17) 5_666 .
P2 Th1 Cu1 114.018(17) 5_656 .
Cu2 Th1 Cu1 96.711(13) 6_656 .
P1 Th1 Cu1 42.555(11) . 2_554
P1 Th1 Cu1 162.224(19) 2_565 2_554
P1 Th1 Cu1 100.961(14) 2 2_554
Cu2 Th1 Cu1 74.435(11) . 2_554
P2 Th1 Cu1 73.216(18) 2_554 2_554
P2 Th1 Cu1 115.581(18) 2_564 2_554
P2 Th1 Cu1 87.562(15) 5_666 2_554
P2 Th1 Cu1 41.291(18) 5_656 2_554
Cu2 Th1 Cu1 78.899(11) 6_656 2_554
Cu1 Th1 Cu1 144.361(6) . 2_554
P1 Th1 Cu1 42.555(11) . 2_564
P1 Th1 Cu1 100.961(14) 2_565 2_564
P1 Th1 Cu1 162.224(19) 2 2_564
Cu2 Th1 Cu1 74.435(11) . 2_564
P2 Th1 Cu1 115.581(18) 2_554 2_564
P2 Th1 Cu1 73.216(18) 2_564 2_564
P2 Th1 Cu1 41.291(18) 5_666 2_564
P2 Th1 Cu1 87.562(15) 5_656 2_564
Cu2 Th1 Cu1 78.899(11) 6_656 2_564
Cu1 Th1 Cu1 144.361(6) . 2_564
Cu1 Th1 Cu1 70.106(10) 2_554 2_564
P1 Th1 Cu2 123.241(16) . 2_565
P1 Th1 Cu2 41.66(2) 2_565 2_565
P1 Th1 Cu2 90.291(17) 2 2_565
Cu2 Th1 Cu2 145.334(6) . 2_565
P2 Th1 Cu2 161.663(19) 2_554 2_565
P2 Th1 Cu2 103.774(13) 2_564 2_565
P2 Th1 Cu2 42.959(18) 5_666 2_565
P2 Th1 Cu2 88.150(15) 5_656 2_565
Cu2 Th1 Cu2 44.162(9) 6_656 2_565
Cu1 Th1 Cu2 71.430(11) . 2_565
Cu1 Th1 Cu2 120.645(11) 2_554 2_565
Cu1 Th1 Cu2 81.872(11) 2_564 2_565
P1 Th1 Cu2 123.241(16) . 2
P1 Th1 Cu2 90.291(17) 2_565 2
P1 Th1 Cu2 41.662(19) 2 2
Cu2 Th1 Cu2 145.334(6) . 2
P2 Th1 Cu2 103.774(13) 2_554 2
P2 Th1 Cu2 161.663(19) 2_564 2
P2 Th1 Cu2 88.150(15) 5_666 2
P2 Th1 Cu2 42.959(18) 5_656 2
Cu2 Th1 Cu2 44.162(9) 6_656 2
Cu1 Th1 Cu2 71.430(11) . 2
Cu1 Th1 Cu2 81.872(11) 2_554 2
Cu1 Th1 Cu2 120.645(11) 2_564 2
Cu2 Th1 Cu2 69.059(10) 2_565 2
P1 Th1 Cu1 115.431(16) . 5_556
P1 Th1 Cu1 90.276(16) 2_565 5_556
P1 Th1 Cu1 42.892(19) 2 5_556
Cu2 Th1 Cu1 78.478(10) . 5_556
P2 Th1 Cu1 40.515(18) 2_554 5_556
P2 Th1 Cu1 86.387(16) 2_564 5_556
P2 Th1 Cu1 164.107(18) 5_666 5_556
P2 Th1 Cu1 106.015(13) 5_656 5_556
Cu2 Th1 Cu1 127.188(10) 6_656 5_556
Cu1 Th1 Cu1 50.393(11) . 5_556
Cu1 Th1 Cu1 104.557(7) 2_554 5_556
Cu1 Th1 Cu1 152.838(9) 2_564 5_556
Cu2 Th1 Cu1 121.159(12) 2_565 5_556
Cu2 Th1 Cu1 83.534(10) 2 5_556
P1 Th1 Cu1 115.431(16) . 5_566
P1 Th1 Cu1 42.893(19) 2_565 5_566
P1 Th1 Cu1 90.276(16) 2 5_566
Cu2 Th1 Cu1 78.478(10) . 5_566
P2 Th1 Cu1 86.387(16) 2_554 5_566
P2 Th1 Cu1 40.515(18) 2_564 5_566
P2 Th1 Cu1 106.015(13) 5_666 5_566
P2 Th1 Cu1 164.107(18) 5_656 5_566
Cu2 Th1 Cu1 127.188(10) 6_656 5_566
Cu1 Th1 Cu1 50.393(11) . 5_566
Cu1 Th1 Cu1 152.838(10) 2_554 5_566
Cu1 Th1 Cu1 104.557(7) 2_564 5_566
Cu2 Th1 Cu1 83.534(10) 2_565 5_566
Cu2 Th1 Cu1 121.159(11) 2 5_566
Cu1 Th1 Cu1 67.524(9) 5_556 5_566
P1 Th1 Th1 90.0 . 1_545
P1 Th1 Th1 131.566(12) 2_565 1_545
P1 Th1 Th1 48.434(12) 2 1_545
Cu2 Th1 Th1 90.0 . 1_545
P2 Th1 Th1 51.150(11) 2_554 1_545
P2 Th1 Th1 128.851(11) 2_564 1_545
P2 Th1 Th1 128.103(11) 5_666 1_545
P2 Th1 Th1 51.896(11) 5_656 1_545
Cu2 Th1 Th1 90.0 6_656 1_545
Cu1 Th1 Th1 90.0 . 1_545
Cu1 Th1 Th1 54.947(5) 2_554 1_545
Cu1 Th1 Th1 125.053(5) 2_564 1_545
Cu2 Th1 Th1 124.529(5) 2_565 1_545
Cu2 Th1 Th1 55.470(5) 2 1_545
Cu1 Th1 Th1 56.238(5) 5_556 1_545
Cu1 Th1 Th1 123.762(5) 5_566 1_545
P1 Th1 Th1 90.0 . 1_565
P1 Th1 Th1 48.434(12) 2_565 1_565
P1 Th1 Th1 131.566(12) 2 1_565
Cu2 Th1 Th1 90.0 . 1_565
P2 Th1 Th1 128.851(11) 2_554 1_565
P2 Th1 Th1 51.150(11) 2_564 1_565
P2 Th1 Th1 51.896(11) 5_666 1_565
P2 Th1 Th1 128.103(11) 5_656 1_565
Cu2 Th1 Th1 90.0 6_656 1_565
Cu1 Th1 Th1 90.0 . 1_565
Cu1 Th1 Th1 125.053(5) 2_554 1_565
Cu1 Th1 Th1 54.947(5) 2_564 1_565
Cu2 Th1 Th1 55.470(5) 2_565 1_565
Cu2 Th1 Th1 124.529(5) 2 1_565
Cu1 Th1 Th1 123.762(4) 5_556 1_565
Cu1 Th1 Th1 56.238(4) 5_566 1_565
Th1 Th1 Th1 180.0 1_545 1_565
P1 Th1 P1 125.70(2) . 6_556
P1 Th1 P1 60.99(2) 2_565 6_556
P1 Th1 P1 60.99(2) 2 6_556
Cu2 Th1 P1 80.702(16) . 6_556
P2 Th1 P1 63.56(2) 2_554 6_556
P2 Th1 P1 63.56(2) 2_564 6_556
P2 Th1 P1 136.178(15) 5_666 6_556
P2 Th1 P1 136.178(15) 5_656 6_556
Cu2 Th1 P1 132.036(16) 6_656 6_556
Cu1 Th1 P1 35.325(15) . 6_556
Cu1 Th1 P1 136.044(10) 2_554 6_556
Cu1 Th1 P1 136.044(10) 2_564 6_556
Cu2 Th1 P1 100.341(13) 2_565 6_556
Cu2 Th1 P1 100.341(13) 2 6_556
Cu1 Th1 P1 34.038(5) 5_556 6_556
Cu1 Th1 P1 34.038(5) 5_566 6_556
Th1 Th1 P1 90.0 1_545 6_556
Th1 Th1 P1 90.0 1_565 6_556
P1 Th1 P2 137.69(2) . .
P1 Th1 P2 59.326(19) 2_565 .
P1 Th1 P2 59.326(19) 2 .
Cu2 Th1 P2 177.305(16) . .
P2 Th1 P2 133.306(18) 2_554 .
P2 Th1 P2 133.306(18) 2_564 .
P2 Th1 P2 66.73(2) 5_666 .
P2 Th1 P2 66.73(2) 5_656 .
Cu2 Th1 P2 35.433(15) 6_656 .
Cu1 Th1 P2 61.278(16) . .
Cu1 Th1 P2 107.722(14) 2_554 .
Cu1 Th1 P2 107.722(14) 2_564 .
Cu2 Th1 P2 34.980(6) 2_565 .
Cu2 Th1 P2 34.980(6) 2 .
Cu1 Th1 P2 99.298(14) 5_556 .
Cu1 Th1 P2 99.298(14) 5_566 .
Th1 Th1 P2 90.0 1_545 .
Th1 Th1 P2 90.0 1_565 .
P1 Th1 P2 96.603(19) 6_556 .
P1 Th1 Th1 87.603(19) . 6_556
P1 Th1 Th1 88.273(18) 2_565 6_556
P1 Th1 Th1 88.273(18) 2 6_556
Cu2 Th1 Th1 42.601(9) . 6_556
P2 Th1 Th1 41.870(13) 2_554 6_556
P2 Th1 Th1 41.870(13) 2_564 6_556
P2 Th1 Th1 139.603(12) 5_666 6_556
P2 Th1 Th1 139.603(12) 5_656 6_556
Cu2 Th1 Th1 170.136(10) 6_656 6_556
Cu1 Th1 Th1 73.426(9) . 6_556
Cu1 Th1 Th1 109.025(9) 2_554 6_556
Cu1 Th1 Th1 109.025(9) 2_564 6_556
Cu2 Th1 Th1 129.597(7) 2_565 6_556
Cu2 Th1 Th1 129.597(7) 2 6_556
Cu1 Th1 Th1 46.110(7) 5_556 6_556
Cu1 Th1 Th1 46.110(7) 5_566 6_556
Th1 Th1 Th1 90.0 1_545 6_556
Th1 Th1 Th1 90.0 1_565 6_556
P1 Th1 Th1 38.100(13) 6_556 6_556
P2 Th1 Th1 134.704(14) . 6_556
P1 Th1 Th1 61.259(18) . 6_656
P1 Th1 Th1 114.354(17) 2_565 6_656
P1 Th1 Th1 114.354(17) 2 6_656
Cu2 Th1 Th1 106.261(10) . 6_656
P2 Th1 Th1 121.295(17) 2_554 6_656
P2 Th1 Th1 121.295(17) 2_564 6_656
P2 Th1 Th1 41.041(12) 5_666 6_656
P2 Th1 Th1 41.041(12) 5_656 6_656
Cu2 Th1 Th1 41.002(9) 6_656 6_656
Cu1 Th1 Th1 137.712(9) . 6_656
Cu1 Th1 Th1 48.139(7) 2_554 6_656
Cu1 Th1 Th1 48.139(7) 2_564 6_656
Cu2 Th1 Th1 74.000(8) 2_565 6_656
Cu2 Th1 Th1 74.000(8) 2 6_656
Cu1 Th1 Th1 146.165(5) 5_556 6_656
Cu1 Th1 Th1 146.165(5) 5_566 6_656
Th1 Th1 Th1 90.0 1_545 6_656
Th1 Th1 Th1 90.0 1_565 6_656
P1 Th1 Th1 173.038(13) 6_556 6_656
P2 Th1 Th1 76.435(14) . 6_656
Th1 Th1 Th1 148.862(7) 6_556 6_656
P1 Th1 P1 53.007(9) . 1_545
P1 Th1 P1 168.129(18) 2_565 1_545
P1 Th1 P1 85.340(8) 2 1_545
Cu2 Th1 P1 64.820(11) . 1_545
P2 Th1 P1 48.940(19) 2_554 1_545
P2 Th1 P1 110.193(17) 2_564 1_545
P2 Th1 P1 113.141(17) 5_666 1_545
P2 Th1 P1 53.648(18) 5_656 1_545
Cu2 Th1 P1 97.341(12) 6_656 1_545
Cu1 Th1 P1 124.683(10) . 1_545
Cu1 Th1 P1 25.583(11) 2_554 1_545
Cu1 Th1 P1 90.887(11) 2_564 1_545
Cu2 Th1 P1 141.497(13) 2_565 1_545
Cu2 Th1 P1 82.941(12) 2 1_545
Cu1 Th1 P1 79.310(11) 5_556 1_545
Cu1 Th1 P1 134.609(13) 5_566 1_545
Th1 Th1 P1 36.994(9) 1_545 1_545
Th1 Th1 P1 143.007(9) 1_565 1_545
P1 Th1 P1 110.558(15) 6_556 1_545
P2 Th1 P1 116.424(12) . 1_545
Th1 Th1 P1 88.558(11) 6_556 1_545
Th1 Th1 P1 73.182(11) 6_656 1_545
P1 Th1 P1 53.007(9) . 1_565
P1 Th1 P1 85.340(8) 2_565 1_565
P1 Th1 P1 168.129(18) 2 1_565
Cu2 Th1 P1 64.820(11) . 1_565
P2 Th1 P1 110.193(17) 2_554 1_565
P2 Th1 P1 48.940(19) 2_564 1_565
P2 Th1 P1 53.648(18) 5_666 1_565
P2 Th1 P1 113.141(17) 5_656 1_565
Cu2 Th1 P1 97.341(12) 6_656 1_565
Cu1 Th1 P1 124.683(10) . 1_565
Cu1 Th1 P1 90.887(11) 2_554 1_565
Cu1 Th1 P1 25.583(11) 2_564 1_565
Cu2 Th1 P1 82.941(12) 2_565 1_565
Cu2 Th1 P1 141.497(13) 2 1_565
Cu1 Th1 P1 134.609(13) 5_556 1_565
Cu1 Th1 P1 79.310(11) 5_566 1_565
Th1 Th1 P1 143.007(9) 1_545 1_565
Th1 Th1 P1 36.994(9) 1_565 1_565
P1 Th1 P1 110.558(15) 6_556 1_565
P2 Th1 P1 116.424(12) . 1_565
Th1 Th1 P1 88.558(11) 6_556 1_565
Th1 Th1 P1 73.182(11) 6_656 1_565
P1 Th1 P1 106.014(18) 1_545 1_565
P1 Th1 Cu1 21.159(19) . 6_656
P1 Th1 Cu1 135.853(14) 2_565 6_656
P1 Th1 Cu1 135.853(14) 2 6_656
Cu2 Th1 Cu1 66.161(11) . 6_656
P2 Th1 Cu1 91.352(18) 2_554 6_656
P2 Th1 Cu1 91.352(18) 2_564 6_656
P2 Th1 Cu1 64.377(16) 5_666 6_656
P2 Th1 Cu1 64.377(16) 5_656 6_656
Cu2 Th1 Cu1 81.101(11) 6_656 6_656
Cu1 Th1 Cu1 177.812(11) . 6_656
Cu1 Th1 Cu1 35.327(5) 2_554 6_656
Cu1 Th1 Cu1 35.327(5) 2_564 6_656
Cu2 Th1 Cu1 106.811(10) 2_565 6_656
Cu2 Th1 Cu1 106.811(9) 2 6_656
Cu1 Th1 Cu1 131.104(10) 5_556 6_656
Cu1 Th1 Cu1 131.104(10) 5_566 6_656
Th1 Th1 Cu1 90.0 1_545 6_656
Th1 Th1 Cu1 90.0 1_565 6_656
P1 Th1 Cu1 146.863(14) 6_556 6_656
P2 Th1 Cu1 116.534(15) . 6_656
Th1 Th1 Cu1 108.762(8) 6_556 6_656
Th1 Th1 Cu1 40.099(6) 6_656 6_656
P1 Th1 Cu1 55.865(10) 1_545 6_656
P1 Th1 Cu1 55.865(10) 1_565 6_656
P1 Th1 Cu2 63.888(11) . 1_545
P1 Th1 Cu2 145.130(18) 2_565 1_545
P1 Th1 Cu2 77.402(15) 2 1_545
Cu2 Th1 Cu2 51.504(5) . 1_545
P2 Th1 Cu2 21.842(16) 2_554 1_545
P2 Th1 Cu2 93.077(13) 2_564 1_545
P2 Th1 Cu2 138.458(16) 5_666 1_545
P2 Th1 Cu2 77.441(14) 5_656 1_545
Cu2 Th1 Cu2 121.573(7) 6_656 1_545
Cu1 Th1 Cu2 105.851(8) . 1_545
Cu1 Th1 Cu2 51.937(9) 2_554 1_545
Cu1 Th1 Cu2 106.408(9) 2_564 1_545
Cu2 Th1 Cu2 162.861(6) 2_565 1_545
Cu2 Th1 Cu2 93.918(6) 2 1_545
Cu1 Th1 Cu2 55.994(8) 5_556 1_545
Cu1 Th1 Cu2 108.097(8) 5_566 1_545
Th1 Th1 Cu2 38.496(5) 1_545 1_545
Th1 Th1 Cu2 141.504(5) 1_565 1_545
P1 Th1 Cu2 84.228(10) 6_556 1_545
P2 Th1 Cu2 128.446(5) . 1_545
Th1 Th1 Cu2 62.730(5) 6_556 1_545
Th1 Th1 Cu2 100.037(6) 6_656 1_545
P1 Th1 Cu2 27.133(12) 1_545 1_545
P1 Th1 Cu2 111.117(11) 1_565 1_545
Cu1 Th1 Cu2 75.429(7) 6_656 1_545
P1 Th1 Cu2 63.888(10) . 1_565
P1 Th1 Cu2 77.402(15) 2_565 1_565
P1 Th1 Cu2 145.130(17) 2 1_565
Cu2 Th1 Cu2 51.504(5) . 1_565
P2 Th1 Cu2 93.077(13) 2_554 1_565
P2 Th1 Cu2 21.842(16) 2_564 1_565
P2 Th1 Cu2 77.441(14) 5_666 1_565
P2 Th1 Cu2 138.458(16) 5_656 1_565
Cu2 Th1 Cu2 121.573(7) 6_656 1_565
Cu1 Th1 Cu2 105.851(8) . 1_565
Cu1 Th1 Cu2 106.408(9) 2_554 1_565
Cu1 Th1 Cu2 51.937(9) 2_564 1_565
Cu2 Th1 Cu2 93.918(6) 2_565 1_565
Cu2 Th1 Cu2 162.861(6) 2 1_565
Cu1 Th1 Cu2 108.097(8) 5_556 1_565
Cu1 Th1 Cu2 55.994(8) 5_566 1_565
Th1 Th1 Cu2 141.504(5) 1_545 1_565
Th1 Th1 Cu2 38.496(5) 1_565 1_565
P1 Th1 Cu2 84.228(10) 6_556 1_565
P2 Th1 Cu2 128.446(5) . 1_565
Th1 Th1 Cu2 62.730(5) 6_556 1_565
Th1 Th1 Cu2 100.037(6) 6_656 1_565
P1 Th1 Cu2 111.117(11) 1_545 1_565
P1 Th1 Cu2 27.133(12) 1_565 1_565
Cu1 Th1 Cu2 75.429(7) 6_656 1_565
Cu2 Th1 Cu2 103.008(10) 1_545 1_565
P1 Th1 Cu2 55.593(17) . 5
P1 Th1 Cu2 129.457(18) 2_565 5
P1 Th1 Cu2 96.775(17) 2 5
Cu2 Th1 Cu2 23.983(5) . 5
P2 Th1 Cu2 22.335(15) 2_554 5
P2 Th1 Cu2 64.172(12) 2_564 5
P2 Th1 Cu2 134.919(17) 5_666 5
P2 Th1 Cu2 102.989(15) 5_656 5
Cu2 Th1 Cu2 146.145(8) 6_656 5
Cu1 Th1 Cu2 107.339(10) . 5
Cu1 Th1 Cu2 67.628(10) 2_554 5
Cu1 Th1 Cu2 93.864(10) 2_564 5
Cu2 Th1 Cu2 167.945(7) 2_565 5
Cu2 Th1 Cu2 122.398(7) 2 5
Cu1 Th1 Cu2 60.552(10) 5_556 5
Cu1 Th1 Cu2 86.667(9) 5_566 5
Th1 Th1 Cu2 67.045(3) 1_545 5
Th1 Th1 Cu2 112.956(3) 1_565 5
P1 Th1 Cu2 74.893(13) 6_556 5
P2 Th1 Cu2 155.131(6) . 5
Th1 Th1 Cu2 41.407(5) 6_556 5
Th1 Th1 Cu2 111.454(7) 6_656 5
P1 Th1 Cu2 49.343(11) 1_545 5
P1 Th1 Cu2 88.366(11) 1_565 5
Cu1 Th1 Cu2 74.660(8) 6_656 5
Cu2 Th1 Cu2 29.078(6) 1_545 5
Cu2 Th1 Cu2 74.724(4) 1_565 5
P1 Th1 Cu2 55.593(17) . 5_565
P1 Th1 Cu2 96.775(17) 2_565 5_565
P1 Th1 Cu2 129.457(18) 2 5_565
Cu2 Th1 Cu2 23.983(5) . 5_565
P2 Th1 Cu2 64.172(12) 2_554 5_565
P2 Th1 Cu2 22.335(15) 2_564 5_565
P2 Th1 Cu2 102.989(15) 5_666 5_565
P2 Th1 Cu2 134.919(17) 5_656 5_565
Cu2 Th1 Cu2 146.145(8) 6_656 5_565
Cu1 Th1 Cu2 107.339(10) . 5_565
Cu1 Th1 Cu2 93.864(10) 2_554 5_565
Cu1 Th1 Cu2 67.628(10) 2_564 5_565
Cu2 Th1 Cu2 122.398(7) 2_565 5_565
Cu2 Th1 Cu2 167.945(7) 2 5_565
Cu1 Th1 Cu2 86.667(9) 5_556 5_565
Cu1 Th1 Cu2 60.552(10) 5_566 5_565
Th1 Th1 Cu2 112.956(3) 1_545 5_565
Th1 Th1 Cu2 67.045(3) 1_565 5_565
P1 Th1 Cu2 74.893(13) 6_556 5_565
P2 Th1 Cu2 155.131(6) . 5_565
Th1 Th1 Cu2 41.407(5) 6_556 5_565
Th1 Th1 Cu2 111.454(7) 6_656 5_565
P1 Th1 Cu2 88.366(11) 1_545 5_565
P1 Th1 Cu2 49.343(11) 1_565 5_565
Cu1 Th1 Cu2 74.660(8) 6_656 5_565
Cu2 Th1 Cu2 74.724(5) 1_545 5_565
Cu2 Th1 Cu2 29.078(6) 1_565 5_565
Cu2 Th1 Cu2 45.911(5) 5 5_565
P1 Th1 Cu2 97.742(13) . 6_666
P1 Th1 Cu2 54.879(17) 2_565 6_666
P1 Th1 Cu2 116.777(17) 2 6_666
Cu2 Th1 Cu2 122.248(4) . 6_666
P2 Th1 Cu2 167.184(13) 2_554 6_666
P2 Th1 Cu2 90.300(13) 2_564 6_666
P2 Th1 Cu2 21.333(15) 5_666 6_666
P2 Th1 Cu2 91.295(13) 5_656 6_666
Cu2 Th1 Cu2 50.629(5) 6_656 6_666
Cu1 Th1 Cu2 94.251(8) . 6_666
Cu1 Th1 Cu2 108.775(9) 2_554 6_666
Cu1 Th1 Cu2 55.520(9) 2_564 6_666
Cu2 Th1 Cu2 26.715(11) 2_565 6_666
Cu2 Th1 Cu2 89.034(4) 2 6_666
Cu1 Th1 Cu2 144.394(9) 5_556 6_666
Cu1 Th1 Cu2 87.351(8) 5_566 6_666
Th1 Th1 Cu2 140.629(5) 1_545 6_666
Th1 Th1 Cu2 39.371(5) 1_565 6_666
P1 Th1 Cu2 115.135(9) 6_556 6_666
P2 Th1 Cu2 58.878(8) . 6_666
Th1 Th1 Cu2 128.679(5) 6_556 6_666
Th1 Th1 Cu2 61.398(5) 6_656 6_666
P1 Th1 Cu2 134.307(12) 1_545 6_666
P1 Th1 Cu2 57.562(12) 1_565 6_666
Cu1 Th1 Cu2 84.369(7) 6_656 6_666
Cu2 Th1 Cu2 159.580(8) 1_545 6_666
Cu2 Th1 Cu2 74.163(7) 1_565 6_666
Cu2 Th1 Cu2 145.923(8) 5 6_666
Cu2 Th1 Cu2 103.020(6) 5_565 6_666
P1 Th1 Cu2 97.742(13) . 6_646
P1 Th1 Cu2 116.777(17) 2_565 6_646
P1 Th1 Cu2 54.879(17) 2 6_646
Cu2 Th1 Cu2 122.248(4) . 6_646
P2 Th1 Cu2 90.300(13) 2_554 6_646
P2 Th1 Cu2 167.184(13) 2_564 6_646
P2 Th1 Cu2 91.295(13) 5_666 6_646
P2 Th1 Cu2 21.333(15) 5_656 6_646
Cu2 Th1 Cu2 50.629(5) 6_656 6_646
Cu1 Th1 Cu2 94.251(8) . 6_646
Cu1 Th1 Cu2 55.520(9) 2_554 6_646
Cu1 Th1 Cu2 108.775(9) 2_564 6_646
Cu2 Th1 Cu2 89.034(5) 2_565 6_646
Cu2 Th1 Cu2 26.716(11) 2 6_646
Cu1 Th1 Cu2 87.352(8) 5_556 6_646
Cu1 Th1 Cu2 144.394(9) 5_566 6_646
Th1 Th1 Cu2 39.371(4) 1_545 6_646
Th1 Th1 Cu2 140.629(5) 1_565 6_646
P1 Th1 Cu2 115.135(9) 6_556 6_646
P2 Th1 Cu2 58.878(8) . 6_646
Th1 Th1 Cu2 128.679(5) 6_556 6_646
Th1 Th1 Cu2 61.398(5) 6_656 6_646
P1 Th1 Cu2 57.562(12) 1_545 6_646
P1 Th1 Cu2 134.307(12) 1_565 6_646
Cu1 Th1 Cu2 84.369(7) 6_656 6_646
Cu2 Th1 Cu2 74.163(7) 1_545 6_646
Cu2 Th1 Cu2 159.580(8) 1_565 6_646
Cu2 Th1 Cu2 103.020(6) 5 6_646
Cu2 Th1 Cu2 145.923(8) 5_565 6_646
Cu2 Th1 Cu2 101.258(9) 6_666 6_646
P1 Th1 Cu1 127.656(7) . 1_565
P1 Th1 Cu1 12.867(16) 2_565 1_565
P1 Th1 Cu1 92.179(14) 2 1_565
Cu2 Th1 Cu1 106.467(8) . 1_565
P2 Th1 Cu1 118.868(16) 2_554 1_565
P2 Th1 Cu1 61.650(15) 2_564 1_565
P2 Th1 Cu1 77.989(14) 5_666 1_565
P2 Th1 Cu1 137.221(16) 5_656 1_565
Cu2 Th1 Cu1 94.329(8) 6_656 1_565
Cu1 Th1 Cu1 49.759(5) . 1_565
Cu1 Th1 Cu1 164.455(5) 2_554 1_565
Cu1 Th1 Cu1 94.969(6) 2_564 1_565
Cu2 Th1 Cu1 50.327(9) 2_565 1_565
Cu2 Th1 Cu1 103.118(9) 2 1_565
Cu1 Th1 Cu1 90.709(5) 5_556 1_565
Cu1 Th1 Cu1 33.274(11) 5_566 1_565
Th1 Th1 Cu1 139.758(5) 1_545 1_565
Th1 Th1 Cu1 40.241(4) 1_565 1_565
P1 Th1 Cu1 58.193(7) 6_556 1_565
P2 Th1 Cu1 71.914(10) . 1_565
Th1 Th1 Cu1 79.381(6) 6_556 1_565
Th1 Th1 Cu1 118.548(5) 6_656 1_565
P1 Th1 Cu1 167.763(12) 1_545 1_565
P1 Th1 Cu1 75.991(10) 1_565 1_565
Cu1 Th1 Cu1 130.206(5) 6_656 1_565
Cu2 Th1 Cu1 140.703(8) 1_545 1_565
Cu2 Th1 Cu1 65.104(8) 1_565 1_565
Cu2 Th1 Cu1 119.356(7) 5 1_565
Cu2 Th1 Cu1 83.962(7) 5_565 1_565
Cu2 Th1 Cu1 57.166(7) 6_666 1_565
Cu2 Th1 Cu1 129.641(8) 6_646 1_565
P1 Th1 Cu1 127.656(7) . 1_545
P1 Th1 Cu1 92.179(14) 2_565 1_545
P1 Th1 Cu1 12.867(16) 2 1_545
Cu2 Th1 Cu1 106.467(8) . 1_545
P2 Th1 Cu1 61.650(16) 2_554 1_545
P2 Th1 Cu1 118.868(16) 2_564 1_545
P2 Th1 Cu1 137.221(16) 5_666 1_545
P2 Th1 Cu1 77.989(14) 5_656 1_545
Cu2 Th1 Cu1 94.329(8) 6_656 1_545
Cu1 Th1 Cu1 49.759(5) . 1_545
Cu1 Th1 Cu1 94.969(6) 2_554 1_545
Cu1 Th1 Cu1 164.455(5) 2_564 1_545
Cu2 Th1 Cu1 103.118(9) 2_565 1_545
Cu2 Th1 Cu1 50.327(9) 2 1_545
Cu1 Th1 Cu1 33.274(11) 5_556 1_545
Cu1 Th1 Cu1 90.709(5) 5_566 1_545
Th1 Th1 Cu1 40.241(4) 1_545 1_545
Th1 Th1 Cu1 139.758(5) 1_565 1_545
P1 Th1 Cu1 58.193(7) 6_556 1_545
P2 Th1 Cu1 71.914(10) . 1_545
Th1 Th1 Cu1 79.381(6) 6_556 1_545
Th1 Th1 Cu1 118.548(5) 6_656 1_545
P1 Th1 Cu1 75.991(10) 1_545 1_545
P1 Th1 Cu1 167.763(12) 1_565 1_545
Cu1 Th1 Cu1 130.206(5) 6_656 1_545
Cu2 Th1 Cu1 65.104(8) 1_545 1_545
Cu2 Th1 Cu1 140.703(8) 1_565 1_545
Cu2 Th1 Cu1 83.962(7) 5 1_545
Cu2 Th1 Cu1 119.356(7) 5_565 1_545
Cu2 Th1 Cu1 129.641(8) 6_666 1_545
Cu2 Th1 Cu1 57.166(7) 6_646 1_545
Cu1 Th1 Cu1 99.517(9) 1_565 1_545
P1 Th1 Th1 25.072(9) . 2_554
P1 Th1 Th1 154.872(15) 2_565 2_554
P1 Th1 Th1 114.791(13) 2 2_554
Cu2 Th1 Th1 37.710(7) . 2_554
P2 Th1 Th1 51.623(17) 2_554 2_554
P2 Th1 Th1 80.719(15) 2_564 2_554
P2 Th1 Th1 103.861(16) 5_666 2_554
P2 Th1 Th1 77.731(16) 5_656 2_554
Cu2 Th1 Th1 113.612(9) 6_656 2_554
Cu1 Th1 Th1 141.935(8) . 2_554
Cu1 Th1 Th1 36.725(8) 2_554 2_554
Cu1 Th1 Th1 67.619(7) 2_564 2_554
Cu2 Th1 Th1 146.634(8) 2_565 2_554
Cu2 Th1 Th1 114.829(7) 2 2_554
Cu1 Th1 Th1 91.933(8) 5_556 2_554
Cu1 Th1 Th1 116.159(8) 5_566 2_554
Th1 Th1 Th1 68.513(2) 1_545 2_554
Th1 Th1 Th1 111.488(1) 1_565 2_554
P1 Th1 Th1 110.830(12) 6_556 2_554
P2 Th1 Th1 144.418(11) . 2_554
Th1 Th1 Th1 75.478(4) 6_556 2_554
Th1 Th1 Th1 75.597(4) 6_656 2_554
P1 Th1 Th1 33.114(9) 1_545 2_554
P1 Th1 Th1 75.377(10) 1_565 2_554
Cu1 Th1 Th1 39.843(5) 6_656 2_554
Cu2 Th1 Th1 38.820(5) 1_545 2_554
Cu2 Th1 Th1 78.126(6) 1_565 2_554
Cu2 Th1 Th1 35.944(6) 5 2_554
Cu2 Th1 Th1 58.408(5) 5_565 2_554
Cu2 Th1 Th1 122.496(6) 6_666 2_554
Cu2 Th1 Th1 88.333(6) 6_646 2_554
Cu1 Th1 Th1 142.019(5) 1_565 2_554
Cu1 Th1 Th1 103.239(6) 1_545 2_554
P1 Th1 Th1 25.072(9) . 2_564
P1 Th1 Th1 114.791(14) 2_565 2_564
P1 Th1 Th1 154.872(15) 2 2_564
Cu2 Th1 Th1 37.710(7) . 2_564
P2 Th1 Th1 80.719(15) 2_554 2_564
P2 Th1 Th1 51.623(17) 2_564 2_564
P2 Th1 Th1 77.731(16) 5_666 2_564
P2 Th1 Th1 103.861(16) 5_656 2_564
Cu2 Th1 Th1 113.612(9) 6_656 2_564
Cu1 Th1 Th1 141.935(8) . 2_564
Cu1 Th1 Th1 67.619(7) 2_554 2_564
Cu1 Th1 Th1 36.725(8) 2_564 2_564
Cu2 Th1 Th1 114.829(7) 2_565 2_564
Cu2 Th1 Th1 146.634(8) 2 2_564
Cu1 Th1 Th1 116.159(8) 5_556 2_564
Cu1 Th1 Th1 91.933(8) 5_566 2_564
Th1 Th1 Th1 111.488(1) 1_545 2_564
Th1 Th1 Th1 68.513(1) 1_565 2_564
P1 Th1 Th1 110.830(12) 6_556 2_564
P2 Th1 Th1 144.418(11) . 2_564
Th1 Th1 Th1 75.478(4) 6_556 2_564
Th1 Th1 Th1 75.597(4) 6_656 2_564
P1 Th1 Th1 75.377(10) 1_545 2_564
P1 Th1 Th1 33.114(9) 1_565 2_564
Cu1 Th1 Th1 39.843(5) 6_656 2_564
Cu2 Th1 Th1 78.126(6) 1_545 2_564
Cu2 Th1 Th1 38.820(5) 1_565 2_564
Cu2 Th1 Th1 58.408(5) 5 2_564
Cu2 Th1 Th1 35.944(6) 5_565 2_564
Cu2 Th1 Th1 88.333(6) 6_666 2_564
Cu2 Th1 Th1 122.496(6) 6_646 2_564
Cu1 Th1 Th1 103.239(6) 1_565 2_564
Cu1 Th1 Th1 142.019(5) 1_545 2_564
Th1 Th1 Th1 42.975(4) 2_554 2_564
P1 Th1 Th1 154.993(9) . 2_565
P1 Th1 Th1 25.063(15) 2_565 2_565
P1 Th1 Th1 65.179(13) 2 2_565
Cu2 Th1 Th1 142.187(8) . 2_565
P2 Th1 Th1 128.277(18) 2_554 2_565
P2 Th1 Th1 99.202(15) 2_564 2_565
P2 Th1 Th1 76.236(16) 5_666 2_565
P2 Th1 Th1 102.365(16) 5_656 2_565
Cu2 Th1 Th1 66.505(8) 6_656 2_565
Cu1 Th1 Th1 37.961(7) . 2_565
Cu1 Th1 Th1 143.378(9) 2_554 2_565
Cu1 Th1 Th1 112.448(7) 2_564 2_565
Cu2 Th1 Th1 33.469(8) 2_565 2_565
Cu2 Th1 Th1 65.233(7) 2 2_565
Cu1 Th1 Th1 87.972(8) 5_556 2_565
Cu1 Th1 Th1 63.736(8) 5_566 2_565
Th1 Th1 Th1 111.487(1) 1_545 2_565
Th1 Th1 Th1 68.512(2) 1_565 2_565
P1 Th1 Th1 69.052(12) 6_556 2_565
P2 Th1 Th1 35.682(11) . 2_565
Th1 Th1 Th1 104.403(4) 6_556 2_565
Th1 Th1 Th1 104.522(4) 6_656 2_565
P1 Th1 Th1 146.916(9) 1_545 2_565
P1 Th1 Th1 104.640(10) 1_565 2_565
Cu1 Th1 Th1 140.263(6) 6_656 2_565
Cu2 Th1 Th1 141.118(5) 1_545 2_565
Cu2 Th1 Th1 101.834(6) 1_565 2_565
Cu2 Th1 Th1 143.938(6) 5 2_565
Cu2 Th1 Th1 121.511(6) 5_565 2_565
Cu2 Th1 Th1 57.585(6) 6_666 2_565
Cu2 Th1 Th1 91.735(6) 6_646 2_565
Cu1 Th1 Th1 37.914(5) 1_565 2_565
Cu1 Th1 Th1 76.719(6) 1_545 2_565
Th1 Th1 Th1 179.881(5) 2_554 2_565
Th1 Th1 Th1 137.025(3) 2_564 2_565
P1 Th1 Th1 154.993(9) . 2
P1 Th1 Th1 65.179(14) 2_565 2
P1 Th1 Th1 25.063(15) 2 2
Cu2 Th1 Th1 142.187(8) . 2
P2 Th1 Th1 99.202(15) 2_554 2
P2 Th1 Th1 128.277(18) 2_564 2
P2 Th1 Th1 102.365(16) 5_666 2
P2 Th1 Th1 76.236(16) 5_656 2
Cu2 Th1 Th1 66.505(8) 6_656 2
Cu1 Th1 Th1 37.961(7) . 2
Cu1 Th1 Th1 112.448(7) 2_554 2
Cu1 Th1 Th1 143.378(9) 2_564 2
Cu2 Th1 Th1 65.233(7) 2_565 2
Cu2 Th1 Th1 33.469(8) 2 2
Cu1 Th1 Th1 63.736(8) 5_556 2
Cu1 Th1 Th1 87.972(8) 5_566 2
Th1 Th1 Th1 68.513(1) 1_545 2
Th1 Th1 Th1 111.487(2) 1_565 2
P1 Th1 Th1 69.052(12) 6_556 2
P2 Th1 Th1 35.682(11) . 2
Th1 Th1 Th1 104.403(4) 6_556 2
Th1 Th1 Th1 104.522(4) 6_656 2
P1 Th1 Th1 104.640(10) 1_545 2
P1 Th1 Th1 146.916(9) 1_565 2
Cu1 Th1 Th1 140.263(6) 6_656 2
Cu2 Th1 Th1 101.834(6) 1_545 2
Cu2 Th1 Th1 141.118(6) 1_565 2
Cu2 Th1 Th1 121.511(6) 5 2
Cu2 Th1 Th1 143.938(6) 5_565 2
Cu2 Th1 Th1 91.735(6) 6_666 2
Cu2 Th1 Th1 57.585(6) 6_646 2
Cu1 Th1 Th1 76.719(6) 1_565 2
Cu1 Th1 Th1 37.914(5) 1_545 2
Th1 Th1 Th1 137.025(3) 2_554 2
Th1 Th1 Th1 179.881(5) 2_564 2
Th1 Th1 Th1 42.974(4) 2_565 2
P1 Th1 P1 93.94(2) . 6_656
P1 Th1 P1 90.571(19) 2_565 6_656
P1 Th1 P1 90.571(19) 2 6_656
Cu2 Th1 P1 138.945(13) . 6_656
P2 Th1 P1 138.637(13) 2_554 6_656
P2 Th1 P1 138.637(13) 2_564 6_656
P2 Th1 P1 40.891(13) 5_666 6_656
P2 Th1 P1 40.891(13) 5_656 6_656
Cu2 Th1 P1 8.317(13) 6_656 6_656
Cu1 Th1 P1 105.028(13) . 6_656
Cu1 Th1 P1 72.205(11) 2_554 6_656
Cu1 Th1 P1 72.205(11) 2_564 6_656
Cu2 Th1 P1 49.365(9) 2_565 6_656
Cu2 Th1 P1 49.365(9) 2 6_656
Cu1 Th1 P1 132.894(10) 5_556 6_656
Cu1 Th1 P1 132.894(10) 5_566 6_656
Th1 Th1 P1 90.0 1_545 6_656
Th1 Th1 P1 90.0 1_565 6_656
P1 Th1 P1 140.35(2) 6_556 6_656
P2 Th1 P1 43.750(17) . 6_656
Th1 Th1 P1 178.454(11) 6_556 6_656
Th1 Th1 P1 32.684(10) 6_656 6_656
P1 Th1 P1 92.372(15) 1_545 6_656
P1 Th1 P1 92.372(15) 1_565 6_656
Cu1 Th1 P1 72.784(12) 6_656 6_656
Cu2 Th1 P1 117.994(7) 1_545 6_656
Cu2 Th1 P1 117.994(7) 1_565 6_656
Cu2 Th1 P1 139.833(9) 5 6_656
Cu2 Th1 P1 139.833(9) 5_565 6_656
Cu2 Th1 P1 51.122(5) 6_666 6_656
Cu2 Th1 P1 51.122(5) 6_646 6_656
Cu1 Th1 P1 99.643(8) 1_565 6_656
Cu1 Th1 P1 99.643(8) 1_545 6_656
Th1 Th1 P1 105.952(10) 2_554 6_656
Th1 Th1 P1 105.952(10) 2_564 6_656
Th1 Th1 P1 74.166(10) 2_565 6_656
Th1 Th1 P1 74.166(10) 2 6_656
P1 Th1 P1 40.72(2) . 5_665
P1 Th1 P1 111.223(18) 2_565 5_665
P1 Th1 P1 146.66(2) 2 5_665
Cu2 Th1 P1 81.388(13) . 5_665
P2 Th1 P1 115.379(19) 2_554 5_665
P2 Th1 P1 88.914(19) 2_564 5_665
P2 Th1 P1 40.001(18) 5_666 5_665
P2 Th1 P1 70.989(15) 5_656 5_665
Cu2 Th1 P1 68.116(13) 6_656 5_665
Cu1 Th1 P1 153.421(9) . 5_665
Cu1 Th1 P1 56.739(7) 2_554 5_665
Cu1 Th1 P1 16.618(8) 2_564 5_665
Cu2 Th1 P1 82.958(12) 2_565 5_665
Cu2 Th1 P1 106.369(12) 2 5_665
Cu1 Th1 P1 155.854(11) 5_556 5_665
Cu1 Th1 P1 121.064(8) 5_566 5_665
Th1 Th1 P1 110.900(4) 1_545 5_665
Th1 Th1 P1 69.100(4) 1_565 5_665
P1 Th1 P1 152.352(11) 6_556 5_665
P2 Th1 P1 101.124(16) . 5_665
Th1 Th1 P1 120.928(11) 6_556 5_665
Th1 Th1 P1 32.509(8) 6_656 5_665
P1 Th1 P1 80.146(8) 1_545 5_665
P1 Th1 P1 42.184(15) 1_565 5_665
Cu1 Th1 P1 25.314(7) 6_656 5_665
Cu2 Th1 P1 100.719(9) 1_545 5_665
Cu2 Th1 P1 68.136(9) 1_565 5_665
Cu2 Th1 P1 96.194(11) 5 5_665
Cu2 Th1 P1 80.191(11) 5_565 5_665
Cu2 Th1 P1 59.189(9) 6_666 5_665
Cu2 Th1 P1 92.255(9) 6_646 5_665
Cu1 Th1 P1 107.784(6) 1_565 5_665
Cu1 Th1 P1 148.217(7) 1_545 5_665
Th1 Th1 P1 63.928(8) 2_554 5_665
Th1 Th1 P1 45.505(10) 2_564 5_665
Th1 Th1 P1 116.166(9) 2_565 5_665
Th1 Th1 P1 134.613(10) 2 5_665
P1 Th1 P1 60.480(6) 6_656 5_665
P1 Th1 P1 40.72(2) . 5_655
P1 Th1 P1 146.66(2) 2_565 5_655
P1 Th1 P1 111.223(17) 2 5_655
Cu2 Th1 P1 81.388(13) . 5_655
P2 Th1 P1 88.914(19) 2_554 5_655
P2 Th1 P1 115.379(19) 2_564 5_655
P2 Th1 P1 70.989(15) 5_666 5_655
P2 Th1 P1 40.001(18) 5_656 5_655
Cu2 Th1 P1 68.116(13) 6_656 5_655
Cu1 Th1 P1 153.421(9) . 5_655
Cu1 Th1 P1 16.618(8) 2_554 5_655
Cu1 Th1 P1 56.739(7) 2_564 5_655
Cu2 Th1 P1 106.369(12) 2_565 5_655
Cu2 Th1 P1 82.958(12) 2 5_655
Cu1 Th1 P1 121.064(8) 5_556 5_655
Cu1 Th1 P1 155.854(11) 5_566 5_655
Th1 Th1 P1 69.100(4) 1_545 5_655
Th1 Th1 P1 110.900(4) 1_565 5_655
P1 Th1 P1 152.352(12) 6_556 5_655
P2 Th1 P1 101.124(17) . 5_655
Th1 Th1 P1 120.928(11) 6_556 5_655
Th1 Th1 P1 32.509(8) 6_656 5_655
P1 Th1 P1 42.184(15) 1_545 5_655
P1 Th1 P1 80.146(8) 1_565 5_655
Cu1 Th1 P1 25.314(7) 6_656 5_655
Cu2 Th1 P1 68.135(9) 1_545 5_655
Cu2 Th1 P1 100.719(9) 1_565 5_655
Cu2 Th1 P1 80.191(11) 5 5_655
Cu2 Th1 P1 96.194(11) 5_565 5_655
Cu2 Th1 P1 92.255(9) 6_666 5_655
Cu2 Th1 P1 59.189(9) 6_646 5_655
Cu1 Th1 P1 148.217(7) 1_565 5_655
Cu1 Th1 P1 107.784(6) 1_545 5_655
Th1 Th1 P1 45.505(10) 2_554 5_655
Th1 Th1 P1 63.928(9) 2_564 5_655
Th1 Th1 P1 134.613(10) 2_565 5_655
Th1 Th1 P1 116.166(9) 2 5_655
P1 Th1 P1 60.480(6) 6_656 5_655
P1 Th1 P1 41.800(7) 5_665 5_655
P2 Cu1 P1 115.55(3) 6_557 2_565
P2 Cu1 P1 115.55(3) 6_557 2
P1 Cu1 P1 113.07(4) 2_565 2
P2 Cu1 P1 101.16(4) 6_557 6_556
P1 Cu1 P1 104.68(3) 2_565 6_556
P1 Cu1 P1 104.68(3) 2 6_556
P2 Cu1 Cu1 120.54(2) 6_557 5_556
P1 Cu1 Cu1 121.75(3) 2_565 5_556
P1 Cu1 Cu1 53.58(2) 2 5_556
P1 Cu1 Cu1 51.109(18) 6_556 5_556
P2 Cu1 Cu1 120.54(2) 6_557 5_566
P1 Cu1 Cu1 53.58(2) 2_565 5_566
P1 Cu1 Cu1 121.75(3) 2 5_566
P1 Cu1 Cu1 51.109(18) 6_556 5_566
Cu1 Cu1 Cu1 84.33(2) 5_556 5_566
P2 Cu1 Th1 166.33(3) 6_557 .
P1 Cu1 Th1 59.98(2) 2_565 .
P1 Cu1 Th1 59.98(2) 2 .
P1 Cu1 Th1 92.51(3) 6_556 .
Cu1 Cu1 Th1 68.522(17) 5_556 .
Cu1 Cu1 Th1 68.522(17) 5_566 .
P2 Cu1 Th1 63.91(2) 6_557 2_565
P1 Cu1 Th1 58.22(2) 2_565 2_565
P1 Cu1 Th1 115.57(3) 2 2_565
P1 Cu1 Th1 139.690(14) 6_556 2_565
Cu1 Cu1 Th1 168.99(2) 5_556 2_565
Cu1 Cu1 Th1 102.155(9) 5_566 2_565
Th1 Cu1 Th1 105.313(11) . 2_565
P2 Cu1 Th1 63.91(2) 6_557 2
P1 Cu1 Th1 115.57(3) 2_565 2
P1 Cu1 Th1 58.22(2) 2 2
P1 Cu1 Th1 139.690(14) 6_556 2
Cu1 Cu1 Th1 102.155(9) 5_556 2
Cu1 Cu1 Th1 168.99(2) 5_566 2
Th1 Cu1 Th1 105.313(11) . 2
Th1 Cu1 Th1 70.105(10) 2_565 2
P2 Cu1 Th1 60.44(2) 6_557 5_556
P1 Cu1 Th1 155.00(2) 2_565 5_556
P1 Cu1 Th1 88.80(2) 2 5_556
P1 Cu1 Th1 55.876(19) 6_556 5_556
Cu1 Cu1 Th1 61.085(14) 5_556 5_556
Cu1 Cu1 Th1 105.22(2) 5_566 5_556
Th1 Cu1 Th1 129.607(11) . 5_556
Th1 Cu1 Th1 124.352(14) 2_565 5_556
Th1 Cu1 Th1 85.751(8) 2 5_556
P2 Cu1 Th1 60.44(2) 6_557 5_566
P1 Cu1 Th1 88.80(2) 2_565 5_566
P1 Cu1 Th1 155.00(2) 2 5_566
P1 Cu1 Th1 55.876(18) 6_556 5_566
Cu1 Cu1 Th1 105.22(2) 5_556 5_566
Cu1 Cu1 Th1 61.085(14) 5_566 5_566
Th1 Cu1 Th1 129.607(11) . 5_566
Th1 Cu1 Th1 85.751(8) 2_565 5_566
Th1 Cu1 Th1 124.352(14) 2 5_566
Th1 Cu1 Th1 67.525(9) 5_556 5_566
P2 Cu1 P2 95.77(2) 6_557 .
P1 Cu1 P2 67.35(2) 2_565 .
P1 Cu1 P2 67.35(2) 2 .
P1 Cu1 P2 163.07(3) 6_556 .
Cu1 Cu1 P2 119.07(2) 5_556 .
Cu1 Cu1 P2 119.07(2) 5_566 .
Th1 Cu1 P2 70.566(16) . .
Th1 Cu1 P2 49.997(11) 2_565 .
Th1 Cu1 P2 49.997(11) 2 .
Th1 Cu1 P2 135.668(13) 5_556 .
Th1 Cu1 P2 135.668(13) 5_566 .
P2 Cu1 Cu1 90.0 6_557 1_565
P1 Cu1 Cu1 33.46(2) 2_565 1_565
P1 Cu1 Cu1 146.54(2) 2 1_565
P1 Cu1 Cu1 90.0 6_556 1_565
Cu1 Cu1 Cu1 132.164(12) 5_556 1_565
Cu1 Cu1 Cu1 47.837(13) 5_566 1_565
Th1 Cu1 Cu1 90.0 . 1_565
Th1 Cu1 Cu1 54.947(5) 2_565 1_565
Th1 Cu1 Cu1 125.053(5) 2 1_565
Th1 Cu1 Cu1 123.762(5) 5_556 1_565
Th1 Cu1 Cu1 56.238(5) 5_566 1_565
P2 Cu1 Cu1 90.0 . 1_565
P2 Cu1 Cu1 90.0 6_557 1_545
P1 Cu1 Cu1 146.54(2) 2_565 1_545
P1 Cu1 Cu1 33.46(2) 2 1_545
P1 Cu1 Cu1 90.0 6_556 1_545
Cu1 Cu1 Cu1 47.837(12) 5_556 1_545
Cu1 Cu1 Cu1 132.164(13) 5_566 1_545
Th1 Cu1 Cu1 90.0 . 1_545
Th1 Cu1 Cu1 125.053(5) 2_565 1_545
Th1 Cu1 Cu1 54.947(5) 2 1_545
Th1 Cu1 Cu1 56.238(5) 5_556 1_545
Th1 Cu1 Cu1 123.762(5) 5_566 1_545
P2 Cu1 Cu1 90.000(1) . 1_545
Cu1 Cu1 Cu1 180.0 1_565 1_545
P2 Cu1 Cu2 112.79(3) 6_557 2_565
P1 Cu1 Cu2 32.07(2) 2_565 2_565
P1 Cu1 Cu2 88.80(2) 2 2_565
P1 Cu1 Cu2 133.46(2) 6_556 2_565
Cu1 Cu1 Cu2 123.73(2) 5_556 2_565
Cu1 Cu1 Cu2 83.704(15) 5_566 2_565
Th1 Cu1 Cu2 55.935(9) . 2_565
Th1 Cu1 Cu2 49.379(9) 2_565 2_565
Th1 Cu1 Cu2 85.293(12) 2 2_565
Th1 Cu1 Cu2 170.639(15) 5_556 2_565
Th1 Cu1 Cu2 115.855(6) 5_566 2_565
P2 Cu1 Cu2 35.657(10) . 2_565
Cu1 Cu1 Cu2 60.307(5) 1_565 2_565
Cu1 Cu1 Cu2 119.693(5) 1_545 2_565
P2 Cu1 Cu2 112.79(3) 6_557 2
P1 Cu1 Cu2 88.80(2) 2_565 2
P1 Cu1 Cu2 32.07(2) 2 2
P1 Cu1 Cu2 133.46(2) 6_556 2
Cu1 Cu1 Cu2 83.704(15) 5_556 2
Cu1 Cu1 Cu2 123.73(2) 5_566 2
Th1 Cu1 Cu2 55.935(9) . 2
Th1 Cu1 Cu2 85.293(12) 2_565 2
Th1 Cu1 Cu2 49.379(9) 2 2
Th1 Cu1 Cu2 115.855(5) 5_556 2
Th1 Cu1 Cu2 170.639(15) 5_566 2
P2 Cu1 Cu2 35.657(10) . 2
Cu1 Cu1 Cu2 119.693(5) 1_565 2
Cu1 Cu1 Cu2 60.307(5) 1_545 2
Cu2 Cu1 Cu2 59.386(10) 2_565 2
P2 Cu1 Cu2 27.717(5) 6_557 5_566
P1 Cu1 Cu2 89.47(2) 2_565 5_566
P1 Cu1 Cu2 140.05(3) 2 5_566
P1 Cu1 Cu2 100.39(2) 6_556 5_566
Cu1 Cu1 Cu2 140.08(2) 5_556 5_566
Cu1 Cu1 Cu2 98.200(15) 5_566 5_566
Th1 Cu1 Cu2 149.092(8) . 5_566
Th1 Cu1 Cu2 48.492(9) 2_565 5_566
Th1 Cu1 Cu2 82.612(12) 2 5_566
Th1 Cu1 Cu2 80.088(10) 5_556 5_566
Th1 Cu1 Cu2 46.450(8) 5_566 5_566
P2 Cu1 Cu2 94.573(17) . 5_566
Cu1 Cu1 Cu2 62.289(4) 1_565 5_566
Cu1 Cu1 Cu2 117.711(4) 1_545 5_566
Cu2 Cu1 Cu2 96.049(11) 2_565 5_566
Cu2 Cu1 Cu2 124.477(15) 2 5_566
P2 Cu1 Cu2 27.717(5) 6_557 5_556
P1 Cu1 Cu2 140.05(3) 2_565 5_556
P1 Cu1 Cu2 89.47(2) 2 5_556
P1 Cu1 Cu2 100.39(2) 6_556 5_556
Cu1 Cu1 Cu2 98.200(15) 5_556 5_556
Cu1 Cu1 Cu2 140.08(2) 5_566 5_556
Th1 Cu1 Cu2 149.092(8) . 5_556
Th1 Cu1 Cu2 82.612(11) 2_565 5_556
Th1 Cu1 Cu2 48.492(8) 2 5_556
Th1 Cu1 Cu2 46.450(8) 5_556 5_556
Th1 Cu1 Cu2 80.088(10) 5_566 5_556
P2 Cu1 Cu2 94.573(17) . 5_556
Cu1 Cu1 Cu2 117.711(4) 1_565 5_556
Cu1 Cu1 Cu2 62.289(5) 1_545 5_556
Cu2 Cu1 Cu2 124.477(15) 2_565 5_556
Cu2 Cu1 Cu2 96.049(10) 2 5_556
Cu2 Cu1 Cu2 55.422(9) 5_566 5_556
P2 Cu1 Cu2 20.01(3) 6_557 1_556
P1 Cu1 Cu2 106.72(3) 2_565 1_556
P1 Cu1 Cu2 106.72(3) 2 1_556
P1 Cu1 Cu2 121.17(3) 6_556 1_556
Cu1 Cu1 Cu2 131.460(16) 5_556 1_556
Cu1 Cu1 Cu2 131.460(16) 5_566 1_556
Th1 Cu1 Cu2 146.319(14) . 1_556
Th1 Cu1 Cu2 49.498(7) 2_565 1_556
Th1 Cu1 Cu2 49.498(7) 2 1_556
Th1 Cu1 Cu2 76.433(10) 5_556 1_556
Th1 Cu1 Cu2 76.433(10) 5_566 1_556
P2 Cu1 Cu2 75.753(16) . 1_556
Cu1 Cu1 Cu2 90.0 1_565 1_556
Cu1 Cu1 Cu2 90.0 1_545 1_556
Cu2 Cu1 Cu2 95.617(12) 2_565 1_556
Cu2 Cu1 Cu2 95.617(12) 2 1_556
Cu2 Cu1 Cu2 33.387(8) 5_566 1_556
Cu2 Cu1 Cu2 33.387(8) 5_556 1_556
P2 Cu1 P2 59.234(11) 6_557 6_567
P1 Cu1 P2 60.25(2) 2_565 6_567
P1 Cu1 P2 159.63(3) 2 6_567
P1 Cu1 P2 95.682(18) 6_556 6_567
Cu1 Cu1 P2 146.79(2) 5_556 6_567
Cu1 Cu1 P2 71.526(15) 5_566 6_567
Th1 Cu1 P2 119.805(12) . 6_567
Th1 Cu1 P2 44.075(13) 2_565 6_567
Th1 Cu1 P2 105.579(16) 2 6_567
Th1 Cu1 P2 103.012(15) 5_556 6_567
Th1 Cu1 P2 43.121(13) 5_566 6_567
P2 Cu1 P2 92.946(13) . 6_567
Cu1 Cu1 P2 30.766(11) 1_565 6_567
Cu1 Cu1 P2 149.234(11) 1_545 6_567
Cu2 Cu1 P2 76.851(13) 2_565 6_567
Cu2 Cu1 P2 128.594(17) 2 6_567
Cu2 Cu1 P2 31.525(11) 5_566 6_567
Cu2 Cu1 P2 86.946(13) 5_556 6_567
Cu2 Cu1 P2 61.272(11) 1_556 6_567
P2 Cu1 P2 59.234(11) 6_557 6_547
P1 Cu1 P2 159.63(3) 2_565 6_547
P1 Cu1 P2 60.25(2) 2 6_547
P1 Cu1 P2 95.682(18) 6_556 6_547
Cu1 Cu1 P2 71.526(15) 5_556 6_547
Cu1 Cu1 P2 146.79(2) 5_566 6_547
Th1 Cu1 P2 119.805(12) . 6_547
Th1 Cu1 P2 105.579(16) 2_565 6_547
Th1 Cu1 P2 44.075(13) 2 6_547
Th1 Cu1 P2 43.121(13) 5_556 6_547
Th1 Cu1 P2 103.012(15) 5_566 6_547
P2 Cu1 P2 92.946(13) . 6_547
Cu1 Cu1 P2 149.234(11) 1_565 6_547
Cu1 Cu1 P2 30.766(11) 1_545 6_547
Cu2 Cu1 P2 128.594(17) 2_565 6_547
Cu2 Cu1 P2 76.851(13) 2 6_547
Cu2 Cu1 P2 86.946(13) 5_566 6_547
Cu2 Cu1 P2 31.525(11) 5_556 6_547
Cu2 Cu1 P2 61.272(12) 1_556 6_547
P2 Cu1 P2 118.47(2) 6_567 6_547
P2 Cu1 P2 146.621(15) 6_557 2_554
P1 Cu1 P2 96.66(3) 2_565 2_554
P1 Cu1 P2 53.17(3) 2 2_554
P1 Cu1 P2 60.01(2) 6_556 2_554
Cu1 Cu1 P2 26.085(16) 5_556 2_554
Cu1 Cu1 P2 71.185(18) 5_566 2_554
Th1 Cu1 P2 43.119(13) . 2_554
Th1 Cu1 P2 148.374(17) 2_565 2_554
Th1 Cu1 P2 111.038(10) 2 2_554
Th1 Cu1 P2 86.734(13) 5_556 2_554
Th1 Cu1 P2 114.809(16) 5_566 2_554
P2 Cu1 P2 105.017(18) . 2_554
Cu1 Cu1 P2 115.389(6) 1_565 2_554
Cu1 Cu1 P2 64.610(6) 1_545 2_554
Cu2 Cu1 P2 99.031(16) 2_565 2_554
Cu2 Cu1 P2 74.466(15) 2 2_554
Cu2 Cu1 P2 160.357(18) 5_566 2_554
Cu2 Cu1 P2 122.891(9) 5_556 2_554
Cu2 Cu1 P2 154.503(6) 1_556 2_554
P2 Cu1 P2 142.710(10) 6_567 2_554
P2 Cu1 P2 93.367(16) 6_547 2_554
P2 Cu1 P2 146.621(15) 6_557 2_564
P1 Cu1 P2 53.17(3) 2_565 2_564
P1 Cu1 P2 96.66(3) 2 2_564
P1 Cu1 P2 60.01(2) 6_556 2_564
Cu1 Cu1 P2 71.185(18) 5_556 2_564
Cu1 Cu1 P2 26.085(16) 5_566 2_564
Th1 Cu1 P2 43.119(12) . 2_564
Th1 Cu1 P2 111.038(10) 2_565 2_564
Th1 Cu1 P2 148.374(17) 2 2_564
Th1 Cu1 P2 114.809(16) 5_556 2_564
Th1 Cu1 P2 86.734(13) 5_566 2_564
P2 Cu1 P2 105.017(18) . 2_564
Cu1 Cu1 P2 64.611(6) 1_565 2_564
Cu1 Cu1 P2 115.389(6) 1_545 2_564
Cu2 Cu1 P2 74.466(15) 2_565 2_564
Cu2 Cu1 P2 99.031(17) 2 2_564
Cu2 Cu1 P2 122.891(9) 5_566 2_564
Cu2 Cu1 P2 160.357(18) 5_556 2_564
Cu2 Cu1 P2 154.503(6) 1_556 2_564
P2 Cu1 P2 93.367(16) 6_567 2_564
P2 Cu1 P2 142.710(10) 6_547 2_564
P2 Cu1 P2 50.779(12) 2_554 2_564
P2 Cu1 P1 95.851(19) 6_557 6_546
P1 Cu1 P1 147.42(2) 2_565 6_546
P1 Cu1 P1 54.86(3) 2 6_546
P1 Cu1 P1 58.218(11) 6_556 6_546
Cu1 Cu1 P1 25.674(15) 5_556 6_546
Cu1 Cu1 P1 103.88(2) 5_566 6_546
Th1 Cu1 P1 91.321(14) . 6_546
Th1 Cu1 P1 152.853(15) 2_565 6_546
Th1 Cu1 P1 85.033(11) 2 6_546
Th1 Cu1 P1 39.836(12) 5_556 6_546
Th1 Cu1 P1 100.192(15) 5_566 6_546
P2 Cu1 P1 120.257(12) . 6_546
Cu1 Cu1 P1 148.218(11) 1_565 6_546
Cu1 Cu1 P1 31.782(11) 1_545 6_546
Cu2 Cu1 P1 141.570(16) 2_565 6_546
Cu2 Cu1 P1 86.630(12) 2 6_546
Cu2 Cu1 P1 119.361(16) 5_566 6_546
Cu2 Cu1 P1 72.527(13) 5_556 6_546
Cu2 Cu1 P1 105.821(14) 1_556 6_546
P2 Cu1 P1 141.496(19) 6_567 6_546
P2 Cu1 P1 47.291(15) 6_547 6_546
P2 Cu1 P1 51.116(15) 2_554 6_546
P2 Cu1 P1 95.809(15) 2_564 6_546
P2 Cu1 P1 95.851(19) 6_557 6_566
P1 Cu1 P1 54.86(3) 2_565 6_566
P1 Cu1 P1 147.42(2) 2 6_566
P1 Cu1 P1 58.218(11) 6_556 6_566
Cu1 Cu1 P1 103.88(2) 5_556 6_566
Cu1 Cu1 P1 25.674(15) 5_566 6_566
Th1 Cu1 P1 91.321(14) . 6_566
Th1 Cu1 P1 85.033(11) 2_565 6_566
Th1 Cu1 P1 152.853(15) 2 6_566
Th1 Cu1 P1 100.192(15) 5_556 6_566
Th1 Cu1 P1 39.836(12) 5_566 6_566
P2 Cu1 P1 120.257(12) . 6_566
Cu1 Cu1 P1 31.782(11) 1_565 6_566
Cu1 Cu1 P1 148.218(11) 1_545 6_566
Cu2 Cu1 P1 86.630(12) 2_565 6_566
Cu2 Cu1 P1 141.570(16) 2 6_566
Cu2 Cu1 P1 72.527(13) 5_566 6_566
Cu2 Cu1 P1 119.361(16) 5_556 6_566
Cu2 Cu1 P1 105.821(13) 1_556 6_566
P2 Cu1 P1 47.291(15) 6_567 6_566
P2 Cu1 P1 141.496(19) 6_547 6_566
P2 Cu1 P1 95.809(15) 2_554 6_566
P2 Cu1 P1 51.116(15) 2_564 6_566
P1 Cu1 P1 116.44(2) 6_546 6_566
P2 Cu1 Cu2 89.39(3) 6_557 6_556
P1 Cu1 Cu2 110.37(2) 2_565 6_556
P1 Cu1 Cu2 110.37(2) 2 6_556
P1 Cu1 Cu2 11.77(2) 6_556 6_556
Cu1 Cu1 Cu2 57.703(15) 5_556 6_556
Cu1 Cu1 Cu2 57.703(15) 5_566 6_556
Th1 Cu1 Cu2 104.274(13) . 6_556
Th1 Cu1 Cu2 133.299(9) 2_565 6_556
Th1 Cu1 Cu2 133.299(9) 2 6_556
Th1 Cu1 Cu2 47.599(7) 5_556 6_556
Th1 Cu1 Cu2 47.599(7) 5_566 6_556
P2 Cu1 Cu2 174.840(19) . 6_556
Cu1 Cu1 Cu2 90.0 1_565 6_556
Cu1 Cu1 Cu2 90.0 1_545 6_556
Cu2 Cu1 Cu2 141.407(10) 2_565 6_556
Cu2 Cu1 Cu2 141.407(9) 2 6_556
Cu2 Cu1 Cu2 89.994(10) 5_566 6_556
Cu2 Cu1 Cu2 89.994(10) 5_556 6_556
Cu2 Cu1 Cu2 109.407(13) 1_556 6_556
P2 Cu1 Cu2 89.690(14) 6_567 6_556
P2 Cu1 Cu2 89.690(14) 6_547 6_556
P2 Cu1 Cu2 70.373(15) 2_554 6_556
P2 Cu1 Cu2 70.373(15) 2_564 6_556
P1 Cu1 Cu2 58.961(11) 6_546 6_556
P1 Cu1 Cu2 58.961(11) 6_566 6_556
P2 Cu1 Cu2 125.47(3) 6_557 6_656
P1 Cu1 Cu2 57.99(2) 2_565 6_656
P1 Cu1 Cu2 57.99(2) 2 6_656
P1 Cu1 Cu2 133.37(3) 6_556 6_656
Cu1 Cu1 Cu2 98.319(19) 5_556 6_656
Cu1 Cu1 Cu2 98.319(19) 5_566 6_656
Th1 Cu1 Cu2 40.858(8) . 6_656
Th1 Cu1 Cu2 72.113(9) 2_565 6_656
Th1 Cu1 Cu2 72.113(9) 2 6_656
Th1 Cu1 Cu2 146.227(5) 5_556 6_656
Th1 Cu1 Cu2 146.226(5) 5_566 6_656
P2 Cu1 Cu2 29.708(15) . 6_656
Cu1 Cu1 Cu2 90.0 1_565 6_656
Cu1 Cu1 Cu2 90.0 1_545 6_656
Cu2 Cu1 Cu2 30.905(6) 2_565 6_656
Cu2 Cu1 Cu2 30.905(6) 2 6_656
Cu2 Cu1 Cu2 120.411(11) 5_566 6_656
Cu2 Cu1 Cu2 120.411(11) 5_556 6_656
Cu2 Cu1 Cu2 105.461(12) 1_556 6_656
P2 Cu1 Cu2 107.269(13) 6_567 6_656
P2 Cu1 Cu2 107.269(13) 6_547 6_656
P2 Cu1 Cu2 78.238(15) 2_554 6_656
P2 Cu1 Cu2 78.238(15) 2_564 6_656
P1 Cu1 Cu2 111.202(13) 6_546 6_656
P1 Cu1 Cu2 111.202(13) 6_566 6_656
Cu2 Cu1 Cu2 145.132(15) 6_556 6_656
P2 Cu1 P1 48.18(3) 6_557 1_556
P1 Cu1 P1 91.81(2) 2_565 1_556
P1 Cu1 P1 91.81(2) 2 1_556
P1 Cu1 P1 149.34(3) 6_556 1_556
Cu1 Cu1 P1 137.816(12) 5_556 1_556
Cu1 Cu1 P1 137.816(12) 5_566 1_556
Th1 Cu1 P1 118.152(16) . 1_556
Th1 Cu1 P1 36.119(6) 2_565 1_556
Th1 Cu1 P1 36.119(6) 2 1_556
Th1 Cu1 P1 99.769(14) 5_556 1_556
Th1 Cu1 P1 99.769(14) 5_566 1_556
P2 Cu1 P1 47.586(18) . 1_556
Cu1 Cu1 P1 90.0 1_565 1_556
Cu1 Cu1 P1 90.0 1_545 1_556
Cu2 Cu1 P1 71.268(14) 2_565 1_556
Cu2 Cu1 P1 71.268(14) 2 1_556
Cu2 Cu1 P1 53.331(12) 5_566 1_556
Cu2 Cu1 P1 53.331(12) 5_556 1_556
Cu2 Cu1 P1 28.167(13) 1_556 1_556
P2 Cu1 P1 70.057(13) 6_567 1_556
P2 Cu1 P1 70.057(13) 6_547 1_556
P2 Cu1 P1 144.462(15) 2_554 1_556
P2 Cu1 P1 144.462(15) 2_564 1_556
P1 Cu1 P1 116.940(10) 6_546 1_556
P1 Cu1 P1 116.940(10) 6_566 1_556
Cu2 Cu1 P1 137.573(16) 6_556 1_556
Cu2 Cu1 P1 77.294(14) 6_656 1_556
P2 Cu1 Th1 127.19(3) 6_557 6_556
P1 Cu1 Th1 90.74(3) 2_565 6_556
P1 Cu1 Th1 90.74(3) 2 6_556
P1 Cu1 Th1 26.03(2) 6_556 6_556
Cu1 Cu1 Th1 42.518(12) 5_556 6_556
Cu1 Cu1 Th1 42.518(12) 5_566 6_556
Th1 Cu1 Th1 66.474(9) . 6_556
Th1 Cu1 Th1 144.673(5) 2_565 6_556
Th1 Cu1 Th1 144.673(5) 2 6_556
Th1 Cu1 Th1 76.422(8) 5_556 6_556
Th1 Cu1 Th1 76.422(8) 5_566 6_556
P2 Cu1 Th1 137.040(18) . 6_556
Cu1 Cu1 Th1 90.0 1_565 6_556
Cu1 Cu1 Th1 90.0 1_545 6_556
Cu2 Cu1 Th1 112.657(12) 2_565 6_556
Cu2 Cu1 Th1 112.657(12) 2 6_556
Cu2 Cu1 Th1 122.856(11) 5_566 6_556
Cu2 Cu1 Th1 122.856(11) 5_556 6_556
Cu2 Cu1 Th1 147.207(12) 1_556 6_556
P2 Cu1 Th1 108.013(13) 6_567 6_556
P2 Cu1 Th1 108.013(13) 6_547 6_556
P2 Cu1 Th1 38.792(11) 2_554 6_556
P2 Cu1 Th1 38.792(11) 2_564 6_556
P1 Cu1 Th1 61.755(12) 6_546 6_556
P1 Cu1 Th1 61.755(11) 6_566 6_556
Cu2 Cu1 Th1 37.800(7) 6_556 6_556
Cu2 Cu1 Th1 107.332(11) 6_656 6_556
P1 Cu1 Th1 175.373(15) 1_556 6_556
P2 Cu1 Th1 128.881(7) 6_557 1_545
P1 Cu1 Th1 108.28(2) 2_565 1_545
P1 Cu1 Th1 16.26(2) 2 1_545
P1 Cu1 Th1 91.620(17) 6_556 1_545
Cu1 Cu1 Th1 41.503(12) 5_556 1_545
Cu1 Cu1 Th1 106.013(19) 5_566 1_545
Th1 Cu1 Th1 49.759(5) . 1_545
Th1 Cu1 Th1 127.518(11) 2_565 1_545
Th1 Cu1 Th1 74.467(5) 2 1_545
Th1 Cu1 Th1 89.291(5) 5_556 1_545
Th1 Cu1 Th1 146.726(11) 5_566 1_545
P2 Cu1 Th1 77.588(11) . 1_545
Cu1 Cu1 Th1 139.759(5) 1_565 1_545
Cu1 Cu1 Th1 40.241(4) 1_545 1_545
Cu2 Cu1 Th1 90.932(10) 2_565 1_545
Cu2 Cu1 Th1 42.271(7) 2 1_545
Cu2 Cu1 Th1 155.399(9) 5_566 1_545
Cu2 Cu1 Th1 101.497(5) 5_556 1_545
Cu2 Cu1 Th1 122.518(7) 1_556 1_545
P2 Cu1 Th1 167.687(15) 6_567 1_545
P2 Cu1 Th1 70.439(11) 6_547 1_545
P2 Cu1 Th1 36.981(9) 2_554 1_545
P2 Cu1 Th1 81.706(11) 2_564 1_545
P1 Cu1 Th1 50.656(12) 6_546 1_545
P1 Cu1 Th1 131.588(16) 6_566 1_545
Cu2 Cu1 Th1 99.166(8) 6_556 1_545
Cu2 Cu1 Th1 60.751(5) 6_656 1_545
P1 Cu1 Th1 107.746(9) 1_556 1_545
Th1 Cu1 Th1 75.057(6) 6_556 1_545
P2 Cu1 Th1 128.881(8) 6_557 1_565
P1 Cu1 Th1 16.26(2) 2_565 1_565
P1 Cu1 Th1 108.28(2) 2 1_565
P1 Cu1 Th1 91.620(17) 6_556 1_565
Cu1 Cu1 Th1 106.013(19) 5_556 1_565
Cu1 Cu1 Th1 41.503(12) 5_566 1_565
Th1 Cu1 Th1 49.759(5) . 1_565
Th1 Cu1 Th1 74.467(5) 2_565 1_565
Th1 Cu1 Th1 127.518(11) 2 1_565
Th1 Cu1 Th1 146.726(11) 5_556 1_565
Th1 Cu1 Th1 89.291(5) 5_566 1_565
P2 Cu1 Th1 77.588(11) . 1_565
Cu1 Cu1 Th1 40.241(4) 1_565 1_565
Cu1 Cu1 Th1 139.759(5) 1_545 1_565
Cu2 Cu1 Th1 42.271(7) 2_565 1_565
Cu2 Cu1 Th1 90.932(10) 2 1_565
Cu2 Cu1 Th1 101.497(5) 5_566 1_565
Cu2 Cu1 Th1 155.399(9) 5_556 1_565
Cu2 Cu1 Th1 122.518(6) 1_556 1_565
P2 Cu1 Th1 70.439(11) 6_567 1_565
P2 Cu1 Th1 167.687(15) 6_547 1_565
P2 Cu1 Th1 81.706(11) 2_554 1_565
P2 Cu1 Th1 36.981(9) 2_564 1_565
P1 Cu1 Th1 131.588(15) 6_546 1_565
P1 Cu1 Th1 50.656(12) 6_566 1_565
Cu2 Cu1 Th1 99.166(8) 6_556 1_565
Cu2 Cu1 Th1 60.751(5) 6_656 1_565
P1 Cu1 Th1 107.746(9) 1_556 1_565
Th1 Cu1 Th1 75.057(7) 6_556 1_565
Th1 Cu1 Th1 99.517(9) 1_545 1_565
P2 Cu1 P2 62.30(3) 6_557 1_455
P1 Cu1 P2 120.31(2) 2_565 1_455
P1 Cu1 P2 120.31(2) 2 1_455
P1 Cu1 P2 38.86(3) 6_556 1_455
Cu1 Cu1 P2 76.016(18) 5_556 1_455
Cu1 Cu1 P2 76.016(18) 5_566 1_455
Th1 Cu1 P2 131.370(16) . 1_455
Th1 Cu1 P2 114.013(13) 2_565 1_455
Th1 Cu1 P2 114.013(13) 2 1_455
Th1 Cu1 P2 34.736(5) 5_556 1_455
Th1 Cu1 P2 34.736(5) 5_566 1_455
P2 Cu1 P2 158.06(3) . 1_455
Cu1 Cu1 P2 90.0 1_565 1_455
Cu1 Cu1 P2 90.0 1_545 1_455
Cu2 Cu1 P2 150.284(5) 2_565 1_455
Cu2 Cu1 P2 150.284(5) 2 1_455
Cu2 Cu1 P2 66.213(12) 5_566 1_455
Cu2 Cu1 P2 66.213(12) 5_556 1_455
Cu2 Cu1 P2 82.311(14) 1_556 1_455
P2 Cu1 P2 76.243(13) 6_567 1_455
P2 Cu1 P2 76.243(13) 6_547 1_455
P2 Cu1 P2 94.759(15) 2_554 1_455
P2 Cu1 P2 94.759(15) 2_564 1_455
P1 Cu1 P2 65.788(12) 6_546 1_455
P1 Cu1 P2 65.788(13) 6_566 1_455
Cu2 Cu1 P2 27.096(12) 6_556 1_455
Cu2 Cu1 P2 172.228(15) 6_656 1_455
P1 Cu1 P2 110.477(18) 1_556 1_455
Th1 Cu1 P2 64.896(11) 6_556 1_455
Th1 Cu1 P2 115.275(8) 1_545 1_455
Th1 Cu1 P2 115.275(8) 1_565 1_455
P2 Cu1 P2 136.85(2) 6_557 5_666
P1 Cu1 P2 35.45(2) 2_565 5_666
P1 Cu1 P2 77.63(2) 2 5_666
P1 Cu1 P2 115.43(3) 6_556 5_666
Cu1 Cu1 P2 100.64(2) 5_556 5_666
Cu1 Cu1 P2 72.642(18) 5_566 5_666
Th1 Cu1 P2 32.182(9) . 5_666
Th1 Cu1 P2 73.298(12) 2_565 5_666
Th1 Cu1 P2 97.233(14) 2 5_666
Th1 Cu1 P2 161.635(12) 5_556 5_666
Th1 Cu1 P2 123.308(7) 5_566 5_666
P2 Cu1 P2 49.31(2) . 5_666
Cu1 Cu1 P2 68.911(4) 1_565 5_666
Cu1 Cu1 P2 111.089(4) 1_545 5_666
Cu2 Cu1 P2 24.070(12) 2_565 5_666
Cu2 Cu1 P2 56.180(10) 2 5_666
Cu2 Cu1 P2 118.241(10) 5_566 5_666
Cu2 Cu1 P2 143.883(15) 5_556 5_666
Cu2 Cu1 P2 119.112(14) 1_556 5_666
P2 Cu1 P2 93.672(12) 6_567 5_666
P2 Cu1 P2 133.031(10) 6_547 5_666
P2 Cu1 P2 75.257(11) 2_554 5_666
P2 Cu1 P2 55.734(11) 2_564 5_666
P1 Cu1 P2 122.141(16) 6_546 5_666
P1 Cu1 P2 85.427(14) 6_566 5_666
Cu2 Cu1 P2 126.103(14) 6_556 5_666
Cu2 Cu1 P2 26.231(8) 6_656 5_666
P1 Cu1 P2 93.044(17) 1_556 5_666
Th1 Cu1 P2 91.273(13) 6_556 5_666
Th1 Cu1 P2 74.211(8) 1_545 5_666
Th1 Cu1 P2 34.773(6) 1_565 5_666
P2 Cu1 P2 148.657(9) 1_455 5_666
P2 Cu1 P2 136.85(2) 6_557 5_656
P1 Cu1 P2 77.63(2) 2_565 5_656
P1 Cu1 P2 35.45(2) 2 5_656
P1 Cu1 P2 115.43(3) 6_556 5_656
Cu1 Cu1 P2 72.642(18) 5_556 5_656
Cu1 Cu1 P2 100.64(2) 5_566 5_656
Th1 Cu1 P2 32.182(9) . 5_656
Th1 Cu1 P2 97.233(14) 2_565 5_656
Th1 Cu1 P2 73.298(12) 2 5_656
Th1 Cu1 P2 123.308(7) 5_556 5_656
Th1 Cu1 P2 161.635(12) 5_566 5_656
P2 Cu1 P2 49.31(2) . 5_656
Cu1 Cu1 P2 111.089(4) 1_565 5_656
Cu1 Cu1 P2 68.911(4) 1_545 5_656
Cu2 Cu1 P2 56.180(10) 2_565 5_656
Cu2 Cu1 P2 24.070(12) 2 5_656
Cu2 Cu1 P2 143.883(15) 5_566 5_656
Cu2 Cu1 P2 118.241(10) 5_556 5_656
Cu2 Cu1 P2 119.112(14) 1_556 5_656
P2 Cu1 P2 133.031(10) 6_567 5_656
P2 Cu1 P2 93.672(12) 6_547 5_656
P2 Cu1 P2 55.734(11) 2_554 5_656
P2 Cu1 P2 75.257(11) 2_564 5_656
P1 Cu1 P2 85.427(14) 6_546 5_656
P1 Cu1 P2 122.141(16) 6_566 5_656
Cu2 Cu1 P2 126.103(14) 6_556 5_656
Cu2 Cu1 P2 26.231(8) 6_656 5_656
P1 Cu1 P2 93.044(17) 1_556 5_656
Th1 Cu1 P2 91.273(13) 6_556 5_656
Th1 Cu1 P2 34.773(6) 1_545 5_656
Th1 Cu1 P2 74.211(8) 1_565 5_656
P2 Cu1 P2 148.657(9) 1_455 5_656
P2 Cu1 P2 42.178(9) 5_666 5_656
P2 Cu1 Cu2 162.79(3) 6_557 .
P1 Cu1 Cu2 71.91(2) 2_565 .
P1 Cu1 Cu2 71.91(2) 2 .
P1 Cu1 Cu2 61.63(2) 6_556 .
Cu1 Cu1 Cu2 49.835(15) 5_556 .
Cu1 Cu1 Cu2 49.835(15) 5_566 .
Th1 Cu1 Cu2 30.875(7) . .
Th1 Cu1 Cu2 128.631(10) 2_565 .
Th1 Cu1 Cu2 128.631(10) 2 .
Th1 Cu1 Cu2 105.863(10) 5_556 .
Th1 Cu1 Cu2 105.863(10) 5_566 .
P2 Cu1 Cu2 101.441(17) . .
Cu1 Cu1 Cu2 90.0 1_565 .
Cu1 Cu1 Cu2 90.0 1_545 .
Cu2 Cu1 Cu2 81.951(12) 2_565 .
Cu2 Cu1 Cu2 81.951(12) 2 .
Cu2 Cu1 Cu2 148.035(7) 5_566 .
Cu2 Cu1 Cu2 148.035(7) 5_556 .
Cu2 Cu1 Cu2 177.194(14) 1_556 .
P2 Cu1 Cu2 119.251(12) 6_567 .
P2 Cu1 Cu2 119.251(12) 6_547 .
P2 Cu1 Cu2 25.887(6) 2_554 .
P2 Cu1 Cu2 25.887(6) 2_564 .
P1 Cu1 Cu2 75.508(13) 6_546 .
P1 Cu1 Cu2 75.508(13) 6_566 .
Cu2 Cu1 Cu2 73.399(8) 6_556 .
Cu2 Cu1 Cu2 71.733(9) 6_656 .
P1 Cu1 Cu2 149.027(15) 1_556 .
Th1 Cu1 Cu2 35.599(6) 6_556 .
Th1 Cu1 Cu2 56.327(5) 1_545 .
Th1 Cu1 Cu2 56.327(5) 1_565 .
P2 Cu1 Cu2 100.495(13) 1_455 .
P2 Cu1 Cu2 58.338(11) 5_666 .
P2 Cu1 Cu2 58.338(11) 5_656 .
P2 Cu1 P1 31.45(2) 6_557 5_566
P1 Cu1 P1 101.57(2) 2_565 5_566
P1 Cu1 P1 142.81(2) 2 5_566
P1 Cu1 P1 77.992(16) 6_556 5_566
Cu1 Cu1 P1 117.90(2) 5_556 5_566
Cu1 Cu1 P1 89.333(18) 5_566 5_566
Th1 Cu1 P1 156.749(8) . 5_566
Th1 Cu1 P1 71.480(12) 2_565 5_566
Th1 Cu1 P1 95.318(14) 2 5_566
Th1 Cu1 P1 61.520(9) 5_556 5_566
Th1 Cu1 P1 29.084(10) 5_566 5_566
P2 Cu1 P1 117.654(19) . 5_566
Cu1 Cu1 P1 69.070(4) 1_565 5_566
Cu1 Cu1 P1 110.930(4) 1_545 5_566
Cu2 Cu1 P1 116.695(11) 2_565 5_566
Cu2 Cu1 P1 143.432(16) 2 5_566
Cu2 Cu1 P1 23.397(11) 5_566 5_566
Cu2 Cu1 P1 54.158(9) 5_556 5_566
Cu2 Cu1 P1 47.826(12) 1_556 5_566
P2 Cu1 P1 41.985(12) 6_567 5_566
P2 Cu1 P1 82.564(13) 6_547 5_566
P2 Cu1 P1 137.256(18) 2_554 5_566
P2 Cu1 P1 115.345(14) 2_564 5_566
P1 Cu1 P1 101.191(10) 6_546 5_566
P1 Cu1 P1 65.592(8) 6_566 5_566
Cu2 Cu1 P1 67.086(13) 6_556 5_566
Cu2 Cu1 P1 143.592(12) 6_656 5_566
P1 Cu1 P1 73.419(17) 1_556 5_566
Th1 Cu1 P1 102.281(13) 6_556 5_566
Th1 Cu1 P1 150.023(7) 1_545 5_566
Th1 Cu1 P1 108.715(5) 1_565 5_566
P2 Cu1 P1 42.834(13) 1_455 5_566
P2 Cu1 P1 135.648(7) 5_666 5_566
P2 Cu1 P1 166.442(17) 5_656 5_566
Cu2 Cu1 P1 134.617(13) . 5_566
P2 Cu1 P1 31.45(2) 6_557 5_556
P1 Cu1 P1 142.81(2) 2_565 5_556
P1 Cu1 P1 101.57(2) 2 5_556
P1 Cu1 P1 77.992(16) 6_556 5_556
Cu1 Cu1 P1 89.333(18) 5_556 5_556
Cu1 Cu1 P1 117.90(2) 5_566 5_556
Th1 Cu1 P1 156.749(8) . 5_556
Th1 Cu1 P1 95.318(14) 2_565 5_556
Th1 Cu1 P1 71.480(12) 2 5_556
Th1 Cu1 P1 29.084(10) 5_556 5_556
Th1 Cu1 P1 61.520(9) 5_566 5_556
P2 Cu1 P1 117.654(19) . 5_556
Cu1 Cu1 P1 110.930(4) 1_565 5_556
Cu1 Cu1 P1 69.070(4) 1_545 5_556
Cu2 Cu1 P1 143.432(16) 2_565 5_556
Cu2 Cu1 P1 116.695(11) 2 5_556
Cu2 Cu1 P1 54.158(9) 5_566 5_556
Cu2 Cu1 P1 23.397(11) 5_556 5_556
Cu2 Cu1 P1 47.826(12) 1_556 5_556
P2 Cu1 P1 82.564(13) 6_567 5_556
P2 Cu1 P1 41.985(12) 6_547 5_556
P2 Cu1 P1 115.345(14) 2_554 5_556
P2 Cu1 P1 137.256(18) 2_564 5_556
P1 Cu1 P1 65.592(8) 6_546 5_556
P1 Cu1 P1 101.191(10) 6_566 5_556
Cu2 Cu1 P1 67.086(13) 6_556 5_556
Cu2 Cu1 P1 143.592(12) 6_656 5_556
P1 Cu1 P1 73.419(17) 1_556 5_556
Th1 Cu1 P1 102.281(13) 6_556 5_556
Th1 Cu1 P1 108.715(5) 1_545 5_556
Th1 Cu1 P1 150.023(7) 1_565 5_556
P2 Cu1 P1 42.834(13) 1_455 5_556
P2 Cu1 P1 166.442(17) 5_666 5_556
P2 Cu1 P1 135.648(7) 5_656 5_556
Cu2 Cu1 P1 134.617(13) . 5_556
P1 Cu1 P1 41.860(8) 5_566 5_556
P2 Cu1 Cu1 37.49(3) 6_557 6_557
P1 Cu1 Cu1 123.46(2) 2_565 6_557
P1 Cu1 Cu1 123.46(2) 2 6_557
P1 Cu1 Cu1 63.67(2) 6_556 6_557
Cu1 Cu1 Cu1 94.282(15) 5_556 6_557
Cu1 Cu1 Cu1 94.282(15) 5_566 6_557
Th1 Cu1 Cu1 156.179(14) . 6_557
Th1 Cu1 Cu1 94.091(14) 2_565 6_557
Th1 Cu1 Cu1 94.091(14) 2 6_557
Th1 Cu1 Cu1 36.993(4) 5_556 6_557
Th1 Cu1 Cu1 36.993(4) 5_566 6_557
P2 Cu1 Cu1 133.26(2) . 6_557
Cu1 Cu1 Cu1 90.0 1_565 6_557
Cu1 Cu1 Cu1 90.0 1_545 6_557
Cu2 Cu1 Cu1 141.315(12) 2_565 6_557
Cu2 Cu1 Cu1 141.315(12) 2 6_557
Cu2 Cu1 Cu1 45.830(10) 5_566 6_557
Cu2 Cu1 Cu1 45.830(10) 5_556 6_557
Cu2 Cu1 Cu1 57.502(12) 1_556 6_557
P2 Cu1 Cu1 66.053(13) 6_567 6_557
P2 Cu1 Cu1 66.053(13) 6_547 6_557
P2 Cu1 Cu1 116.921(15) 2_554 6_557
P2 Cu1 Cu1 116.921(15) 2_564 6_557
P1 Cu1 Cu1 76.491(12) 6_546 6_557
P1 Cu1 Cu1 76.491(12) 6_566 6_557
Cu2 Cu1 Cu1 51.905(8) 6_556 6_557
Cu2 Cu1 Cu1 162.963(14) 6_656 6_557
P1 Cu1 Cu1 85.669(17) 1_556 6_557
Th1 Cu1 Cu1 89.705(8) 6_556 6_557
Th1 Cu1 Cu1 126.226(4) 1_545 6_557
Th1 Cu1 Cu1 126.226(4) 1_565 6_557
P2 Cu1 Cu1 24.809(10) 1_455 6_557
P2 Cu1 Cu1 158.885(4) 5_666 6_557
P2 Cu1 Cu1 158.885(4) 5_656 6_557
Cu2 Cu1 Cu1 125.304(11) . 6_557
P1 Cu1 Cu1 24.719(8) 5_566 6_557
P1 Cu1 Cu1 24.719(7) 5_556 6_557
P2 Cu1 Cu1 74.44(3) 6_557 6_657
P1 Cu1 Cu1 77.57(2) 2_565 6_657
P1 Cu1 Cu1 77.57(2) 2 6_657
P1 Cu1 Cu1 175.60(3) 6_556 6_657
Cu1 Cu1 Cu1 131.012(14) 5_556 6_657
Cu1 Cu1 Cu1 131.012(14) 5_566 6_657
Th1 Cu1 Cu1 91.892(9) . 6_657
Th1 Cu1 Cu1 38.450(7) 2_565 6_657
Th1 Cu1 Cu1 38.450(7) 2 6_657
Th1 Cu1 Cu1 120.814(13) 5_556 6_657
Th1 Cu1 Cu1 120.814(14) 5_566 6_657
P2 Cu1 Cu1 21.326(14) . 6_657
Cu1 Cu1 Cu1 90.0 1_565 6_657
Cu1 Cu1 Cu1 90.0 1_545 6_657
Cu2 Cu1 Cu1 49.825(7) 2_565 6_657
Cu2 Cu1 Cu1 49.825(7) 2 6_657
Cu2 Cu1 Cu1 75.736(13) 5_566 6_657
Cu2 Cu1 Cu1 75.736(13) 5_556 6_657
Cu2 Cu1 Cu1 54.426(11) 1_556 6_657
P2 Cu1 Cu1 82.113(15) 6_567 6_657
P2 Cu1 Cu1 82.113(15) 6_547 6_657
P2 Cu1 Cu1 123.788(15) 2_554 6_657
P2 Cu1 Cu1 123.788(15) 2_564 6_657
P1 Cu1 Cu1 121.677(11) 6_546 6_657
P1 Cu1 Cu1 121.677(11) 6_566 6_657
Cu2 Cu1 Cu1 163.833(15) 6_556 6_657
Cu2 Cu1 Cu1 51.034(7) 6_656 6_657
P1 Cu1 Cu1 26.260(13) 1_556 6_657
Th1 Cu1 Cu1 158.367(12) 6_556 6_657
Th1 Cu1 Cu1 91.222(6) 1_545 6_657
Th1 Cu1 Cu1 91.222(6) 1_565 6_657
P2 Cu1 Cu1 136.737(17) 1_455 6_657
P2 Cu1 Cu1 68.622(12) 5_666 6_657
P2 Cu1 Cu1 68.622(12) 5_656 6_657
Cu2 Cu1 Cu1 122.768(11) . 6_657
P1 Cu1 Cu1 97.907(16) 5_566 6_657
P1 Cu1 Cu1 97.907(16) 5_556 6_657
Cu1 Cu1 Cu1 111.929(17) 6_557 6_657
P2 Cu1 P2 94.066(17) 6_557 1_565
P1 Cu1 P2 30.37(2) 2_565 1_565
P1 Cu1 P2 108.62(2) 2 1_565
P1 Cu1 P2 132.470(11) 6_556 1_565
Cu1 Cu1 P2 144.93(2) 5_556 1_565
Cu1 Cu1 P2 82.381(14) 5_566 1_565
Th1 Cu1 P2 76.418(12) . 1_565
Th1 Cu1 P2 30.620(10) 2_565 1_565
Th1 Cu1 P2 87.317(12) 2 1_565
Th1 Cu1 P2 153.969(15) 5_556 1_565
Th1 Cu1 P2 96.381(9) 5_566 1_565
P2 Cu1 P2 45.108(8) . 1_565
Cu1 Cu1 P2 44.892(8) 1_565 1_565
Cu1 Cu1 P2 135.108(8) 1_545 1_565
Cu2 Cu1 P2 22.424(10) 2_565 1_565
Cu2 Cu1 P2 77.142(12) 2 1_565
Cu2 Cu1 P2 74.148(12) 5_566 1_565
Cu2 Cu1 P2 112.687(14) 5_556 1_565
Cu2 Cu1 P2 79.998(12) 1_556 1_565
P2 Cu1 P2 55.078(9) 6_567 1_565
P2 Cu1 P2 130.166(16) 6_547 1_565
P2 Cu1 P2 119.119(17) 2_554 1_565
P2 Cu1 P2 83.057(13) 2_564 1_565
P1 Cu1 P2 163.302(16) 6_546 1_565
P1 Cu1 P2 75.724(13) 6_566 1_565
Cu2 Cu1 P2 134.661(8) 6_556 1_565
Cu2 Cu1 P2 52.192(10) 6_656 1_565
P1 Cu1 P2 61.574(12) 1_556 1_565
Th1 Cu1 P2 121.098(11) 6_556 1_565
Th1 Cu1 P2 112.896(12) 1_545 1_565
Th1 Cu1 P2 46.173(10) 1_565 1_565
P2 Cu1 P2 130.895(11) 1_455 1_565
P2 Cu1 P2 44.356(16) 5_666 1_565
P2 Cu1 P2 78.159(10) 5_656 1_565
Cu2 Cu1 P2 98.047(12) . 1_565
P1 Cu1 P2 94.273(12) 5_566 1_565
P1 Cu1 P2 125.496(15) 5_556 1_565
Cu1 Cu1 P2 118.923(13) 6_557 1_565
Cu1 Cu1 P2 48.895(8) 6_657 1_565
P1 Cu2 P2 102.82(3) . 2_564
P1 Cu2 P2 102.82(3) . 2_554
P2 Cu2 P2 109.00(4) 2_564 2_554
P1 Cu2 P2 105.03(4) . 6_556
P2 Cu2 P2 117.44(2) 2_564 6_556
P2 Cu2 P2 117.44(2) 2_554 6_556
P1 Cu2 Cu2 117.62(2) . 5
P2 Cu2 Cu2 139.29(4) 2_564 5
P2 Cu2 Cu2 59.41(2) 2_554 5
P2 Cu2 Cu2 58.03(2) 6_556 5
P1 Cu2 Cu2 117.62(2) . 5_565
P2 Cu2 Cu2 59.41(2) 2_564 5_565
P2 Cu2 Cu2 139.29(4) 2_554 5_565
P2 Cu2 Cu2 58.03(2) 6_556 5_565
Cu2 Cu2 Cu2 102.17(3) 5 5_565
P1 Cu2 Th1 63.76(3) . .
P2 Cu2 Th1 67.46(2) 2_564 .
P2 Cu2 Th1 67.46(2) 2_554 .
P2 Cu2 Th1 168.79(3) 6_556 .
Cu2 Cu2 Th1 125.812(18) 5 .
Cu2 Cu2 Th1 125.812(18) 5_565 .
P1 Cu2 Th1 160.16(3) . 6_556
P2 Cu2 Th1 66.99(2) 2_564 6_556
P2 Cu2 Th1 66.99(2) 2_554 6_556
P2 Cu2 Th1 94.82(3) 6_556 6_556
Cu2 Cu2 Th1 73.01(2) 5 6_556
Cu2 Cu2 Th1 73.01(2) 5_565 6_556
Th1 Cu2 Th1 96.397(13) . 6_556
P1 Cu2 Th1 57.502(19) . 2_554
P2 Cu2 Th1 156.33(3) 2_564 2_554
P2 Cu2 Th1 89.59(2) 2_554 2_554
P2 Cu2 Th1 62.36(2) 6_556 2_554
Cu2 Cu2 Th1 62.828(16) 5 2_554
Cu2 Cu2 Th1 115.18(3) 5_565 2_554
Th1 Cu2 Th1 108.821(12) . 2_554
Th1 Cu2 Th1 135.838(9) 6_556 2_554
P1 Cu2 Th1 57.502(19) . 2_564
P2 Cu2 Th1 89.59(2) 2_564 2_564
P2 Cu2 Th1 156.33(3) 2_554 2_564
P2 Cu2 Th1 62.36(2) 6_556 2_564
Cu2 Cu2 Th1 115.18(3) 5 2_564
Cu2 Cu2 Th1 62.828(16) 5_565 2_564
Th1 Cu2 Th1 108.821(12) . 2_564
Th1 Cu2 Th1 135.838(10) 6_556 2_564
Th1 Cu2 Th1 69.059(10) 2_554 2_564
P1 Cu2 Cu2 90.0 . 1_565
P2 Cu2 Cu2 35.50(2) 2_564 1_565
P2 Cu2 Cu2 144.50(2) 2_554 1_565
P2 Cu2 Cu2 90.0 6_556 1_565
Cu2 Cu2 Cu2 141.087(16) 5 1_565
Cu2 Cu2 Cu2 38.913(16) 5_565 1_565
Th1 Cu2 Cu2 90.0 . 1_565
Th1 Cu2 Cu2 90.0 6_556 1_565
Th1 Cu2 Cu2 124.529(5) 2_554 1_565
Th1 Cu2 Cu2 55.470(5) 2_564 1_565
P1 Cu2 Cu2 90.0 . 1_545
P2 Cu2 Cu2 144.50(2) 2_564 1_545
P2 Cu2 Cu2 35.50(2) 2_554 1_545
P2 Cu2 Cu2 90.0 6_556 1_545
Cu2 Cu2 Cu2 38.913(16) 5 1_545
Cu2 Cu2 Cu2 141.087(16) 5_565 1_545
Th1 Cu2 Cu2 90.0 . 1_545
Th1 Cu2 Cu2 90.0 6_556 1_545
Th1 Cu2 Cu2 55.470(5) 2_554 1_545
Th1 Cu2 Cu2 124.529(5) 2_564 1_545
Cu2 Cu2 Cu2 180.0 1_565 1_545
P1 Cu2 Cu1 32.397(11) . 2_564
P2 Cu2 Cu1 71.00(2) 2_564 2_564
P2 Cu2 Cu1 118.75(3) 2_554 2_564
P2 Cu2 Cu1 114.59(2) 6_556 2_564
Cu2 Cu2 Cu1 149.70(2) 5 2_564
Cu2 Cu2 Cu1 95.311(15) 5_565 2_564
Th1 Cu2 Cu1 56.186(10) . 2_564
Th1 Cu2 Cu1 136.460(13) 6_556 2_564
Th1 Cu2 Cu1 87.402(12) 2_554 2_564
Th1 Cu2 Cu1 52.635(9) 2_564 2_564
Cu2 Cu2 Cu1 60.307(5) 1_565 2_564
Cu2 Cu2 Cu1 119.693(5) 1_545 2_564
P1 Cu2 Cu1 32.397(11) . 2_554
P2 Cu2 Cu1 118.75(3) 2_564 2_554
P2 Cu2 Cu1 71.00(2) 2_554 2_554
P2 Cu2 Cu1 114.59(2) 6_556 2_554
Cu2 Cu2 Cu1 95.311(15) 5 2_554
Cu2 Cu2 Cu1 149.70(2) 5_565 2_554
Th1 Cu2 Cu1 56.186(10) . 2_554
Th1 Cu2 Cu1 136.460(13) 6_556 2_554
Th1 Cu2 Cu1 52.635(9) 2_554 2_554
Th1 Cu2 Cu1 87.402(12) 2_564 2_554
Cu2 Cu2 Cu1 119.693(5) 1_565 2_554
Cu2 Cu2 Cu1 60.307(5) 1_545 2_554
Cu1 Cu2 Cu1 59.386(10) 2_564 2_554
P1 Cu2 P1 147.445(13) . 5
P2 Cu2 P1 109.62(3) 2_564 5
P2 Cu2 P1 64.30(3) 2_554 5
P2 Cu2 P1 62.15(2) 6_556 5
Cu2 Cu2 P1 29.825(17) 5 5
Cu2 Cu2 P1 82.41(2) 5_565 5
Th1 Cu2 P1 127.125(17) . 5
Th1 Cu2 P1 45.134(13) 6_556 5
Th1 Cu2 P1 91.389(13) 2_554 5
Th1 Cu2 P1 124.052(18) 2_564 5
Cu2 Cu2 P1 118.200(7) 1_565 5
Cu2 Cu2 P1 61.801(7) 1_545 5
Cu1 Cu2 P1 176.682(18) 2_564 5
Cu1 Cu2 P1 122.017(8) 2_554 5
P1 Cu2 P1 147.445(13) . 5_565
P2 Cu2 P1 64.30(3) 2_564 5_565
P2 Cu2 P1 109.62(3) 2_554 5_565
P2 Cu2 P1 62.15(2) 6_556 5_565
Cu2 Cu2 P1 82.41(2) 5 5_565
Cu2 Cu2 P1 29.825(17) 5_565 5_565
Th1 Cu2 P1 127.125(17) . 5_565
Th1 Cu2 P1 45.134(13) 6_556 5_565
Th1 Cu2 P1 124.052(18) 2_554 5_565
Th1 Cu2 P1 91.389(13) 2_564 5_565
Cu2 Cu2 P1 61.801(7) 1_565 5_565
Cu2 Cu2 P1 118.200(7) 1_545 5_565
Cu1 Cu2 P1 122.017(8) 2_564 5_565
Cu1 Cu2 P1 176.682(18) 2_554 5_565
P1 Cu2 P1 56.399(14) 5 5_565
P1 Cu2 Cu1 110.64(2) . 5_566
P2 Cu2 Cu1 26.797(19) 2_564 5_566
P2 Cu2 Cu1 82.21(2) 2_554 5_566
P2 Cu2 Cu1 133.86(2) 6_556 5_566
Cu2 Cu2 Cu1 122.86(3) 5 5_566
Cu2 Cu2 Cu1 79.569(19) 5_565 5_566
Th1 Cu2 Cu1 55.072(9) . 5_566
Th1 Cu2 Cu1 52.609(9) 6_556 5_566
Th1 Cu2 Cu1 163.771(14) 2_554 5_566
Th1 Cu2 Cu1 115.657(6) 2_564 5_566
Cu2 Cu2 Cu1 62.289(5) 1_565 5_566
Cu2 Cu2 Cu1 117.711(4) 1_545 5_566
Cu1 Cu2 Cu1 84.345(10) 2_564 5_566
Cu1 Cu2 Cu1 111.232(13) 2_554 5_566
P1 Cu2 Cu1 97.566(16) 5 5_566
P1 Cu2 Cu1 72.072(15) 5_565 5_566
P1 Cu2 Cu1 110.64(2) . 5_556
P2 Cu2 Cu1 82.21(2) 2_564 5_556
P2 Cu2 Cu1 26.797(19) 2_554 5_556
P2 Cu2 Cu1 133.86(2) 6_556 5_556
Cu2 Cu2 Cu1 79.569(19) 5 5_556
Cu2 Cu2 Cu1 122.86(3) 5_565 5_556
Th1 Cu2 Cu1 55.072(9) . 5_556
Th1 Cu2 Cu1 52.609(9) 6_556 5_556
Th1 Cu2 Cu1 115.657(6) 2_554 5_556
Th1 Cu2 Cu1 163.771(14) 2_564 5_556
Cu2 Cu2 Cu1 117.711(4) 1_565 5_556
Cu2 Cu2 Cu1 62.289(5) 1_545 5_556
Cu1 Cu2 Cu1 111.232(13) 2_564 5_556
Cu1 Cu2 Cu1 84.345(10) 2_554 5_556
P1 Cu2 Cu1 72.072(15) 5 5_556
P1 Cu2 Cu1 97.566(16) 5_565 5_556
Cu1 Cu2 Cu1 55.422(9) 5_566 5_556
P1 Cu2 Cu1 85.95(3) . 1_554
P2 Cu2 Cu1 123.44(2) 2_564 1_554
P2 Cu2 Cu1 123.44(2) 2_554 1_554
P2 Cu2 Cu1 19.08(2) 6_556 1_554
Cu2 Cu2 Cu1 67.04(2) 5 1_554
Cu2 Cu2 Cu1 67.04(2) 5_565 1_554
Th1 Cu2 Cu1 149.708(15) . 1_554
Th1 Cu2 Cu1 113.895(13) 6_556 1_554
Th1 Cu2 Cu1 48.630(7) 2_554 1_554
Th1 Cu2 Cu1 48.630(7) 2_564 1_554
Cu2 Cu2 Cu1 90.0 1_565 1_554
Cu2 Cu2 Cu1 90.0 1_545 1_554
Cu1 Cu2 Cu1 98.282(12) 2_564 1_554
Cu1 Cu2 Cu1 98.282(12) 2_554 1_554
P1 Cu2 Cu1 78.625(16) 5 1_554
P1 Cu2 Cu1 78.625(16) 5_565 1_554
Cu1 Cu2 Cu1 146.613(8) 5_566 1_554
Cu1 Cu2 Cu1 146.613(8) 5_556 1_554
P1 Cu2 P1 59.292(11) . 1_565
P2 Cu2 P1 54.08(2) 2_564 1_565
P2 Cu2 P1 144.41(3) 2_554 1_565
P2 Cu2 P1 97.610(18) 6_556 1_565
Cu2 Cu2 P1 154.92(3) 5 1_565
Cu2 Cu2 P1 64.390(16) 5_565 1_565
Th1 Cu2 P1 76.950(13) . 1_565
Th1 Cu2 P1 118.707(12) 6_556 1_565
Th1 Cu2 P1 102.298(15) 2_554 1_565
Th1 Cu2 P1 40.385(12) 2_564 1_565
Cu2 Cu2 P1 30.708(11) 1_565 1_565
Cu2 Cu2 P1 149.292(11) 1_545 1_565
Cu1 Cu2 P1 31.010(11) 2_564 1_565
Cu1 Cu2 P1 89.697(14) 2_554 1_565
P1 Cu2 P1 146.795(9) 5 1_565
P1 Cu2 P1 91.383(17) 5_565 1_565
Cu1 Cu2 P1 77.302(13) 5_566 1_565
Cu1 Cu2 P1 125.437(16) 5_556 1_565
Cu1 Cu2 P1 87.933(14) 1_554 1_565
P1 Cu2 P1 59.292(11) . 1_545
P2 Cu2 P1 144.41(3) 2_564 1_545
P2 Cu2 P1 54.08(2) 2_554 1_545
P2 Cu2 P1 97.610(18) 6_556 1_545
Cu2 Cu2 P1 64.390(16) 5 1_545
Cu2 Cu2 P1 154.92(3) 5_565 1_545
Th1 Cu2 P1 76.950(13) . 1_545
Th1 Cu2 P1 118.707(12) 6_556 1_545
Th1 Cu2 P1 40.385(12) 2_554 1_545
Th1 Cu2 P1 102.298(15) 2_564 1_545
Cu2 Cu2 P1 149.292(11) 1_565 1_545
Cu2 Cu2 P1 30.708(11) 1_545 1_545
Cu1 Cu2 P1 89.697(14) 2_564 1_545
Cu1 Cu2 P1 31.010(11) 2_554 1_545
P1 Cu2 P1 91.383(17) 5 1_545
P1 Cu2 P1 146.795(9) 5_565 1_545
Cu1 Cu2 P1 125.437(16) 5_566 1_545
Cu1 Cu2 P1 77.302(12) 5_556 1_545
Cu1 Cu2 P1 87.933(14) 1_554 1_545
P1 Cu2 P1 118.58(2) 1_565 1_545
P1 Cu2 P2 97.884(19) . 6_546
P2 Cu2 P2 159.165(19) 2_564 6_546
P2 Cu2 P2 63.44(3) 2_554 6_546
P2 Cu2 P2 58.065(11) 6_556 6_546
Cu2 Cu2 P2 19.874(18) 5 6_546
Cu2 Cu2 P2 112.35(2) 5_565 6_546
Th1 Cu2 P2 121.255(11) . 6_546
Th1 Cu2 P2 92.545(14) 6_556 6_546
Th1 Cu2 P2 43.415(12) 2_554 6_546
Th1 Cu2 P2 103.632(15) 2_564 6_546
Cu2 Cu2 P2 148.066(11) 1_565 6_546
Cu2 Cu2 P2 31.935(11) 1_545 6_546
Cu1 Cu2 P2 129.830(17) 2_564 6_546
Cu1 Cu2 P2 78.448(13) 2_554 6_546
P1 Cu2 P2 49.599(15) 5 6_546
P1 Cu2 P2 98.854(17) 5_565 6_546
Cu1 Cu2 P2 139.566(15) 5_566 6_546
Cu1 Cu2 P2 88.389(12) 5_556 6_546
Cu1 Cu2 P2 60.007(11) 1_554 6_546
P1 Cu2 P2 143.102(19) 1_565 6_546
P1 Cu2 P2 48.730(16) 1_545 6_546
P1 Cu2 P2 97.884(19) . 6_566
P2 Cu2 P2 63.44(3) 2_564 6_566
P2 Cu2 P2 159.165(19) 2_554 6_566
P2 Cu2 P2 58.065(11) 6_556 6_566
Cu2 Cu2 P2 112.35(2) 5 6_566
Cu2 Cu2 P2 19.874(18) 5_565 6_566
Th1 Cu2 P2 121.255(11) . 6_566
Th1 Cu2 P2 92.545(14) 6_556 6_566
Th1 Cu2 P2 103.632(15) 2_554 6_566
Th1 Cu2 P2 43.415(12) 2_564 6_566
Cu2 Cu2 P2 31.935(11) 1_565 6_566
Cu2 Cu2 P2 148.065(11) 1_545 6_566
Cu1 Cu2 P2 78.448(13) 2_564 6_566
Cu1 Cu2 P2 129.830(17) 2_554 6_566
P1 Cu2 P2 98.854(17) 5 6_566
P1 Cu2 P2 49.599(15) 5_565 6_566
Cu1 Cu2 P2 88.389(12) 5_566 6_566
Cu1 Cu2 P2 139.566(15) 5_556 6_566
Cu1 Cu2 P2 60.007(11) 1_554 6_566
P1 Cu2 P2 48.730(16) 1_565 6_566
P1 Cu2 P2 143.102(19) 1_545 6_566
P2 Cu2 P2 116.13(2) 6_546 6_566
P1 Cu2 Cu1 12.28(2) . 6_656
P2 Cu2 Cu1 109.33(3) 2_564 6_656
P2 Cu2 Cu1 109.33(3) 2_554 6_656
P2 Cu2 Cu1 92.75(3) 6_556 6_656
Cu2 Cu2 Cu1 111.28(2) 5 6_656
Cu2 Cu2 Cu1 111.28(2) 5_565 6_656
Th1 Cu2 Cu1 76.039(11) . 6_656
Th1 Cu2 Cu1 172.436(15) 6_556 6_656
Th1 Cu2 Cu1 48.866(7) 2_554 6_656
Th1 Cu2 Cu1 48.866(7) 2_564 6_656
Cu2 Cu2 Cu1 90.0 1_565 6_656
Cu2 Cu2 Cu1 90.0 1_545 6_656
Cu1 Cu2 Cu1 38.593(10) 2_564 6_656
Cu1 Cu2 Cu1 38.593(9) 2_554 6_656
P1 Cu2 Cu1 140.250(14) 5 6_656
P1 Cu2 Cu1 140.250(14) 5_565 6_656
Cu1 Cu2 Cu1 121.142(11) 5_566 6_656
Cu1 Cu2 Cu1 121.142(11) 5_556 6_656
Cu1 Cu2 Cu1 73.669(9) 1_554 6_656
P1 Cu2 Cu1 60.068(12) 1_565 6_656
P1 Cu2 Cu1 60.068(12) 1_545 6_656
P2 Cu2 Cu1 91.453(14) 6_546 6_656
P2 Cu2 Cu1 91.453(14) 6_566 6_656
P1 Cu2 P1 123.26(3) . 6_556
P2 Cu2 P1 55.22(2) 2_564 6_556
P2 Cu2 P1 55.22(2) 2_554 6_556
P2 Cu2 P1 131.71(3) 6_556 6_556
Cu2 Cu2 P1 95.75(2) 5 6_556
Cu2 Cu2 P1 95.75(2) 5_565 6_556
Th1 Cu2 P1 59.498(14) . 6_556
Th1 Cu2 P1 36.899(12) 6_556 6_556
Th1 Cu2 P1 144.774(6) 2_554 6_556
Th1 Cu2 P1 144.774(6) 2_564 6_556
Cu2 Cu2 P1 90.0 1_565 6_556
Cu2 Cu2 P1 90.0 1_545 6_556
Cu1 Cu2 P1 106.994(15) 2_564 6_556
Cu1 Cu2 P1 106.994(15) 2_554 6_556
P1 Cu2 P1 75.701(12) 5 6_556
P1 Cu2 P1 75.701(12) 5_565 6_556
Cu1 Cu2 P1 29.261(6) 5_566 6_556
Cu1 Cu2 P1 29.261(6) 5_556 6_556
Cu1 Cu2 P1 150.794(16) 1_554 6_556
P1 Cu2 P1 106.262(11) 1_565 6_556
P1 Cu2 P1 106.262(11) 1_545 6_556
P2 Cu2 P1 110.608(14) 6_546 6_556
P2 Cu2 P1 110.608(14) 6_566 6_556
Cu1 Cu2 P1 135.537(16) 6_656 6_556
P1 Cu2 Cu1 157.41(3) . 6_556
P2 Cu2 Cu1 90.07(3) 2_564 6_556
P2 Cu2 Cu1 90.07(3) 2_554 6_556
P2 Cu2 Cu1 52.38(3) 6_556 6_556
Cu2 Cu2 Cu1 53.784(17) 5 6_556
Cu2 Cu2 Cu1 53.784(17) 5_565 6_556
Th1 Cu2 Cu1 138.829(14) . 6_556
Th1 Cu2 Cu1 42.431(9) 6_556 6_556
Th1 Cu2 Cu1 104.844(11) 2_554 6_556
Th1 Cu2 Cu1 104.844(11) 2_564 6_556
Cu2 Cu2 Cu1 90.0 1_565 6_556
Cu2 Cu2 Cu1 90.0 1_545 6_556
Cu1 Cu2 Cu1 149.095(6) 2_564 6_556
Cu1 Cu2 Cu1 149.095(6) 2_554 6_556
P1 Cu2 Cu1 28.706(7) 5 6_556
P1 Cu2 Cu1 28.706(7) 5_565 6_556
Cu1 Cu2 Cu1 89.224(9) 5_566 6_556
Cu1 Cu2 Cu1 89.224(10) 5_556 6_556
Cu1 Cu2 Cu1 71.463(9) 1_554 6_556
P1 Cu2 Cu1 118.132(12) 1_565 6_556
P1 Cu2 Cu1 118.131(12) 1_545 6_556
P2 Cu2 Cu1 71.164(13) 6_546 6_556
P2 Cu2 Cu1 71.165(13) 6_566 6_556
Cu1 Cu2 Cu1 145.132(15) 6_656 6_556
P1 Cu2 Cu1 79.331(15) 6_556 6_556
P1 Cu2 Th1 74.024(15) . 1_565
P2 Cu2 Th1 28.87(2) 2_564 1_565
P2 Cu2 Th1 113.49(2) 2_554 1_565
P2 Cu2 Th1 127.632(6) 6_556 1_565
Cu2 Cu2 Th1 166.71(3) 5 1_565
Cu2 Cu2 Th1 75.833(13) 5_565 1_565
Th1 Cu2 Th1 51.504(5) . 1_565
Th1 Cu2 Th1 93.977(8) 6_556 1_565
Th1 Cu2 Th1 130.124(11) 2_554 1_565
Th1 Cu2 Th1 75.947(6) 2_564 1_565
Cu2 Cu2 Th1 38.496(5) 1_565 1_565
Cu2 Cu2 Th1 141.504(5) 1_545 1_565
Cu1 Cu2 Th1 42.770(6) 2_564 1_565
Cu1 Cu2 Th1 92.366(10) 2_554 1_565
P1 Cu2 Th1 138.205(13) 5 1_565
P1 Cu2 Th1 90.336(9) 5_565 1_565
Cu1 Cu2 Th1 43.918(6) 5_566 1_565
Cu1 Cu2 Th1 90.433(10) 5_556 1_565
Cu1 Cu2 Th1 122.512(6) 1_554 1_565
P1 Cu2 Th1 35.565(12) 1_565 1_565
P1 Cu2 Th1 122.165(15) 1_545 1_565
P2 Cu2 Th1 170.810(15) 6_546 1_565
P2 Cu2 Th1 70.048(11) 6_566 1_565
Cu1 Cu2 Th1 81.363(7) 6_656 1_565
P1 Cu2 Th1 71.582(9) 6_556 1_565
Cu1 Cu2 Th1 117.941(6) 6_556 1_565
P1 Cu2 Th1 74.024(15) . 1_545
P2 Cu2 Th1 113.49(2) 2_564 1_545
P2 Cu2 Th1 28.87(2) 2_554 1_545
P2 Cu2 Th1 127.632(6) 6_556 1_545
Cu2 Cu2 Th1 75.833(13) 5 1_545
Cu2 Cu2 Th1 166.71(3) 5_565 1_545
Th1 Cu2 Th1 51.504(5) . 1_545
Th1 Cu2 Th1 93.977(8) 6_556 1_545
Th1 Cu2 Th1 75.947(6) 2_554 1_545
Th1 Cu2 Th1 130.124(11) 2_564 1_545
Cu2 Cu2 Th1 141.504(5) 1_565 1_545
Cu2 Cu2 Th1 38.496(5) 1_545 1_545
Cu1 Cu2 Th1 92.366(10) 2_564 1_545
Cu1 Cu2 Th1 42.770(6) 2_554 1_545
P1 Cu2 Th1 90.336(9) 5 1_545
P1 Cu2 Th1 138.205(14) 5_565 1_545
Cu1 Cu2 Th1 90.433(10) 5_566 1_545
Cu1 Cu2 Th1 43.918(6) 5_556 1_545
Cu1 Cu2 Th1 122.512(6) 1_554 1_545
P1 Cu2 Th1 122.165(15) 1_565 1_545
P1 Cu2 Th1 35.565(12) 1_545 1_545
P2 Cu2 Th1 70.048(11) 6_546 1_545
P2 Cu2 Th1 170.810(15) 6_566 1_545
Cu1 Cu2 Th1 81.363(7) 6_656 1_545
P1 Cu2 Th1 71.582(9) 6_556 1_545
Cu1 Cu2 Th1 117.941(6) 6_556 1_545
Th1 Cu2 Th1 103.007(9) 1_565 1_545
P1 Cu2 Th1 120.44(2) . 5
P2 Cu2 Th1 128.15(3) 2_564 5
P2 Cu2 Th1 89.01(2) 2_554 5
P2 Cu2 Th1 29.078(15) 6_556 5
Cu2 Cu2 Th1 30.204(15) 5 5
Cu2 Cu2 Th1 75.090(19) 5_565 5
Th1 Cu2 Th1 156.017(5) . 5
Th1 Cu2 Th1 77.550(9) 6_556 5
Th1 Cu2 Th1 64.593(7) 2_554 5
Th1 Cu2 Th1 90.751(10) 2_564 5
Cu2 Cu2 Th1 112.955(3) 1_565 5
Cu2 Cu2 Th1 67.045(3) 1_545 5
Cu1 Cu2 Th1 141.079(14) 2_564 5
Cu1 Cu2 Th1 113.056(9) 2_554 5
P1 Cu2 Th1 35.975(14) 5 5
P1 Cu2 Th1 63.853(12) 5_565 5
Cu1 Cu2 Th1 128.841(13) 5_566 5
Cu1 Cu2 Th1 105.334(10) 5_556 5
Cu1 Cu2 Th1 43.016(7) 1_554 5
P1 Cu2 Th1 126.446(15) 1_565 5
P1 Cu2 Th1 85.608(12) 1_545 5
P2 Cu2 Th1 37.508(11) 6_546 5
P2 Cu2 Th1 82.456(12) 6_566 5
Cu1 Cu2 Th1 109.362(10) 6_656 5
P1 Cu2 Th1 111.414(14) 6_556 5
Cu1 Cu2 Th1 40.259(6) 6_556 5
Th1 Cu2 Th1 150.923(6) 1_565 5
Th1 Cu2 Th1 105.277(5) 1_545 5
P1 Cu2 Th1 120.44(2) . 5_565
P2 Cu2 Th1 89.01(2) 2_564 5_565
P2 Cu2 Th1 128.15(3) 2_554 5_565
P2 Cu2 Th1 29.078(14) 6_556 5_565
Cu2 Cu2 Th1 75.090(19) 5 5_565
Cu2 Cu2 Th1 30.204(15) 5_565 5_565
Th1 Cu2 Th1 156.017(5) . 5_565
Th1 Cu2 Th1 77.550(9) 6_556 5_565
Th1 Cu2 Th1 90.751(10) 2_554 5_565
Th1 Cu2 Th1 64.593(7) 2_564 5_565
Cu2 Cu2 Th1 67.045(3) 1_565 5_565
Cu2 Cu2 Th1 112.955(2) 1_545 5_565
Cu1 Cu2 Th1 113.056(9) 2_564 5_565
Cu1 Cu2 Th1 141.079(14) 2_554 5_565
P1 Cu2 Th1 63.853(12) 5 5_565
P1 Cu2 Th1 35.975(13) 5_565 5_565
Cu1 Cu2 Th1 105.334(10) 5_566 5_565
Cu1 Cu2 Th1 128.841(12) 5_556 5_565
Cu1 Cu2 Th1 43.016(7) 1_554 5_565
P1 Cu2 Th1 85.608(12) 1_565 5_565
P1 Cu2 Th1 126.446(15) 1_545 5_565
P2 Cu2 Th1 82.456(13) 6_546 5_565
P2 Cu2 Th1 37.508(11) 6_566 5_565
Cu1 Cu2 Th1 109.362(10) 6_656 5_565
P1 Cu2 Th1 111.414(14) 6_556 5_565
Cu1 Cu2 Th1 40.259(6) 6_556 5_565
Th1 Cu2 Th1 105.277(5) 1_565 5_565
Th1 Cu2 Th1 150.923(6) 1_545 5_565
Th1 Cu2 Th1 45.911(5) 5 5_565
P1 Cu2 Th1 126.631(9) . 6_546
P2 Cu2 Th1 112.42(2) 2_564 6_546
P2 Cu2 Th1 28.68(2) 2_554 6_546
P2 Cu2 Th1 93.052(17) 6_556 6_546
Cu2 Cu2 Th1 38.106(16) 5 6_546
Cu2 Cu2 Th1 114.59(2) 5_565 6_546
Th1 Cu2 Th1 94.053(8) . 6_546
Th1 Cu2 Th1 50.629(5) 6_556 6_546
Th1 Cu2 Th1 90.966(5) 2_554 6_546
Th1 Cu2 Th1 153.285(11) 2_564 6_546
Cu2 Cu2 Th1 140.630(5) 1_565 6_546
Cu2 Cu2 Th1 39.371(5) 1_545 6_546
Cu1 Cu2 Th1 147.433(11) 2_564 6_546
Cu1 Cu2 Th1 94.410(6) 2_554 6_546
P1 Cu2 Th1 35.630(10) 5 6_546
P1 Cu2 Th1 85.286(11) 5_565 6_546
Cu1 Cu2 Th1 88.527(9) 5_566 6_546
Cu1 Cu2 Th1 41.868(6) 5_556 6_546
Cu1 Cu2 Th1 104.889(7) 1_554 6_546
P1 Cu2 Th1 165.779(15) 1_565 6_546
P1 Cu2 Th1 68.902(11) 1_545 6_546
P2 Cu2 Th1 51.105(12) 6_546 6_546
P2 Cu2 Th1 133.175(16) 6_566 6_546
Cu1 Cu2 Th1 128.963(5) 6_656 6_546
P1 Cu2 Th1 59.518(7) 6_556 6_546
Cu1 Cu2 Th1 62.083(6) 6_556 6_546
Th1 Cu2 Th1 130.468(10) 1_565 6_546
Th1 Cu2 Th1 55.872(4) 1_545 6_546
Th1 Cu2 Th1 64.008(5) 5 6_546
Th1 Cu2 Th1 99.483(8) 5_565 6_546
P1 Cu2 Th1 126.631(9) . 6_566
P2 Cu2 Th1 28.68(2) 2_564 6_566
P2 Cu2 Th1 112.42(2) 2_554 6_566
P2 Cu2 Th1 93.053(17) 6_556 6_566
Cu2 Cu2 Th1 114.59(2) 5 6_566
Cu2 Cu2 Th1 38.106(16) 5_565 6_566
Th1 Cu2 Th1 94.053(8) . 6_566
Th1 Cu2 Th1 50.629(5) 6_556 6_566
Th1 Cu2 Th1 153.285(11) 2_554 6_566
Th1 Cu2 Th1 90.966(5) 2_564 6_566
Cu2 Cu2 Th1 39.371(5) 1_565 6_566
Cu2 Cu2 Th1 140.630(5) 1_545 6_566
Cu1 Cu2 Th1 94.410(6) 2_564 6_566
Cu1 Cu2 Th1 147.433(11) 2_554 6_566
P1 Cu2 Th1 85.286(11) 5 6_566
P1 Cu2 Th1 35.630(10) 5_565 6_566
Cu1 Cu2 Th1 41.868(6) 5_566 6_566
Cu1 Cu2 Th1 88.526(9) 5_556 6_566
Cu1 Cu2 Th1 104.889(8) 1_554 6_566
P1 Cu2 Th1 68.902(11) 1_565 6_566
P1 Cu2 Th1 165.779(15) 1_545 6_566
P2 Cu2 Th1 133.175(16) 6_546 6_566
P2 Cu2 Th1 51.105(12) 6_566 6_566
Cu1 Cu2 Th1 128.963(4) 6_656 6_566
P1 Cu2 Th1 59.518(7) 6_556 6_566
Cu1 Cu2 Th1 62.083(6) 6_556 6_566
Th1 Cu2 Th1 55.872(4) 1_565 6_566
Th1 Cu2 Th1 130.468(10) 1_545 6_566
Th1 Cu2 Th1 99.483(8) 5 6_566
Th1 Cu2 Th1 64.008(5) 5_565 6_566
Th1 Cu2 Th1 101.259(9) 6_546 6_566
P1 Cu2 P2 39.04(3) . 1_554
P2 Cu2 P2 120.69(2) 2_564 1_554
P2 Cu2 P2 120.69(2) 2_554 1_554
P2 Cu2 P2 65.990(18) 6_556 1_554
Cu2 Cu2 P2 95.34(2) 5 1_554
Cu2 Cu2 P2 95.34(2) 5_565 1_554
Th1 Cu2 P2 102.797(16) . 1_554
Th1 Cu2 P2 160.806(17) 6_556 1_554
Th1 Cu2 P2 35.839(5) 2_554 1_554
Th1 Cu2 P2 35.839(6) 2_564 1_554
Cu2 Cu2 P2 90.0 1_565 1_554
Cu2 Cu2 P2 90.0 1_545 1_554
Cu1 Cu2 P2 58.183(13) 2_564 1_554
Cu1 Cu2 P2 58.183(13) 2_554 1_554
P1 Cu2 P2 119.509(18) 5 1_554
P1 Cu2 P2 119.509(18) 5_565 1_554
Cu1 Cu2 P2 141.747(11) 5_566 1_554
Cu1 Cu2 P2 141.747(11) 5_556 1_554
Cu1 Cu2 P2 46.911(13) 1_554 1_554
P1 Cu2 P2 66.632(13) 1_565 1_554
P1 Cu2 P2 66.632(13) 1_545 1_554
P2 Cu2 P2 77.571(9) 6_546 1_554
P2 Cu2 P2 77.571(9) 6_566 1_554
Cu1 Cu2 P2 26.758(12) 6_656 1_554
P1 Cu2 P2 162.295(18) 6_556 1_554
Cu1 Cu2 P2 118.374(15) 6_556 1_554
Th1 Cu2 P2 97.925(10) 1_565 1_554
Th1 Cu2 P2 97.925(10) 1_545 1_554
Th1 Cu2 P2 84.794(13) 5 1_554
Th1 Cu2 P2 84.794(13) 5_565 1_554
Th1 Cu2 P2 126.803(6) 6_546 1_554
Th1 Cu2 P2 126.803(6) 6_566 1_554
P1 Cu2 P1 84.53(2) . 2_565
P2 Cu2 P1 38.84(2) 2_564 2_565
P2 Cu2 P1 80.29(2) 2_554 2_565
P2 Cu2 P1 156.261(12) 6_556 2_565
Cu2 Cu2 P1 136.60(2) 5 2_565
Cu2 Cu2 P1 98.249(18) 5_565 2_565
Th1 Cu2 P1 29.621(9) . 2_565
Th1 Cu2 P1 77.089(13) 6_556 2_565
Th1 Cu2 P1 137.491(14) 2_554 2_565
Th1 Cu2 P1 108.202(10) 2_564 2_565
Cu2 Cu2 P1 67.993(4) 1_565 2_565
Cu2 Cu2 P1 112.007(4) 1_545 2_565
Cu1 Cu2 P1 62.974(13) 2_564 2_565
Cu1 Cu2 P1 85.230(13) 2_554 2_565
P1 Cu2 P1 119.654(18) 5 2_565
P1 Cu2 P1 98.084(16) 5_565 2_565
Cu1 Cu2 P1 27.176(12) 5_566 2_565
Cu1 Cu2 P1 57.241(10) 5_556 2_565
Cu1 Cu2 P1 155.951(8) 1_554 2_565
P1 Cu2 P1 68.232(10) 1_565 2_565
P1 Cu2 P1 105.873(15) 1_545 2_565
P2 Cu2 P1 143.341(12) 6_546 2_565
P2 Cu2 P1 99.566(11) 6_566 2_565
Cu1 Cu2 P1 95.915(14) 6_656 2_565
P1 Cu2 P1 44.033(18) 6_556 2_565
Cu1 Cu2 P1 116.244(13) 6_556 2_565
Th1 Cu2 P1 33.448(6) 1_565 2_565
Th1 Cu2 P1 75.650(8) 1_545 2_565
Th1 Cu2 P1 154.622(14) 5 2_565
Th1 Cu2 P1 127.677(8) 5_565 2_565
Th1 Cu2 P1 98.508(11) 6_546 2_565
Th1 Cu2 P1 64.442(9) 6_566 2_565
P2 Cu2 P1 120.454(16) 1_554 2_565
P1 Cu2 P1 84.53(2) . 2
P2 Cu2 P1 80.29(2) 2_564 2
P2 Cu2 P1 38.84(2) 2_554 2
P2 Cu2 P1 156.261(12) 6_556 2
Cu2 Cu2 P1 98.249(18) 5 2
Cu2 Cu2 P1 136.60(2) 5_565 2
Th1 Cu2 P1 29.621(9) . 2
Th1 Cu2 P1 77.089(14) 6_556 2
Th1 Cu2 P1 108.202(10) 2_554 2
Th1 Cu2 P1 137.491(14) 2_564 2
Cu2 Cu2 P1 112.007(4) 1_565 2
Cu2 Cu2 P1 67.993(4) 1_545 2
Cu1 Cu2 P1 85.230(13) 2_564 2
Cu1 Cu2 P1 62.974(13) 2_554 2
P1 Cu2 P1 98.084(16) 5 2
P1 Cu2 P1 119.654(18) 5_565 2
Cu1 Cu2 P1 57.241(10) 5_566 2
Cu1 Cu2 P1 27.176(12) 5_556 2
Cu1 Cu2 P1 155.951(8) 1_554 2
P1 Cu2 P1 105.873(15) 1_565 2
P1 Cu2 P1 68.232(10) 1_545 2
P2 Cu2 P1 99.566(12) 6_546 2
P2 Cu2 P1 143.341(12) 6_566 2
Cu1 Cu2 P1 95.915(14) 6_656 2
P1 Cu2 P1 44.033(18) 6_556 2
Cu1 Cu2 P1 116.244(13) 6_556 2
Th1 Cu2 P1 75.650(8) 1_565 2
Th1 Cu2 P1 33.448(6) 1_545 2
Th1 Cu2 P1 127.677(8) 5 2
Th1 Cu2 P1 154.622(14) 5_565 2
Th1 Cu2 P1 64.443(9) 6_546 2
Th1 Cu2 P1 98.508(11) 6_566 2
P2 Cu2 P1 120.454(16) 1_554 2
P1 Cu2 P1 44.014(9) 2_565 2
P1 Cu2 P2 43.41(2) . 5_666
P2 Cu2 P2 63.241(19) 2_564 5_666
P2 Cu2 P2 98.63(2) 2_554 5_666
P2 Cu2 P2 138.46(2) 6_556 5_666
Cu2 Cu2 P2 150.398(18) 5 5_666
Cu2 Cu2 P2 107.198(15) 5_565 5_666
Th1 Cu2 P2 32.714(9) . 5_666
Th1 Cu2 P2 119.105(15) 6_556 5_666
Th1 Cu2 P2 100.424(14) 2_554 5_666
Th1 Cu2 P2 76.285(12) 2_564 5_666
Cu2 Cu2 P2 68.363(5) 1_565 5_666
Cu2 Cu2 P2 111.637(4) 1_545 5_666
Cu1 Cu2 P2 23.875(12) 2_564 5_666
Cu1 Cu2 P2 56.692(10) 2_554 5_666
P1 Cu2 P2 159.359(19) 5 5_666
P1 Cu2 P2 125.968(11) 5_565 5_666
Cu1 Cu2 P2 67.270(13) 5_566 5_666
Cu1 Cu2 P2 87.509(13) 5_556 5_666
Cu1 Cu2 P2 121.817(14) 1_554 5_666
P1 Cu2 P2 46.529(13) 1_565 5_666
P1 Cu2 P2 86.908(14) 1_545 5_666
P2 Cu2 P2 135.140(10) 6_546 5_666
P2 Cu2 P2 94.761(12) 6_566 5_666
Cu1 Cu2 P2 54.095(13) 6_656 5_666
P1 Cu2 P2 85.031(16) 6_556 5_666
Cu1 Cu2 P2 153.311(10) 6_556 5_666
Th1 Cu2 P2 35.678(7) 1_565 5_666
Th1 Cu2 P2 76.400(8) 1_545 5_666
Th1 Cu2 P2 163.292(14) 5 5_666
Th1 Cu2 P2 132.080(7) 5_565 5_666
Th1 Cu2 P2 126.412(11) 6_546 5_666
Th1 Cu2 P2 91.347(8) 6_566 5_666
P2 Cu2 P2 78.525(16) 1_554 5_666
P1 Cu2 P2 42.077(14) 2_565 5_666
P1 Cu2 P2 62.231(12) 2 5_666
P1 Cu2 P2 43.41(2) . 5_656
P2 Cu2 P2 98.63(2) 2_564 5_656
P2 Cu2 P2 63.241(19) 2_554 5_656
P2 Cu2 P2 138.46(2) 6_556 5_656
Cu2 Cu2 P2 107.198(15) 5 5_656
Cu2 Cu2 P2 150.398(18) 5_565 5_656
Th1 Cu2 P2 32.714(9) . 5_656
Th1 Cu2 P2 119.105(15) 6_556 5_656
Th1 Cu2 P2 76.285(12) 2_554 5_656
Th1 Cu2 P2 100.424(14) 2_564 5_656
Cu2 Cu2 P2 111.637(5) 1_565 5_656
Cu2 Cu2 P2 68.363(4) 1_545 5_656
Cu1 Cu2 P2 56.692(10) 2_564 5_656
Cu1 Cu2 P2 23.875(12) 2_554 5_656
P1 Cu2 P2 125.968(11) 5 5_656
P1 Cu2 P2 159.359(19) 5_565 5_656
Cu1 Cu2 P2 87.509(13) 5_566 5_656
Cu1 Cu2 P2 67.270(13) 5_556 5_656
Cu1 Cu2 P2 121.817(14) 1_554 5_656
P1 Cu2 P2 86.908(14) 1_565 5_656
P1 Cu2 P2 46.529(13) 1_545 5_656
P2 Cu2 P2 94.761(12) 6_546 5_656
P2 Cu2 P2 135.140(10) 6_566 5_656
Cu1 Cu2 P2 54.095(13) 6_656 5_656
P1 Cu2 P2 85.031(16) 6_556 5_656
Cu1 Cu2 P2 153.311(10) 6_556 5_656
Th1 Cu2 P2 76.400(8) 1_565 5_656
Th1 Cu2 P2 35.678(7) 1_545 5_656
Th1 Cu2 P2 132.080(7) 5 5_656
Th1 Cu2 P2 163.292(14) 5_565 5_656
Th1 Cu2 P2 91.347(9) 6_546 5_656
Th1 Cu2 P2 126.412(11) 6_566 5_656
P2 Cu2 P2 78.525(17) 1_554 5_656
P1 Cu2 P2 62.231(12) 2_565 5_656
P1 Cu2 P2 42.077(14) 2 5_656
P2 Cu2 P2 43.274(9) 5_666 5_656
P1 Cu2 Cu1 96.86(3) . .
P2 Cu2 Cu1 55.99(2) 2_564 .
P2 Cu2 Cu1 55.99(2) 2_554 .
P2 Cu2 Cu1 158.12(3) 6_556 .
Cu2 Cu2 Cu1 111.44(2) 5 .
Cu2 Cu2 Cu1 111.44(2) 5_565 .
Th1 Cu2 Cu1 33.098(8) . .
Th1 Cu2 Cu1 63.300(9) 6_556 .
Th1 Cu2 Cu1 133.173(9) 2_554 .
Th1 Cu2 Cu1 133.173(9) 2_564 .
Cu2 Cu2 Cu1 90.0 1_565 .
Cu2 Cu2 Cu1 90.0 1_545 .
Cu1 Cu2 Cu1 84.149(12) 2_564 .
Cu1 Cu2 Cu1 84.149(12) 2_554 .
P1 Cu2 Cu1 98.914(15) 5 .
P1 Cu2 Cu1 98.914(15) 5_565 .
Cu1 Cu2 Cu1 31.965(7) 5_566 .
Cu1 Cu2 Cu1 31.965(7) 5_556 .
Cu1 Cu2 Cu1 177.194(14) 1_554 .
P1 Cu2 Cu1 93.494(13) 1_565 .
P1 Cu2 Cu1 93.494(13) 1_545 .
P2 Cu2 Cu1 119.395(11) 6_546 .
P2 Cu2 Cu1 119.395(11) 6_566 .
Cu1 Cu2 Cu1 109.137(12) 6_656 .
P1 Cu2 Cu1 26.400(12) 6_556 .
Cu1 Cu2 Cu1 105.731(11) 6_556 .
Th1 Cu2 Cu1 58.570(5) 1_565 .
Th1 Cu2 Cu1 58.570(6) 1_545 .
Th1 Cu2 Cu1 134.660(9) 5 .
Th1 Cu2 Cu1 134.660(9) 5_565 .
Th1 Cu2 Cu1 73.440(6) 6_546 .
Th1 Cu2 Cu1 73.440(6) 6_566 .
P2 Cu2 Cu1 135.895(15) 1_554 .
P1 Cu2 Cu1 25.276(7) 2_565 .
P1 Cu2 Cu1 25.276(7) 2 .
P2 Cu2 Cu1 60.719(12) 5_666 .
P2 Cu2 Cu1 60.719(12) 5_656 .
P1 Cu2 P1 74.93(3) . 2_554
P2 Cu2 P1 145.48(2) 2_564 2_554
P2 Cu2 P1 104.99(2) 2_554 2_554
P2 Cu2 P1 36.60(2) 6_556 2_554
Cu2 Cu2 P1 57.90(2) 5 2_554
Cu2 Cu2 P1 90.50(2) 5_565 2_554
Th1 Cu2 P1 133.883(14) . 2_554
Th1 Cu2 P1 123.398(14) 6_556 2_554
Th1 Cu2 P1 25.945(9) 2_554 2_554
Th1 Cu2 P1 59.626(9) 2_564 2_554
Cu2 Cu2 P1 110.314(4) 1_565 2_554
Cu2 Cu2 P1 69.686(4) 1_545 2_554
Cu1 Cu2 P1 97.840(14) 2_564 2_554
Cu1 Cu2 P1 78.022(13) 2_554 2_554
P1 Cu2 P1 79.816(14) 5 2_554
P1 Cu2 P1 98.702(15) 5_565 2_554
Cu1 Cu2 P1 170.006(11) 5_566 2_554
Cu1 Cu2 P1 131.449(6) 5_556 2_554
Cu1 Cu2 P1 23.487(7) 1_554 2_554
P1 Cu2 P1 99.539(15) 1_565 2_554
P1 Cu2 P1 64.452(11) 1_545 2_554
P2 Cu2 P1 44.007(12) 6_546 2_554
P2 Cu2 P1 82.530(13) 6_566 2_554
Cu1 Cu2 P1 63.530(11) 6_656 2_554
P1 Cu2 P1 153.645(8) 6_556 2_554
Cu1 Cu2 P1 83.916(12) 6_556 2_554
Th1 Cu2 P1 134.684(10) 1_565 2_554
Th1 Cu2 P1 99.194(7) 1_545 2_554
Th1 Cu2 P1 45.859(10) 5 2_554
Th1 Cu2 P1 64.809(10) 5_565 2_554
Th1 Cu2 P1 94.634(8) 6_546 2_554
Th1 Cu2 P1 128.138(10) 6_566 2_554
P2 Cu2 P1 39.693(13) 1_554 2_554
P1 Cu2 P1 159.43(2) 2_565 2_554
P1 Cu2 P1 132.539(9) 2 2_554
P2 Cu2 P1 117.496(16) 5_666 2_554
P2 Cu2 P1 101.868(14) 5_656 2_554
Cu1 Cu2 P1 157.763(7) . 2_554
P1 Cu2 P1 74.93(3) . 2_564
P2 Cu2 P1 104.99(2) 2_564 2_564
P2 Cu2 P1 145.48(2) 2_554 2_564
P2 Cu2 P1 36.60(2) 6_556 2_564
Cu2 Cu2 P1 90.50(2) 5 2_564
Cu2 Cu2 P1 57.90(2) 5_565 2_564
Th1 Cu2 P1 133.883(14) . 2_564
Th1 Cu2 P1 123.398(14) 6_556 2_564
Th1 Cu2 P1 59.626(9) 2_554 2_564
Th1 Cu2 P1 25.945(9) 2_564 2_564
Cu2 Cu2 P1 69.686(4) 1_565 2_564
Cu2 Cu2 P1 110.314(4) 1_545 2_564
Cu1 Cu2 P1 78.022(13) 2_564 2_564
Cu1 Cu2 P1 97.840(14) 2_554 2_564
P1 Cu2 P1 98.702(15) 5 2_564
P1 Cu2 P1 79.816(14) 5_565 2_564
Cu1 Cu2 P1 131.449(6) 5_566 2_564
Cu1 Cu2 P1 170.006(11) 5_556 2_564
Cu1 Cu2 P1 23.487(7) 1_554 2_564
P1 Cu2 P1 64.452(11) 1_565 2_564
P1 Cu2 P1 99.538(15) 1_545 2_564
P2 Cu2 P1 82.530(13) 6_546 2_564
P2 Cu2 P1 44.007(12) 6_566 2_564
Cu1 Cu2 P1 63.530(11) 6_656 2_564
P1 Cu2 P1 153.645(8) 6_556 2_564
Cu1 Cu2 P1 83.916(13) 6_556 2_564
Th1 Cu2 P1 99.194(7) 1_565 2_564
Th1 Cu2 P1 134.684(10) 1_545 2_564
Th1 Cu2 P1 64.809(10) 5 2_564
Th1 Cu2 P1 45.859(10) 5_565 2_564
Th1 Cu2 P1 128.138(10) 6_546 2_564
Th1 Cu2 P1 94.634(8) 6_566 2_564
P2 Cu2 P1 39.693(13) 1_554 2_564
P1 Cu2 P1 132.539(9) 2_565 2_564
P1 Cu2 P1 159.43(2) 2 2_564
P2 Cu2 P1 101.868(14) 5_666 2_564
P2 Cu2 P1 117.496(16) 5_656 2_564
Cu1 Cu2 P1 157.763(7) . 2_564
P1 Cu2 P1 40.629(8) 2_554 2_564
Cu2 P1 Cu1 115.53(3) . 2_564
Cu2 P1 Cu1 115.53(3) . 2_554
Cu1 P1 Cu1 113.07(4) 2_564 2_554
Cu2 P1 Cu1 155.95(5) . 6_656
Cu1 P1 Cu1 75.32(3) 2_564 6_656
Cu1 P1 Cu1 75.32(3) 2_554 6_656
Cu2 P1 Th1 71.24(3) . .
Cu1 P1 Th1 79.22(3) 2_564 .
Cu1 P1 Th1 79.22(3) 2_554 .
Cu1 P1 Th1 132.81(4) 6_656 .
Cu2 P1 Th1 80.83(2) . 2_554
Cu1 P1 Th1 150.88(4) 2_564 2_554
Cu1 P1 Th1 76.499(14) 2_554 2_554
Cu1 P1 Th1 81.23(2) 6_656 2_554
Th1 P1 Th1 129.86(2) . 2_554
Cu2 P1 Th1 80.83(2) . 2_564
Cu1 P1 Th1 76.499(14) 2_564 2_564
Cu1 P1 Th1 150.88(4) 2_554 2_564
Cu1 P1 Th1 81.23(2) 6_656 2_564
Th1 P1 Th1 129.86(2) . 2_564
Th1 P1 Th1 83.13(2) 2_554 2_564
Cu2 P1 P2 117.47(4) . 1_554
Cu1 P1 P2 96.10(3) 2_564 1_554
Cu1 P1 P2 96.10(3) 2_554 1_554
Cu1 P1 P2 38.48(2) 6_656 1_554
Th1 P1 P2 171.29(4) . 1_554
Th1 P1 P2 54.893(18) 2_554 1_554
Th1 P1 P2 54.893(18) 2_564 1_554
Cu2 P1 P2 39.356(17) . 2_554
Cu1 P1 P2 130.91(4) 2_564 2_554
Cu1 P1 P2 76.79(2) 2_554 2_554
Cu1 P1 P2 148.032(11) 6_656 2_554
Th1 P1 P2 54.609(19) . 2_554
Th1 P1 P2 77.333(18) 2_554 2_554
Th1 P1 P2 118.90(3) 2_564 2_554
P2 P1 P2 131.79(3) 1_554 2_554
Cu2 P1 P2 39.356(17) . 2_564
Cu1 P1 P2 76.79(2) 2_564 2_564
Cu1 P1 P2 130.91(4) 2_554 2_564
Cu1 P1 P2 148.032(11) 6_656 2_564
Th1 P1 P2 54.609(19) . 2_564
Th1 P1 P2 118.90(3) 2_554 2_564
Th1 P1 P2 77.333(18) 2_564 2_564
P2 P1 P2 131.79(3) 1_554 2_564
P2 P1 P2 63.94(2) 2_554 2_564
Cu2 P1 P1 148.646(15) . 5_665
Cu1 P1 P1 38.393(15) 2_564 5_665
Cu1 P1 P1 94.63(4) 2_554 5_665
Cu1 P1 P1 36.924(18) 6_656 5_665
Th1 P1 P1 108.67(4) . 5_665
Th1 P1 P1 116.40(4) 2_554 5_665
Th1 P1 P1 75.95(2) 2_564 5_665
P2 P1 P1 64.11(3) 1_554 5_665
P2 P1 P1 162.06(4) 2_554 5_665
P2 P1 P1 113.752(16) 2_564 5_665
Cu2 P1 P1 148.646(15) . 5_655
Cu1 P1 P1 94.63(4) 2_564 5_655
Cu1 P1 P1 38.393(15) 2_554 5_655
Cu1 P1 P1 36.924(18) 6_656 5_655
Th1 P1 P1 108.67(4) . 5_655
Th1 P1 P1 75.95(2) 2_554 5_655
Th1 P1 P1 116.40(4) 2_564 5_655
P2 P1 P1 64.11(3) 1_554 5_655
P2 P1 P1 113.752(16) 2_554 5_655
P2 P1 P1 162.06(4) 2_564 5_655
P1 P1 P1 62.41(3) 5_665 5_655
Cu2 P1 P2 38.54(2) . 6_556
Cu1 P1 P2 123.46(2) 2_564 6_556
Cu1 P1 P2 123.46(2) 2_554 6_556
Cu1 P1 P2 117.41(4) 6_656 6_556
Th1 P1 P2 109.78(3) . 6_556
Th1 P1 P2 54.543(17) 2_554 6_556
Th1 P1 P2 54.543(17) 2_564 6_556
P2 P1 P2 78.93(2) 1_554 6_556
P2 P1 P2 67.21(3) 2_554 6_556
P2 P1 P2 67.21(3) 2_564 6_556
P1 P1 P2 129.64(3) 5_665 6_556
P1 P1 P2 129.64(3) 5_655 6_556
Cu2 P1 P1 90.0 . 1_565
Cu1 P1 P1 33.46(2) 2_564 1_565
Cu1 P1 P1 146.54(2) 2_554 1_565
Cu1 P1 P1 90.0 6_656 1_565
Th1 P1 P1 90.0 . 1_565
Th1 P1 P1 131.567(12) 2_554 1_565
Th1 P1 P1 48.434(12) 2_564 1_565
P2 P1 P1 90.0 1_554 1_565
P2 P1 P1 121.967(11) 2_554 1_565
P2 P1 P1 58.032(11) 2_564 1_565
P1 P1 P1 58.796(14) 5_665 1_565
P1 P1 P1 121.205(14) 5_655 1_565
P2 P1 P1 90.0 6_556 1_565
Cu2 P1 P1 90.0 . 1_545
Cu1 P1 P1 146.54(2) 2_564 1_545
Cu1 P1 P1 33.46(2) 2_554 1_545
Cu1 P1 P1 90.0 6_656 1_545
Th1 P1 P1 90.0 . 1_545
Th1 P1 P1 48.434(12) 2_554 1_545
Th1 P1 P1 131.567(12) 2_564 1_545
P2 P1 P1 90.0 1_554 1_545
P2 P1 P1 58.032(11) 2_554 1_545
P2 P1 P1 121.967(11) 2_564 1_545
P1 P1 P1 121.205(14) 5_665 1_545
P1 P1 P1 58.796(15) 5_655 1_545
P2 P1 P1 90.0 6_556 1_545
P1 P1 P1 180.0 1_565 1_545
Cu2 P1 P2 112.77(3) . 5_666
Cu1 P1 P2 32.101(18) 2_564 5_666
Cu1 P1 P2 88.76(3) 2_554 5_666
Cu1 P1 P2 87.92(3) 6_656 5_666
Th1 P1 P2 52.241(19) . 5_666
Th1 P1 P2 163.48(3) 2_554 5_666
Th1 P1 P2 107.592(10) 2_564 5_666
P2 P1 P2 120.79(2) 1_554 5_666
P2 P1 P2 106.83(2) 2_554 5_666
P2 P1 P2 76.450(15) 2_564 5_666
P1 P1 P2 56.67(2) 5_665 5_666
P1 P1 P2 87.89(3) 5_655 5_666
P2 P1 P2 141.96(2) 6_556 5_666
P1 P1 P2 60.348(10) 1_565 5_666
P1 P1 P2 119.651(10) 1_545 5_666
Cu2 P1 P2 112.77(3) . 5_656
Cu1 P1 P2 88.76(3) 2_564 5_656
Cu1 P1 P2 32.101(18) 2_554 5_656
Cu1 P1 P2 87.92(3) 6_656 5_656
Th1 P1 P2 52.241(19) . 5_656
Th1 P1 P2 107.592(10) 2_554 5_656
Th1 P1 P2 163.48(3) 2_564 5_656
P2 P1 P2 120.79(2) 1_554 5_656
P2 P1 P2 76.450(15) 2_554 5_656
P2 P1 P2 106.83(2) 2_564 5_656
P1 P1 P2 87.89(3) 5_665 5_656
P1 P1 P2 56.67(2) 5_655 5_656
P2 P1 P2 141.96(2) 6_556 5_656
P1 P1 P2 119.651(10) 1_565 5_656
P1 P1 P2 60.349(10) 1_545 5_656
P2 P1 P2 59.303(19) 5_666 5_656
Cu2 P1 Cu2 32.554(13) . 5
Cu1 P1 Cu2 147.78(3) 2_564 5
Cu1 P1 Cu2 93.302(17) 2_554 5
Cu1 P1 Cu2 131.67(3) 6_656 5
Th1 P1 Cu2 88.43(2) . 5
Th1 P1 Cu2 50.510(13) 2_554 5
Th1 P1 Cu2 89.49(2) 2_564 5
P2 P1 Cu2 99.24(2) 1_554 5
P2 P1 Cu2 35.700(17) 2_554 5
P2 P1 Cu2 71.84(2) 2_564 5
P1 P1 Cu2 162.22(4) 5_665 5
P1 P1 Cu2 117.556(14) 5_655 5
P2 P1 Cu2 34.952(12) 6_556 5
P1 P1 Cu2 118.199(7) 1_565 5
P1 P1 Cu2 61.800(7) 1_545 5
P2 P1 Cu2 139.49(3) 5_666 5
P2 P1 Cu2 107.019(17) 5_656 5
Cu2 P1 Cu2 32.554(13) . 5_565
Cu1 P1 Cu2 93.302(17) 2_564 5_565
Cu1 P1 Cu2 147.78(3) 2_554 5_565
Cu1 P1 Cu2 131.67(3) 6_656 5_565
Th1 P1 Cu2 88.43(2) . 5_565
Th1 P1 Cu2 89.49(2) 2_554 5_565
Th1 P1 Cu2 50.510(13) 2_564 5_565
P2 P1 Cu2 99.24(2) 1_554 5_565
P2 P1 Cu2 71.84(2) 2_554 5_565
P2 P1 Cu2 35.700(17) 2_564 5_565
P1 P1 Cu2 117.556(14) 5_665 5_565
P1 P1 Cu2 162.22(4) 5_655 5_565
P2 P1 Cu2 34.952(12) 6_556 5_565
P1 P1 Cu2 61.800(7) 1_565 5_565
P1 P1 Cu2 118.199(7) 1_545 5_565
P2 P1 Cu2 107.019(17) 5_666 5_565
P2 P1 Cu2 139.49(3) 5_656 5_565
Cu2 P1 Cu2 56.399(14) 5 5_565
Cu2 P1 Th1 151.88(4) . 6_656
Cu1 P1 Th1 57.17(2) 2_564 6_656
Cu1 P1 Th1 57.17(2) 2_554 6_656
Cu1 P1 Th1 52.17(2) 6_656 6_656
Th1 P1 Th1 80.64(2) . 6_656
Th1 P1 Th1 119.01(2) 2_554 6_656
Th1 P1 Th1 119.01(2) 2_564 6_656
P2 P1 Th1 90.65(2) 1_554 6_656
P2 P1 Th1 121.16(2) 2_554 6_656
P2 P1 Th1 121.16(2) 2_564 6_656
P1 P1 Th1 43.07(2) 5_665 6_656
P1 P1 Th1 43.07(2) 5_655 6_656
P2 P1 Th1 169.58(3) 6_556 6_656
P1 P1 Th1 90.0 1_565 6_656
P1 P1 Th1 90.0 1_545 6_656
P2 P1 Th1 44.924(16) 5_666 6_656
P2 P1 Th1 44.924(16) 5_656 6_656
Cu2 P1 Th1 149.849(11) 5 6_656
Cu2 P1 Th1 149.849(11) 5_565 6_656
Cu2 P1 Cu2 59.292(11) . 1_545
Cu1 P1 Cu2 159.61(4) 2_564 1_545
Cu1 P1 Cu2 60.187(14) 2_554 1_545
Cu1 P1 Cu2 117.797(14) 6_656 1_545
Th1 P1 Cu2 80.547(15) . 1_545
Th1 P1 Cu2 49.323(9) 2_554 1_545
Th1 P1 Cu2 119.28(3) 2_564 1_545
P2 P1 Cu2 103.626(17) 1_554 1_545
P2 P1 Cu2 31.782(11) 2_554 1_545
P2 P1 Cu2 93.46(2) 2_564 1_545
P1 P1 Cu2 151.83(3) 5_665 1_545
P1 P1 Cu2 89.464(7) 5_655 1_545
P2 P1 Cu2 66.459(14) 6_556 1_545
P1 P1 Cu2 149.291(11) 1_565 1_545
P1 P1 Cu2 30.708(11) 1_545 1_545
P2 P1 Cu2 128.53(2) 5_666 1_545
P2 P1 Cu2 76.836(13) 5_656 1_545
Cu2 P1 Cu2 33.205(9) 5 1_545
Cu2 P1 Cu2 88.616(17) 5_565 1_545
Th1 P1 Cu2 116.769(13) 6_656 1_545
Cu2 P1 Cu2 59.292(11) . 1_565
Cu1 P1 Cu2 60.187(14) 2_564 1_565
Cu1 P1 Cu2 159.61(4) 2_554 1_565
Cu1 P1 Cu2 117.797(14) 6_656 1_565
Th1 P1 Cu2 80.547(15) . 1_565
Th1 P1 Cu2 119.28(3) 2_554 1_565
Th1 P1 Cu2 49.323(10) 2_564 1_565
P2 P1 Cu2 103.626(17) 1_554 1_565
P2 P1 Cu2 93.46(2) 2_554 1_565
P2 P1 Cu2 31.782(11) 2_564 1_565
P1 P1 Cu2 89.464(8) 5_665 1_565
P1 P1 Cu2 151.83(3) 5_655 1_565
P2 P1 Cu2 66.459(14) 6_556 1_565
P1 P1 Cu2 30.708(11) 1_565 1_565
P1 P1 Cu2 149.291(11) 1_545 1_565
P2 P1 Cu2 76.836(13) 5_666 1_565
P2 P1 Cu2 128.53(2) 5_656 1_565
Cu2 P1 Cu2 88.616(17) 5 1_565
Cu2 P1 Cu2 33.205(9) 5_565 1_565
Th1 P1 Cu2 116.769(13) 6_656 1_565
Cu2 P1 Cu2 118.58(2) 1_545 1_565
Cu2 P1 Cu1 118.749(14) . 6_666
Cu1 P1 Cu1 32.58(2) 2_564 6_666
Cu1 P1 Cu1 125.15(3) 2_554 6_666
Cu1 P1 Cu1 58.218(11) 6_656 6_666
Th1 P1 Cu1 110.971(15) . 6_666
Th1 P1 Cu1 118.93(3) 2_554 6_666
Th1 P1 Cu1 49.888(9) 2_564 6_666
P2 P1 Cu1 65.650(13) 1_554 6_666
P2 P1 Cu1 153.749(19) 2_554 6_666
P2 P1 Cu1 89.814(10) 2_564 6_666
P1 P1 Cu1 30.519(9) 5_665 6_666
P1 P1 Cu1 91.11(3) 5_655 6_666
P2 P1 Cu1 104.031(17) 6_556 6_666
P1 P1 Cu1 31.782(11) 1_565 6_666
P1 P1 Cu1 148.219(11) 1_545 6_666
P2 P1 Cu1 63.917(14) 5_666 6_666
P2 P1 Cu1 113.67(2) 5_656 6_666
Cu2 P1 Cu1 138.75(2) 5 6_666
Cu2 P1 Cu1 87.047(9) 5_565 6_666
Th1 P1 Cu1 71.152(13) 6_656 6_666
Cu2 P1 Cu1 167.55(2) 1_545 6_666
Cu2 P1 Cu1 60.971(8) 1_565 6_666
Cu2 P1 Cu1 118.749(14) . 6_646
Cu1 P1 Cu1 125.15(3) 2_564 6_646
Cu1 P1 Cu1 32.58(2) 2_554 6_646
Cu1 P1 Cu1 58.218(11) 6_656 6_646
Th1 P1 Cu1 110.971(15) . 6_646
Th1 P1 Cu1 49.888(9) 2_554 6_646
Th1 P1 Cu1 118.93(3) 2_564 6_646
P2 P1 Cu1 65.650(14) 1_554 6_646
P2 P1 Cu1 89.814(10) 2_554 6_646
P2 P1 Cu1 153.749(19) 2_564 6_646
P1 P1 Cu1 91.11(3) 5_665 6_646
P1 P1 Cu1 30.519(9) 5_655 6_646
P2 P1 Cu1 104.031(17) 6_556 6_646
P1 P1 Cu1 148.219(11) 1_565 6_646
P1 P1 Cu1 31.782(11) 1_545 6_646
P2 P1 Cu1 113.67(2) 5_666 6_646
P2 P1 Cu1 63.917(14) 5_656 6_646
Cu2 P1 Cu1 87.047(10) 5 6_646
Cu2 P1 Cu1 138.75(2) 5_565 6_646
Th1 P1 Cu1 71.152(13) 6_656 6_646
Cu2 P1 Cu1 60.971(8) 1_545 6_646
Cu2 P1 Cu1 167.55(2) 1_565 6_646
Cu1 P1 Cu1 116.44(2) 6_666 6_646
Cu2 P1 Cu2 112.08(3) . 6_656
Cu1 P1 Cu2 61.27(2) 2_564 6_656
Cu1 P1 Cu2 61.27(2) 2_554 6_656
Cu1 P1 Cu2 91.97(3) 6_656 6_656
Th1 P1 Cu2 40.840(14) . 6_656
Th1 P1 Cu2 137.501(13) 2_554 6_656
Th1 P1 Cu2 137.501(13) 2_564 6_656
P2 P1 Cu2 130.45(3) 1_554 6_656
P2 P1 Cu2 88.12(2) 2_554 6_656
P2 P1 Cu2 88.12(2) 2_564 6_656
P1 P1 Cu2 73.95(3) 5_665 6_656
P1 P1 Cu2 73.95(3) 5_655 6_656
P2 P1 Cu2 150.62(3) 6_556 6_656
P1 P1 Cu2 90.0 1_565 6_656
P1 P1 Cu2 90.0 1_545 6_656
P2 P1 Cu2 29.942(10) 5_666 6_656
P2 P1 Cu2 29.942(10) 5_656 6_656
Cu2 P1 Cu2 123.74(2) 5 6_656
Cu2 P1 Cu2 123.74(2) 5_565 6_656
Th1 P1 Cu2 39.801(10) 6_656 6_656
Cu2 P1 Cu2 101.067(14) 1_545 6_656
Cu2 P1 Cu2 101.067(14) 1_565 6_656
Cu1 P1 Cu2 91.036(15) 6_666 6_656
Cu1 P1 Cu2 91.036(15) 6_646 6_656
Cu2 P1 Th1 78.842(17) . 1_565
Cu1 P1 Th1 38.845(17) 2_564 1_565
Cu1 P1 Th1 123.63(3) 2_554 1_565
Cu1 P1 Th1 114.135(17) 6_656 1_565
Th1 P1 Th1 53.006(9) . 1_565
Th1 P1 Th1 156.29(3) 2_554 1_565
Th1 P1 Th1 81.707(7) 2_564 1_565
P2 P1 Th1 126.497(10) 1_554 1_565
P2 P1 Th1 94.27(2) 2_554 1_565
P2 P1 Th1 39.524(13) 2_564 1_565
P1 P1 Th1 77.222(15) 5_665 1_565
P1 P1 Th1 127.33(3) 5_655 1_565
P2 P1 Th1 101.752(17) 6_556 1_565
P1 P1 Th1 36.993(9) 1_565 1_565
P1 P1 Th1 143.006(9) 1_545 1_565
P2 P1 Th1 40.217(12) 5_666 1_565
P2 P1 Th1 91.528(19) 5_656 1_565
Cu2 P1 Th1 111.159(19) 5 1_565
Cu2 P1 Th1 66.804(10) 5_565 1_565
Th1 P1 Th1 84.384(13) 6_656 1_565
Cu2 P1 Th1 126.01(2) 1_545 1_565
Cu2 P1 Th1 38.230(7) 1_565 1_565
Cu1 P1 Th1 62.381(7) 6_666 1_565
Cu1 P1 Th1 153.42(2) 6_646 1_565
Cu2 P1 Th1 62.920(11) 6_656 1_565
Cu2 P1 Th1 78.842(17) . 1_545
Cu1 P1 Th1 123.63(3) 2_564 1_545
Cu1 P1 Th1 38.845(17) 2_554 1_545
Cu1 P1 Th1 114.135(17) 6_656 1_545
Th1 P1 Th1 53.006(9) . 1_545
Th1 P1 Th1 81.707(7) 2_554 1_545
Th1 P1 Th1 156.29(3) 2_564 1_545
P2 P1 Th1 126.497(10) 1_554 1_545
P2 P1 Th1 39.524(13) 2_554 1_545
P2 P1 Th1 94.27(2) 2_564 1_545
P1 P1 Th1 127.33(3) 5_665 1_545
P1 P1 Th1 77.222(15) 5_655 1_545
P2 P1 Th1 101.752(17) 6_556 1_545
P1 P1 Th1 143.006(9) 1_565 1_545
P1 P1 Th1 36.993(9) 1_545 1_545
P2 P1 Th1 91.528(19) 5_666 1_545
P2 P1 Th1 40.217(12) 5_656 1_545
Cu2 P1 Th1 66.804(9) 5 1_545
Cu2 P1 Th1 111.159(19) 5_565 1_545
Th1 P1 Th1 84.384(13) 6_656 1_545
Cu2 P1 Th1 38.230(7) 1_545 1_545
Cu2 P1 Th1 126.01(2) 1_565 1_545
Cu1 P1 Th1 153.42(2) 6_666 1_545
Cu1 P1 Th1 62.381(7) 6_646 1_545
Cu2 P1 Th1 62.920(11) 6_656 1_545
Th1 P1 Th1 106.013(18) 1_565 1_545
Cu2 P1 Cu1 65.88(2) . 1_554
Cu1 P1 Cu1 119.34(2) 2_564 1_554
Cu1 P1 Cu1 119.34(2) 2_554 1_554
Cu1 P1 Cu1 90.07(3) 6_656 1_554
Th1 P1 Cu1 137.12(3) . 1_554
Th1 P1 Cu1 42.920(13) 2_554 1_554
Th1 P1 Cu1 42.920(13) 2_564 1_554
P2 P1 Cu1 51.59(2) 1_554 1_554
P2 P1 Cu1 90.15(2) 2_554 1_554
P2 P1 Cu1 90.15(2) 2_564 1_554
P1 P1 Cu1 107.76(3) 5_665 1_554
P1 P1 Cu1 107.76(3) 5_655 1_554
P2 P1 Cu1 27.339(16) 6_556 1_554
P1 P1 Cu1 90.0 1_565 1_554
P1 P1 Cu1 90.0 1_545 1_554
P2 P1 Cu1 150.266(10) 5_666 1_554
P2 P1 Cu1 150.266(10) 5_656 1_554
Cu2 P1 Cu1 54.597(13) 5 1_554
Cu2 P1 Cu1 54.597(13) 5_565 1_554
Th1 P1 Cu1 142.24(2) 6_656 1_554
Cu2 P1 Cu1 77.956(14) 1_545 1_554
Cu2 P1 Cu1 77.956(14) 1_565 1_554
Cu1 P1 Cu1 90.037(14) 6_666 1_554
Cu1 P1 Cu1 90.037(14) 6_646 1_554
Cu2 P1 Cu1 177.96(2) 6_656 1_554
Th1 P1 Cu1 116.165(13) 1_565 1_554
Th1 P1 Cu1 116.165(13) 1_545 1_554
Cu2 P1 Cu2 105.80(3) . 2_554
Cu1 P1 Cu2 120.00(3) 2_564 2_554
Cu1 P1 Cu2 82.81(2) 2_554 2_554
Cu1 P1 Cu2 52.430(19) 6_656 2_554
Th1 P1 Cu2 157.932(5) . 2_554
Th1 P1 Cu2 31.443(12) 2_554 2_554
Th1 P1 Cu2 69.151(18) 2_564 2_554
P2 P1 Cu2 24.230(8) 1_554 2_554
P2 P1 Cu2 108.749(18) 2_554 2_554
P2 P1 Cu2 135.91(3) 2_564 2_554
P1 P1 Cu2 85.36(3) 5_665 2_554
P1 P1 Cu2 62.02(2) 5_655 2_554
P2 P1 Cu2 70.16(2) 6_556 2_554
P1 P1 Cu2 112.008(4) 1_565 2_554
P1 P1 Cu2 67.993(4) 1_545 2_554
P2 P1 Cu2 140.33(3) 5_666 2_554
P2 P1 Cu2 113.511(17) 5_656 2_554
Cu2 P1 Cu2 79.878(14) 5 2_554
Cu2 P1 Cu2 100.276(19) 5_565 2_554
Th1 P1 Cu2 100.231(17) 6_656 2_554
Cu2 P1 Cu2 79.445(11) 1_545 2_554
Cu2 P1 Cu2 117.464(19) 1_565 2_554
Cu1 P1 Cu2 89.851(16) 6_666 2_554
Cu1 P1 Cu2 50.233(10) 6_646 2_554
Cu2 P1 Cu2 135.968(18) 6_656 2_554
Th1 P1 Cu2 148.974(13) 1_565 2_554
Th1 P1 Cu2 104.972(6) 1_545 2_554
Cu1 P1 Cu2 45.758(11) 1_554 2_554
Cu2 P1 Cu2 105.80(3) . 2_564
Cu1 P1 Cu2 82.81(2) 2_564 2_564
Cu1 P1 Cu2 120.00(3) 2_554 2_564
Cu1 P1 Cu2 52.430(19) 6_656 2_564
Th1 P1 Cu2 157.932(5) . 2_564
Th1 P1 Cu2 69.151(18) 2_554 2_564
Th1 P1 Cu2 31.443(12) 2_564 2_564
P2 P1 Cu2 24.230(8) 1_554 2_564
P2 P1 Cu2 135.91(3) 2_554 2_564
P2 P1 Cu2 108.749(18) 2_564 2_564
P1 P1 Cu2 62.02(2) 5_665 2_564
P1 P1 Cu2 85.36(3) 5_655 2_564
P2 P1 Cu2 70.16(2) 6_556 2_564
P1 P1 Cu2 67.993(4) 1_565 2_564
P1 P1 Cu2 112.008(4) 1_545 2_564
P2 P1 Cu2 113.511(17) 5_666 2_564
P2 P1 Cu2 140.33(3) 5_656 2_564
Cu2 P1 Cu2 100.276(19) 5 2_564
Cu2 P1 Cu2 79.878(14) 5_565 2_564
Th1 P1 Cu2 100.231(17) 6_656 2_564
Cu2 P1 Cu2 117.464(19) 1_545 2_564
Cu2 P1 Cu2 79.445(11) 1_565 2_564
Cu1 P1 Cu2 50.233(10) 6_666 2_564
Cu1 P1 Cu2 89.851(16) 6_646 2_564
Cu2 P1 Cu2 135.968(17) 6_656 2_564
Th1 P1 Cu2 104.972(7) 1_565 2_564
Th1 P1 Cu2 148.974(13) 1_545 2_564
Cu1 P1 Cu2 45.758(11) 1_554 2_564
Cu2 P1 Cu2 44.014(9) 2_554 2_564
Cu2 P1 P2 108.41(2) . 1_544
Cu1 P1 P2 132.92(3) 2_564 1_544
Cu1 P1 P2 57.62(2) 2_554 1_544
Cu1 P1 P2 57.605(16) 6_656 1_544
Th1 P1 P2 132.570(11) . 1_544
Th1 P1 P2 28.674(13) 2_554 1_544
Th1 P1 P2 95.17(2) 2_564 1_544
P2 P1 P2 46.812(10) 1_554 1_544
P2 P1 P2 94.016(14) 2_554 1_544
P2 P1 P2 147.36(2) 2_564 1_544
P1 P1 P2 94.53(3) 5_665 1_544
P1 P1 P2 47.43(2) 5_655 1_544
P2 P1 P2 82.448(14) 6_556 1_544
P1 P1 P2 136.813(10) 1_565 1_544
P1 P1 P2 43.188(10) 1_545 1_544
P2 P1 P2 135.32(2) 5_666 1_544
P2 P1 P2 89.404(18) 5_656 1_544
Cu2 P1 P2 76.426(15) 5 1_544
Cu2 P1 P2 117.02(2) 5_565 1_544
Th1 P1 P2 90.442(17) 6_656 1_544
Cu2 P1 P2 62.248(12) 1_545 1_544
Cu2 P1 P2 142.01(2) 1_565 1_544
Cu1 P1 P2 109.73(2) 6_666 1_544
Cu1 P1 P2 25.582(11) 6_646 1_544
Cu2 P1 P2 116.359(16) 6_656 1_544
Th1 P1 P2 171.65(2) 1_565 1_544
Th1 P1 P2 79.905(9) 1_545 1_544
Cu1 P1 P2 64.837(14) 1_554 1_544
Cu2 P1 P2 26.193(9) 2_554 1_544
Cu2 P1 P2 69.459(13) 2_564 1_544
Cu2 P1 P2 108.41(2) . 1_564
Cu1 P1 P2 57.62(2) 2_564 1_564
Cu1 P1 P2 132.92(3) 2_554 1_564
Cu1 P1 P2 57.605(16) 6_656 1_564
Th1 P1 P2 132.570(11) . 1_564
Th1 P1 P2 95.17(2) 2_554 1_564
Th1 P1 P2 28.674(13) 2_564 1_564
P2 P1 P2 46.812(10) 1_554 1_564
P2 P1 P2 147.36(2) 2_554 1_564
P2 P1 P2 94.016(14) 2_564 1_564
P1 P1 P2 47.43(2) 5_665 1_564
P1 P1 P2 94.53(3) 5_655 1_564
P2 P1 P2 82.449(15) 6_556 1_564
P1 P1 P2 43.188(10) 1_565 1_564
P1 P1 P2 136.813(10) 1_545 1_564
P2 P1 P2 89.404(18) 5_666 1_564
P2 P1 P2 135.32(2) 5_656 1_564
Cu2 P1 P2 117.02(2) 5 1_564
Cu2 P1 P2 76.426(15) 5_565 1_564
Th1 P1 P2 90.442(17) 6_656 1_564
Cu2 P1 P2 142.01(2) 1_545 1_564
Cu2 P1 P2 62.248(12) 1_565 1_564
Cu1 P1 P2 25.582(11) 6_666 1_564
Cu1 P1 P2 109.73(2) 6_646 1_564
Cu2 P1 P2 116.359(16) 6_656 1_564
Th1 P1 P2 79.905(9) 1_565 1_564
Th1 P1 P2 171.65(2) 1_545 1_564
Cu1 P1 P2 64.837(14) 1_554 1_564
Cu2 P1 P2 69.459(13) 2_554 1_564
Cu2 P1 P2 26.193(9) 2_564 1_564
P2 P1 P2 93.62(2) 1_544 1_564
Cu2 P1 P2 57.083(17) . 6_546
Cu1 P1 P2 169.45(3) 2_564 6_546
Cu1 P1 P2 77.473(17) 2_554 6_546
Cu1 P1 P2 108.65(2) 6_656 6_546
Th1 P1 P2 103.60(2) . 6_546
Th1 P1 P2 28.329(13) 2_554 6_546
Th1 P1 P2 94.25(2) 2_564 6_546
P2 P1 P2 82.333(15) 1_554 6_546
P2 P1 P2 49.47(2) 2_554 6_546
P2 P1 P2 96.41(2) 2_564 6_546
P1 P1 P2 144.67(3) 5_665 6_546
P1 P1 P2 94.051(17) 5_655 6_546
P2 P1 P2 45.989(10) 6_556 6_546
P1 P1 P2 135.989(10) 1_565 6_546
P1 P1 P2 44.011(10) 1_545 6_546
P2 P1 P2 154.55(3) 5_666 6_546
P2 P1 P2 101.032(13) 5_656 6_546
Cu2 P1 P2 24.587(11) 5 6_546
Cu2 P1 P2 76.726(16) 5_565 6_546
Th1 P1 P2 133.104(11) 6_656 6_546
Cu2 P1 P2 26.380(11) 1_545 6_546
Cu2 P1 P2 109.93(2) 1_565 6_546
Cu1 P1 P2 141.24(2) 6_666 6_546
Cu1 P1 P2 63.710(12) 6_646 6_546
Cu2 P1 P2 127.262(14) 6_656 6_546
Th1 P1 P2 135.72(2) 1_565 6_546
Th1 P1 P2 64.347(10) 1_545 6_546
Cu1 P1 P2 51.889(12) 1_554 6_546
Cu2 P1 P2 59.650(13) 2_554 6_546
Cu2 P1 P2 91.933(17) 2_564 6_546
P2 P1 P2 51.997(8) 1_544 6_546
P2 P1 P2 115.663(18) 1_564 6_546
Cu2 P1 P2 57.083(17) . 6_566
Cu1 P1 P2 77.473(17) 2_564 6_566
Cu1 P1 P2 169.45(3) 2_554 6_566
Cu1 P1 P2 108.65(2) 6_656 6_566
Th1 P1 P2 103.60(2) . 6_566
Th1 P1 P2 94.25(2) 2_554 6_566
Th1 P1 P2 28.329(13) 2_564 6_566
P2 P1 P2 82.333(15) 1_554 6_566
P2 P1 P2 96.41(2) 2_554 6_566
P2 P1 P2 49.47(2) 2_564 6_566
P1 P1 P2 94.051(17) 5_665 6_566
P1 P1 P2 144.67(3) 5_655 6_566
P2 P1 P2 45.989(10) 6_556 6_566
P1 P1 P2 44.011(10) 1_565 6_566
P1 P1 P2 135.989(10) 1_545 6_566
P2 P1 P2 101.032(13) 5_666 6_566
P2 P1 P2 154.55(3) 5_656 6_566
Cu2 P1 P2 76.726(16) 5 6_566
Cu2 P1 P2 24.587(11) 5_565 6_566
Th1 P1 P2 133.104(11) 6_656 6_566
Cu2 P1 P2 109.93(2) 1_545 6_566
Cu2 P1 P2 26.380(11) 1_565 6_566
Cu1 P1 P2 63.710(11) 6_666 6_566
Cu1 P1 P2 141.24(2) 6_646 6_566
Cu2 P1 P2 127.262(14) 6_656 6_566
Th1 P1 P2 64.347(10) 1_565 6_566
Th1 P1 P2 135.72(2) 1_545 6_566
Cu1 P1 P2 51.889(12) 1_554 6_566
Cu2 P1 P2 91.933(17) 2_554 6_566
Cu2 P1 P2 59.650(13) 2_564 6_566
P2 P1 P2 115.663(18) 1_544 6_566
P2 P1 P2 51.997(8) 1_564 6_566
P2 P1 P2 91.98(2) 6_546 6_566
Cu2 P1 Th1 11.528(18) . 6_556
Cu1 P1 Th1 110.71(2) 2_564 6_556
Cu1 P1 Th1 110.71(2) 2_554 6_556
Cu1 P1 Th1 167.48(3) 6_656 6_556
Th1 P1 Th1 59.712(16) . 6_556
Th1 P1 Th1 89.428(19) 2_554 6_556
Th1 P1 Th1 89.428(19) 2_564 6_556
P2 P1 Th1 129.00(3) 1_554 6_556
P2 P1 Th1 34.170(12) 2_554 6_556
P2 P1 Th1 34.170(12) 2_564 6_556
P1 P1 Th1 147.817(17) 5_665 6_556
P1 P1 Th1 147.817(17) 5_655 6_556
P2 P1 Th1 50.072(18) 6_556 6_556
P1 P1 Th1 90.0 1_565 6_556
P1 P1 Th1 90.0 1_545 6_556
P2 P1 Th1 102.92(2) 5_666 6_556
P2 P1 Th1 102.92(2) 5_656 6_556
Cu2 P1 Th1 39.245(10) 5 6_556
Cu2 P1 Th1 39.245(10) 5_565 6_556
Th1 P1 Th1 140.35(2) 6_656 6_556
Cu2 P1 Th1 59.976(11) 1_545 6_556
Cu2 P1 Th1 59.976(11) 1_565 6_556
Cu1 P1 Th1 120.941(11) 6_666 6_556
Cu1 P1 Th1 120.941(11) 6_646 6_556
Cu2 P1 Th1 100.553(17) 6_656 6_556
Th1 P1 Th1 72.334(11) 1_565 6_556
Th1 P1 Th1 72.334(11) 1_545 6_556
Cu1 P1 Th1 77.410(15) 1_554 6_556
Cu2 P1 Th1 116.349(16) 2_554 6_556
Cu2 P1 Th1 116.349(16) 2_564 6_556
P2 P1 Th1 115.512(16) 1_544 6_556
P2 P1 Th1 115.512(16) 1_564 6_556
P2 P1 Th1 63.517(14) 6_546 6_556
P2 P1 Th1 63.517(14) 6_566 6_556
Cu2 P1 Cu1 45.963(19) . 5_566
Cu1 P1 Cu1 77.71(2) 2_564 5_566
Cu1 P1 Cu1 112.52(3) 2_554 5_566
Cu1 P1 Cu1 152.75(2) 6_656 5_566
Th1 P1 Cu1 35.485(11) . 5_566
Th1 P1 Cu1 125.62(2) 2_554 5_566
Th1 P1 Cu1 96.219(16) 2_564 5_566
P2 P1 Cu1 150.95(2) 1_554 5_566
P2 P1 Cu1 55.521(15) 2_554 5_566
P2 P1 Cu1 19.204(14) 2_564 5_566
P1 P1 Cu1 116.01(2) 5_665 5_566
P1 P1 Cu1 143.97(4) 5_655 5_566
P2 P1 Cu1 81.09(2) 6_556 5_566
P1 P1 Cu1 69.070(4) 1_565 5_566
P1 P1 Cu1 110.929(4) 1_545 5_566
P2 P1 Cu1 66.848(19) 5_666 5_566
P2 P1 Cu1 87.72(2) 5_656 5_566
Cu2 P1 Cu1 75.135(16) 5 5_566
Cu2 P1 Cu1 53.549(13) 5_565 5_566
Th1 P1 Cu1 108.606(18) 6_656 5_566
Cu2 P1 Cu1 87.258(16) 1_545 5_566
Cu2 P1 Cu1 48.539(10) 1_565 5_566
Cu1 P1 Cu1 99.472(9) 6_666 5_566
Cu1 P1 Cu1 140.524(16) 6_646 5_566
Cu2 P1 Cu1 71.531(14) 6_656 5_566
Th1 P1 Cu1 39.170(7) 1_565 5_566
Th1 P1 Cu1 78.191(13) 1_545 5_566
Cu1 P1 Cu1 106.581(17) 1_554 5_566
Cu2 P1 Cu1 151.16(2) 2_554 5_566
Cu2 P1 Cu1 127.464(11) 2_564 5_566
P2 P1 Cu1 149.175(16) 1_544 5_566
P2 P1 Cu1 109.745(10) 1_564 5_566
P2 P1 Cu1 98.584(18) 6_546 5_566
P2 P1 Cu1 68.619(14) 6_566 5_566
Th1 P1 Cu1 36.315(7) 6_556 5_566
Cu2 P1 Cu1 45.963(19) . 5_556
Cu1 P1 Cu1 112.52(3) 2_564 5_556
Cu1 P1 Cu1 77.71(2) 2_554 5_556
Cu1 P1 Cu1 152.75(2) 6_656 5_556
Th1 P1 Cu1 35.485(11) . 5_556
Th1 P1 Cu1 96.219(16) 2_554 5_556
Th1 P1 Cu1 125.62(2) 2_564 5_556
P2 P1 Cu1 150.95(2) 1_554 5_556
P2 P1 Cu1 19.204(14) 2_554 5_556
P2 P1 Cu1 55.521(15) 2_564 5_556
P1 P1 Cu1 143.97(4) 5_665 5_556
P1 P1 Cu1 116.01(2) 5_655 5_556
P2 P1 Cu1 81.09(2) 6_556 5_556
P1 P1 Cu1 110.929(4) 1_565 5_556
P1 P1 Cu1 69.070(4) 1_545 5_556
P2 P1 Cu1 87.72(2) 5_666 5_556
P2 P1 Cu1 66.848(19) 5_656 5_556
Cu2 P1 Cu1 53.549(13) 5 5_556
Cu2 P1 Cu1 75.135(16) 5_565 5_556
Th1 P1 Cu1 108.606(18) 6_656 5_556
Cu2 P1 Cu1 48.539(10) 1_545 5_556
Cu2 P1 Cu1 87.258(16) 1_565 5_556
Cu1 P1 Cu1 140.524(16) 6_666 5_556
Cu1 P1 Cu1 99.472(9) 6_646 5_556
Cu2 P1 Cu1 71.531(14) 6_656 5_556
Th1 P1 Cu1 78.191(13) 1_565 5_556
Th1 P1 Cu1 39.170(7) 1_545 5_556
Cu1 P1 Cu1 106.581(17) 1_554 5_556
Cu2 P1 Cu1 127.464(11) 2_554 5_556
Cu2 P1 Cu1 151.16(2) 2_564 5_556
P2 P1 Cu1 109.745(10) 1_544 5_556
P2 P1 Cu1 149.175(16) 1_564 5_556
P2 P1 Cu1 68.619(14) 6_546 5_556
P2 P1 Cu1 98.584(18) 6_566 5_556
Th1 P1 Cu1 36.315(7) 6_556 5_556
Cu1 P1 Cu1 41.859(8) 5_566 5_556
Cu2 P1 Th1 139.54(3) . 5_665
Cu1 P1 Th1 63.95(2) 2_564 5_665
Cu1 P1 Th1 98.98(3) 2_554 5_665
Cu1 P1 Th1 23.693(9) 6_656 5_665
Th1 P1 Th1 139.28(2) . 5_665
Th1 P1 Th1 87.80(2) 2_554 5_665
Th1 P1 Th1 59.219(15) 2_564 5_665
P2 P1 Th1 33.702(14) 1_554 5_665
P2 P1 Th1 165.10(2) 2_554 5_665
P2 P1 Th1 126.060(11) 2_564 5_665
P1 P1 Th1 30.61(2) 5_665 5_665
P1 P1 Th1 60.60(2) 5_655 5_665
P2 P1 Th1 104.91(2) 6_556 5_665
P1 P1 Th1 69.100(4) 1_565 5_665
P1 P1 Th1 110.901(4) 1_545 5_665
P2 P1 Th1 87.183(19) 5_666 5_665
P2 P1 Th1 107.69(2) 5_656 5_665
Cu2 P1 Th1 132.10(2) 5 5_665
Cu2 P1 Th1 109.465(15) 5_565 5_665
Th1 P1 Th1 65.443(12) 6_656 5_665
Cu2 P1 Th1 134.049(16) 1_545 5_665
Cu2 P1 Th1 94.694(10) 1_565 5_665
Cu1 P1 Th1 38.229(8) 6_666 5_665
Cu1 P1 Th1 79.686(14) 6_646 5_665
Cu2 P1 Th1 102.490(17) 6_656 5_665
Th1 P1 Th1 99.854(8) 1_565 5_665
Th1 P1 Th1 137.817(15) 1_545 5_665
Cu1 P1 Th1 79.407(14) 1_554 5_665
Cu2 P1 Th1 56.369(10) 2_554 5_665
Cu2 P1 Th1 34.795(7) 2_564 5_665
P2 P1 Th1 71.985(14) 1_544 5_665
P2 P1 Th1 33.956(11) 1_564 5_665
P2 P1 Th1 115.809(19) 6_546 5_665
P2 P1 Th1 85.540(14) 6_566 5_665
Th1 P1 Th1 148.632(14) 6_556 5_665
Cu1 P1 Th1 137.699(4) 5_566 5_665
Cu1 P1 Th1 173.98(2) 5_556 5_665
Cu2 P1 Th1 139.54(3) . 5_655
Cu1 P1 Th1 98.98(3) 2_564 5_655
Cu1 P1 Th1 63.95(2) 2_554 5_655
Cu1 P1 Th1 23.693(9) 6_656 5_655
Th1 P1 Th1 139.28(2) . 5_655
Th1 P1 Th1 59.219(15) 2_554 5_655
Th1 P1 Th1 87.80(2) 2_564 5_655
P2 P1 Th1 33.702(14) 1_554 5_655
P2 P1 Th1 126.060(11) 2_554 5_655
P2 P1 Th1 165.10(2) 2_564 5_655
P1 P1 Th1 60.60(2) 5_665 5_655
P1 P1 Th1 30.61(2) 5_655 5_655
P2 P1 Th1 104.91(2) 6_556 5_655
P1 P1 Th1 110.901(4) 1_565 5_655
P1 P1 Th1 69.100(4) 1_545 5_655
P2 P1 Th1 107.69(2) 5_666 5_655
P2 P1 Th1 87.183(19) 5_656 5_655
Cu2 P1 Th1 109.465(15) 5 5_655
Cu2 P1 Th1 132.10(2) 5_565 5_655
Th1 P1 Th1 65.443(12) 6_656 5_655
Cu2 P1 Th1 94.694(10) 1_545 5_655
Cu2 P1 Th1 134.049(16) 1_565 5_655
Cu1 P1 Th1 79.686(14) 6_666 5_655
Cu1 P1 Th1 38.229(8) 6_646 5_655
Cu2 P1 Th1 102.490(17) 6_656 5_655
Th1 P1 Th1 137.817(15) 1_565 5_655
Th1 P1 Th1 99.854(8) 1_545 5_655
Cu1 P1 Th1 79.407(14) 1_554 5_655
Cu2 P1 Th1 34.795(7) 2_554 5_655
Cu2 P1 Th1 56.369(10) 2_564 5_655
P2 P1 Th1 33.956(11) 1_544 5_655
P2 P1 Th1 71.985(14) 1_564 5_655
P2 P1 Th1 85.540(14) 6_546 5_655
P2 P1 Th1 115.809(19) 6_566 5_655
Th1 P1 Th1 148.632(14) 6_556 5_655
Cu1 P1 Th1 173.98(2) 5_566 5_655
Cu1 P1 Th1 137.699(4) 5_556 5_655
Th1 P1 Th1 41.800(7) 5_665 5_655
Cu2 P1 P1 81.03(3) . 2_554
Cu1 P1 P1 132.88(3) 2_564 2_554
Cu1 P1 P1 95.04(2) 2_554 2_554
Cu1 P1 P1 76.51(2) 6_656 2_554
Th1 P1 P1 145.35(3) . 2_554
Th1 P1 P1 20.889(12) 2_554 2_554
Th1 P1 P1 62.419(14) 2_564 2_554
P2 P1 P1 41.767(15) 1_554 2_554
P2 P1 P1 90.75(3) 2_554 2_554
P2 P1 P1 112.90(3) 2_564 2_554
P1 P1 P1 105.83(3) 5_665 2_554
P1 P1 P1 84.54(3) 5_655 2_554
P2 P1 P1 45.87(2) 6_556 2_554
P1 P1 P1 110.802(2) 1_565 2_554
P1 P1 P1 69.198(2) 1_545 2_554
P2 P1 P1 162.41(3) 5_666 2_554
P2 P1 P1 127.003(14) 5_656 2_554
Cu2 P1 P1 57.558(19) 5 2_554
Cu2 P1 P1 78.42(2) 5_565 2_554
Th1 P1 P1 124.88(2) 6_656 2_554
Cu2 P1 P1 67.359(16) 1_545 2_554
Cu2 P1 P1 103.05(2) 1_565 2_554
Cu1 P1 P1 100.315(14) 6_666 2_554
Cu1 P1 P1 64.866(13) 6_646 2_554
Cu2 P1 P1 155.884(17) 6_656 2_554
Th1 P1 P1 141.137(18) 1_565 2_554
Th1 P1 P1 102.201(12) 1_545 2_554
Cu1 P1 P1 25.182(8) 1_554 2_554
Cu2 P1 P1 24.831(10) 2_554 2_554
Cu2 P1 P1 50.104(7) 2_564 2_554
P2 P1 P1 39.700(13) 1_544 2_554
P2 P1 P1 75.432(12) 1_564 2_554
P2 P1 P1 42.339(16) 6_546 2_554
P2 P1 P1 76.801(16) 6_566 2_554
Th1 P1 P1 91.80(2) 6_556 2_554
Cu1 P1 P1 126.41(3) 5_566 2_554
Cu1 P1 P1 109.86(2) 5_556 2_554
Th1 P1 P1 75.267(14) 5_665 2_554
Th1 P1 P1 59.489(14) 5_655 2_554
Cu1 P2 Cu2 125.49(2) 6_657 2
Cu1 P2 Cu2 125.49(2) 6_657 2_565
Cu2 P2 Cu2 108.99(4) 2 2_565
Cu1 P2 Cu2 140.91(5) 6_657 6_656
Cu2 P2 Cu2 62.56(2) 2 6_656
Cu2 P2 Cu2 62.56(2) 2_565 6_656
Cu1 P2 Th1 79.05(2) 6_657 2
Cu2 P2 Th1 67.162(17) 2 2
Cu2 P2 Th1 129.29(4) 2_565 2
Cu2 P2 Th1 128.59(2) 6_656 2
Cu1 P2 Th1 79.05(2) 6_657 2_565
Cu2 P2 Th1 129.29(4) 2 2_565
Cu2 P2 Th1 67.162(17) 2_565 2_565
Cu2 P2 Th1 128.59(2) 6_656 2_565
Th1 P2 Th1 77.70(2) 2 2_565
Cu1 P2 Th1 74.80(2) 6_657 5_666
Cu2 P2 Th1 129.99(4) 2 5_666
Cu2 P2 Th1 68.769(17) 2_565 5_666
Cu2 P2 Th1 74.68(2) 6_656 5_666
Th1 P2 Th1 153.84(3) 2 5_666
Th1 P2 Th1 97.089(9) 2_565 5_666
Cu1 P2 Th1 74.80(2) 6_657 5_656
Cu2 P2 Th1 68.769(17) 2 5_656
Cu2 P2 Th1 129.99(4) 2_565 5_656
Cu2 P2 Th1 74.68(2) 6_656 5_656
Th1 P2 Th1 97.089(10) 2 5_656
Th1 P2 Th1 153.84(3) 2_565 5_656
Th1 P2 Th1 76.21(2) 5_666 5_656
Cu1 P2 P1 40.36(2) 6_657 1_556
Cu2 P2 P1 116.93(3) 2 1_556
Cu2 P2 P1 116.93(3) 2_565 1_556
Cu2 P2 P1 178.73(4) 6_656 1_556
Th1 P2 P1 50.663(16) 2 1_556
Th1 P2 P1 50.663(16) 2_565 1_556
Th1 P2 P1 106.30(2) 5_666 1_556
Th1 P2 P1 106.30(2) 5_656 1_556
Cu1 P2 P1 129.34(3) 6_657 2
Cu2 P2 P1 37.82(2) 2 2
Cu2 P2 P1 94.14(3) 2_565 2
Cu2 P2 P1 82.15(3) 6_656 2
Th1 P2 P1 50.400(18) 2 2
Th1 P2 P1 91.54(3) 2_565 2
Th1 P2 P1 155.67(3) 5_666 2
Th1 P2 P1 104.938(13) 5_656 2
P1 P2 P1 96.78(2) 1_556 2
Cu1 P2 P1 129.34(3) 6_657 2_565
Cu2 P2 P1 94.14(3) 2 2_565
Cu2 P2 P1 37.82(2) 2_565 2_565
Cu2 P2 P1 82.15(3) 6_656 2_565
Th1 P2 P1 91.54(3) 2 2_565
Th1 P2 P1 50.400(18) 2_565 2_565
Th1 P2 P1 104.938(13) 5_666 2_565
Th1 P2 P1 155.67(3) 5_656 2_565
P1 P2 P1 96.78(2) 1_556 2_565
P1 P2 P1 63.93(2) 2 2_565
Cu1 P2 P1 104.48(4) 6_657 6_656
Cu2 P2 P1 80.74(3) 2 6_656
Cu2 P2 P1 80.74(3) 2_565 6_656
Cu2 P2 P1 36.43(2) 6_656 6_656
Th1 P2 P1 141.149(11) 2 6_656
Th1 P2 P1 141.149(11) 2_565 6_656
Th1 P2 P1 49.251(16) 5_666 6_656
Th1 P2 P1 49.251(16) 5_656 6_656
P1 P2 P1 144.84(4) 1_556 6_656
P1 P2 P1 112.78(3) 2 6_656
P1 P2 P1 112.78(3) 2_565 6_656
Cu1 P2 Cu1 121.18(3) 6_657 .
Cu2 P2 Cu1 73.34(3) 2 .
Cu2 P2 Cu1 73.34(3) 2_565 .
Cu2 P2 Cu1 97.91(3) 6_656 .
Th1 P2 Cu1 56.786(16) 2 .
Th1 P2 Cu1 56.786(16) 2_565 .
Th1 P2 Cu1 140.399(13) 5_666 .
Th1 P2 Cu1 140.399(13) 5_656 .
P1 P2 Cu1 80.82(2) 1_556 .
P1 P2 Cu1 35.852(13) 2 .
P1 P2 Cu1 35.852(14) 2_565 .
P1 P2 Cu1 134.33(3) 6_656 .
Cu1 P2 P2 90.0 6_657 1_565
Cu2 P2 P2 144.50(2) 2 1_565
Cu2 P2 P2 35.50(2) 2_565 1_565
Cu2 P2 P2 90.0 6_656 1_565
Th1 P2 P2 128.850(11) 2 1_565
Th1 P2 P2 51.150(11) 2_565 1_565
Th1 P2 P2 51.896(11) 5_666 1_565
Th1 P2 P2 128.104(11) 5_656 1_565
P1 P2 P2 90.0 1_556 1_565
P1 P2 P2 121.967(11) 2 1_565
P1 P2 P2 58.032(11) 2_565 1_565
P1 P2 P2 90.0 6_656 1_565
Cu1 P2 P2 90.0 . 1_565
Cu1 P2 P2 90.0 6_657 1_545
Cu2 P2 P2 35.50(2) 2 1_545
Cu2 P2 P2 144.50(2) 2_565 1_545
Cu2 P2 P2 90.0 6_656 1_545
Th1 P2 P2 51.150(11) 2 1_545
Th1 P2 P2 128.850(11) 2_565 1_545
Th1 P2 P2 128.104(11) 5_666 1_545
Th1 P2 P2 51.897(11) 5_656 1_545
P1 P2 P2 90.0 1_556 1_545
P1 P2 P2 58.032(11) 2 1_545
P1 P2 P2 121.967(11) 2_565 1_545
P1 P2 P2 90.0 6_656 1_545
Cu1 P2 P2 90.0 . 1_545
P2 P2 P2 180.0 1_565 1_545
Cu1 P2 P1 32.345(13) 6_657 5_666
Cu2 P2 P1 152.86(3) 2 5_666
Cu2 P2 P1 94.842(17) 2_565 5_666
Cu2 P2 P1 121.82(3) 6_656 5_666
Th1 P2 P1 107.68(3) 2 5_666
Th1 P2 P1 71.518(18) 2_565 5_666
Th1 P2 P1 47.315(16) 5_666 5_666
Th1 P2 P1 86.14(2) 5_656 5_666
P1 P2 P1 59.21(2) 1_556 5_666
P1 P2 P1 155.83(3) 2 5_666
P1 P2 P1 112.861(15) 2_565 5_666
P1 P2 P1 90.81(2) 6_656 5_666
Cu1 P2 P1 127.71(2) . 5_666
P2 P2 P1 60.349(10) 1_565 5_666
P2 P2 P1 119.652(10) 1_545 5_666
Cu1 P2 P1 32.345(13) 6_657 5_656
Cu2 P2 P1 94.842(17) 2 5_656
Cu2 P2 P1 152.86(3) 2_565 5_656
Cu2 P2 P1 121.82(3) 6_656 5_656
Th1 P2 P1 71.518(18) 2 5_656
Th1 P2 P1 107.68(3) 2_565 5_656
Th1 P2 P1 86.14(2) 5_666 5_656
Th1 P2 P1 47.315(16) 5_656 5_656
P1 P2 P1 59.21(2) 1_556 5_656
P1 P2 P1 112.861(15) 2 5_656
P1 P2 P1 155.83(3) 2_565 5_656
P1 P2 P1 90.81(2) 6_656 5_656
Cu1 P2 P1 127.71(2) . 5_656
P2 P2 P1 119.652(10) 1_565 5_656
P2 P2 P1 60.349(10) 1_545 5_656
P1 P2 P1 59.304(19) 5_666 5_656
Cu1 P2 P2 142.61(3) 6_657 5_656
Cu2 P2 P2 31.537(13) 2 5_656
Cu2 P2 P2 85.26(3) 2_565 5_656
Cu2 P2 P2 31.025(14) 6_656 5_656
Th1 P2 P2 98.173(19) 2 5_656
Th1 P2 P2 137.33(4) 2_565 5_656
Th1 P2 P2 102.56(3) 5_666 5_656
Th1 P2 P2 68.53(2) 5_656 5_656
P1 P2 P2 148.45(2) 1_556 5_656
P1 P2 P2 57.37(2) 2 5_656
P1 P2 P2 87.79(3) 2_565 5_656
P1 P2 P2 55.41(2) 6_656 5_656
Cu1 P2 P2 85.10(3) . 5_656
P2 P2 P2 118.214(12) 1_565 5_656
P2 P2 P2 61.785(12) 1_545 5_656
P1 P2 P2 145.85(4) 5_666 5_656
P1 P2 P2 111.09(2) 5_656 5_656
Cu1 P2 P2 142.61(3) 6_657 5_666
Cu2 P2 P2 85.26(3) 2 5_666
Cu2 P2 P2 31.537(13) 2_565 5_666
Cu2 P2 P2 31.025(14) 6_656 5_666
Th1 P2 P2 137.33(4) 2 5_666
Th1 P2 P2 98.173(19) 2_565 5_666
Th1 P2 P2 68.53(2) 5_666 5_666
Th1 P2 P2 102.56(3) 5_656 5_666
P1 P2 P2 148.45(2) 1_556 5_666
P1 P2 P2 87.79(3) 2 5_666
P1 P2 P2 57.37(2) 2_565 5_666
P1 P2 P2 55.41(3) 6_656 5_666
Cu1 P2 P2 85.10(3) . 5_666
P2 P2 P2 61.785(12) 1_565 5_666
P2 P2 P2 118.214(12) 1_545 5_666
P1 P2 P2 111.09(2) 5_666 5_666
P1 P2 P2 145.85(4) 5_656 5_666
P2 P2 P2 56.43(2) 5_656 5_666
Cu1 P2 Th1 169.34(4) 6_657 .
Cu2 P2 Th1 55.42(2) 2 .
Cu2 P2 Th1 55.42(2) 2_565 .
Cu2 P2 Th1 49.75(2) 6_656 .
Th1 P2 Th1 92.69(2) 2 .
Th1 P2 Th1 92.69(2) 2_565 .
Th1 P2 Th1 113.26(2) 5_666 .
Th1 P2 Th1 113.26(2) 5_656 .
P1 P2 Th1 128.98(3) 1_556 .
P1 P2 Th1 43.340(16) 2 .
P1 P2 Th1 43.340(16) 2_565 .
P1 P2 Th1 86.18(2) 6_656 .
Cu1 P2 Th1 48.156(13) . .
P2 P2 Th1 90.0 1_565 .
P2 P2 Th1 90.0 1_545 .
P1 P2 Th1 150.220(10) 5_666 .
P1 P2 Th1 150.220(10) 5_656 .
P2 P2 Th1 44.736(19) 5_656 .
P2 P2 Th1 44.736(19) 5_666 .
Cu1 P2 Cu1 59.234(11) 6_657 6_667
Cu2 P2 Cu1 175.18(3) 2 6_667
Cu2 P2 Cu1 66.262(14) 2_565 6_667
Cu2 P2 Cu1 113.392(16) 6_656 6_667
Th1 P2 Cu1 116.22(2) 2 6_667
Th1 P2 Cu1 50.492(9) 2_565 6_667
Th1 P2 Cu1 48.364(9) 5_666 6_667
Th1 P2 Cu1 113.33(2) 5_656 6_667
P1 P2 Cu1 67.060(14) 1_556 6_667
P1 P2 Cu1 141.19(2) 2 6_667
P1 P2 Cu1 82.494(12) 2_565 6_667
P1 P2 Cu1 97.350(17) 6_656 6_667
Cu1 P2 Cu1 105.359(16) . 6_667
P2 P2 Cu1 30.766(11) 1_565 6_667
P2 P2 Cu1 149.235(11) 1_545 6_667
P1 P2 Cu1 30.989(9) 5_666 6_667
P1 P2 Cu1 89.595(19) 5_656 6_667
P2 P2 Cu1 144.36(3) 5_656 6_667
P2 P2 Cu1 90.011(9) 5_666 6_667
Th1 P2 Cu1 120.179(12) . 6_667
Cu1 P2 Cu1 59.234(11) 6_657 6_647
Cu2 P2 Cu1 66.262(14) 2 6_647
Cu2 P2 Cu1 175.18(3) 2_565 6_647
Cu2 P2 Cu1 113.392(16) 6_656 6_647
Th1 P2 Cu1 50.492(9) 2 6_647
Th1 P2 Cu1 116.22(2) 2_565 6_647
Th1 P2 Cu1 113.33(2) 5_666 6_647
Th1 P2 Cu1 48.364(9) 5_656 6_647
P1 P2 Cu1 67.060(14) 1_556 6_647
P1 P2 Cu1 82.494(12) 2 6_647
P1 P2 Cu1 141.19(2) 2_565 6_647
P1 P2 Cu1 97.350(17) 6_656 6_647
Cu1 P2 Cu1 105.359(16) . 6_647
P2 P2 Cu1 149.235(11) 1_565 6_647
P2 P2 Cu1 30.766(11) 1_545 6_647
P1 P2 Cu1 89.595(19) 5_666 6_647
P1 P2 Cu1 30.989(9) 5_656 6_647
P2 P2 Cu1 90.011(9) 5_656 6_647
P2 P2 Cu1 144.36(3) 5_666 6_647
Th1 P2 Cu1 120.179(12) . 6_647
Cu1 P2 Cu1 118.47(2) 6_667 6_647
Cu1 P2 Cu1 33.379(15) 6_657 2_565
Cu2 P2 Cu1 147.08(3) 2 2_565
Cu2 P2 Cu1 98.123(17) 2_565 2_565
Cu2 P2 Cu1 149.94(2) 6_656 2_565
Th1 P2 Cu1 81.37(2) 2 2_565
Th1 P2 Cu1 46.529(12) 2_565 2_565
Th1 P2 Cu1 76.831(15) 5_666 2_565
Th1 P2 Cu1 107.54(2) 5_656 2_565
P1 P2 Cu1 30.734(11) 1_556 2_565
P1 P2 Cu1 124.20(3) 2 2_565
P1 P2 Cu1 96.202(19) 2_565 2_565
P1 P2 Cu1 122.86(3) 6_656 2_565
Cu1 P2 Cu1 97.90(2) . 2_565
P2 P2 Cu1 64.611(6) 1_565 2_565
P2 P2 Cu1 115.390(6) 1_545 2_565
P1 P2 Cu1 32.072(16) 5_666 2_565
P1 P2 Cu1 64.967(18) 5_656 2_565
P2 P2 Cu1 175.99(3) 5_656 2_565
P2 P2 Cu1 126.308(9) 5_666 2_565
Th1 P2 Cu1 139.19(2) . 2_565
Cu1 P2 Cu1 37.290(10) 6_667 2_565
Cu1 P2 Cu1 86.633(16) 6_647 2_565
Cu1 P2 Cu1 33.379(15) 6_657 2
Cu2 P2 Cu1 98.123(18) 2 2
Cu2 P2 Cu1 147.08(3) 2_565 2
Cu2 P2 Cu1 149.94(2) 6_656 2
Th1 P2 Cu1 46.529(12) 2 2
Th1 P2 Cu1 81.37(2) 2_565 2
Th1 P2 Cu1 107.54(2) 5_666 2
Th1 P2 Cu1 76.831(15) 5_656 2
P1 P2 Cu1 30.734(11) 1_556 2
P1 P2 Cu1 96.202(19) 2 2
P1 P2 Cu1 124.20(3) 2_565 2
P1 P2 Cu1 122.86(3) 6_656 2
Cu1 P2 Cu1 97.90(2) . 2
P2 P2 Cu1 115.390(6) 1_565 2
P2 P2 Cu1 64.611(6) 1_545 2
P1 P2 Cu1 64.967(18) 5_666 2
P1 P2 Cu1 32.072(16) 5_656 2
P2 P2 Cu1 126.308(8) 5_656 2
P2 P2 Cu1 175.99(3) 5_666 2
Th1 P2 Cu1 139.19(2) . 2
Cu1 P2 Cu1 86.633(16) 6_667 2
Cu1 P2 Cu1 37.290(10) 6_647 2
Cu1 P2 Cu1 50.779(12) 2_565 2
Cu1 P2 Cu2 114.239(17) 6_657 6_646
Cu2 P2 Cu2 20.836(19) 2 6_646
Cu2 P2 Cu2 116.56(3) 2_565 6_646
Cu2 P2 Cu2 58.065(11) 6_656 6_646
Th1 P2 Cu2 78.320(8) 2 6_646
Th1 P2 Cu2 149.57(3) 2_565 6_646
Th1 P2 Cu2 112.58(2) 5_666 6_646
Th1 P2 Cu2 48.435(9) 5_656 6_646
P1 P2 Cu2 121.926(11) 1_556 6_646
P1 P2 Cu2 58.563(14) 2 6_646
P1 P2 Cu2 112.15(2) 2_565 6_646
P1 P2 Cu2 64.811(13) 6_656 6_646
Cu1 P2 Cu2 94.173(16) . 6_646
P2 P2 Cu2 148.065(11) 1_565 6_646
P2 P2 Cu2 31.934(11) 1_545 6_646
P1 P2 Cu2 134.33(2) 5_666 6_646
P1 P2 Cu2 81.898(13) 5_656 6_646
P2 P2 Cu2 31.295(7) 5_656 6_646
P2 P2 Cu2 87.02(2) 5_666 6_646
Th1 P2 Cu2 70.016(13) . 6_646
Cu1 P2 Cu2 159.92(3) 6_667 6_646
Cu1 P2 Cu2 58.721(9) 6_647 6_646
Cu1 P2 Cu2 145.254(17) 2_565 6_646
Cu1 P2 Cu2 95.390(8) 2 6_646
Cu1 P2 Cu2 114.239(17) 6_657 6_666
Cu2 P2 Cu2 116.56(3) 2 6_666
Cu2 P2 Cu2 20.836(19) 2_565 6_666
Cu2 P2 Cu2 58.065(11) 6_656 6_666
Th1 P2 Cu2 149.57(3) 2 6_666
Th1 P2 Cu2 78.320(8) 2_565 6_666
Th1 P2 Cu2 48.435(9) 5_666 6_666
Th1 P2 Cu2 112.58(2) 5_656 6_666
P1 P2 Cu2 121.926(11) 1_556 6_666
P1 P2 Cu2 112.15(2) 2 6_666
P1 P2 Cu2 58.563(14) 2_565 6_666
P1 P2 Cu2 64.811(13) 6_656 6_666
Cu1 P2 Cu2 94.173(16) . 6_666
P2 P2 Cu2 31.934(11) 1_565 6_666
P2 P2 Cu2 148.065(11) 1_545 6_666
P1 P2 Cu2 81.898(13) 5_666 6_666
P1 P2 Cu2 134.33(2) 5_656 6_666
P2 P2 Cu2 87.02(2) 5_656 6_666
P2 P2 Cu2 31.295(7) 5_666 6_666
Th1 P2 Cu2 70.016(13) . 6_666
Cu1 P2 Cu2 58.721(9) 6_667 6_666
Cu1 P2 Cu2 159.92(3) 6_647 6_666
Cu1 P2 Cu2 95.390(8) 2_565 6_666
Cu1 P2 Cu2 145.254(17) 2 6_666
Cu2 P2 Cu2 116.13(2) 6_646 6_666
Cu1 P2 P2 54.95(3) 6_657 6_657
Cu2 P2 P2 108.67(3) 2 6_657
Cu2 P2 P2 108.67(3) 2_565 6_657
Cu2 P2 P2 85.96(3) 6_656 6_657
Th1 P2 P2 120.61(3) 2 6_657
Th1 P2 P2 120.61(3) 2_565 6_657
Th1 P2 P2 40.715(10) 5_666 6_657
Th1 P2 P2 40.715(10) 5_656 6_657
P1 P2 P2 95.31(3) 1_556 6_657
P1 P2 P2 145.648(16) 2 6_657
P1 P2 P2 145.648(16) 2_565 6_657
P1 P2 P2 49.535(19) 6_656 6_657
Cu1 P2 P2 176.13(4) . 6_657
P2 P2 P2 90.0 1_565 6_657
P2 P2 P2 90.0 1_545 6_657
P1 P2 P2 49.31(2) 5_666 6_657
P1 P2 P2 49.31(2) 5_656 6_657
P2 P2 P2 98.30(3) 5_656 6_657
P2 P2 P2 98.30(3) 5_666 6_657
Th1 P2 P2 135.71(3) . 6_657
Cu1 P2 P2 72.915(17) 6_667 6_657
Cu1 P2 P2 72.915(17) 6_647 6_657
Cu1 P2 P2 78.62(2) 2_565 6_657
Cu1 P2 P2 78.62(2) 2 6_657
Cu2 P2 P2 87.865(15) 6_646 6_657
Cu2 P2 P2 87.865(15) 6_666 6_657
Cu1 P2 P2 91.90(4) 6_657 6_557
Cu2 P2 P2 89.83(3) 2 6_557
Cu2 P2 P2 89.83(3) 2_565 6_557
Cu2 P2 P2 127.19(4) 6_656 6_557
Th1 P2 P2 41.534(14) 2 6_557
Th1 P2 P2 41.534(14) 2_565 6_557
Th1 P2 P2 138.606(18) 5_666 6_557
Th1 P2 P2 138.606(18) 5_656 6_557
P1 P2 P2 51.54(3) 1_556 6_557
P1 P2 P2 54.239(18) 2 6_557
P1 P2 P2 54.239(18) 2_565 6_557
P1 P2 P2 163.62(4) 6_656 6_557
Cu1 P2 P2 29.287(11) . 6_557
P2 P2 P2 90.0 1_565 6_557
P2 P2 P2 90.0 1_545 6_557
P1 P2 P2 103.39(3) 5_666 6_557
P1 P2 P2 103.39(3) 5_656 6_557
P2 P2 P2 110.76(3) 5_656 6_557
P2 P2 P2 110.76(3) 5_666 6_557
Th1 P2 P2 77.443(19) . 6_557
Cu1 P2 P2 90.970(19) 6_667 6_557
Cu1 P2 P2 90.970(19) 6_647 6_557
Cu1 P2 P2 71.52(2) 2_565 6_557
Cu1 P2 P2 71.52(2) 2 6_557
Cu2 P2 P2 108.648(15) 6_646 6_557
Cu2 P2 P2 108.648(15) 6_666 6_557
P2 P2 P2 146.84(4) 6_657 6_557
Cu1 P2 Cu2 63.85(2) 6_657 1_556
Cu2 P2 Cu2 105.69(3) 2 1_556
Cu2 P2 Cu2 105.69(3) 2_565 1_556
Cu2 P2 Cu2 155.24(4) 6_656 1_556
Th1 P2 Cu2 40.387(12) 2 1_556
Th1 P2 Cu2 40.387(12) 2_565 1_556
Th1 P2 Cu2 123.392(19) 5_666 1_556
Th1 P2 Cu2 123.392(19) 5_656 1_556
P1 P2 Cu2 23.487(17) 1_556 1_556
P1 P2 Cu2 76.90(2) 2 1_556
P1 P2 Cu2 76.90(2) 2_565 1_556
P1 P2 Cu2 168.33(3) 6_656 1_556
Cu1 P2 Cu2 57.335(15) . 1_556
P2 P2 Cu2 90.0 1_565 1_556
P2 P2 Cu2 90.0 1_545 1_556
P1 P2 Cu2 79.07(2) 5_666 1_556
P1 P2 Cu2 79.07(2) 5_656 1_556
P2 P2 Cu2 133.81(3) 5_656 1_556
P2 P2 Cu2 133.81(3) 5_666 1_556
Th1 P2 Cu2 105.49(2) . 1_556
Cu1 P2 Cu2 76.970(14) 6_667 1_556
Cu1 P2 Cu2 76.970(14) 6_647 1_556
Cu1 P2 Cu2 47.351(11) 2_565 1_556
Cu1 P2 Cu2 47.351(11) 2 1_556
Cu2 P2 Cu2 118.707(13) 6_646 1_556
Cu2 P2 Cu2 118.707(13) 6_666 1_556
P2 P2 Cu2 118.80(3) 6_657 1_556
P2 P2 Cu2 28.049(17) 6_557 1_556
Cu1 P2 Cu2 43.334(19) 6_657 5_666
Cu2 P2 Cu2 135.48(3) 2 5_666
Cu2 P2 Cu2 96.47(2) 2_565 5_666
Cu2 P2 Cu2 101.51(3) 6_656 5_666
Th1 P2 Cu2 122.02(2) 2 5_666
Th1 P2 Cu2 93.879(16) 2_565 5_666
Th1 P2 Cu2 32.039(11) 5_666 5_666
Th1 P2 Cu2 66.883(17) 5_656 5_666
P1 P2 Cu2 79.66(2) 1_556 5_666
P1 P2 Cu2 169.299(15) 2 5_666
P1 P2 Cu2 126.312(10) 2_565 5_666
P1 P2 Cu2 67.76(2) 6_656 5_666
Cu1 P2 Cu2 150.665(17) . 5_666
P2 P2 Cu2 68.363(5) 1_565 5_666
P2 P2 Cu2 111.638(4) 1_545 5_666
P1 P2 Cu2 23.821(15) 5_666 5_666
P1 P2 Cu2 56.635(15) 5_656 5_666
P2 P2 Cu2 122.12(3) 5_656 5_666
P2 P2 Cu2 100.55(3) 5_666 5_666
Th1 P2 Cu2 145.272(18) . 5_666
Cu1 P2 Cu2 46.457(10) 6_667 5_666
Cu1 P2 Cu2 86.834(16) 6_647 5_666
Cu1 P2 Cu2 55.532(12) 2_565 5_666
Cu1 P2 Cu2 75.537(15) 2 5_666
Cu2 P2 Cu2 114.739(18) 6_646 5_666
Cu2 P2 Cu2 78.033(11) 6_666 5_666
P2 P2 Cu2 26.932(11) 6_657 5_666
P2 P2 Cu2 127.05(3) 6_557 5_666
Cu2 P2 Cu2 101.475(17) 1_556 5_666
Cu1 P2 Cu2 43.334(19) 6_657 5_656
Cu2 P2 Cu2 96.47(2) 2 5_656
Cu2 P2 Cu2 135.48(3) 2_565 5_656
Cu2 P2 Cu2 101.51(3) 6_656 5_656
Th1 P2 Cu2 93.879(16) 2 5_656
Th1 P2 Cu2 122.02(2) 2_565 5_656
Th1 P2 Cu2 66.883(17) 5_666 5_656
Th1 P2 Cu2 32.039(11) 5_656 5_656
P1 P2 Cu2 79.66(2) 1_556 5_656
P1 P2 Cu2 126.312(9) 2 5_656
P1 P2 Cu2 169.299(15) 2_565 5_656
P1 P2 Cu2 67.76(2) 6_656 5_656
Cu1 P2 Cu2 150.665(17) . 5_656
P2 P2 Cu2 111.638(4) 1_565 5_656
P2 P2 Cu2 68.364(4) 1_545 5_656
P1 P2 Cu2 56.635(15) 5_666 5_656
P1 P2 Cu2 23.821(15) 5_656 5_656
P2 P2 Cu2 100.55(3) 5_656 5_656
P2 P2 Cu2 122.12(3) 5_666 5_656
Th1 P2 Cu2 145.272(18) . 5_656
Cu1 P2 Cu2 86.834(16) 6_667 5_656
Cu1 P2 Cu2 46.457(10) 6_647 5_656
Cu1 P2 Cu2 75.537(15) 2_565 5_656
Cu1 P2 Cu2 55.532(12) 2 5_656
Cu2 P2 Cu2 78.033(11) 6_646 5_656
Cu2 P2 Cu2 114.739(18) 6_666 5_656
P2 P2 Cu2 26.932(11) 6_657 5_656
P2 P2 Cu2 127.05(3) 6_557 5_656
Cu2 P2 Cu2 101.475(17) 1_556 5_656
Cu2 P2 Cu2 43.274(9) 5_666 5_656
Cu1 P2 Cu1 80.75(3) 6_657 1_655
Cu2 P2 Cu1 94.43(3) 2 1_655
Cu2 P2 Cu1 94.43(3) 2_565 1_655
Cu2 P2 Cu1 60.16(2) 6_656 1_655
Th1 P2 Cu1 135.636(16) 2 1_655
Th1 P2 Cu1 135.636(17) 2_565 1_655
Th1 P2 Cu1 39.249(12) 5_666 1_655
Th1 P2 Cu1 39.249(12) 5_656 1_655
P1 P2 Cu1 121.11(3) 1_556 1_655
P1 P2 Cu1 131.17(2) 2 1_655
P1 P2 Cu1 131.17(2) 2_565 1_655
P1 P2 Cu1 23.730(16) 6_656 1_655
Cu1 P2 Cu1 158.06(3) . 1_655
P2 P2 Cu1 90.0 1_565 1_655
P2 P2 Cu1 90.0 1_545 1_655
P1 P2 Cu1 70.32(2) 5_666 1_655
P1 P2 Cu1 70.32(2) 5_656 1_655
P2 P2 Cu1 75.62(3) 5_656 1_655
P2 P2 Cu1 75.62(3) 5_666 1_655
Th1 P2 Cu1 109.91(2) . 1_655
Cu1 P2 Cu1 85.285(15) 6_667 1_655
Cu1 P2 Cu1 85.285(15) 6_647 1_655
Cu1 P2 Cu1 101.893(18) 2_565 1_655
Cu1 P2 Cu1 101.893(18) 2 1_655
Cu2 P2 Cu1 74.738(13) 6_646 1_655
Cu2 P2 Cu1 74.738(13) 6_666 1_655
P2 P2 Cu1 25.805(13) 6_657 1_655
P2 P2 Cu1 172.65(3) 6_557 1_655
Cu2 P2 Cu1 144.60(2) 1_556 1_655
Cu2 P2 Cu1 46.517(11) 5_666 1_655
Cu2 P2 Cu1 46.517(11) 5_656 1_655
Cu1 P2 P1 58.568(16) 6_657 1_566
Cu2 P2 P1 154.62(4) 2 1_566
Cu2 P2 P1 73.522(18) 2_565 1_566
Cu2 P2 P1 133.174(10) 6_656 1_566
Th1 P2 P1 91.35(2) 2 1_566
Th1 P2 P1 26.978(12) 2_565 1_566
Th1 P2 P1 75.056(13) 5_666 1_566
Th1 P2 P1 129.94(3) 5_656 1_566
P1 P2 P1 46.812(10) 1_556 1_566
P1 P2 P1 117.83(2) 2 1_566
P1 P2 P1 72.226(12) 2_565 1_566
P1 P2 P1 124.02(2) 6_656 1_566
Cu1 P2 P1 83.733(18) . 1_566
P2 P2 P1 43.188(10) 1_565 1_566
P2 P2 P1 136.813(10) 1_545 1_566
P1 P2 P1 44.68(2) 5_666 1_566
P1 P2 P1 90.597(18) 5_656 1_566
P2 P2 P1 158.11(3) 5_656 1_566
P2 P2 P1 103.799(11) 5_666 1_566
Th1 P2 P1 115.500(17) . 1_566
Cu1 P2 P1 26.714(11) 6_667 1_566
Cu1 P2 P1 111.08(2) 6_647 1_566
Cu1 P2 P1 25.725(10) 2_565 1_566
Cu1 P2 P1 74.000(15) 2 1_566
Cu2 P2 P1 168.721(19) 6_646 1_566
Cu2 P2 P1 75.117(10) 6_666 1_566
P2 P2 P1 93.63(2) 6_657 1_566
P2 P2 P1 64.805(19) 6_557 1_566
Cu2 P2 P1 51.120(11) 1_556 1_566
Cu2 P2 P1 66.944(14) 5_666 1_566
Cu2 P2 P1 98.398(18) 5_656 1_566
Cu1 P2 P1 110.711(17) 1_655 1_566
Cu1 P2 P1 58.568(16) 6_657 1_546
Cu2 P2 P1 73.522(18) 2 1_546
Cu2 P2 P1 154.62(4) 2_565 1_546
Cu2 P2 P1 133.174(10) 6_656 1_546
Th1 P2 P1 26.978(12) 2 1_546
Th1 P2 P1 91.35(2) 2_565 1_546
Th1 P2 P1 129.94(3) 5_666 1_546
Th1 P2 P1 75.056(13) 5_656 1_546
P1 P2 P1 46.812(10) 1_556 1_546
P1 P2 P1 72.226(13) 2 1_546
P1 P2 P1 117.83(2) 2_565 1_546
P1 P2 P1 124.02(2) 6_656 1_546
Cu1 P2 P1 83.733(17) . 1_546
P2 P2 P1 136.813(10) 1_565 1_546
P2 P2 P1 43.188(10) 1_545 1_546
P1 P2 P1 90.597(18) 5_666 1_546
P1 P2 P1 44.68(2) 5_656 1_546
P2 P2 P1 103.799(11) 5_656 1_546
P2 P2 P1 158.11(3) 5_666 1_546
Th1 P2 P1 115.500(17) . 1_546
Cu1 P2 P1 111.08(2) 6_667 1_546
Cu1 P2 P1 26.714(11) 6_647 1_546
Cu1 P2 P1 74.000(15) 2_565 1_546
Cu1 P2 P1 25.725(9) 2 1_546
Cu2 P2 P1 75.117(10) 6_646 1_546
Cu2 P2 P1 168.721(19) 6_666 1_546
P2 P2 P1 93.63(2) 6_657 1_546
P2 P2 P1 64.805(18) 6_557 1_546
Cu2 P2 P1 51.120(11) 1_556 1_546
Cu2 P2 P1 98.398(18) 5_666 1_546
Cu2 P2 P1 66.944(14) 5_656 1_546
Cu1 P2 P1 110.711(17) 1_655 1_546
P1 P2 P1 93.62(2) 1_566 1_546
Cu1 P2 Cu1 103.50(3) 6_657 5_666
Cu2 P2 Cu1 98.21(3) 2 5_666
Cu2 P2 Cu1 63.70(2) 2_565 5_666
Cu2 P2 Cu1 41.338(18) 6_656 5_666
Th1 P2 Cu1 162.236(15) 2 5_666
Th1 P2 Cu1 120.060(8) 2_565 5_666
Th1 P2 Cu1 33.799(11) 5_666 5_666
Th1 P2 Cu1 67.238(17) 5_656 5_666
P1 P2 Cu1 139.72(2) 1_556 5_666
P1 P2 Cu1 123.48(3) 2 5_666
P1 P2 Cu1 99.829(19) 2_565 5_666
P1 P2 Cu1 21.089(4) 6_656 5_666
Cu1 P2 Cu1 130.69(2) . 5_666
P2 P2 Cu1 68.911(5) 1_565 5_666
P2 P2 Cu1 111.089(4) 1_545 5_666
P1 P2 Cu1 80.52(2) 5_666 5_666
P1 P2 Cu1 101.03(2) 5_656 5_666
P2 P2 Cu1 68.92(2) 5_656 5_666
P2 P2 Cu1 45.59(2) 5_666 5_666
Th1 P2 Cu1 86.424(16) . 5_666
Cu1 P2 Cu1 79.063(11) 6_667 5_666
Cu1 P2 Cu1 115.380(18) 6_647 5_666
Cu1 P2 Cu1 110.617(16) 2_565 5_666
Cu1 P2 Cu1 131.35(2) 2 5_666
Cu2 P2 Cu1 84.733(15) 6_646 5_666
Cu2 P2 Cu1 45.371(9) 6_666 5_666
P2 P2 Cu1 52.743(15) 6_657 5_666
P2 P2 Cu1 153.522(18) 6_557 5_666
Cu2 P2 Cu1 156.032(11) 1_556 5_666
Cu2 P2 Cu1 60.944(13) 5_666 5_666
Cu2 P2 Cu1 77.272(15) 5_656 5_666
Cu1 P2 Cu1 31.343(9) 1_655 5_666
P1 P2 Cu1 105.057(12) 1_566 5_666
P1 P2 Cu1 141.673(19) 1_546 5_666
Cu1 P2 Cu1 103.50(3) 6_657 5_656
Cu2 P2 Cu1 63.70(2) 2 5_656
Cu2 P2 Cu1 98.21(3) 2_565 5_656
Cu2 P2 Cu1 41.338(18) 6_656 5_656
Th1 P2 Cu1 120.060(8) 2 5_656
Th1 P2 Cu1 162.236(15) 2_565 5_656
Th1 P2 Cu1 67.238(17) 5_666 5_656
Th1 P2 Cu1 33.799(11) 5_656 5_656
P1 P2 Cu1 139.72(2) 1_556 5_656
P1 P2 Cu1 99.829(19) 2 5_656
P1 P2 Cu1 123.48(3) 2_565 5_656
P1 P2 Cu1 21.089(4) 6_656 5_656
Cu1 P2 Cu1 130.69(2) . 5_656
P2 P2 Cu1 111.089(4) 1_565 5_656
P2 P2 Cu1 68.911(4) 1_545 5_656
P1 P2 Cu1 101.03(2) 5_666 5_656
P1 P2 Cu1 80.52(2) 5_656 5_656
P2 P2 Cu1 45.59(2) 5_656 5_656
P2 P2 Cu1 68.92(2) 5_666 5_656
Th1 P2 Cu1 86.424(16) . 5_656
Cu1 P2 Cu1 115.380(18) 6_667 5_656
Cu1 P2 Cu1 79.063(11) 6_647 5_656
Cu1 P2 Cu1 131.35(2) 2_565 5_656
Cu1 P2 Cu1 110.617(16) 2 5_656
Cu2 P2 Cu1 45.371(9) 6_646 5_656
Cu2 P2 Cu1 84.733(15) 6_666 5_656
P2 P2 Cu1 52.743(15) 6_657 5_656
P2 P2 Cu1 153.522(18) 6_557 5_656
Cu2 P2 Cu1 156.032(11) 1_556 5_656
Cu2 P2 Cu1 77.272(15) 5_666 5_656
Cu2 P2 Cu1 60.944(13) 5_656 5_656
Cu1 P2 Cu1 31.343(9) 1_655 5_656
P1 P2 Cu1 141.673(19) 1_566 5_656
P1 P2 Cu1 105.057(12) 1_546 5_656
Cu1 P2 Cu1 42.178(9) 5_666 5_656
Cu1 P2 P1 100.01(2) 6_657 6_666
Cu2 P2 P1 118.28(3) 2 6_666
Cu2 P2 P1 45.79(2) 2_565 6_666
Cu2 P2 P1 56.010(16) 6_656 6_666
Th1 P2 P1 172.86(2) 2 6_666
Th1 P2 P1 95.160(9) 2_565 6_666
Th1 P2 P1 26.190(12) 5_666 6_666
Th1 P2 P1 89.44(2) 5_656 6_666
P1 P2 P1 124.615(16) 1_556 6_666
P1 P2 P1 130.53(2) 2 6_666
P1 P2 P1 83.59(2) 2_565 6_666
P1 P2 P1 45.989(10) 6_656 6_666
Cu1 P2 P1 119.048(17) . 6_666
P2 P2 P1 44.011(10) 1_565 6_666
P2 P2 P1 135.989(10) 1_545 6_666
P1 P2 P1 69.755(10) 5_666 6_666
P1 P2 P1 111.44(2) 5_656 6_666
P2 P2 P1 86.88(3) 5_656 6_666
P2 P2 P1 42.743(18) 5_666 6_666
Th1 P2 P1 87.345(17) . 6_666
Cu1 P2 P1 58.055(11) 6_667 6_666
Cu1 P2 P1 134.98(2) 6_647 6_666
Cu1 P2 P1 93.936(13) 2_565 6_666
Cu1 P2 P1 133.27(2) 2 6_666
Cu2 P2 P1 108.34(2) 6_646 6_666
Cu2 P2 P1 25.032(11) 6_666 6_666
P2 P2 P1 63.198(14) 6_657 6_666
P2 P2 P1 131.805(12) 6_557 6_666
Cu2 P2 P1 132.877(11) 1_556 6_666
Cu2 P2 P1 58.119(14) 5_666 6_666
Cu2 P2 P1 90.128(18) 5_656 6_666
Cu1 P2 P1 50.502(12) 1_655 6_666
P1 P2 P1 82.206(13) 1_566 6_666
P1 P2 P1 155.95(3) 1_546 6_666
Cu1 P2 P1 24.900(8) 5_666 6_666
Cu1 P2 P1 67.078(14) 5_656 6_666
Cu1 P2 P1 100.01(2) 6_657 6_646
Cu2 P2 P1 45.79(2) 2 6_646
Cu2 P2 P1 118.28(3) 2_565 6_646
Cu2 P2 P1 56.010(16) 6_656 6_646
Th1 P2 P1 95.160(9) 2 6_646
Th1 P2 P1 172.86(2) 2_565 6_646
Th1 P2 P1 89.44(2) 5_666 6_646
Th1 P2 P1 26.190(12) 5_656 6_646
P1 P2 P1 124.615(15) 1_556 6_646
P1 P2 P1 83.59(2) 2 6_646
P1 P2 P1 130.53(2) 2_565 6_646
P1 P2 P1 45.989(10) 6_656 6_646
Cu1 P2 P1 119.048(17) . 6_646
P2 P2 P1 135.989(10) 1_565 6_646
P2 P2 P1 44.011(10) 1_545 6_646
P1 P2 P1 111.44(2) 5_666 6_646
P1 P2 P1 69.755(11) 5_656 6_646
P2 P2 P1 42.743(18) 5_656 6_646
P2 P2 P1 86.88(3) 5_666 6_646
Th1 P2 P1 87.345(17) . 6_646
Cu1 P2 P1 134.98(2) 6_667 6_646
Cu1 P2 P1 58.055(12) 6_647 6_646
Cu1 P2 P1 133.27(2) 2_565 6_646
Cu1 P2 P1 93.936(13) 2 6_646
Cu2 P2 P1 25.032(11) 6_646 6_646
Cu2 P2 P1 108.34(2) 6_666 6_646
P2 P2 P1 63.198(14) 6_657 6_646
P2 P2 P1 131.805(12) 6_557 6_646
Cu2 P2 P1 132.877(11) 1_556 6_646
Cu2 P2 P1 90.128(18) 5_666 6_646
Cu2 P2 P1 58.119(14) 5_656 6_646
Cu1 P2 P1 50.502(12) 1_655 6_646
P1 P2 P1 155.95(3) 1_566 6_646
P1 P2 P1 82.206(13) 1_546 6_646
Cu1 P2 P1 67.078(14) 5_666 6_646
Cu1 P2 P1 24.900(8) 5_656 6_646
P1 P2 P1 91.98(2) 6_666 6_646
Cu1 P2 Cu1 111.43(2) 6_657 1_545
Cu2 P2 Cu1 38.823(19) 2 1_545
Cu2 P2 Cu1 111.98(3) 2_565 1_545
Cu2 P2 Cu1 95.57(2) 6_656 1_545
Th1 P2 Cu1 33.800(10) 2 1_545
Th1 P2 Cu1 93.31(2) 2_565 1_545
Th1 P2 Cu1 168.80(2) 5_666 1_545
Th1 P2 Cu1 96.121(7) 5_656 1_545
P1 P2 Cu1 83.537(18) 1_556 1_545
P1 P2 Cu1 18.715(12) 2 1_545
P1 P2 Cu1 78.640(18) 2_565 1_545
P1 P2 Cu1 119.552(17) 6_656 1_545
Cu1 P2 Cu1 45.108(8) . 1_545
P2 P2 Cu1 135.107(8) 1_565 1_545
P2 P2 Cu1 44.892(8) 1_545 1_545
P1 P2 Cu1 141.46(2) 5_666 1_545
P1 P2 Cu1 94.660(13) 5_656 1_545
P2 P2 Cu1 66.720(19) 5_656 1_545
P2 P2 Cu1 105.94(3) 5_666 1_545
Th1 P2 Cu1 61.912(11) . 1_545
Cu1 P2 Cu1 142.72(2) 6_667 1_545
Cu1 P2 Cu1 65.052(8) 6_647 1_545
Cu1 P2 Cu1 113.626(19) 2_565 1_545
Cu1 P2 Cu1 78.068(11) 2 1_545
Cu2 P2 Cu1 56.643(9) 6_646 1_545
Cu2 P2 Cu1 130.74(2) 6_666 1_545
P2 P2 Cu1 134.762(9) 6_657 1_545
P2 P2 Cu1 52.007(10) 6_557 1_545
Cu2 P2 Cu1 67.609(12) 1_556 1_545
Cu2 P2 Cu1 151.222(15) 5_666 1_545
Cu2 P2 Cu1 110.736(7) 5_656 1_545
Cu1 P2 Cu1 130.895(11) 1_655 1_545
P1 P2 Cu1 116.07(2) 1_566 1_545
P1 P2 Cu1 53.589(12) 1_546 1_545
Cu1 P2 Cu1 135.644(16) 5_666 1_545
Cu1 P2 Cu1 101.841(10) 5_656 1_545
P1 P2 Cu1 148.45(2) 6_666 1_545
P1 P2 Cu1 80.396(11) 6_646 1_545
Cu1 P2 Cu1 111.43(2) 6_657 1_565
Cu2 P2 Cu1 111.98(3) 2 1_565
Cu2 P2 Cu1 38.823(19) 2_565 1_565
Cu2 P2 Cu1 95.57(2) 6_656 1_565
Th1 P2 Cu1 93.31(2) 2 1_565
Th1 P2 Cu1 33.800(10) 2_565 1_565
Th1 P2 Cu1 96.121(7) 5_666 1_565
Th1 P2 Cu1 168.80(2) 5_656 1_565
P1 P2 Cu1 83.537(18) 1_556 1_565
P1 P2 Cu1 78.640(18) 2 1_565
P1 P2 Cu1 18.715(12) 2_565 1_565
P1 P2 Cu1 119.552(17) 6_656 1_565
Cu1 P2 Cu1 45.108(8) . 1_565
P2 P2 Cu1 44.892(8) 1_565 1_565
P2 P2 Cu1 135.107(8) 1_545 1_565
P1 P2 Cu1 94.660(13) 5_666 1_565
P1 P2 Cu1 141.46(2) 5_656 1_565
P2 P2 Cu1 105.94(3) 5_656 1_565
P2 P2 Cu1 66.720(19) 5_666 1_565
Th1 P2 Cu1 61.912(11) . 1_565
Cu1 P2 Cu1 65.052(8) 6_667 1_565
Cu1 P2 Cu1 142.72(2) 6_647 1_565
Cu1 P2 Cu1 78.068(11) 2_565 1_565
Cu1 P2 Cu1 113.626(19) 2 1_565
Cu2 P2 Cu1 130.74(2) 6_646 1_565
Cu2 P2 Cu1 56.643(9) 6_666 1_565
P2 P2 Cu1 134.762(9) 6_657 1_565
P2 P2 Cu1 52.007(9) 6_557 1_565
Cu2 P2 Cu1 67.609(12) 1_556 1_565
Cu2 P2 Cu1 110.736(7) 5_666 1_565
Cu2 P2 Cu1 151.222(15) 5_656 1_565
Cu1 P2 Cu1 130.895(11) 1_655 1_565
P1 P2 Cu1 53.589(12) 1_566 1_565
P1 P2 Cu1 116.07(2) 1_546 1_565
Cu1 P2 Cu1 101.841(10) 5_666 1_565
Cu1 P2 Cu1 135.644(16) 5_656 1_565
P1 P2 Cu1 80.396(11) 6_666 1_565
P1 P2 Cu1 148.45(2) 6_646 1_565
Cu1 P2 Cu1 90.215(16) 1_545 1_565
loop_
_geom_bond_atom_site_label_1
_geom_bond_atom_site_label_2
_geom_bond_distance
_geom_bond_site_symmetry_2
Th1 P1 2.9175(9) .
Th1 P1 2.9184(7) 2_565
Th1 P1 2.9184(7) 2
Th1 Cu2 3.0800(5) .
Th1 P2 3.0868(8) 2_554
Th1 P2 3.0868(8) 2_564
Th1 P2 3.1378(8) 5_666
Th1 P2 3.1378(8) 5_656
Th1 Cu2 3.1777(5) 6_656
Th1 Cu1 3.2774(5) .
Th1 Cu1 3.3714(4) 2_554
Th1 Cu1 3.3714(4) 2_564
Th1 Cu2 3.4160(4) 2_565
Th1 Cu2 3.4160(4) 2
Th1 Cu1 3.4841(4) 5_556
Th1 Cu1 3.4841(4) 5_566
Th1 Th1 3.8726(2) 1_545
Th1 Th1 3.87260(19) 1_565
Th1 P1 4.1457(9) 6_556
Th1 P2 4.1487(10) .
Th1 Th1 4.6653(2) 6_556
Th1 Th1 4.6653(3) 6_656
Th1 P1 4.8486(6) 1_545
Th1 P1 4.8486(6) 1_565
Th1 Cu1 4.8768(5) 6_656
Th1 Cu2 4.9480(3) 1_545
Th1 Cu2 4.9480(3) 1_565
Th1 Cu2 4.9647(5) 5
Th1 Cu2 4.9647(5) 5_565
Th1 Cu2 5.0095(3) 6_666
Th1 Cu2 5.0095(3) 6_646
Th1 Cu1 5.0733(4) 1_565
Th1 Cu1 5.0733(4) 1_545
Th1 Th1 5.2862(3) 2_554
Th1 Th1 5.2862(3) 2_564
Th1 Th1 5.2862(3) 2_565
Th1 Th1 5.2862(3) 2
Th1 P1 5.3980(10) 6_656
Th1 P1 5.4278(9) 5_665
Th1 P1 5.4278(9) 5_655
Cu1 P2 2.3054(10) 6_557
Cu1 P1 2.3210(6) 2_565
Cu1 P1 2.3210(6) 2
Cu1 P1 2.3994(10) 6_556
Cu1 Cu1 2.8846(7) 5_556
Cu1 Cu1 2.8846(7) 5_566
Cu1 Th1 3.3714(4) 2_565
Cu1 Th1 3.3714(4) 2
Cu1 Th1 3.4841(4) 5_556
Cu1 Th1 3.4841(4) 5_566
Cu1 P2 3.8581(11) .
Cu1 Cu1 3.87260(19) 1_565
Cu1 Cu1 3.8726(2) 1_545
Cu1 Cu2 3.9089(6) 2_565
Cu1 Cu2 3.9089(6) 2
Cu1 Cu2 4.1640(6) 5_566
Cu1 Cu2 4.1640(6) 5_556
Cu1 Cu2 4.4474(7) 1_556
Cu1 P2 4.5069(5) 6_567
Cu1 P2 4.5069(5) 6_547
Cu1 P2 4.5160(10) 2_554
Cu1 P2 4.5160(10) 2_564
Cu1 P1 4.5557(6) 6_546
Cu1 P1 4.5557(6) 6_566
Cu1 Cu2 4.5965(6) 6_556
Cu1 Cu2 4.8242(7) 6_656
Cu1 P1 4.8605(10) 1_556
Cu1 Th1 4.8768(5) 6_556
Cu1 Th1 5.0733(4) 1_545
Cu1 Th1 5.0733(4) 1_565
Cu1 P2 5.2932(11) 1_455
Cu1 P2 5.3814(10) 5_666
Cu1 P2 5.3814(10) 5_656
Cu1 Cu2 5.3932(8) .
Cu1 P1 5.4204(10) 5_566
Cu1 P1 5.4204(10) 5_556
Cu1 Cu1 5.4231(6) 6_557
Cu1 Cu1 5.4232(6) 6_657
Cu1 P2 5.4664(8) 1_565
Cu2 P1 2.3001(10) .
Cu2 P2 2.3785(6) 2_564
Cu2 P2 2.3785(6) 2_554
Cu2 P2 2.4137(10) 6_556
Cu2 Cu2 2.4885(6) 5
Cu2 Cu2 2.4885(6) 5_565
Cu2 Th1 3.1777(5) 6_556
Cu2 Th1 3.4160(4) 2_554
Cu2 Th1 3.4160(4) 2_564
Cu2 Cu2 3.87260(19) 1_565
Cu2 Cu2 3.8726(2) 1_545
Cu2 Cu1 3.9089(6) 2_564
Cu2 Cu1 3.9089(6) 2_554
Cu2 P1 4.0976(9) 5
Cu2 P1 4.0976(9) 5_565
Cu2 Cu1 4.1640(6) 5_566
Cu2 Cu1 4.1640(6) 5_556
Cu2 Cu1 4.4474(7) 1_554
Cu2 P1 4.5042(6) 1_565
Cu2 P1 4.5042(6) 1_545
Cu2 P2 4.5632(6) 6_546
Cu2 P2 4.5632(6) 6_566
Cu2 Cu1 4.5965(6) 6_656
Cu2 P1 4.7484(10) 6_556
Cu2 Cu1 4.8242(7) 6_556
Cu2 Th1 4.9481(3) 1_565
Cu2 Th1 4.9481(3) 1_545
Cu2 Th1 4.9647(5) 5
Cu2 Th1 4.9647(5) 5_565
Cu2 Th1 5.0094(3) 6_546
Cu2 Th1 5.0094(3) 6_566
Cu2 P2 5.1204(11) 1_554
Cu2 P1 5.1673(10) 2_565
Cu2 P1 5.1673(10) 2
Cu2 P2 5.2514(10) 5_666
Cu2 P2 5.2514(10) 5_656
Cu2 P1 5.5774(10) 2_554
Cu2 P1 5.5774(10) 2_564
P1 Cu1 2.3210(6) 2_564
P1 Cu1 2.3210(6) 2_554
P1 Cu1 2.3994(10) 6_656
P1 Th1 2.9184(7) 2_554
P1 Th1 2.9184(7) 2_564
P1 P2 3.6350(13) 1_554
P1 P2 3.6573(11) 2_554
P1 P2 3.6573(11) 2_564
P1 P1 3.7373(16) 5_665
P1 P1 3.7373(16) 5_655
P1 P2 3.7411(13) 6_556
P1 P1 3.87260(19) 1_565
P1 P1 3.8726(2) 1_545
P1 P2 3.9139(11) 5_666
P1 P2 3.9139(11) 5_656
P1 Cu2 4.0976(9) 5
P1 Cu2 4.0976(9) 5_565
P1 Th1 4.1457(9) 6_656
P1 Cu2 4.5042(6) 1_545
P1 Cu2 4.5042(6) 1_565
P1 Cu1 4.5557(6) 6_666
P1 Cu1 4.5557(6) 6_646
P1 Cu2 4.7484(11) 6_656
P1 Th1 4.8486(6) 1_565
P1 Th1 4.8486(6) 1_545
P1 Cu1 4.8605(10) 1_554
P1 Cu2 5.1673(10) 2_554
P1 Cu2 5.1673(10) 2_564
P1 P2 5.3114(9) 1_544
P1 P2 5.3114(9) 1_564
P1 P2 5.3845(9) 6_546
P1 P2 5.3845(9) 6_566
P1 Th1 5.3980(10) 6_556
P1 Cu1 5.4205(10) 5_566
P1 Cu1 5.4205(10) 5_556
P1 Th1 5.4278(9) 5_665
P1 Th1 5.4278(9) 5_655
P1 P1 5.4522(5) 2_554
P2 Cu1 2.3054(10) 6_657
P2 Cu2 2.3785(6) 2
P2 Cu2 2.3785(6) 2_565
P2 Cu2 2.4137(10) 6_656
P2 Th1 3.0868(8) 2
P2 Th1 3.0868(8) 2_565
P2 Th1 3.1378(8) 5_666
P2 Th1 3.1378(8) 5_656
P2 P1 3.6350(13) 1_556
P2 P1 3.6573(11) 2
P2 P1 3.6573(11) 2_565
P2 P1 3.7411(13) 6_656
P2 P2 3.87260(19) 1_565
P2 P2 3.8726(2) 1_545
P2 P1 3.9139(11) 5_666
P2 P1 3.9139(11) 5_656
P2 P2 4.0956(16) 5_656
P2 P2 4.0956(16) 5_666
P2 Cu1 4.5069(5) 6_667
P2 Cu1 4.5069(5) 6_647
P2 Cu1 4.5159(9) 2_565
P2 Cu1 4.5159(9) 2
P2 Cu2 4.5632(6) 6_646
P2 Cu2 4.5632(6) 6_666
P2 P2 4.6890(6) 6_657
P2 P2 4.6890(6) 6_557
P2 Cu2 5.1204(11) 1_556
P2 Cu2 5.2513(10) 5_666
P2 Cu2 5.2513(10) 5_656
P2 Cu1 5.2931(11) 1_655
P2 P1 5.3114(9) 1_566
P2 P1 5.3114(9) 1_546
P2 Cu1 5.3813(10) 5_666
P2 Cu1 5.3813(10) 5_656
P2 P1 5.3845(9) 6_666
P2 P1 5.3845(9) 6_646
P2 Cu1 5.4664(8) 1_545
P2 Cu1 5.4664(8) 1_565
